# generated using pymatgen
data_Cu15NiC12
_symmetry_space_group_name_H-M   'P 1'
_cell_length_a   5.51368069
_cell_length_b   13.33616522
_cell_length_c   5.51412223
_cell_angle_alpha   78.03675300
_cell_angle_beta   89.99122202
_cell_angle_gamma   78.01365810
_symmetry_Int_Tables_number   1
_chemical_formula_structural   Cu15NiC12
_chemical_formula_sum   'Cu15 Ni1 C12'
_cell_volume   387.61638067
_cell_formula_units_Z   1
loop_
 _symmetry_equiv_pos_site_id
 _symmetry_equiv_pos_as_xyz
  1  'x, y, z'
loop_
 _atom_site_type_symbol
 _atom_site_label
 _atom_site_symmetry_multiplicity
 _atom_site_fract_x
 _atom_site_fract_y
 _atom_site_fract_z
 _atom_site_occupancy
  C  C0  1  0.93142800  0.13777900  0.43116400  1
  C  C1  1  0.18150900  0.63779700  0.18117700  1
  C  C2  1  0.68110900  0.63778600  0.68121300  1
  C  C3  1  0.43144700  0.13778000  0.93151100  1
  C  C4  1  0.31857700  0.36221200  0.31885700  1
  C  C5  1  0.56860300  0.86222500  0.06852300  1
  C  C6  1  0.06851100  0.86222200  0.56881000  1
  C  C7  1  0.81883400  0.36220400  0.81874000  1
  C  C8  1  0.50000500  0.00000000  0.49999800  1
  C  C9  1  0.74999900  0.50000100  0.25000300  1
  C  C10  1  0.24999300  0.50000000  0.75001700  1
  C  C11  1  0.00000300  0.00000000  0.99998400  1
  Cu  Cu12  1  0.24543247  0.99684809  0.74347686  1
  Cu  Cu13  1  0.50121296  0.49576373  0.51339227  1
  Cu  Cu14  1  0.95330630  0.51212323  0.98357782  1
  Cu  Cu15  1  0.76917211  0.00629506  0.28465285  1
  Cu  Cu16  1  0.28868765  0.00411534  0.20836665  1
  Ni  Ni17  1  0.49995900  0.50000400  0.00001800  1
  Cu  Cu18  1  0.98779853  0.50710304  0.51618905  1
  Cu  Cu19  1  0.72975906  0.00053156  0.76661723  1
  Cu  Cu20  1  0.84945594  0.31517219  0.33401859  1
  Cu  Cu21  1  0.08003635  0.81816697  0.11021380  1
  Cu  Cu22  1  0.62236733  0.80933650  0.67225776  1
  Cu  Cu23  1  0.34218697  0.32076859  0.80627817  1
  Cu  Cu24  1  0.39855888  0.16889987  0.43454151  1
  Cu  Cu25  1  0.65169756  0.69701886  0.16224466  1
  Cu  Cu26  1  0.17088277  0.68583408  0.66414884  1
  Cu  Cu27  1  0.91705890  0.18150601  0.88453774  1
