# generated using pymatgen
data_Cu7NiC8
_symmetry_space_group_name_H-M   'P 1'
_cell_length_a   6.75977300
_cell_length_b   11.72622300
_cell_length_c   12.15412761
_cell_angle_alpha   89.68165044
_cell_angle_beta   90.00000000
_cell_angle_gamma   90.00000000
_symmetry_Int_Tables_number   1
_chemical_formula_structural   Cu7NiC8
_chemical_formula_sum   'Cu21 Ni3 C24'
_cell_volume   963.40156880
_cell_formula_units_Z   3
loop_
 _symmetry_equiv_pos_site_id
 _symmetry_equiv_pos_as_xyz
  1  'x, y, z'
loop_
 _atom_site_type_symbol
 _atom_site_label
 _atom_site_symmetry_multiplicity
 _atom_site_fract_x
 _atom_site_fract_y
 _atom_site_fract_z
 _atom_site_occupancy
  C  C0  1  0.01427400  0.82181200  0.09604700  1
  C  C1  1  0.85960100  0.84884600  0.47730100  1
  C  C2  1  0.35960100  0.15115400  0.02269900  1
  C  C3  1  0.46887300  0.28818100  0.61852600  1
  C  C4  1  0.14039900  0.15115400  0.52269900  1
  C  C5  1  0.53112700  0.71181900  0.38147400  1
  C  C6  1  0.03112700  0.28818100  0.11852600  1
  C  C7  1  0.24739800  0.37080400  0.92524100  1
  C  C8  1  0.64039900  0.84884600  0.97730100  1
  C  C9  1  0.25260200  0.37080400  0.42524100  1
  C  C10  1  0.48572600  0.82181200  0.59604700  1
  C  C11  1  0.51427400  0.17818800  0.40395300  1
  C  C12  1  0.75260200  0.62919600  0.07475900  1
  C  C13  1  0.96887300  0.71181900  0.88147400  1
  C  C14  1  0.74739800  0.62919600  0.57475900  1
  C  C15  1  0.98572600  0.17818800  0.90395300  1
  C  C16  1  0.30646400  0.89516400  0.69205300  1
  C  C17  1  0.65753200  0.49956800  0.15061800  1
  C  C18  1  0.80646400  0.10483600  0.80794700  1
  C  C19  1  0.84246800  0.49956800  0.65061800  1
  C  C20  1  0.34246800  0.50043200  0.84938200  1
  C  C21  1  0.19353600  0.89516400  0.19205300  1
  C  C22  1  0.69353600  0.10483600  0.30794700  1
  C  C23  1  0.15753200  0.50043200  0.34938200  1
  Cu  Cu24  1  0.68492009  0.89124381  0.56149868  1
  Cu  Cu25  1  0.41031212  0.77472465  0.46465533  1
  Cu  Cu26  1  0.62105284  0.69291692  0.63715250  1
  Cu  Cu27  1  0.22298920  0.20439898  0.13885596  1
  Cu  Cu28  1  0.91689117  0.69963794  0.14583969  1
  Cu  Cu29  1  0.43421263  0.27352720  0.95500954  1
  Cu  Cu30  1  0.84339834  0.59916162  0.96697018  1
  Cu  Cu31  1  0.14008229  0.37644210  0.04324168  1
  Cu  Cu32  1  0.90979540  0.23570078  0.03492161  1
  Cu  Cu33  1  0.35949161  0.37314191  0.54686492  1
  Cu  Cu34  1  0.59370677  0.21432826  0.52706389  1
  Ni  Ni35  1  0.27643500  0.20028400  0.62522700  1
  Cu  Cu36  1  0.57977068  0.74193856  0.03550841  1
  Cu  Cu37  1  0.31280871  0.09987698  0.43412367  1
  Cu  Cu38  1  0.95444703  0.72493852  0.54386008  1
  Cu  Cu39  1  0.72404518  0.81082094  0.39230564  1
  Cu  Cu40  1  0.39367600  0.29285167  0.35879733  1
  Ni  Ni41  1  0.08999800  0.27522000  0.45766700  1
  Cu  Cu42  1  0.80203735  0.89171804  0.07097528  1
  Cu  Cu43  1  0.78120677  0.80017895  0.87706422  1
  Ni  Ni44  1  0.17792200  0.10420300  0.93879500  1
  Cu  Cu45  1  0.10074659  0.28224246  0.84082937  1
  Cu  Cu46  1  0.66221456  0.61424417  0.45719695  1
  Cu  Cu47  1  0.09249138  0.79831374  0.98861857  1
