# generated using pymatgen
data_CuC4
_symmetry_space_group_name_H-M   'P 1'
_cell_length_a   5.60347600
_cell_length_b   5.93298600
_cell_length_c   8.21589500
_cell_angle_alpha   90.00000000
_cell_angle_beta   90.00000000
_cell_angle_gamma   90.00000000
_symmetry_Int_Tables_number   1
_chemical_formula_structural   CuC4
_chemical_formula_sum   'Cu4 C16'
_cell_volume   273.14026096
_cell_formula_units_Z   4
loop_
 _symmetry_equiv_pos_site_id
 _symmetry_equiv_pos_as_xyz
  1  'x, y, z'
loop_
 _atom_site_type_symbol
 _atom_site_label
 _atom_site_symmetry_multiplicity
 _atom_site_fract_x
 _atom_site_fract_y
 _atom_site_fract_z
 _atom_site_occupancy
  C  C0  1  0.02024000  0.43658900  0.25000000  1
  C  C1  1  0.97976000  0.56341100  0.75000000  1
  C  C2  1  0.52024000  0.06341100  0.75000000  1
  C  C3  1  0.47976000  0.93658900  0.25000000  1
  Cu  Cu4  1  0.97437713  0.01845748  0.97678243  1
  Cu  Cu5  1  0.47593882  0.48101592  0.99827105  1
  Cu  Cu6  1  0.97247216  0.96054034  0.52754918  1
  Cu  Cu7  1  0.49031811  0.48773379  0.49234576  1
  C  C8  1  0.31444500  0.18954200  0.07057000  1
  C  C9  1  0.68555500  0.81045800  0.92943000  1
  C  C10  1  0.81444500  0.31045800  0.92943000  1
  C  C11  1  0.68555500  0.81045800  0.57057000  1
  C  C12  1  0.18555500  0.68954200  0.07057000  1
  C  C13  1  0.31444500  0.18954200  0.42943000  1
  C  C14  1  0.18555500  0.68954200  0.42943000  1
  C  C15  1  0.81444500  0.31045800  0.57057000  1
  C  C16  1  0.63880800  0.56590700  0.25000000  1
  C  C17  1  0.36119200  0.43409300  0.75000000  1
  C  C18  1  0.13880800  0.93409300  0.75000000  1
  C  C19  1  0.86119200  0.06590700  0.25000000  1
