# generated using pymatgen
data_Cu4Ni5C
_symmetry_space_group_name_H-M   'P 1'
_cell_length_a   13.84296200
_cell_length_b   13.84296200
_cell_length_c   4.86188800
_cell_angle_alpha   90.00000000
_cell_angle_beta   90.00000000
_cell_angle_gamma   90.00000000
_symmetry_Int_Tables_number   1
_chemical_formula_structural   Cu4Ni5C
_chemical_formula_sum   'Cu32 Ni40 C8'
_cell_volume   931.67191400
_cell_formula_units_Z   8
loop_
 _symmetry_equiv_pos_site_id
 _symmetry_equiv_pos_as_xyz
  1  'x, y, z'
loop_
 _atom_site_type_symbol
 _atom_site_label
 _atom_site_symmetry_multiplicity
 _atom_site_fract_x
 _atom_site_fract_y
 _atom_site_fract_z
 _atom_site_occupancy
  Ni  Ni0  1  0.75645900  0.24354100  0.00000000  1
  Ni  Ni1  1  0.74354100  0.25645900  0.50000000  1
  Ni  Ni2  1  0.24354100  0.24354100  0.00000000  1
  Ni  Ni3  1  0.25645900  0.25645900  0.50000000  1
  Ni  Ni4  1  0.11023700  0.35882000  0.56819300  1
  Ni  Ni5  1  0.88976300  0.35882000  0.56819300  1
  Ni  Ni6  1  0.37211500  0.37211500  0.00000000  1
  Ni  Ni7  1  0.62788500  0.37211500  0.00000000  1
  Ni  Ni8  1  0.85882000  0.38976300  0.06819300  1
  Ni  Ni9  1  0.14118000  0.38976300  0.06819300  1
  Ni  Ni10  1  0.00000000  0.50000000  0.08926300  1
  Ni  Ni11  1  0.50000000  0.50000000  0.50000000  1
  Ni  Ni12  1  0.50000000  0.50000000  0.00000000  1
  Ni  Ni13  1  0.00000000  0.50000000  0.58926300  1
  Ni  Ni14  1  0.85882000  0.61023700  0.06819300  1
  Ni  Ni15  1  0.14118000  0.61023700  0.06819300  1
  Ni  Ni16  1  0.37211500  0.62788500  0.00000000  1
  Ni  Ni17  1  0.62788500  0.62788500  0.00000000  1
  Ni  Ni18  1  0.88976300  0.64118000  0.56819300  1
  Ni  Ni19  1  0.11023700  0.64118000  0.56819300  1
  Ni  Ni20  1  0.24354100  0.75645900  0.00000000  1
  Ni  Ni21  1  0.25645900  0.74354100  0.50000000  1
  Ni  Ni22  1  0.75645900  0.75645900  0.00000000  1
  Ni  Ni23  1  0.74354100  0.74354100  0.50000000  1
  Ni  Ni24  1  0.38976300  0.85882000  0.93180700  1
  Ni  Ni25  1  0.61023700  0.85882000  0.93180700  1
  Ni  Ni26  1  0.87211500  0.87211500  0.50000000  1
  Ni  Ni27  1  0.12788500  0.87211500  0.50000000  1
  Ni  Ni28  1  0.35882000  0.88976300  0.43180700  1
  Ni  Ni29  1  0.64118000  0.88976300  0.43180700  1
  Ni  Ni30  1  0.00000000  0.00000000  0.00000000  1
  Ni  Ni31  1  0.00000000  0.00000000  0.50000000  1
  Ni  Ni32  1  0.50000000  0.00000000  0.91073700  1
  Ni  Ni33  1  0.50000000  0.00000000  0.41073700  1
  Ni  Ni34  1  0.35882000  0.11023700  0.43180700  1
  Ni  Ni35  1  0.64118000  0.11023700  0.43180700  1
  Ni  Ni36  1  0.87211500  0.12788500  0.50000000  1
  Ni  Ni37  1  0.12788500  0.12788500  0.50000000  1
  Ni  Ni38  1  0.38976300  0.14118000  0.93180700  1
  Ni  Ni39  1  0.61023700  0.14118000  0.93180700  1
  C  C40  1  0.50000000  0.27376700  0.45475600  1
  C  C41  1  0.27376700  0.50000000  0.54524400  1
  C  C42  1  0.72623300  0.50000000  0.54524400  1
  C  C43  1  0.50000000  0.72623300  0.45475600  1
  C  C44  1  0.00000000  0.77376700  0.04524400  1
  C  C45  1  0.77376700  0.00000000  0.95475600  1
  C  C46  1  0.22623300  0.00000000  0.95475600  1
  C  C47  1  0.00000000  0.22623300  0.04524400  1
  Cu  Cu48  1  0.86229400  0.26124700  0.28441500  1
  Cu  Cu49  1  0.13770600  0.26124700  0.28441500  1
  Cu  Cu50  1  0.76124700  0.36229400  0.78441500  1
  Cu  Cu51  1  0.23875300  0.36229400  0.78441500  1
  Cu  Cu52  1  0.00000000  0.38195200  0.83349500  1
  Cu  Cu53  1  0.50000000  0.38812800  0.77863900  1
  Cu  Cu54  1  0.88195200  0.50000000  0.33349500  1
  Cu  Cu55  1  0.38812800  0.50000000  0.22136100  1
  Cu  Cu56  1  0.61187200  0.50000000  0.22136100  1
  Cu  Cu57  1  0.11804800  0.50000000  0.33349500  1
  Cu  Cu58  1  0.50000000  0.61187200  0.77863900  1
  Cu  Cu59  1  0.00000000  0.61804800  0.83349500  1
  Cu  Cu60  1  0.23875300  0.63770600  0.78441500  1
  Cu  Cu61  1  0.76124700  0.63770600  0.78441500  1
  Cu  Cu62  1  0.86229400  0.73875300  0.28441500  1
  Cu  Cu63  1  0.13770600  0.73875300  0.28441500  1
  Cu  Cu64  1  0.36229400  0.76124700  0.21558500  1
  Cu  Cu65  1  0.63770600  0.76124700  0.21558500  1
  Cu  Cu66  1  0.73875300  0.86229400  0.71558500  1
  Cu  Cu67  1  0.26124700  0.86229400  0.71558500  1
  Cu  Cu68  1  0.50000000  0.88195200  0.66650500  1
  Cu  Cu69  1  0.00000000  0.88812800  0.72136100  1
  Cu  Cu70  1  0.88812800  0.00000000  0.27863900  1
  Cu  Cu71  1  0.11187200  0.00000000  0.27863900  1
  Cu  Cu72  1  0.38195200  0.00000000  0.16650500  1
  Cu  Cu73  1  0.61804800  0.00000000  0.16650500  1
  Cu  Cu74  1  0.00000000  0.11187200  0.72136100  1
  Cu  Cu75  1  0.50000000  0.11804800  0.66650500  1
  Cu  Cu76  1  0.73875300  0.13770600  0.71558500  1
  Cu  Cu77  1  0.26124700  0.13770600  0.71558500  1
  Cu  Cu78  1  0.36229400  0.23875300  0.21558500  1
  Cu  Cu79  1  0.63770600  0.23875300  0.21558500  1
