# generated using pymatgen
data_CuNi3C44
_symmetry_space_group_name_H-M   'P 1'
_cell_length_a   7.37326737
_cell_length_b   7.64596677
_cell_length_c   19.84552483
_cell_angle_alpha   85.11530963
_cell_angle_beta   79.82821261
_cell_angle_gamma   61.17296560
_symmetry_Int_Tables_number   1
_chemical_formula_structural   CuNi3C44
_chemical_formula_sum   'Cu2 Ni6 C88'
_cell_volume   964.75764281
_cell_formula_units_Z   2
loop_
 _symmetry_equiv_pos_site_id
 _symmetry_equiv_pos_as_xyz
  1  'x, y, z'
loop_
 _atom_site_type_symbol
 _atom_site_label
 _atom_site_symmetry_multiplicity
 _atom_site_fract_x
 _atom_site_fract_y
 _atom_site_fract_z
 _atom_site_occupancy
  C  C0  1  0.46702200  0.63653500  0.89660300  1
  C  C1  1  0.53297800  0.36346500  0.10339700  1
  C  C2  1  0.89644300  0.63653500  0.60339700  1
  C  C3  1  0.10355700  0.36346500  0.39660300  1
  C  C4  1  0.49306900  0.97568400  0.71172100  1
  C  C5  1  0.50693100  0.02431600  0.28827900  1
  C  C6  1  0.53124700  0.97568400  0.78827900  1
  C  C7  1  0.46875300  0.02431600  0.21172100  1
  C  C8  1  0.75785200  0.22703900  0.87541900  1
  C  C9  1  0.24214800  0.77296100  0.12458100  1
  C  C10  1  0.01510900  0.22703900  0.62458100  1
  C  C11  1  0.98489100  0.77296100  0.37541900  1
  C  C12  1  0.43501300  0.55526400  0.76437400  1
  C  C13  1  0.56498700  0.44473600  0.23562600  1
  C  C14  1  0.00972300  0.55526400  0.73562600  1
  C  C15  1  0.99027700  0.44473600  0.26437400  1
  C  C16  1  0.46917100  0.39554800  0.65848500  1
  C  C17  1  0.53082900  0.60445200  0.34151500  1
  C  C18  1  0.13528100  0.39554800  0.84151500  1
  C  C19  1  0.86471900  0.60445200  0.15848500  1
  C  C20  1  0.24310700  0.77102800  0.78471600  1
  C  C21  1  0.75689300  0.22897200  0.21528400  1
  C  C22  1  0.98586400  0.77102800  0.71528400  1
  C  C23  1  0.01413600  0.22897200  0.28471600  1
  C  C24  1  0.19506200  0.96934900  0.44511200  1
  C  C25  1  0.80493800  0.03065100  0.55488800  1
  C  C26  1  0.83558900  0.96934900  0.05488800  1
  C  C27  1  0.16441100  0.03065100  0.94511200  1
  C  C28  1  0.87338100  0.34776600  0.83468000  1
  C  C29  1  0.12661900  0.65223400  0.16532000  1
  C  C30  1  0.77885400  0.34776600  0.66532000  1
  C  C31  1  0.22114600  0.65223400  0.33468000  1
  C  C32  1  0.91373500  0.02651700  0.78498100  1
  C  C33  1  0.08626500  0.97348300  0.21501900  1
  C  C34  1  0.05974800  0.02651700  0.71501900  1
  C  C35  1  0.94025200  0.97348300  0.28498100  1
  C  C36  1  0.03349700  0.92736900  0.92547600  1
  C  C37  1  0.96650300  0.07263100  0.07452400  1
  C  C38  1  0.03913300  0.92736900  0.57452400  1
  C  C39  1  0.96086700  0.07263100  0.42547600  1
  C  C40  1  0.53851700  0.25122000  0.72000200  1
  C  C41  1  0.46148300  0.74878000  0.27999800  1
  C  C42  1  0.21026300  0.25122000  0.77999800  1
  C  C43  1  0.78973700  0.74878000  0.22000200  1
  Ni  Ni44  1  0.71869700  0.75590400  0.97331800  1
  Ni  Ni45  1  0.28130300  0.24409500  0.02668200  1
  Ni  Ni46  1  0.52539800  0.75590400  0.52668200  1
  Cu  Cu47  1  0.47423057  0.24502982  0.47725814  1
  Ni  Ni48  1  0.42140900  0.86135400  0.59376600  1
  Ni  Ni49  1  0.57859100  0.13864600  0.40623400  1
  Cu  Cu50  1  0.71207674  0.85034963  0.90115895  1
  Ni  Ni51  1  0.28276200  0.13864600  0.09376600  1
  C  C52  1  0.63291100  0.63358700  0.98508800  1
  C  C53  1  0.36708900  0.36641300  0.01491200  1
  C  C54  1  0.73350200  0.63358700  0.51491200  1
  C  C55  1  0.26649800  0.36641300  0.48508800  1
  C  C56  1  0.43786200  0.76425200  0.47165200  1
  C  C57  1  0.56213800  0.23574800  0.52834800  1
  C  C58  1  0.79788600  0.76425200  0.02834800  1
  C  C59  1  0.20211400  0.23574800  0.97165200  1
  C  C60  1  0.40364400  0.35714700  0.57455100  1
  C  C61  1  0.59635600  0.64285300  0.42544900  1
  C  C62  1  0.23920900  0.35714700  0.92544900  1
  C  C63  1  0.76079100  0.64285300  0.07455100  1
  C  C64  1  0.33813400  0.43552900  0.95155500  1
  C  C65  1  0.66186600  0.56447100  0.04844500  1
  C  C66  1  0.22633800  0.43552900  0.54844500  1
  C  C67  1  0.77366200  0.56447100  0.45155500  1
  C  C68  1  0.22385600  0.96606500  0.60509100  1
  C  C69  1  0.77614400  0.03393500  0.39490900  1
  C  C70  1  0.81007900  0.96606500  0.89490900  1
  C  C71  1  0.18992100  0.03393500  0.10509100  1
  C  C72  1  0.17535300  0.90481800  0.93004900  1
  C  C73  1  0.82464700  0.09518200  0.06995100  1
  C  C74  1  0.91982800  0.90481800  0.56995100  1
  C  C75  1  0.08017200  0.09518200  0.43004900  1
  C  C76  1  0.02891700  0.94216500  0.75000000  1
  C  C77  1  0.97108300  0.05783500  0.25000000  1
  C  C78  1  0.54348900  0.37205700  0.69823600  1
  C  C79  1  0.45651100  0.62794300  0.30176400  1
  C  C80  1  0.08445400  0.37205700  0.80176400  1
  C  C81  1  0.91554600  0.62794300  0.19823600  1
  C  C82  1  0.61900400  0.83351100  0.86486700  1
  C  C83  1  0.38099600  0.16648900  0.13513300  1
  C  C84  1  0.54748400  0.83351100  0.63513300  1
  C  C85  1  0.45251600  0.16648900  0.36486700  1
  C  C86  1  0.73416300  0.35337000  0.85209900  1
  C  C87  1  0.26583700  0.64663000  0.14790100  1
  C  C88  1  0.91246700  0.35337000  0.64790100  1
  C  C89  1  0.08753300  0.64663000  0.35209900  1
  C  C90  1  0.36493900  0.65672200  0.80141200  1
  C  C91  1  0.63506100  0.34327800  0.19858800  1
  C  C92  1  0.97833900  0.65672200  0.69858800  1
  C  C93  1  0.02166100  0.34327800  0.30141200  1
  C  C94  1  0.46784900  0.06430200  0.75000000  1
  C  C95  1  0.53215100  0.93569800  0.25000000  1
