# generated using pymatgen
data_CuNi3C8
_symmetry_space_group_name_H-M   'P 1'
_cell_length_a   5.11919900
_cell_length_b   9.67563800
_cell_length_c   10.30851676
_cell_angle_alpha   89.05308989
_cell_angle_beta   90.00000000
_cell_angle_gamma   90.00000000
_symmetry_Int_Tables_number   1
_chemical_formula_structural   CuNi3C8
_chemical_formula_sum   'Cu3 Ni9 C24'
_cell_volume   510.52673820
_cell_formula_units_Z   3
loop_
 _symmetry_equiv_pos_site_id
 _symmetry_equiv_pos_as_xyz
  1  'x, y, z'
loop_
 _atom_site_type_symbol
 _atom_site_label
 _atom_site_symmetry_multiplicity
 _atom_site_fract_x
 _atom_site_fract_y
 _atom_site_fract_z
 _atom_site_occupancy
  C  C0  1  0.88872800  0.90994100  0.10042600  1
  C  C1  1  0.11127200  0.09005900  0.89957400  1
  C  C2  1  0.61127200  0.40994100  0.10042600  1
  C  C3  1  0.38872800  0.59005900  0.89957400  1
  C  C4  1  0.26230800  0.60202500  0.33980600  1
  C  C5  1  0.73769200  0.39797500  0.66019400  1
  C  C6  1  0.23769200  0.10202500  0.33980600  1
  C  C7  1  0.76230800  0.89797500  0.66019400  1
  C  C8  1  0.89296000  0.40834000  0.82421000  1
  C  C9  1  0.10704000  0.59166000  0.17579000  1
  C  C10  1  0.39296000  0.09166000  0.17579000  1
  C  C11  1  0.60704000  0.90834000  0.82421000  1
  C  C12  1  0.17395700  0.05287700  0.09066300  1
  C  C13  1  0.00757700  0.72921000  0.14776800  1
  C  C14  1  0.82604300  0.94712300  0.90933700  1
  C  C15  1  0.58935400  0.98403700  0.19095300  1
  C  C16  1  0.32604300  0.55287700  0.09066300  1
  C  C17  1  0.67395700  0.44712300  0.90933700  1
  C  C18  1  0.08935400  0.51596300  0.80904700  1
  C  C19  1  0.49242300  0.22921000  0.14776800  1
  C  C20  1  0.91064600  0.48403700  0.19095300  1
  C  C21  1  0.99242300  0.27079000  0.85223200  1
  C  C22  1  0.41064600  0.01596300  0.80904700  1
  C  C23  1  0.50757700  0.77079000  0.85223200  1
  Ni  Ni24  1  0.54451900  0.30323100  0.66227800  1
  Ni  Ni25  1  0.58322500  0.86245000  0.57083700  1
  Ni  Ni26  1  0.45548100  0.69676900  0.33772200  1
  Ni  Ni27  1  0.08322500  0.63755000  0.42916300  1
  Ni  Ni28  1  0.91677500  0.36245000  0.57083700  1
  Cu  Cu29  1  0.03494008  0.19420376  0.33061542  1
  Ni  Ni30  1  0.86441100  0.02297500  0.62759500  1
  Cu  Cu31  1  0.41335445  0.12620540  0.43815546  1
  Ni  Ni32  1  0.36441100  0.47702500  0.37240500  1
  Ni  Ni33  1  0.13558900  0.97702500  0.37240500  1
  Cu  Cu34  1  0.97881618  0.79933685  0.66285474  1
  Ni  Ni35  1  0.63558900  0.52297500  0.62759500  1
