# generated using pymatgen
data_Cu7Ni3C32
_symmetry_space_group_name_H-M   'P 1'
_cell_length_a   10.51615132
_cell_length_b   10.51615132
_cell_length_c   7.78055500
_cell_angle_alpha   90.00000000
_cell_angle_beta   90.00000000
_cell_angle_gamma   119.99999574
_symmetry_Int_Tables_number   1
_chemical_formula_structural   Cu7Ni3C32
_chemical_formula_sum   'Cu7 Ni3 C32'
_cell_volume   745.16917428
_cell_formula_units_Z   1
loop_
 _symmetry_equiv_pos_site_id
 _symmetry_equiv_pos_as_xyz
  1  'x, y, z'
loop_
 _atom_site_type_symbol
 _atom_site_label
 _atom_site_symmetry_multiplicity
 _atom_site_fract_x
 _atom_site_fract_y
 _atom_site_fract_z
 _atom_site_occupancy
  Cu  Cu0  1  0.67236860  0.34330577  0.47910413  1
  Cu  Cu1  1  0.32736475  0.67361492  0.02840160  1
  Cu  Cu2  1  0.33013905  0.65939273  0.50776476  1
  Cu  Cu3  1  0.67140932  0.32468761  0.99462719  1
  Ni  Ni4  1  0.23250500  0.99042500  0.75000000  1
  Cu  Cu5  1  0.01415885  0.24785827  0.73997347  1
  Ni  Ni6  1  0.75792100  0.76749500  0.75000000  1
  Cu  Cu7  1  0.75101123  0.02023214  0.24606042  1
  Ni  Ni8  1  0.99042500  0.75792100  0.25000000  1
  Cu  Cu9  1  0.25444587  0.23584082  0.24807921  1
  C  C10  1  0.96830800  0.59614600  0.75000000  1
  C  C11  1  0.40385400  0.37216300  0.75000000  1
  C  C12  1  0.62783700  0.03169200  0.75000000  1
  C  C13  1  0.03169200  0.40385400  0.25000000  1
  C  C14  1  0.59614600  0.62783700  0.25000000  1
  C  C15  1  0.37216300  0.96830800  0.25000000  1
  C  C16  1  0.15629100  0.67854600  0.75000000  1
  C  C17  1  0.32145400  0.47774500  0.75000000  1
  C  C18  1  0.52225500  0.84370900  0.75000000  1
  C  C19  1  0.84370900  0.32145400  0.25000000  1
  C  C20  1  0.67854600  0.52225500  0.25000000  1
  C  C21  1  0.47774500  0.15629100  0.25000000  1
  C  C22  1  0.88091600  0.40748700  0.75000000  1
  C  C23  1  0.59251300  0.47342900  0.75000000  1
  C  C24  1  0.52657100  0.11908400  0.75000000  1
  C  C25  1  0.11908400  0.59251300  0.25000000  1
  C  C26  1  0.40748700  0.52657100  0.25000000  1
  C  C27  1  0.47342900  0.88091600  0.25000000  1
  C  C28  1  0.90612800  0.64865700  0.57496100  1
  C  C29  1  0.35134300  0.25747100  0.57496100  1
  C  C30  1  0.74252900  0.09387200  0.57496100  1
  C  C31  1  0.09387200  0.35134300  0.07496100  1
  C  C32  1  0.64865700  0.74252900  0.07496100  1
  C  C33  1  0.25747100  0.90612800  0.07496100  1
  C  C34  1  0.09387200  0.35134300  0.42503900  1
  C  C35  1  0.64865700  0.74252900  0.42503900  1
  C  C36  1  0.25747100  0.90612800  0.42503900  1
  C  C37  1  0.90612800  0.64865700  0.92503900  1
  C  C38  1  0.35134300  0.25747100  0.92503900  1
  C  C39  1  0.74252900  0.09387200  0.92503900  1
  C  C40  1  0.00000000  0.00000000  0.50000000  1
  C  C41  1  0.00000000  0.00000000  0.00000000  1
