# generated using pymatgen
data_Cu6NiC2
_symmetry_space_group_name_H-M   'P 1'
_cell_length_a   5.23443639
_cell_length_b   5.23443639
_cell_length_c   9.68369200
_cell_angle_alpha   90.00000000
_cell_angle_beta   90.00000000
_cell_angle_gamma   120.00000492
_symmetry_Int_Tables_number   1
_chemical_formula_structural   Cu6NiC2
_chemical_formula_sum   'Cu12 Ni2 C4'
_cell_volume   229.77957980
_cell_formula_units_Z   2
loop_
 _symmetry_equiv_pos_site_id
 _symmetry_equiv_pos_as_xyz
  1  'x, y, z'
loop_
 _atom_site_type_symbol
 _atom_site_label
 _atom_site_symmetry_multiplicity
 _atom_site_fract_x
 _atom_site_fract_y
 _atom_site_fract_z
 _atom_site_occupancy
  Ni  Ni0  1  0.33333300  0.66666700  0.75000000  1
  Ni  Ni1  1  0.66666700  0.33333300  0.25000000  1
  C  C2  1  0.66666700  0.33333300  0.75000000  1
  C  C3  1  0.33333300  0.66666700  0.25000000  1
  C  C4  1  0.00000000  0.00000000  0.50000000  1
  C  C5  1  0.00000000  0.00000000  0.00000000  1
  Cu  Cu6  1  0.65299600  0.01274300  0.63681500  1
  Cu  Cu7  1  0.34700400  0.98725700  0.36318500  1
  Cu  Cu8  1  0.98725700  0.64025300  0.63681500  1
  Cu  Cu9  1  0.65299600  0.64025300  0.86318500  1
  Cu  Cu10  1  0.01274300  0.35974700  0.36318500  1
  Cu  Cu11  1  0.34700400  0.35974700  0.13681500  1
  Cu  Cu12  1  0.35974700  0.34700400  0.63681500  1
  Cu  Cu13  1  0.98725700  0.34700400  0.86318500  1
  Cu  Cu14  1  0.64025300  0.65299600  0.36318500  1
  Cu  Cu15  1  0.01274300  0.65299600  0.13681500  1
  Cu  Cu16  1  0.35974700  0.01274300  0.86318500  1
  Cu  Cu17  1  0.64025300  0.98725700  0.13681500  1
