# generated using pymatgen
data_Cu5C4
_symmetry_space_group_name_H-M   'P 1'
_cell_length_a   8.69532700
_cell_length_b   11.88809500
_cell_length_c   12.01798155
_cell_angle_alpha   66.76478950
_cell_angle_beta   90.00000000
_cell_angle_gamma   90.00000000
_symmetry_Int_Tables_number   1
_chemical_formula_structural   Cu5C4
_chemical_formula_sum   'Cu40 C32'
_cell_volume   1141.54936432
_cell_formula_units_Z   8
loop_
 _symmetry_equiv_pos_site_id
 _symmetry_equiv_pos_as_xyz
  1  'x, y, z'
loop_
 _atom_site_type_symbol
 _atom_site_label
 _atom_site_symmetry_multiplicity
 _atom_site_fract_x
 _atom_site_fract_y
 _atom_site_fract_z
 _atom_site_occupancy
  C  C0  1  0.25000000  0.94223200  0.44490600  1
  C  C1  1  0.75000000  0.05776800  0.55509400  1
  C  C2  1  0.25000000  0.41165500  0.08037300  1
  C  C3  1  0.75000000  0.58834500  0.91962700  1
  C  C4  1  0.25000000  0.49140800  0.47151400  1
  C  C5  1  0.75000000  0.50859200  0.52848600  1
  C  C6  1  0.25000000  0.03258800  0.03429000  1
  C  C7  1  0.75000000  0.96741200  0.96571000  1
  C  C8  1  0.99462600  0.78941800  0.28855900  1
  C  C9  1  0.49462600  0.21058200  0.71144100  1
  C  C10  1  0.00537400  0.21058200  0.71144100  1
  C  C11  1  0.50537400  0.78941800  0.28855900  1
  C  C12  1  0.07240700  0.71974600  0.03170800  1
  C  C13  1  0.57240700  0.28025400  0.96829200  1
  C  C14  1  0.92759300  0.28025400  0.96829200  1
  C  C15  1  0.42759300  0.71974600  0.03170800  1
  C  C16  1  0.92906100  0.51048400  0.24249500  1
  C  C17  1  0.42906100  0.48951600  0.75750500  1
  C  C18  1  0.07093900  0.48951600  0.75750500  1
  C  C19  1  0.57093900  0.51048400  0.24249500  1
  C  C20  1  0.07203800  0.25219100  0.37925800  1
  C  C21  1  0.57203800  0.74780900  0.62074200  1
  C  C22  1  0.92796200  0.74780900  0.62074200  1
  C  C23  1  0.42796200  0.25219100  0.37925800  1
  C  C24  1  0.06502800  0.88829800  0.76492700  1
  C  C25  1  0.56502800  0.11170200  0.23507300  1
  C  C26  1  0.93497200  0.11170200  0.23507300  1
  C  C27  1  0.43497200  0.88829800  0.76492700  1
  Cu  Cu28  1  0.96203344  0.01185211  0.74601964  1
  Cu  Cu29  1  0.45153217  0.97739371  0.25208030  1
  Cu  Cu30  1  0.03706348  0.97838889  0.25633361  1
  Cu  Cu31  1  0.54862250  0.01403939  0.74220788  1
  Cu  Cu32  1  0.06044252  0.78566396  0.11669878  1
  Cu  Cu33  1  0.54074639  0.17487879  0.91613577  1
  Cu  Cu34  1  0.96411992  0.17749268  0.91971606  1
  Cu  Cu35  1  0.46693864  0.81451971  0.09584582  1
  Cu  Cu36  1  0.95317200  0.58310817  0.31991484  1
  Cu  Cu37  1  0.46658283  0.43077613  0.66130211  1
  Cu  Cu38  1  0.01920915  0.42460413  0.65601467  1
  Cu  Cu39  1  0.52944158  0.59437852  0.33113756  1
  Cu  Cu40  1  0.06127989  0.24062085  0.51354066  1
  Cu  Cu41  1  0.53073026  0.74716842  0.48869652  1
  Cu  Cu42  1  0.96229282  0.75920229  0.48328623  1
  Cu  Cu43  1  0.45537458  0.25014604  0.50892723  1
  Cu  Cu44  1  0.25242974  0.65338784  0.03645666  1
  Cu  Cu45  1  0.71646902  0.32943233  0.96530525  1
  Cu  Cu46  1  0.03454519  0.79130766  0.88872110  1
  Cu  Cu47  1  0.51221660  0.22886308  0.11408677  1
  Cu  Cu48  1  0.02336708  0.25446496  0.10215821  1
  Cu  Cu49  1  0.47609319  0.77852648  0.88811178  1
  Cu  Cu50  1  0.98422753  0.57495374  0.09313974  1
  Cu  Cu51  1  0.46321871  0.38873321  0.90925137  1
  Cu  Cu52  1  0.04043088  0.39278546  0.90967951  1
  Cu  Cu53  1  0.54603057  0.58158503  0.11072845  1
  Cu  Cu54  1  0.04180067  0.38312022  0.26650022  1
  Cu  Cu55  1  0.52957275  0.64422882  0.71856251  1
  Cu  Cu56  1  0.94702061  0.58897574  0.73200540  1
  Cu  Cu57  1  0.45026751  0.39864675  0.25371859  1
  Cu  Cu58  1  0.75178545  0.45853904  0.24817055  1
  Cu  Cu59  1  0.22671615  0.56330406  0.72332349  1
  Cu  Cu60  1  0.02780670  0.84759642  0.65477175  1
  Cu  Cu61  1  0.54759607  0.13659209  0.36484156  1
  Cu  Cu62  1  0.98881950  0.14959266  0.33597930  1
  Cu  Cu63  1  0.47638760  0.83504836  0.64969603  1
  Cu  Cu64  1  0.24209726  0.91680013  0.76268813  1
  Cu  Cu65  1  0.74872940  0.07830782  0.22501285  1
  Cu  Cu66  1  0.26421499  0.21705106  0.36301391  1
  Cu  Cu67  1  0.76892334  0.79290639  0.66000423  1
  C  C68  1  0.75000000  0.82740000  0.21664300  1
  C  C69  1  0.25000000  0.17260000  0.78335700  1
  C  C70  1  0.25000000  0.75193100  0.34325200  1
  C  C71  1  0.75000000  0.24806900  0.65674800  1
