# generated using pymatgen
data_Cu2Ni6C11
_symmetry_space_group_name_H-M   'P 1'
_cell_length_a   5.16634822
_cell_length_b   5.11436423
_cell_length_c   8.91455435
_cell_angle_alpha   90.03367103
_cell_angle_beta   90.02940453
_cell_angle_gamma   102.32419988
_symmetry_Int_Tables_number   1
_chemical_formula_structural   Cu2Ni6C11
_chemical_formula_sum   'Cu2 Ni6 C11'
_cell_volume   230.11746698
_cell_formula_units_Z   1
loop_
 _symmetry_equiv_pos_site_id
 _symmetry_equiv_pos_as_xyz
  1  'x, y, z'
loop_
 _atom_site_type_symbol
 _atom_site_label
 _atom_site_symmetry_multiplicity
 _atom_site_fract_x
 _atom_site_fract_y
 _atom_site_fract_z
 _atom_site_occupancy
  C  C0  1  0.94886345  0.46915224  0.66156773  1
  Ni  Ni1  1  0.03418750  0.96645340  0.00358428  1
  Ni  Ni2  1  0.03376479  0.96682696  0.32165894  1
  Ni  Ni3  1  0.04837004  0.98645290  0.66276586  1
  Ni  Ni4  1  0.44132645  0.54831230  0.16237281  1
  Ni  Ni5  1  0.44998309  0.56878919  0.83666337  1
  Ni  Ni6  1  0.45008844  0.56900585  0.48812166  1
  C  C7  1  0.19751236  0.78918228  0.16271835  1
  C  C8  1  0.16514098  0.78116005  0.50195473  1
  C  C9  1  0.16518180  0.78127694  0.82324397  1
  C  C10  1  0.30855155  0.30898519  -0.01181711  1
  C  C11  1  0.30791058  0.30956057  0.33646116  1
  C  C12  1  0.29178066  0.33767128  0.66227741  1
  C  C13  1  0.68198488  0.71427685  -0.00630461  1
  C  C14  1  0.68260376  0.71307712  0.33139331  1
  C  C15  1  0.69166491  0.69825402  0.66244366  1
  C  C16  1  0.88838465  0.13374778  0.16247514  1
  Cu  Cu17  1  0.84934135  0.17956410  0.81328070  1
  Cu  Cu18  1  0.84946878  0.17824800  0.51085364  1
