# generated using pymatgen
data_Cu6Ni2C11
_symmetry_space_group_name_H-M   'P 1'
_cell_length_a   9.25076180
_cell_length_b   5.00098366
_cell_length_c   7.14986721
_cell_angle_alpha   90.00000675
_cell_angle_beta   74.63756717
_cell_angle_gamma   74.31780162
_symmetry_Int_Tables_number   1
_chemical_formula_structural   Cu6Ni2C11
_chemical_formula_sum   'Cu6 Ni2 C11'
_cell_volume   306.16715336
_cell_formula_units_Z   1
loop_
 _symmetry_equiv_pos_site_id
 _symmetry_equiv_pos_as_xyz
  1  'x, y, z'
loop_
 _atom_site_type_symbol
 _atom_site_label
 _atom_site_symmetry_multiplicity
 _atom_site_fract_x
 _atom_site_fract_y
 _atom_site_fract_z
 _atom_site_occupancy
  C  C0  1  0.05574500  0.97212800  0.74004900  1
  C  C1  1  0.94425500  0.02787200  0.25995100  1
  C  C2  1  0.66567500  0.66716200  0.47286000  1
  C  C3  1  0.33432500  0.33283800  0.52714000  1
  C  C4  1  0.80428500  0.59785800  0.95762100  1
  C  C5  1  0.19571500  0.40214200  0.04237900  1
  C  C6  1  0.39774800  0.80112600  0.19515900  1
  C  C7  1  0.60225200  0.19887400  0.80484100  1
  C  C8  1  0.00000000  0.50000000  0.50000000  1
  C  C9  1  0.37346700  0.81326600  0.79461200  1
  C  C10  1  0.62653300  0.18673400  0.20538800  1
  Ni  Ni11  1  0.20422500  0.89788700  0.99716500  1
  Cu  Cu12  1  0.78405461  0.06829458  0.01318576  1
  Cu  Cu13  1  0.37701975  0.78874859  0.52250233  1
  Cu  Cu14  1  0.63369678  0.19288055  0.42126212  1
  Cu  Cu15  1  0.53350607  0.73532281  0.84022650  1
  Cu  Cu16  1  0.41640159  0.26549064  0.19693849  1
  Cu  Cu17  1  0.95204433  0.53040197  0.28938859  1
  Ni  Ni18  1  0.05283900  0.47358100  0.71592200  1
