# generated using pymatgen
data_Cu10Ni6C11
_symmetry_space_group_name_H-M   'P 1'
_cell_length_a   9.62152462
_cell_length_b   9.62152462
_cell_length_c   11.56887052
_cell_angle_alpha   88.38868242
_cell_angle_beta   88.38868242
_cell_angle_gamma   142.21490981
_symmetry_Int_Tables_number   1
_chemical_formula_structural   Cu10Ni6C11
_chemical_formula_sum   'Cu10 Ni6 C11'
_cell_volume   653.70798194
_cell_formula_units_Z   1
loop_
 _symmetry_equiv_pos_site_id
 _symmetry_equiv_pos_as_xyz
  1  'x, y, z'
loop_
 _atom_site_type_symbol
 _atom_site_label
 _atom_site_symmetry_multiplicity
 _atom_site_fract_x
 _atom_site_fract_y
 _atom_site_fract_z
 _atom_site_occupancy
  C  C0  1  0.61357900  0.81418100  0.48668400  1
  C  C1  1  0.81418100  0.61357900  0.48668400  1
  C  C2  1  0.00701900  0.40375700  0.48381600  1
  C  C3  1  0.40375700  0.00701900  0.48381600  1
  C  C4  1  0.21692500  0.21692500  0.49135900  1
  C  C5  1  0.11039100  0.44405100  0.83711300  1
  C  C6  1  0.44405100  0.11039100  0.83711300  1
  C  C7  1  0.80000100  0.80000100  0.83349000  1
  C  C8  1  0.81686000  0.48579700  0.13567700  1
  C  C9  1  0.48579700  0.81686000  0.13567700  1
  C  C10  1  0.19335400  0.19335400  0.14142900  1
  Cu  Cu11  1  0.91467053  0.12755618  0.61535293  1
  Ni  Ni12  1  0.12600500  0.93037900  0.61283700  1
  Ni  Ni13  1  0.53675900  0.53675900  0.60929700  1
  Ni  Ni14  1  0.31953600  0.71933400  0.60436400  1
  Cu  Cu15  1  0.71135049  0.30679009  0.60767356  1
  Cu  Cu16  1  0.25495658  0.24644450  0.87566390  1
  Ni  Ni17  1  0.03818100  0.37096900  0.08893900  1
  Cu  Cu18  1  0.38930467  0.05257137  0.10462452  1
  Cu  Cu19  1  0.70114255  0.11480897  0.36627801  1
  Cu  Cu20  1  0.06105818  0.65666053  0.38142082  1
  Ni  Ni21  1  0.90574500  0.90574500  0.36832100  1
  Cu  Cu22  1  0.33114068  0.52236570  0.35310113  1
  Cu  Cu23  1  0.47039826  0.26082947  0.37186851  1
  Cu  Cu24  1  0.85899063  0.52138554  0.85636310  1
  Ni  Ni25  1  0.56117400  0.89616100  0.88342900  1
  Cu  Cu26  1  0.71942123  0.71485346  0.07427505  1
