# generated using pymatgen
data_CuNi2
_symmetry_space_group_name_H-M   'P 1'
_cell_length_a   3.60579603
_cell_length_b   3.60579603
_cell_length_c   8.69827036
_cell_angle_alpha   78.00833976
_cell_angle_beta   78.00833976
_cell_angle_gamma   60.06197358
_symmetry_Int_Tables_number   1
_chemical_formula_structural   CuNi2
_chemical_formula_sum   'Cu1 Ni2'
_cell_volume   95.13840632
_cell_formula_units_Z   1
loop_
 _symmetry_equiv_pos_site_id
 _symmetry_equiv_pos_as_xyz
  1  'x, y, z'
loop_
 _atom_site_type_symbol
 _atom_site_label
 _atom_site_symmetry_multiplicity
 _atom_site_fract_x
 _atom_site_fract_y
 _atom_site_fract_z
 _atom_site_occupancy
  Ni  Ni0  1  0.22247248  0.22247248  0.33628873  1
  Cu  Cu1  1  0.81098478  0.78145064  0.66170292  1
  Ni  Ni2  1  0.00000000  0.00000000  0.00000000  1
