# generated using pymatgen
data_Cu6Ni2C
_symmetry_space_group_name_H-M   'P 1'
_cell_length_a   4.61641200
_cell_length_b   4.61641200
_cell_length_c   9.35829300
_cell_angle_alpha   90.00000000
_cell_angle_beta   90.00000000
_cell_angle_gamma   90.00000000
_symmetry_Int_Tables_number   1
_chemical_formula_structural   Cu6Ni2C
_chemical_formula_sum   'Cu12 Ni4 C2'
_cell_volume   199.43701297
_cell_formula_units_Z   2
loop_
 _symmetry_equiv_pos_site_id
 _symmetry_equiv_pos_as_xyz
  1  'x, y, z'
loop_
 _atom_site_type_symbol
 _atom_site_label
 _atom_site_symmetry_multiplicity
 _atom_site_fract_x
 _atom_site_fract_y
 _atom_site_fract_z
 _atom_site_occupancy
  C  C0  1  0.00000000  0.00000000  0.00000000  1
  C  C1  1  0.50000000  0.50000000  0.50000000  1
  Ni  Ni2  1  0.00000000  0.00000000  0.33310700  1
  Ni  Ni3  1  0.00000000  0.00000000  0.66689300  1
  Ni  Ni4  1  0.50000000  0.50000000  0.83310700  1
  Ni  Ni5  1  0.50000000  0.50000000  0.16689300  1
  Cu  Cu6  1  0.29806700  0.29806700  0.00000000  1
  Cu  Cu7  1  0.70193300  0.70193300  0.00000000  1
  Cu  Cu8  1  0.20193300  0.79806700  0.50000000  1
  Cu  Cu9  1  0.79806700  0.20193300  0.50000000  1
  Cu  Cu10  1  0.30926500  0.30926500  0.34107900  1
  Cu  Cu11  1  0.69073500  0.69073500  0.65892100  1
  Cu  Cu12  1  0.69073500  0.69073500  0.34107900  1
  Cu  Cu13  1  0.19073500  0.80926500  0.84107900  1
  Cu  Cu14  1  0.19073500  0.80926500  0.15892100  1
  Cu  Cu15  1  0.30926500  0.30926500  0.65892100  1
  Cu  Cu16  1  0.80926500  0.19073500  0.15892100  1
  Cu  Cu17  1  0.80926500  0.19073500  0.84107900  1
