# generated using pymatgen
data_Cu4C5
_symmetry_space_group_name_H-M   'P 1'
_cell_length_a   6.19996800
_cell_length_b   7.84546300
_cell_length_c   14.31128300
_cell_angle_alpha   90.00000000
_cell_angle_beta   90.00000000
_cell_angle_gamma   90.00000000
_symmetry_Int_Tables_number   1
_chemical_formula_structural   Cu4C5
_chemical_formula_sum   'Cu16 C20'
_cell_volume   696.12398289
_cell_formula_units_Z   4
loop_
 _symmetry_equiv_pos_site_id
 _symmetry_equiv_pos_as_xyz
  1  'x, y, z'
loop_
 _atom_site_type_symbol
 _atom_site_label
 _atom_site_symmetry_multiplicity
 _atom_site_fract_x
 _atom_site_fract_y
 _atom_site_fract_z
 _atom_site_occupancy
  Cu  Cu0  1  0.48926506  0.99339237  0.99127929  1
  Cu  Cu1  1  0.49576664  0.49757833  0.00485134  1
  Cu  Cu2  1  0.92280519  0.25984651  0.08134843  1
  Cu  Cu3  1  0.31273332  0.50149335  0.19138505  1
  Cu  Cu4  1  0.30219216  0.00460218  0.19233893  1
  Cu  Cu5  1  0.84786955  0.00324776  0.32060989  1
  Cu  Cu6  1  0.81219288  0.48818154  0.32266163  1
  Cu  Cu7  1  0.34491863  0.78534937  0.40224110  1
  Cu  Cu8  1  0.02160883  0.01224604  0.49986404  1
  Cu  Cu9  1  0.01646785  0.50175307  0.50570878  1
  Cu  Cu10  1  0.60658495  0.27836601  0.59120797  1
  Cu  Cu11  1  0.19636191  0.49237695  0.67180347  1
  Cu  Cu12  1  0.17741815  0.98050466  0.67706173  1
  Cu  Cu13  1  0.73817105  0.01267386  0.82755572  1
  Cu  Cu14  1  0.70738747  0.49794062  0.81842753  1
  Cu  Cu15  1  0.12554361  0.72983994  0.92886477  1
  C  C16  1  0.84788600  0.75000000  0.08850600  1
  C  C17  1  0.34788600  0.25000000  0.41149400  1
  C  C18  1  0.65211400  0.75000000  0.58850600  1
  C  C19  1  0.15211400  0.25000000  0.91149400  1
  C  C20  1  0.26418400  0.25000000  0.06370500  1
  C  C21  1  0.21366900  0.75000000  0.08245900  1
  C  C22  1  0.71739700  0.50925600  0.15682400  1
  C  C23  1  0.71739700  0.99074400  0.15682400  1
  C  C24  1  0.21739700  0.00925600  0.34317600  1
  C  C25  1  0.21739700  0.49074400  0.34317600  1
  C  C26  1  0.71366900  0.25000000  0.41754100  1
  C  C27  1  0.76418400  0.75000000  0.43629500  1
  C  C28  1  0.23581600  0.25000000  0.56370500  1
  C  C29  1  0.28633100  0.75000000  0.58245900  1
  C  C30  1  0.78260300  0.50925600  0.65682400  1
  C  C31  1  0.78260300  0.99074400  0.65682400  1
  C  C32  1  0.28260300  0.00925600  0.84317600  1
  C  C33  1  0.28260300  0.49074400  0.84317600  1
  C  C34  1  0.78633100  0.25000000  0.91754100  1
  C  C35  1  0.73581600  0.75000000  0.93629500  1
