# generated using pymatgen
data_Cu3C
_symmetry_space_group_name_H-M   'P 1'
_cell_length_a   2.59924234
_cell_length_b   2.59924234
_cell_length_c   8.15771000
_cell_angle_alpha   90.00000000
_cell_angle_beta   90.00000000
_cell_angle_gamma   120.00000876
_symmetry_Int_Tables_number   1
_chemical_formula_structural   Cu3C
_chemical_formula_sum   'Cu3 C1'
_cell_volume   47.73010643
_cell_formula_units_Z   1
loop_
 _symmetry_equiv_pos_site_id
 _symmetry_equiv_pos_as_xyz
  1  'x, y, z'
loop_
 _atom_site_type_symbol
 _atom_site_label
 _atom_site_symmetry_multiplicity
 _atom_site_fract_x
 _atom_site_fract_y
 _atom_site_fract_z
 _atom_site_occupancy
  Cu  Cu0  1  0.42488090  0.69799814  0.51425108  1
  Cu  Cu1  1  0.99452977  0.96719401  0.25980520  1
  Cu  Cu2  1  0.09081121  0.05454493  0.73557696  1
  C  C3  1  0.33333300  0.66666700  0.00000000  1
