# generated using pymatgen
data_Cu7Ni3C2
_symmetry_space_group_name_H-M   'P 1'
_cell_length_a   5.10365622
_cell_length_b   5.10462453
_cell_length_c   9.43055244
_cell_angle_alpha   90.03034940
_cell_angle_beta   90.00000301
_cell_angle_gamma   119.99372940
_symmetry_Int_Tables_number   1
_chemical_formula_structural   Cu7Ni3C2
_chemical_formula_sum   'Cu7 Ni3 C2'
_cell_volume   212.78467158
_cell_formula_units_Z   1
loop_
 _symmetry_equiv_pos_site_id
 _symmetry_equiv_pos_as_xyz
  1  'x, y, z'
loop_
 _atom_site_type_symbol
 _atom_site_label
 _atom_site_symmetry_multiplicity
 _atom_site_fract_x
 _atom_site_fract_y
 _atom_site_fract_z
 _atom_site_occupancy
  C  C0  1  0.66670300  0.33333600  0.24972600  1
  C  C1  1  0.33336700  0.66666400  0.75027400  1
  Cu  Cu2  1  0.66684219  0.99827248  0.50392206  1
  Ni  Ni3  1  0.32185500  0.32160800  0.50001200  1
  Cu  Cu4  1  0.99871180  0.69718555  0.50760560  1
  Ni  Ni5  1  0.32130900  0.00000000  0.00000000  1
  Cu  Cu6  1  0.64422799  0.64242997  0.01392966  1
  Cu  Cu7  1  0.99031099  0.27079867  0.98004749  1
  Cu  Cu8  1  0.67617748  0.34210407  0.74550911  1
  Cu  Cu9  1  0.31714923  0.64543088  0.25376620  1
  Ni  Ni10  1  0.00029400  0.00006800  0.75019300  1
  Cu  Cu11  1  0.01143676  0.03242833  0.25057528  1
