# generated using pymatgen
data_Cu2Ni2C15
_symmetry_space_group_name_H-M   'P 1'
_cell_length_a   9.15046599
_cell_length_b   9.15046599
_cell_length_c   9.15046599
_cell_angle_alpha   109.47122063
_cell_angle_beta   109.47122063
_cell_angle_gamma   109.47122063
_symmetry_Int_Tables_number   1
_chemical_formula_structural   Cu2Ni2C15
_chemical_formula_sum   'Cu4 Ni4 C30'
_cell_volume   589.80403889
_cell_formula_units_Z   2
loop_
 _symmetry_equiv_pos_site_id
 _symmetry_equiv_pos_as_xyz
  1  'x, y, z'
loop_
 _atom_site_type_symbol
 _atom_site_label
 _atom_site_symmetry_multiplicity
 _atom_site_fract_x
 _atom_site_fract_y
 _atom_site_fract_z
 _atom_site_occupancy
  C  C0  1  0.34037000  0.80952900  0.72301600  1
  C  C1  1  0.12500000  0.75000000  0.87500000  1
  C  C2  1  0.72301600  0.34037000  0.80952900  1
  C  C3  1  0.61735400  0.77698400  0.58651300  1
  C  C4  1  0.03084100  0.91348700  0.69047100  1
  C  C5  1  0.08651300  0.27698400  0.11735400  1
  C  C6  1  0.91348700  0.69047100  0.03084100  1
  C  C7  1  0.27698400  0.11735400  0.08651300  1
  C  C8  1  0.19047100  0.41348700  0.53084100  1
  C  C9  1  0.77698400  0.58651300  0.61735400  1
  C  C10  1  0.69047100  0.03084100  0.91348700  1
  C  C11  1  0.53084100  0.19047100  0.41348700  1
  C  C12  1  0.62500000  0.37500000  0.25000000  1
  C  C13  1  0.46915900  0.15963000  0.88264600  1
  C  C14  1  0.87500000  0.12500000  0.75000000  1
  C  C15  1  0.96915900  0.38264600  0.65963000  1
  C  C16  1  0.41348700  0.53084100  0.19047100  1
  C  C17  1  0.11735400  0.08651300  0.27698400  1
  C  C18  1  0.30952900  0.84037000  0.22301600  1
  C  C19  1  0.75000000  0.87500000  0.12500000  1
  C  C20  1  0.88264600  0.46915900  0.15963000  1
  C  C21  1  0.58651300  0.61735400  0.77698400  1
  C  C22  1  0.38264600  0.65963000  0.96915900  1
  C  C23  1  0.80952900  0.72301600  0.34037000  1
  C  C24  1  0.65963000  0.96915900  0.38264600  1
  C  C25  1  0.15963000  0.88264600  0.46915900  1
  C  C26  1  0.22301600  0.30952900  0.84037000  1
  C  C27  1  0.37500000  0.25000000  0.62500000  1
  C  C28  1  0.84037000  0.22301600  0.30952900  1
  C  C29  1  0.25000000  0.62500000  0.37500000  1
  Ni  Ni30  1  0.50000000  0.00000000  0.58485600  1
  Cu  Cu31  1  0.59886835  0.49837864  0.02657846  1
  Ni  Ni32  1  0.50000000  0.00000000  0.08485600  1
  Ni  Ni33  1  0.00000000  0.08485600  0.50000000  1
  Cu  Cu34  1  0.98015346  0.54855169  0.46955616  1
  Ni  Ni35  1  0.08485600  0.50000000  0.00000000  1
  Cu  Cu36  1  0.41540821  0.42296860  0.42135893  1
  Cu  Cu37  1  0.91629082  0.91837497  0.92625220  1
