# generated using pymatgen
data_Cu3C2
_symmetry_space_group_name_H-M   'P 1'
_cell_length_a   5.53697762
_cell_length_b   5.53697762
_cell_length_c   5.53697744
_cell_angle_alpha   61.66746208
_cell_angle_beta   61.66746208
_cell_angle_gamma   61.66745346
_symmetry_Int_Tables_number   1
_chemical_formula_structural   Cu3C2
_chemical_formula_sum   'Cu6 C4'
_cell_volume   124.52131208
_cell_formula_units_Z   2
loop_
 _symmetry_equiv_pos_site_id
 _symmetry_equiv_pos_as_xyz
  1  'x, y, z'
loop_
 _atom_site_type_symbol
 _atom_site_label
 _atom_site_symmetry_multiplicity
 _atom_site_fract_x
 _atom_site_fract_y
 _atom_site_fract_z
 _atom_site_occupancy
  C  C0  1  0.25000000  0.25000000  0.25000000  1
  C  C1  1  0.75000000  0.75000000  0.75000000  1
  C  C2  1  0.00000000  0.00000000  0.00000000  1
  C  C3  1  0.50000000  0.50000000  0.50000000  1
  Cu  Cu4  1  0.75797129  0.11749174  0.34595007  1
  Cu  Cu5  1  0.68798994  0.22049936  0.85102462  1
  Cu  Cu6  1  0.81325782  0.66548235  0.24089176  1
  Cu  Cu7  1  0.16966877  0.38092845  0.70902128  1
  Cu  Cu8  1  0.34688915  0.71355341  0.18922318  1
  Cu  Cu9  1  0.27742837  0.80964971  0.65692531  1
