# generated using pymatgen
data_Cu2C3
_symmetry_space_group_name_H-M   'P 1'
_cell_length_a   8.21402500
_cell_length_b   8.22768947
_cell_length_c   8.23181676
_cell_angle_alpha   109.55984444
_cell_angle_beta   109.42252621
_cell_angle_gamma   109.34800533
_symmetry_Int_Tables_number   1
_chemical_formula_structural   Cu2C3
_chemical_formula_sum   'Cu16 C24'
_cell_volume   428.69869567
_cell_formula_units_Z   8
loop_
 _symmetry_equiv_pos_site_id
 _symmetry_equiv_pos_as_xyz
  1  'x, y, z'
loop_
 _atom_site_type_symbol
 _atom_site_label
 _atom_site_symmetry_multiplicity
 _atom_site_fract_x
 _atom_site_fract_y
 _atom_site_fract_z
 _atom_site_occupancy
  Cu  Cu0  1  0.46685471  0.44375992  0.52120704  1
  Cu  Cu1  1  0.43821578  0.62045429  0.25545654  1
  Cu  Cu2  1  0.75262653  0.47420264  0.28752794  1
  Cu  Cu3  1  0.79193446  0.02212806  0.76248034  1
  Cu  Cu4  1  0.18604484  0.21688110  0.05421097  1
  Cu  Cu5  1  0.16176098  0.71404678  0.52228323  1
  Cu  Cu6  1  0.05812168  0.03167160  0.47162076  1
  Cu  Cu7  1  0.46298563  0.97952494  0.98165077  1
  Cu  Cu8  1  0.05439978  0.33569797  0.22734127  1
  Cu  Cu9  1  0.02549773  0.51027353  0.97922176  1
  Cu  Cu10  1  0.94049505  0.66843232  0.81821036  1
  Cu  Cu11  1  0.82896831  0.25082623  0.44549632  1
  Cu  Cu12  1  0.81376868  0.77258881  0.92260407  1
  Cu  Cu13  1  0.26291185  0.54020616  0.74980719  1
  Cu  Cu14  1  0.19662095  0.93406472  0.24877004  1
  Cu  Cu15  1  0.49867889  0.32203250  0.67242414  1
  C  C16  1  0.90693200  0.17925200  0.04292100  1
  C  C17  1  0.28320400  0.55947200  0.49003100  1
  C  C18  1  0.53016400  0.75889100  0.00943900  1
  C  C19  1  0.33027300  0.58980900  0.94919000  1
  C  C20  1  0.19520400  0.96789600  0.53943800  1
  C  C21  1  0.80559300  0.02935800  0.45893100  1
  C  C22  1  0.03942000  0.99817800  0.72503200  1
  C  C23  1  0.99366900  0.54500000  0.23215800  1
  C  C24  1  0.66940600  0.40135400  0.05428700  1
  C  C25  1  0.26375200  0.31472500  0.73024300  1
  C  C26  1  0.46369200  0.23779700  0.99344200  1
  C  C27  1  0.31601400  0.82532100  0.72463500  1
  C  C28  1  0.49948900  0.50997500  0.22613700  1
  C  C29  1  0.71769200  0.44341300  0.50844800  1
  C  C30  1  0.05971700  0.82307600  0.45135400  1
  C  C31  1  0.09785000  0.81862000  0.95688000  1
  C  C32  1  0.94082000  0.18027500  0.54761700  1
  C  C33  1  0.49976900  0.49602300  0.77532300  1
  C  C34  1  0.68218000  0.17516500  0.27589400  1
  C  C35  1  0.73882100  0.68733300  0.26888600  1
  C  C36  1  0.00484900  0.45424800  0.76984600  1
  C  C37  1  0.96066700  0.99971900  0.27274400  1
  C  C38  1  0.67834600  0.22137300  0.77662600  1
  C  C39  1  0.32392200  0.78098300  0.22515800  1
