# generated using pymatgen
data_Cu4C5
_symmetry_space_group_name_H-M   'P 1'
_cell_length_a   5.85610084
_cell_length_b   5.85610084
_cell_length_c   5.79490321
_cell_angle_alpha   71.72822170
_cell_angle_beta   108.27177830
_cell_angle_gamma   68.56832746
_symmetry_Int_Tables_number   1
_chemical_formula_structural   Cu4C5
_chemical_formula_sum   'Cu4 C5'
_cell_volume   153.68637900
_cell_formula_units_Z   1
loop_
 _symmetry_equiv_pos_site_id
 _symmetry_equiv_pos_as_xyz
  1  'x, y, z'
loop_
 _atom_site_type_symbol
 _atom_site_label
 _atom_site_symmetry_multiplicity
 _atom_site_fract_x
 _atom_site_fract_y
 _atom_site_fract_z
 _atom_site_occupancy
  C  C0  1  0.35334584  0.35334584  0.75000000  1
  C  C1  1  0.61264503  0.61264503  0.25000000  1
  C  C2  1  0.73111318  0.73111318  0.75000000  1
  C  C3  1  0.01123970  0.01123970  0.75000000  1
  C  C4  1  0.00722878  0.00722878  0.25000000  1
  Cu  Cu5  1  0.29528896  0.92613421  0.59064397  1
  Cu  Cu6  1  0.94306096  0.77256421  0.02814538  1
  Cu  Cu7  1  0.91481737  0.32884153  0.82856862  1
  Cu  Cu8  1  0.74867761  0.97334038  0.42349479  1
