# generated using pymatgen
data_Cu5Ni35C54
_symmetry_space_group_name_H-M   'P 1'
_cell_length_a   9.68898500
_cell_length_b   12.40547649
_cell_length_c   14.44369627
_cell_angle_alpha   71.80979152
_cell_angle_beta   75.00306641
_cell_angle_gamma   70.31387425
_symmetry_Int_Tables_number   1
_chemical_formula_structural   Cu5Ni35C54
_chemical_formula_sum   'Cu5 Ni35 C54'
_cell_volume   1529.85370341
_cell_formula_units_Z   1
loop_
 _symmetry_equiv_pos_site_id
 _symmetry_equiv_pos_as_xyz
  1  'x, y, z'
loop_
 _atom_site_type_symbol
 _atom_site_label
 _atom_site_symmetry_multiplicity
 _atom_site_fract_x
 _atom_site_fract_y
 _atom_site_fract_z
 _atom_site_occupancy
  C  C0  1  0.09784800  0.88730900  0.08026000  1
  C  C1  1  0.90215200  0.11269100  0.91974000  1
  C  C2  1  0.93781300  0.09072500  0.07039900  1
  C  C3  1  0.06218700  0.90927500  0.92960100  1
  C  C4  1  0.84647800  0.87006700  0.20617300  1
  C  C5  1  0.15352200  0.12993300  0.79382700  1
  C  C6  1  0.66704200  0.11336900  0.16675400  1
  C  C7  1  0.33295800  0.88663100  0.83324600  1
  C  C8  1  0.09370200  0.95155800  0.24598700  1
  C  C9  1  0.90629800  0.04844200  0.75401300  1
  C  C10  1  0.05776000  0.71775500  0.33287100  1
  C  C11  1  0.94224000  0.28224500  0.66712900  1
  C  C12  1  0.60036200  0.32780000  0.22626000  1
  C  C13  1  0.39963800  0.67220000  0.77374000  1
  C  C14  1  0.90583300  0.19385100  0.20520100  1
  C  C15  1  0.09416700  0.80614900  0.79479900  1
  C  C16  1  0.70454000  0.97521500  0.10017400  1
  C  C17  1  0.29546000  0.02478500  0.89982600  1
  C  C18  1  0.70079400  0.80618200  0.29711900  1
  C  C19  1  0.29920600  0.19381800  0.70288100  1
  C  C20  1  0.89344500  0.74837800  0.14092400  1
  C  C21  1  0.10655500  0.25162200  0.85907600  1
  C  C22  1  0.54582700  0.20973400  0.07091200  1
  C  C23  1  0.45417300  0.79026600  0.92908800  1
  C  C24  1  0.50215600  0.07865900  0.25905100  1
  C  C25  1  0.49784400  0.92134100  0.74094900  1
  C  C26  1  0.13848000  0.11693400  0.17740800  1
  C  C27  1  0.86152000  0.88306600  0.82259200  1
  C  C28  1  0.12894800  0.95084900  0.36751800  1
  C  C29  1  0.87105200  0.04915100  0.63248200  1
  C  C30  1  0.29912400  0.88234300  0.20823400  1
  C  C31  1  0.70087600  0.11765700  0.79176600  1
  C  C32  1  0.99328500  0.57918200  0.36189800  1
  C  C33  1  0.00671500  0.42081800  0.63810200  1
  C  C34  1  0.21821400  0.65692600  0.40708200  1
  C  C35  1  0.78178600  0.34307400  0.59291800  1
  C  C36  1  0.18800300  0.69090000  0.21035300  1
  C  C37  1  0.81199700  0.30910000  0.78964700  1
  C  C38  1  0.90768000  0.77255000  0.44304500  1
  C  C39  1  0.09232000  0.22745000  0.55695500  1
  C  C40  1  0.65327800  0.40268700  0.08572400  1
  C  C41  1  0.34672200  0.59731300  0.91427600  1
  C  C42  1  0.39000900  0.37173900  0.22825100  1
  C  C43  1  0.60999100  0.62826100  0.77174900  1
  C  C44  1  0.57965900  0.23093200  0.36354400  1
  C  C45  1  0.42034100  0.76906800  0.63645600  1
  C  C46  1  0.61404900  0.45817700  0.26476200  1
  C  C47  1  0.38595100  0.54182300  0.73523800  1
  C  C48  1  0.91410100  0.22608600  0.32149000  1
  C  C49  1  0.08589900  0.77391400  0.67851000  1
  C  C50  1  0.95125700  0.33752600  0.13543000  1
  C  C51  1  0.04874300  0.66247400  0.86457000  1
  C  C52  1  0.82042500  0.01344100  0.30176100  1
  C  C53  1  0.17957500  0.98655900  0.69823900  1
  Ni  Ni54  1  0.02668400  0.94298200  0.11689400  1
  Ni  Ni55  1  0.97331600  0.05701800  0.88310600  1
  Ni  Ni56  1  0.86056500  0.16531500  0.07762600  1
  Ni  Ni57  1  0.13943500  0.83468500  0.92237400  1
  Ni  Ni58  1  0.66812800  0.96061600  0.03431500  1
  Ni  Ni59  1  0.33187200  0.03938400  0.96568500  1
  Ni  Ni60  1  0.61190400  0.76544200  0.35478100  1
  Cu  Cu61  1  0.39507565  0.22899065  0.63888372  1
  Ni  Ni62  1  0.91716300  0.67561300  0.09974400  1
  Ni  Ni63  1  0.08283700  0.32438700  0.90025600  1
  Ni  Ni64  1  0.47283900  0.26596100  0.01095800  1
  Ni  Ni65  1  0.52716100  0.73403900  0.98904200  1
  Ni  Ni66  1  0.40374000  0.05567600  0.31949100  1
  Ni  Ni67  1  0.59626000  0.94432400  0.68050900  1
  Ni  Ni68  1  0.24469100  0.15154600  0.14481100  1
  Ni  Ni69  1  0.75530900  0.84845400  0.85518900  1
  Ni  Ni70  1  0.15079600  0.95134000  0.44261600  1
  Cu  Cu71  1  0.85362030  0.04199180  0.55405832  1
  Ni  Ni72  1  0.42636500  0.84391100  0.18534400  1
  Ni  Ni73  1  0.57363500  0.15608900  0.81465600  1
  Ni  Ni74  1  0.95631200  0.49399100  0.38051100  1
  Ni  Ni75  1  0.04368800  0.50600900  0.61948900  1
  Ni  Ni76  1  0.31651400  0.61618200  0.45041100  1
  Ni  Ni77  1  0.68348600  0.38381800  0.54958900  1
  Ni  Ni78  1  0.26814500  0.67235900  0.13861800  1
  Ni  Ni79  1  0.73185500  0.32764100  0.86138200  1
  Ni  Ni80  1  0.82029200  0.79433200  0.51081700  1
  Cu  Cu81  1  0.17290933  0.20691080  0.50994879  1
  Cu  Cu82  1  0.69072633  0.44328006  0.00570412  1
  Ni  Ni83  1  0.31847200  0.54669900  0.99519800  1
  Ni  Ni84  1  0.26264400  0.39670300  0.23136700  1
  Ni  Ni85  1  0.73735600  0.60329700  0.76863300  1
  Ni  Ni86  1  0.55892300  0.18144200  0.44562500  1
  Ni  Ni87  1  0.44107700  0.81855800  0.55437500  1
  Ni  Ni88  1  0.62240100  0.53827400  0.28586100  1
  Ni  Ni89  1  0.37759900  0.46172600  0.71413900  1
  Ni  Ni90  1  0.91746000  0.25055500  0.39211100  1
  Cu  Cu91  1  0.10020936  0.75014197  0.60715448  1
  Ni  Ni92  1  0.98794100  0.42289000  0.09692400  1
  Ni  Ni93  1  0.01205900  0.57711000  0.90307600  1
