# generated using pymatgen
data_Cu3C2
_symmetry_space_group_name_H-M   'P 1'
_cell_length_a   6.32542362
_cell_length_b   6.32542362
_cell_length_c   6.32542442
_cell_angle_alpha   47.29423992
_cell_angle_beta   47.29423992
_cell_angle_gamma   47.29423391
_symmetry_Int_Tables_number   1
_chemical_formula_structural   Cu3C2
_chemical_formula_sum   'Cu6 C4'
_cell_volume   125.00872410
_cell_formula_units_Z   2
loop_
 _symmetry_equiv_pos_site_id
 _symmetry_equiv_pos_as_xyz
  1  'x, y, z'
loop_
 _atom_site_type_symbol
 _atom_site_label
 _atom_site_symmetry_multiplicity
 _atom_site_fract_x
 _atom_site_fract_y
 _atom_site_fract_z
 _atom_site_occupancy
  C  C0  1  0.00000000  0.00000000  0.00000000  1
  C  C1  1  0.50000000  0.50000000  0.50000000  1
  C  C2  1  0.76723800  0.76723800  0.76723800  1
  C  C3  1  0.23276200  0.23276200  0.23276200  1
  Cu  Cu4  1  0.04418521  0.58438372  0.68743230  1
  Cu  Cu5  1  0.65949031  0.12354755  0.51264168  1
  Cu  Cu6  1  0.43130640  0.32804329  0.94467556  1
  Cu  Cu7  1  0.89058115  0.45159900  0.35776196  1
  Cu  Cu8  1  0.32825460  0.96313786  0.44236109  1
  Cu  Cu9  1  0.57268376  0.63571224  0.05962361  1
