# generated using pymatgen
data_Cu21Ni43C32
_symmetry_space_group_name_H-M   'P 1'
_cell_length_a   9.90519100
_cell_length_b   10.30958000
_cell_length_c   14.75352000
_cell_angle_alpha   90.00000000
_cell_angle_beta   90.00000000
_cell_angle_gamma   90.00000000
_symmetry_Int_Tables_number   1
_chemical_formula_structural   Cu21Ni43C32
_chemical_formula_sum   'Cu21 Ni43 C32'
_cell_volume   1506.60525231
_cell_formula_units_Z   1
loop_
 _symmetry_equiv_pos_site_id
 _symmetry_equiv_pos_as_xyz
  1  'x, y, z'
loop_
 _atom_site_type_symbol
 _atom_site_label
 _atom_site_symmetry_multiplicity
 _atom_site_fract_x
 _atom_site_fract_y
 _atom_site_fract_z
 _atom_site_occupancy
  C  C0  1  0.77848000  0.03448700  0.89609500  1
  C  C1  1  0.77848000  0.53448700  0.60390500  1
  C  C2  1  0.27848000  0.46551300  0.89609500  1
  C  C3  1  0.72152000  0.03448700  0.39609500  1
  C  C4  1  0.22152000  0.96551300  0.10390500  1
  C  C5  1  0.22152000  0.46551300  0.39609500  1
  C  C6  1  0.72152000  0.53448700  0.10390500  1
  C  C7  1  0.27848000  0.96551300  0.60390500  1
  C  C8  1  0.18883800  0.31688100  0.19718300  1
  C  C9  1  0.68883800  0.68311900  0.30281700  1
  C  C10  1  0.31116200  0.81688100  0.80281700  1
  C  C11  1  0.81116200  0.18311900  0.69718300  1
  C  C12  1  0.81116200  0.68311900  0.80281700  1
  C  C13  1  0.31116200  0.31688100  0.69718300  1
  C  C14  1  0.68883800  0.18311900  0.19718300  1
  C  C15  1  0.18883800  0.81688100  0.30281700  1
  C  C16  1  0.66801700  0.89715400  0.65306700  1
  C  C17  1  0.00092500  0.78079600  0.44302800  1
  C  C18  1  0.50092500  0.21920400  0.05697200  1
  C  C19  1  0.49907500  0.28079600  0.55697200  1
  C  C20  1  0.99907500  0.71920400  0.94302800  1
  C  C21  1  0.99907500  0.21920400  0.55697200  1
  C  C22  1  0.49907500  0.78079600  0.94302800  1
  C  C23  1  0.50092500  0.71920400  0.44302800  1
  C  C24  1  0.00092500  0.28079600  0.05697200  1
  C  C25  1  0.16801700  0.10284600  0.84693300  1
  C  C26  1  0.83198300  0.39715400  0.34693300  1
  C  C27  1  0.33198300  0.60284600  0.15306700  1
  C  C28  1  0.66801700  0.39715400  0.84693300  1
  C  C29  1  0.83198300  0.89715400  0.15306700  1
  C  C30  1  0.16801700  0.60284600  0.65306700  1
  C  C31  1  0.33198300  0.10284600  0.34693300  1
  Ni  Ni32  1  0.10684300  0.32911000  0.49791200  1
  Cu  Cu33  1  0.61779499  0.66743351  0.00533337  1
  Ni  Ni34  1  0.39315700  0.82911000  0.50208800  1
  Ni  Ni35  1  0.89315700  0.17089000  0.99791200  1
  Ni  Ni36  1  0.89315700  0.67089000  0.50208800  1
  Ni  Ni37  1  0.39315700  0.32911000  0.99791200  1
  Ni  Ni38  1  0.60684300  0.17089000  0.49791200  1
  Ni  Ni39  1  0.10684300  0.82911000  0.00208800  1
  Ni  Ni40  1  0.24372800  0.98878100  0.27174900  1
  Ni  Ni41  1  0.74372700  0.01121900  0.22825100  1
  Ni  Ni42  1  0.25627300  0.48878100  0.72825100  1
  Cu  Cu43  1  0.74278895  0.52776481  0.76872322  1
  Ni  Ni44  1  0.75627300  0.01121900  0.72825100  1
  Cu  Cu45  1  0.26293286  0.98507830  0.75394844  1
  Cu  Cu46  1  0.74578905  0.49625113  0.27766759  1
  Cu  Cu47  1  0.22732211  0.48595687  0.23640282  1
  Ni  Ni48  1  0.22446100  0.76595300  0.68000900  1
  Ni  Ni49  1  0.72446100  0.23404700  0.81999100  1
  Ni  Ni50  1  0.27553900  0.26595300  0.31999100  1
  Ni  Ni51  1  0.77553900  0.73404700  0.18000900  1
  Ni  Ni52  1  0.77553900  0.23404700  0.31999100  1
  Ni  Ni53  1  0.27553900  0.76595300  0.18000900  1
  Ni  Ni54  1  0.72446100  0.73404700  0.68000900  1
  Ni  Ni55  1  0.89077900  0.32041900  0.63252500  1
  Ni  Ni56  1  0.22446100  0.26595300  0.81999100  1
  Ni  Ni57  1  0.29318500  0.57309000  0.03732400  1
  Ni  Ni58  1  0.70681500  0.92691000  0.53732400  1
  Ni  Ni59  1  0.20681500  0.07309000  0.96267600  1
  Cu  Cu60  1  0.18731307  0.57998950  0.54118292  1
  Ni  Ni61  1  0.70681500  0.42691000  0.96267600  1
  Cu  Cu62  1  0.30478050  0.08117801  0.46377621  1
  Ni  Ni63  1  0.79318500  0.92691000  0.03732400  1
  Ni  Ni64  1  0.90105000  0.62958500  0.02258800  1
  Ni  Ni65  1  0.40105000  0.37041500  0.47741200  1
  Cu  Cu66  1  0.60843553  0.11875890  0.98766470  1
  Ni  Ni67  1  0.09895000  0.87041500  0.52258800  1
  Ni  Ni68  1  0.09895000  0.37041500  0.97741200  1
  Cu  Cu69  1  0.59859282  0.63248631  0.52457450  1
  Ni  Ni70  1  0.40105000  0.87041500  0.02258800  1
  Cu  Cu71  1  0.89550152  0.11808720  0.49138087  1
  Ni  Ni72  1  0.89690200  0.38786200  0.12324800  1
  Ni  Ni73  1  0.39690200  0.61213800  0.37675200  1
  Ni  Ni74  1  0.60309800  0.88786200  0.87675200  1
  Cu  Cu75  1  0.11331318  0.09077184  0.62497258  1
  Cu  Cu76  1  0.12553374  0.61977363  0.87204857  1
  Ni  Ni77  1  0.60309800  0.38786200  0.62324800  1
  Ni  Ni78  1  0.39690200  0.11213800  0.12324800  1
  Cu  Cu79  1  0.89267443  0.89987481  0.38540966  1
  Ni  Ni80  1  0.99026600  0.08809900  0.83175900  1
  Ni  Ni81  1  0.49026600  0.91190100  0.66824100  1
  Ni  Ni82  1  0.50973400  0.58809900  0.16824100  1
  Cu  Cu83  1  0.02016738  0.40460217  0.32292810  1
  Ni  Ni84  1  0.00973400  0.91190100  0.16824100  1
  Cu  Cu85  1  0.52481464  0.09439603  0.33372058  1
  Cu  Cu86  1  0.49462141  0.40125241  0.82495551  1
  Ni  Ni87  1  0.99026600  0.58809900  0.66824100  1
  Cu  Cu88  1  0.88920117  0.84349945  0.85605524  1
  Cu  Cu89  1  0.38327888  0.16397630  0.64290178  1
  Cu  Cu90  1  0.59678636  0.33442485  0.14357262  1
  Ni  Ni91  1  0.10922100  0.67958100  0.36747500  1
  Ni  Ni92  1  0.10922100  0.17958100  0.13252500  1
  Cu  Cu93  1  0.60546485  0.82458438  0.36759036  1
  Cu  Cu94  1  0.37959552  0.67247443  0.86543937  1
  Ni  Ni95  1  0.79318500  0.42691000  0.46267600  1
