# generated using pymatgen
data_Cu7NiC56
_symmetry_space_group_name_H-M   'P 1'
_cell_length_a   23.58011588
_cell_length_b   23.21259559
_cell_length_c   6.71467724
_cell_angle_alpha   84.86704492
_cell_angle_beta   78.65668607
_cell_angle_gamma   16.47626901
_symmetry_Int_Tables_number   1
_chemical_formula_structural   Cu7NiC56
_chemical_formula_sum   'Cu7 Ni1 C56'
_cell_volume   954.86072134
_cell_formula_units_Z   1
loop_
 _symmetry_equiv_pos_site_id
 _symmetry_equiv_pos_as_xyz
  1  'x, y, z'
loop_
 _atom_site_type_symbol
 _atom_site_label
 _atom_site_symmetry_multiplicity
 _atom_site_fract_x
 _atom_site_fract_y
 _atom_site_fract_z
 _atom_site_occupancy
  Cu  Cu0  1  0.98903181  0.30957810  0.14523929  1
  Cu  Cu1  1  0.17721564  0.52764334  0.99003474  1
  Cu  Cu2  1  0.91407412  0.29063716  0.70997476  1
  Cu  Cu3  1  0.68465915  0.10061046  0.92295026  1
  Ni  Ni4  1  0.41612400  0.79244200  0.20652300  1
  Cu  Cu5  1  0.20568876  0.57747450  0.45188984  1
  Cu  Cu6  1  0.44830510  0.84549028  0.68956563  1
  Cu  Cu7  1  0.70008655  0.00156094  0.45794816  1
  C  C8  1  0.43855100  0.71908900  0.69324600  1
  C  C9  1  0.69324600  0.14911500  0.43855100  1
  C  C10  1  0.53091100  0.81144900  0.10088500  1
  C  C11  1  0.10088500  0.55675400  0.53091100  1
  C  C12  1  0.85400700  0.30472600  0.26683100  1
  C  C13  1  0.26683100  0.57443500  0.85400700  1
  C  C14  1  0.94527400  0.39599300  0.67556500  1
  C  C15  1  0.67556500  0.98316900  0.94527400  1
  C  C16  1  0.23048900  0.20356800  0.27117200  1
  C  C17  1  0.27117200  0.29477200  0.23048900  1
  C  C18  1  0.04643200  0.01951100  0.95522800  1
  C  C19  1  0.95522800  0.97882800  0.04643200  1
  C  C20  1  0.45441000  0.54559000  0.45441000  1
  C  C21  1  0.70441000  0.79559000  0.70441000  1
  C  C22  1  0.95571000  0.07594600  0.51180500  1
  C  C23  1  0.51180500  0.45653900  0.95571000  1
  C  C24  1  0.17405400  0.29429000  0.79346100  1
  C  C25  1  0.79346100  0.73819500  0.17405400  1
  C  C26  1  0.03526300  0.15992000  0.32818700  1
  C  C27  1  0.32818700  0.47663000  0.03526300  1
  C  C28  1  0.09008000  0.21473700  0.77337000  1
  C  C29  1  0.77337000  0.92181300  0.09008000  1
  C  C30  1  0.28798200  0.77052400  0.40093100  1
  C  C31  1  0.40093100  0.54056300  0.28798200  1
  C  C32  1  0.47947600  0.96201800  0.70943700  1
  C  C33  1  0.70943700  0.84906900  0.47947600  1
  C  C34  1  0.92570400  0.17100900  0.17416500  1
  C  C35  1  0.17416500  0.72912100  0.92570400  1
  C  C36  1  0.07899100  0.32429600  0.52087900  1
  C  C37  1  0.52087900  0.07583500  0.07899100  1
  C  C38  1  0.84679700  0.45279900  0.54427900  1
  C  C39  1  0.54427900  0.15612500  0.84679700  1
  C  C40  1  0.79720100  0.40320300  0.09387500  1
  C  C41  1  0.09387500  0.70572100  0.79720100  1
  C  C42  1  0.59099500  0.71218100  0.27746700  1
  C  C43  1  0.27746700  0.41935600  0.59099500  1
  C  C44  1  0.53781900  0.65900500  0.83064400  1
  C  C45  1  0.83064400  0.97253300  0.53781900  1
  C  C46  1  0.45464300  0.94992100  0.18524200  1
  C  C47  1  0.18524200  0.41019400  0.45464300  1
  C  C48  1  0.30007900  0.79535700  0.83980600  1
  C  C49  1  0.83980600  0.06475800  0.30007900  1
  C  C50  1  0.09271200  0.34006500  0.12194600  1
  C  C51  1  0.12194600  0.44527700  0.09271200  1
  C  C52  1  0.90993500  0.15728800  0.80472300  1
  C  C53  1  0.80472300  0.12805400  0.90993500  1
  C  C54  1  0.49106600  0.37374300  0.63667300  1
  C  C55  1  0.63667300  0.49851900  0.49106600  1
  C  C56  1  0.87625700  0.75893400  0.75148100  1
  C  C57  1  0.75148100  0.61332700  0.87625700  1
  C  C58  1  0.06441300  0.93558700  0.06441300  1
  C  C59  1  0.31441300  0.18558700  0.31441300  1
  C  C60  1  0.35108800  0.95128300  0.04594300  1
  C  C61  1  0.04594300  0.65168600  0.35108800  1
  C  C62  1  0.29871700  0.89891200  0.59831400  1
  C  C63  1  0.59831400  0.20405700  0.29871700  1
