# generated using pymatgen
data_Cu15NiC24
_symmetry_space_group_name_H-M   'P 1'
_cell_length_a   8.21402500
_cell_length_b   8.22768947
_cell_length_c   8.23181676
_cell_angle_alpha   109.55984444
_cell_angle_beta   109.42252621
_cell_angle_gamma   109.34800533
_symmetry_Int_Tables_number   1
_chemical_formula_structural   Cu15NiC24
_chemical_formula_sum   'Cu15 Ni1 C24'
_cell_volume   428.69869567
_cell_formula_units_Z   1
loop_
 _symmetry_equiv_pos_site_id
 _symmetry_equiv_pos_as_xyz
  1  'x, y, z'
loop_
 _atom_site_type_symbol
 _atom_site_label
 _atom_site_symmetry_multiplicity
 _atom_site_fract_x
 _atom_site_fract_y
 _atom_site_fract_z
 _atom_site_occupancy
  C  C0  1  0.46930900  0.47258700  0.51858100  1
  C  C1  1  0.47634400  0.68192700  0.28700600  1
  C  C2  1  0.70503100  0.45522500  0.25083600  1
  C  C3  1  0.79043000  0.03056700  0.75655300  1
  C  C4  1  0.18134300  0.23466000  0.03294900  1
  C  C5  1  0.16650200  0.71705300  0.53547500  1
  C  C6  1  0.02838400  0.01763800  0.48641500  1
  C  C7  1  0.47998300  0.98452300  0.00889000  1
  C  C8  1  0.05838200  0.35056300  0.20432300  1
  C  C9  1  0.00949300  0.51376800  0.98873300  1
  C  C10  1  0.94447200  0.65676000  0.79892100  1
  C  C11  1  0.81695500  0.27204400  0.46469100  1
  C  C12  1  0.83131400  0.78221000  0.96372000  1
  C  C13  1  0.29859900  0.54686600  0.74662700  1
  C  C14  1  0.20590100  0.95792300  0.24812400  1
  C  C15  1  0.53611100  0.32842400  0.70349600  1
  Cu  Cu16  1  0.88969769  0.15191463  0.02189593  1
  Cu  Cu17  1  0.28355421  0.56508178  0.48668134  1
  Cu  Cu18  1  0.51455634  0.79206283  0.99966939  1
  Cu  Cu19  1  0.32472199  0.58881428  0.94713017  1
  Cu  Cu20  1  0.20004158  0.95559344  0.54408518  1
  Cu  Cu21  1  0.83449607  0.05903931  0.45895807  1
  Cu  Cu22  1  0.04300703  0.00367777  0.73567377  1
  Cu  Cu23  1  0.99859511  0.55166289  0.23594607  1
  Cu  Cu24  1  0.67099195  0.38999361  0.04709953  1
  Cu  Cu25  1  0.27527340  0.30462932  0.72763402  1
  Cu  Cu26  1  0.47888550  0.24710011  0.00646795  1
  Ni  Ni27  1  0.31601400  0.82532100  0.72463500  1
  Cu  Cu28  1  0.49466448  0.48546710  0.20885190  1
  Cu  Cu29  1  0.75030603  0.48147359  0.54600066  1
  Cu  Cu30  1  0.06201295  0.83894067  0.46356619  1
  Cu  Cu31  1  0.11421833  0.83104830  0.97290151  1
  C  C32  1  0.94082000  0.18027500  0.54761700  1
  C  C33  1  0.49976900  0.49602300  0.77532300  1
  C  C34  1  0.68218000  0.17516500  0.27589400  1
  C  C35  1  0.73882100  0.68733300  0.26888600  1
  C  C36  1  0.00484900  0.45424800  0.76984600  1
  C  C37  1  0.96066700  0.99971900  0.27274400  1
  C  C38  1  0.67834600  0.22137300  0.77662600  1
  C  C39  1  0.32392200  0.78098300  0.22515800  1
