# generated using pymatgen
data_Cu3C23
_symmetry_space_group_name_H-M   'P 1'
_cell_length_a   8.97682033
_cell_length_b   8.97682033
_cell_length_c   18.19712215
_cell_angle_alpha   85.56737925
_cell_angle_beta   85.56737925
_cell_angle_gamma   81.59495190
_symmetry_Int_Tables_number   1
_chemical_formula_structural   Cu3C23
_chemical_formula_sum   'Cu6 C46'
_cell_volume   1443.05471314
_cell_formula_units_Z   2
loop_
 _symmetry_equiv_pos_site_id
 _symmetry_equiv_pos_as_xyz
  1  'x, y, z'
loop_
 _atom_site_type_symbol
 _atom_site_label
 _atom_site_symmetry_multiplicity
 _atom_site_fract_x
 _atom_site_fract_y
 _atom_site_fract_z
 _atom_site_occupancy
  C  C0  1  0.13953700  0.03847100  0.07292900  1
  C  C1  1  0.96152900  0.86046300  0.42707100  1
  C  C2  1  0.86046300  0.96152900  0.92707100  1
  C  C3  1  0.03847100  0.13953700  0.57292900  1
  C  C4  1  0.39565000  0.88219300  0.43464100  1
  C  C5  1  0.11780700  0.60435000  0.06535900  1
  C  C6  1  0.60435000  0.11780700  0.56535900  1
  C  C7  1  0.88219300  0.39565000  0.93464100  1
  C  C8  1  0.50405700  0.23689300  0.99905800  1
  C  C9  1  0.76310700  0.49594300  0.50094200  1
  C  C10  1  0.49594300  0.76310700  0.00094200  1
  C  C11  1  0.23689300  0.50405700  0.49905800  1
  C  C12  1  0.58865600  0.22459900  0.34155600  1
  C  C13  1  0.77540100  0.41134400  0.15844400  1
  C  C14  1  0.41134400  0.77540100  0.65844400  1
  C  C15  1  0.22459900  0.58865600  0.84155600  1
  Cu  Cu16  1  0.70116328  0.89118575  0.15261058  1
  Cu  Cu17  1  0.11050455  0.25095866  0.34028354  1
  Cu  Cu18  1  0.25519897  0.12964317  0.82833238  1
  Cu  Cu19  1  0.90554790  0.74328978  0.66762182  1
  Cu  Cu20  1  0.38998080  0.61685837  0.24292384  1
  Cu  Cu21  1  0.62485535  0.37112248  0.75314816  1
  C  C22  1  0.81613700  0.18386300  0.25000000  1
  C  C23  1  0.18386300  0.81613700  0.75000000  1
  C  C24  1  0.19623700  0.93428900  0.34235500  1
  C  C25  1  0.06571100  0.80376300  0.15764500  1
  C  C26  1  0.80376300  0.06571100  0.65764500  1
  C  C27  1  0.93428900  0.19623700  0.84235500  1
  C  C28  1  0.82960000  0.11108300  0.03651800  1
  C  C29  1  0.88891700  0.17040000  0.46348200  1
  C  C30  1  0.17040000  0.88891700  0.96348200  1
  C  C31  1  0.11108300  0.82960000  0.53651800  1
  C  C32  1  0.42799600  0.95093700  0.09718700  1
  C  C33  1  0.04906300  0.57200400  0.40281300  1
  C  C34  1  0.57200400  0.04906300  0.90281300  1
  C  C35  1  0.95093700  0.42799600  0.59718700  1
  C  C36  1  0.44984600  0.60587700  0.41119600  1
  C  C37  1  0.39412300  0.55015400  0.08880400  1
  C  C38  1  0.55015400  0.39412300  0.58880400  1
  C  C39  1  0.60587700  0.44984600  0.91119600  1
  C  C40  1  0.59615000  0.94647800  0.33697100  1
  C  C41  1  0.05352200  0.40385000  0.16302900  1
  C  C42  1  0.40385000  0.05352200  0.66302900  1
  C  C43  1  0.94647800  0.59615000  0.83697100  1
  C  C44  1  0.23402700  0.29415100  0.96274900  1
  C  C45  1  0.70584900  0.76597300  0.53725100  1
  C  C46  1  0.76597300  0.70584900  0.03725100  1
  C  C47  1  0.29415100  0.23402700  0.46274900  1
  C  C48  1  0.30955900  0.39983300  0.75130400  1
  C  C49  1  0.60016700  0.69044100  0.74869600  1
  C  C50  1  0.69044100  0.60016700  0.24869600  1
  C  C51  1  0.39983300  0.30955900  0.25130400  1
