# generated using pymatgen
data_Cu6C23
_symmetry_space_group_name_H-M   'P 1'
_cell_length_a   8.70646579
_cell_length_b   8.70646579
_cell_length_c   8.70646579
_cell_angle_alpha   60.00000000
_cell_angle_beta   60.00000000
_cell_angle_gamma   60.00000000
_symmetry_Int_Tables_number   1
_chemical_formula_structural   Cu6C23
_chemical_formula_sum   'Cu6 C23'
_cell_volume   466.67087336
_cell_formula_units_Z   1
loop_
 _symmetry_equiv_pos_site_id
 _symmetry_equiv_pos_as_xyz
  1  'x, y, z'
loop_
 _atom_site_type_symbol
 _atom_site_label
 _atom_site_symmetry_multiplicity
 _atom_site_fract_x
 _atom_site_fract_y
 _atom_site_fract_z
 _atom_site_occupancy
  C  C0  1  0.25000000  0.25000000  0.25000000  1
  C  C1  1  0.75000000  0.75000000  0.75000000  1
  C  C2  1  0.00000000  0.00000000  0.00000000  1
  Cu  Cu3  1  0.75265155  0.26868121  0.25365281  1
  Cu  Cu4  1  0.28205201  0.75426306  0.69407672  1
  Cu  Cu5  1  0.26148934  0.70708600  0.24651493  1
  Cu  Cu6  1  0.73338047  0.26809941  0.73956359  1
  Cu  Cu7  1  0.28796277  0.26254171  0.70843829  1
  Cu  Cu8  1  0.75329738  0.75767219  0.25976105  1
  C  C9  1  0.38474900  0.38474900  0.38474900  1
  C  C10  1  0.61525100  0.61525100  0.61525100  1
  C  C11  1  0.38474900  0.38474900  0.84575300  1
  C  C12  1  0.38474900  0.84575300  0.38474900  1
  C  C13  1  0.61525100  0.61525100  0.15424700  1
  C  C14  1  0.61525100  0.15424700  0.61525100  1
  C  C15  1  0.84575300  0.38474900  0.38474900  1
  C  C16  1  0.15424700  0.61525100  0.61525100  1
  C  C17  1  0.34599300  0.00000000  0.00000000  1
  C  C18  1  0.65400700  0.00000000  0.00000000  1
  C  C19  1  0.00000000  0.34599300  0.65400700  1
  C  C20  1  0.00000000  0.65400700  0.34599300  1
  C  C21  1  0.00000000  0.34599300  0.00000000  1
  C  C22  1  0.65400700  0.00000000  0.34599300  1
  C  C23  1  0.00000000  0.65400700  0.00000000  1
  C  C24  1  0.34599300  0.00000000  0.65400700  1
  C  C25  1  0.00000000  0.00000000  0.34599300  1
  C  C26  1  0.00000000  0.00000000  0.65400700  1
  C  C27  1  0.65400700  0.34599300  0.00000000  1
  C  C28  1  0.34599300  0.65400700  0.00000000  1
