# generated using pymatgen
data_Cu10C9
_symmetry_space_group_name_H-M   'P 1'
_cell_length_a   5.16634822
_cell_length_b   5.11436423
_cell_length_c   8.91455435
_cell_angle_alpha   90.03367103
_cell_angle_beta   90.02940453
_cell_angle_gamma   102.32419988
_symmetry_Int_Tables_number   1
_chemical_formula_structural   Cu10C9
_chemical_formula_sum   'Cu10 C9'
_cell_volume   230.11746698
_cell_formula_units_Z   1
loop_
 _symmetry_equiv_pos_site_id
 _symmetry_equiv_pos_as_xyz
  1  'x, y, z'
loop_
 _atom_site_type_symbol
 _atom_site_label
 _atom_site_symmetry_multiplicity
 _atom_site_fract_x
 _atom_site_fract_y
 _atom_site_fract_z
 _atom_site_occupancy
  C  C0  1  0.94886345  0.46915224  0.66156773  1
  C  C1  1  0.03418750  0.96645340  0.00358428  1
  C  C2  1  0.03376479  0.96682696  0.32165894  1
  C  C3  1  0.04837004  0.98645290  0.66276586  1
  C  C4  1  0.44132645  0.54831230  0.16237281  1
  C  C5  1  0.44998309  0.56878919  0.83666337  1
  C  C6  1  0.45008844  0.56900585  0.48812166  1
  Cu  Cu7  1  0.19893819  0.81374237  0.13212440  1
  Cu  Cu8  1  0.17493805  0.79955079  0.45621339  1
  Cu  Cu9  1  0.12247875  0.78443572  0.80520111  1
  Cu  Cu10  1  0.28168531  0.30667076  0.96761613  1
  Cu  Cu11  1  0.29523503  0.33294337  0.33705165  1
  Cu  Cu12  1  0.28783319  0.33439989  0.66593785  1
  Cu  Cu13  1  0.67962503  0.68942745  0.98441028  1
  Cu  Cu14  1  0.70177166  0.76481360  0.32928264  1
  Cu  Cu15  1  0.68128635  0.73615487  0.64426955  1
  Cu  Cu16  1  0.87984170  0.12655334  0.16615536  1
  C  C17  1  0.84934135  0.17956410  0.81328070  1
  C  C18  1  0.84946878  0.17824800  0.51085364  1
