# generated using pymatgen
data_Cu13Ni5C12
_symmetry_space_group_name_H-M   'P 1'
_cell_length_a   8.73565197
_cell_length_b   13.27251205
_cell_length_c   25.99903580
_cell_angle_alpha   90.00000000
_cell_angle_beta   90.00000000
_cell_angle_gamma   106.83195672
_symmetry_Int_Tables_number   1
_chemical_formula_structural   Cu13Ni5C12
_chemical_formula_sum   'Cu78 Ni30 C72'
_cell_volume   2885.28947443
_cell_formula_units_Z   6
loop_
 _symmetry_equiv_pos_site_id
 _symmetry_equiv_pos_as_xyz
  1  'x, y, z'
loop_
 _atom_site_type_symbol
 _atom_site_label
 _atom_site_symmetry_multiplicity
 _atom_site_fract_x
 _atom_site_fract_y
 _atom_site_fract_z
 _atom_site_occupancy
  C  C0  1  0.42248988  0.75199601  0.07399265  1
  C  C1  1  0.07751012  0.74800399  0.57399265  1
  C  C2  1  0.57751012  0.24800399  0.92600735  1
  C  C3  1  0.92248988  0.25199601  0.42600735  1
  C  C4  1  0.68150571  0.42999427  0.07524039  1
  C  C5  1  0.81849429  0.07000573  0.57524039  1
  C  C6  1  0.31849429  0.57000573  0.92475961  1
  C  C7  1  0.18150571  0.92999427  0.42475961  1
  C  C8  1  0.07225020  0.09861105  0.07166291  1
  C  C9  1  0.42774980  0.40138895  0.57166291  1
  C  C10  1  0.92774980  0.90138895  0.92833709  1
  C  C11  1  0.57225020  0.59861105  0.42833709  1
  C  C12  1  0.30451533  0.34012140  0.01034544  1
  C  C13  1  0.19548467  0.15987860  0.51034544  1
  C  C14  1  0.69548467  0.65987860  0.98965456  1
  C  C15  1  0.80451533  0.84012140  0.48965456  1
  C  C16  1  0.88760720  0.28037799  0.10694183  1
  C  C17  1  0.61239280  0.21962201  0.60694183  1
  C  C18  1  0.11239280  0.71962201  0.89305817  1
  C  C19  1  0.38760720  0.78037799  0.39305817  1
  C  C20  1  0.67055570  0.01627989  0.00702301  1
  C  C21  1  0.82944430  0.48372011  0.50702301  1
  C  C22  1  0.32944430  0.98372011  0.99297699  1
  C  C23  1  0.17055570  0.51627989  0.49297699  1
  C  C24  1  0.24517793  0.94498554  0.10382918  1
  C  C25  1  0.25482207  0.55501446  0.60382918  1
  C  C26  1  0.75482207  0.05501446  0.89617082  1
  C  C27  1  0.74517793  0.44498554  0.39617082  1
  C  C28  1  0.08567101  0.62328486  0.04714174  1
  C  C29  1  0.41432899  0.87671514  0.54714174  1
  C  C30  1  0.91432899  0.37671514  0.95285826  1
  C  C31  1  0.58567101  0.12328486  0.45285826  1
  C  C32  1  0.04353929  0.68804744  0.00096500  1
  C  C33  1  0.45646071  0.81195256  0.50096500  1
  C  C34  1  0.95646071  0.31195256  0.99903500  1
  C  C35  1  0.54353929  0.18804744  0.49903500  1
  C  C36  1  0.41140432  0.22981160  0.19510390  1
  C  C37  1  0.08859568  0.27018840  0.69510390  1
  C  C38  1  0.58859568  0.77018840  0.80489610  1
  C  C39  1  0.91140432  0.72981160  0.30489610  1
  C  C40  1  0.01001697  0.05033146  0.29753138  1
  C  C41  1  0.48998303  0.44966854  0.79753138  1
  C  C42  1  0.98998303  0.94966854  0.70246862  1
  C  C43  1  0.51001697  0.55033146  0.20246862  1
  C  C44  1  0.02410786  0.57898474  0.18252423  1
  C  C45  1  0.47589214  0.92101526  0.68252423  1
  C  C46  1  0.97589214  0.42101526  0.81747577  1
  C  C47  1  0.52410786  0.07898474  0.31747577  1
  C  C48  1  0.76699366  0.90439612  0.19482073  1
  C  C49  1  0.73300634  0.59560388  0.69482073  1
  C  C50  1  0.23300634  0.09560388  0.80517927  1
  C  C51  1  0.26699366  0.40439612  0.30517927  1
  C  C52  1  0.88396889  0.77019442  0.08561351  1
  C  C53  1  0.61603111  0.72980558  0.58561351  1
  C  C54  1  0.11603111  0.22980558  0.91438649  1
  C  C55  1  0.38396889  0.27019442  0.41438649  1
  C  C56  1  0.19450568  0.42268012  0.08318135  1
  C  C57  1  0.30549432  0.07731988  0.58318135  1
  C  C58  1  0.80549432  0.57731988  0.91681865  1
  C  C59  1  0.69450568  0.92268012  0.41681865  1
  C  C60  1  0.90484171  0.23213739  0.19873695  1
  C  C61  1  0.59515829  0.26786261  0.69873695  1
  C  C62  1  0.09515829  0.76786261  0.80126305  1
  C  C63  1  0.40484171  0.73213739  0.30126305  1
  C  C64  1  0.55655694  0.09259106  0.08062745  1
  C  C65  1  0.94344306  0.40740894  0.58062745  1
  C  C66  1  0.44344306  0.90740894  0.91937255  1
  C  C67  1  0.05655694  0.59259106  0.41937255  1
  C  C68  1  0.26506721  0.89659769  0.19538690  1
  C  C69  1  0.23493279  0.60340231  0.69538690  1
  C  C70  1  0.73493279  0.10340231  0.80461310  1
  C  C71  1  0.76506721  0.39659769  0.30461310  1
  Cu  Cu72  1  0.48460500  0.35140552  0.17335345  1
  Cu  Cu73  1  0.00310664  0.14447584  0.66513414  1
  Ni  Ni74  1  0.50061179  0.63660881  0.82944154  1
  Cu  Cu75  1  0.98472902  0.88425151  0.34169253  1
  Cu  Cu76  1  0.56969675  0.19883070  0.22179840  1
  Ni  Ni77  1  0.91448271  0.29865227  0.72497162  1
  Ni  Ni78  1  0.41448271  0.79865227  0.77502838  1
  Ni  Ni79  1  0.08551729  0.70134773  0.27502838  1
  Cu  Cu80  1  0.38774522  0.16337683  0.12777545  1
  Cu  Cu81  1  0.10338410  0.32778030  0.62786814  1
  Ni  Ni82  1  0.60957720  0.83711331  0.86819335  1
  Cu  Cu83  1  0.88147895  0.66513231  0.35902058  1
  Cu  Cu84  1  0.97646216  0.07521838  0.36726515  1
  Cu  Cu85  1  0.52305822  0.43245675  0.85971799  1
  Cu  Cu86  1  0.07440134  0.95591109  0.63670953  1
  Cu  Cu87  1  0.45757760  0.55891320  0.14332181  1
  Cu  Cu88  1  0.06835906  0.17613364  0.26950244  1
  Cu  Cu89  1  0.44811843  0.30195552  0.77161369  1
  Cu  Cu90  1  0.94079427  0.79267984  0.72701607  1
  Cu  Cu91  1  0.54034198  0.68493604  0.22568397  1
  Cu  Cu92  1  0.79311282  0.99533979  0.27185277  1
  Ni  Ni93  1  0.69980276  0.50298580  0.77070419  1
  Cu  Cu94  1  0.19521378  0.99422089  0.72894323  1
  Cu  Cu95  1  0.33098428  0.51283043  0.23317511  1
  Ni  Ni96  1  0.17959169  0.69476737  0.16093884  1
  Ni  Ni97  1  0.32040831  0.80523263  0.66093884  1
  Cu  Cu98  1  0.80896925  0.29279106  0.84349252  1
  Cu  Cu99  1  0.67666123  0.19084371  0.34597323  1
  Cu  Cu100  1  0.85374338  0.61956339  0.16012369  1
  Cu  Cu101  1  0.68448913  0.88643851  0.66713647  1
  Cu  Cu102  1  0.16407561  0.38830187  0.83995494  1
  Ni  Ni103  1  0.34181125  0.11233151  0.33466745  1
  Cu  Cu104  1  0.01316825  0.50347278  0.12427253  1
  Cu  Cu105  1  0.45888122  0.00720436  0.62860945  1
  Cu  Cu106  1  0.99654465  0.50472981  0.87900700  1
  Ni  Ni107  1  0.51868783  0.99524349  0.37599628  1
  Cu  Cu108  1  0.86318102  0.02982539  0.16040388  1
  Cu  Cu109  1  0.63721921  0.47484537  0.67048622  1
  Cu  Cu110  1  0.10619764  0.96864053  0.83451163  1
  Cu  Cu111  1  0.36536935  0.52103128  0.33780181  1
  Cu  Cu112  1  0.91291800  0.86948972  0.21439382  1
  Cu  Cu113  1  0.57694543  0.64960285  0.71943651  1
  Cu  Cu114  1  0.05131034  0.14266637  0.78875634  1
  Cu  Cu115  1  0.43516547  0.36226663  0.28652090  1
  Cu  Cu116  1  0.73325927  0.82895570  0.12787625  1
  Cu  Cu117  1  0.78124241  0.66734986  0.64104426  1
  Ni  Ni118  1  0.26724342  0.17546616  0.87232753  1
  Cu  Cu119  1  0.20513305  0.30566604  0.37720816  1
  Ni  Ni120  1  0.93600371  0.87456959  0.03897099  1
  Cu  Cu121  1  0.57793360  0.63316047  0.54319533  1
  Cu  Cu122  1  0.07396162  0.11765401  0.95870449  1
  Cu  Cu123  1  0.43741321  0.36670923  0.46777549  1
  Ni  Ni124  1  0.71949864  0.67552187  0.05323746  1
  Cu  Cu125  1  0.77066257  0.82874987  0.55408767  1
  Cu  Cu126  1  0.26189716  0.32232868  0.94190259  1
  Cu  Cu127  1  0.24898555  0.19538048  0.44740027  1
  Ni  Ni128  1  0.21692467  0.52686018  0.03632354  1
  Ni  Ni129  1  0.28307533  0.97313982  0.53632354  1
  Cu  Cu130  1  0.78828025  0.47434902  0.96656416  1
  Cu  Cu131  1  0.71675966  0.02177137  0.46610103  1
  Cu  Cu132  1  0.97006323  0.32033037  0.05887135  1
  Cu  Cu133  1  0.49010444  0.17586150  0.56133606  1
  Cu  Cu134  1  0.00381240  0.67492243  0.94395200  1
  Cu  Cu135  1  0.50605371  0.83176649  0.44541872  1
  Cu  Cu136  1  0.36926633  0.36662023  0.05357187  1
  Cu  Cu137  1  0.15280168  0.12679271  0.55472702  1
  Ni  Ni138  1  0.66462584  0.64611771  0.95214838  1
  Ni  Ni139  1  0.83537416  0.85388229  0.45214838  1
  Cu  Cu140  1  0.11654778  0.26921940  0.16781274  1
  Cu  Cu141  1  0.39708387  0.23407729  0.67275501  1
  Cu  Cu142  1  0.90227866  0.71988085  0.83323855  1
  Cu  Cu143  1  0.61355417  0.76648142  0.33702192  1
  Ni  Ni144  1  0.92315382  0.36100226  0.22818241  1
  Cu  Cu145  1  0.57819306  0.14071918  0.72318703  1
  Cu  Cu146  1  0.06850428  0.64124696  0.77431667  1
  Ni  Ni147  1  0.42315382  0.86100226  0.27181759  1
  Ni  Ni148  1  0.79996904  0.25028756  0.13356806  1
  Cu  Cu149  1  0.70006606  0.25612470  0.63924116  1
  Cu  Cu150  1  0.18474361  0.73978717  0.86533203  1
  Cu  Cu151  1  0.31318947  0.75337613  0.37437857  1
  Ni  Ni152  1  0.58212720  0.20107141  0.03692827  1
  Cu  Cu153  1  0.91760950  0.29917133  0.53854321  1
  Ni  Ni154  1  0.41787280  0.79892859  0.96307173  1
  Cu  Cu155  1  0.08739860  0.71120938  0.46591335  1
  Cu  Cu156  1  0.36469128  0.00343277  0.05691363  1
  Cu  Cu157  1  0.15049769  0.50454523  0.55438437  1
  Cu  Cu158  1  0.63440163  0.99399820  0.93921266  1
  Ni  Ni159  1  0.86701855  0.50201428  0.44303164  1
  Cu  Cu160  1  0.66543747  0.01355005  0.04349151  1
  Ni  Ni161  1  0.80307173  0.47575450  0.54494866  1
  Ni  Ni162  1  0.30307173  0.97575450  0.95505134  1
  Cu  Cu163  1  0.17815132  0.52800947  0.45146309  1
  Ni  Ni164  1  0.27882211  0.02225191  0.22583824  1
  Ni  Ni165  1  0.22117789  0.47774809  0.72583824  1
  Cu  Cu166  1  0.72139034  0.99473697  0.76483884  1
  Cu  Cu167  1  0.76743539  0.52016033  0.28010498  1
  Cu  Cu168  1  0.47026428  0.92352481  0.16151906  1
  Cu  Cu169  1  0.04888345  0.57782055  0.65940833  1
  Cu  Cu170  1  0.53198190  0.07389009  0.83671384  1
  Ni  Ni171  1  0.95777029  0.42063901  0.33676795  1
  Cu  Cu172  1  0.16634424  0.91539603  0.12908943  1
  Cu  Cu173  1  0.34352120  0.58857024  0.62211074  1
  Ni  Ni174  1  0.84146770  0.08480221  0.86938108  1
  Cu  Cu175  1  0.66774378  0.41289372  0.36916553  1
  Cu  Cu176  1  0.07147950  0.68973713  0.03251250  1
  Ni  Ni177  1  0.42560155  0.80692596  0.53842355  1
  Cu  Cu178  1  0.93784880  0.29776478  0.95771356  1
  Cu  Cu179  1  0.54880997  0.19379702  0.46030609  1
