# generated using pymatgen
data_CuC4
_symmetry_space_group_name_H-M   'P 1'
_cell_length_a   4.46873951
_cell_length_b   6.20594265
_cell_length_c   5.27077400
_cell_angle_alpha   90.00000000
_cell_angle_beta   90.00000000
_cell_angle_gamma   133.97726735
_symmetry_Int_Tables_number   1
_chemical_formula_structural   CuC4
_chemical_formula_sum   'Cu2 C8'
_cell_volume   105.18834338
_cell_formula_units_Z   2
loop_
 _symmetry_equiv_pos_site_id
 _symmetry_equiv_pos_as_xyz
  1  'x, y, z'
loop_
 _atom_site_type_symbol
 _atom_site_label
 _atom_site_symmetry_multiplicity
 _atom_site_fract_x
 _atom_site_fract_y
 _atom_site_fract_z
 _atom_site_occupancy
  C  C0  1  0.37077200  0.02883500  0.82789800  1
  C  C1  1  0.62922800  0.65806300  0.82789800  1
  C  C2  1  0.62922800  0.97116500  0.32789800  1
  C  C3  1  0.37077200  0.34193700  0.32789800  1
  Cu  Cu4  1  0.05233723  0.54684833  0.59839320  1
  Cu  Cu5  1  0.02012410  0.49314611  0.10149292  1
  C  C6  1  0.44484300  0.12134300  0.16376400  1
  C  C7  1  0.55515700  0.67650000  0.16376400  1
  C  C8  1  0.55515700  0.87865700  0.66376400  1
  C  C9  1  0.44484300  0.32350000  0.66376400  1
