# generated using pymatgen
data_Cu10Ni3C5
_symmetry_space_group_name_H-M   'P 1'
_cell_length_a   2.86157800
_cell_length_b   5.04770100
_cell_length_c   24.26773246
_cell_angle_alpha   86.21119977
_cell_angle_beta   90.00000000
_cell_angle_gamma   90.00000000
_symmetry_Int_Tables_number   1
_chemical_formula_structural   Cu10Ni3C5
_chemical_formula_sum   'Cu20 Ni6 C10'
_cell_volume   349.76647262
_cell_formula_units_Z   2
loop_
 _symmetry_equiv_pos_site_id
 _symmetry_equiv_pos_as_xyz
  1  'x, y, z'
loop_
 _atom_site_type_symbol
 _atom_site_label
 _atom_site_symmetry_multiplicity
 _atom_site_fract_x
 _atom_site_fract_y
 _atom_site_fract_z
 _atom_site_occupancy
  Ni  Ni0  1  0.50000000  0.70286900  0.39844900  1
  Ni  Ni1  1  0.50000000  0.90002000  0.80098600  1
  Ni  Ni2  1  0.50000000  0.09998000  0.19901400  1
  Ni  Ni3  1  0.50000000  0.50000000  0.00000000  1
  Ni  Ni4  1  0.50000000  0.29713100  0.60155100  1
  Ni  Ni5  1  0.00000000  0.00000000  0.00000000  1
  C  C6  1  0.50000000  0.00000000  0.50000000  1
  C  C7  1  0.00000000  0.50000000  0.50000000  1
  C  C8  1  0.50000000  0.20389300  0.89841900  1
  C  C9  1  0.50000000  0.40039600  0.29922300  1
  C  C10  1  0.50000000  0.59960400  0.70077700  1
  C  C11  1  0.50000000  0.79610700  0.10158100  1
  C  C12  1  0.00000000  0.90048500  0.29899500  1
  C  C13  1  0.00000000  0.09951500  0.70100500  1
  C  C14  1  0.00000000  0.29839100  0.09750800  1
  C  C15  1  0.00000000  0.70160900  0.90249200  1
  Cu  Cu16  1  0.50000000  0.97514800  0.65913600  1
  Cu  Cu17  1  0.50000000  0.02485200  0.34086400  1
  Cu  Cu18  1  0.50000000  0.16613600  0.05384400  1
  Cu  Cu19  1  0.50000000  0.22440500  0.74291400  1
  Cu  Cu20  1  0.50000000  0.35618500  0.45564500  1
  Cu  Cu21  1  0.50000000  0.41935900  0.13961600  1
  Cu  Cu22  1  0.50000000  0.58064100  0.86038400  1
  Cu  Cu23  1  0.50000000  0.64381500  0.54435500  1
  Cu  Cu24  1  0.50000000  0.77559500  0.25708600  1
  Cu  Cu25  1  0.50000000  0.83386400  0.94615600  1
  Cu  Cu26  1  0.00000000  0.97903400  0.14103500  1
  Cu  Cu27  1  0.00000000  0.02096600  0.85896500  1
  Cu  Cu28  1  0.00000000  0.16484700  0.54550400  1
  Cu  Cu29  1  0.00000000  0.23193700  0.25915500  1
  Cu  Cu30  1  0.00000000  0.36538300  0.94390700  1
  Cu  Cu31  1  0.00000000  0.43040500  0.66089700  1
  Cu  Cu32  1  0.00000000  0.56959500  0.33910300  1
  Cu  Cu33  1  0.00000000  0.63461700  0.05609300  1
  Cu  Cu34  1  0.00000000  0.76806300  0.74084500  1
  Cu  Cu35  1  0.00000000  0.83515300  0.45449600  1
