# generated using pymatgen
data_Cu11NiC14
_symmetry_space_group_name_H-M   'P 1'
_cell_length_a   8.20751500
_cell_length_b   8.14707142
_cell_length_c   11.89761590
_cell_angle_alpha   109.15241742
_cell_angle_beta   90.00000000
_cell_angle_gamma   120.24572130
_symmetry_Int_Tables_number   1
_chemical_formula_structural   Cu11NiC14
_chemical_formula_sum   'Cu11 Ni1 C14'
_cell_volume   635.77113328
_cell_formula_units_Z   1
loop_
 _symmetry_equiv_pos_site_id
 _symmetry_equiv_pos_as_xyz
  1  'x, y, z'
loop_
 _atom_site_type_symbol
 _atom_site_label
 _atom_site_symmetry_multiplicity
 _atom_site_fract_x
 _atom_site_fract_y
 _atom_site_fract_z
 _atom_site_occupancy
  C  C0  1  0.73359600  0.46719200  0.24937300  1
  C  C1  1  0.26640400  0.53280800  0.75062700  1
  C  C2  1  0.50000000  0.00000000  0.50000000  1
  C  C3  1  0.00000000  0.00000000  0.00000000  1
  C  C4  1  0.29126500  0.26841000  0.76381000  1
  C  C5  1  0.70873500  0.73159000  0.23619000  1
  C  C6  1  0.02285500  0.73159000  0.23619000  1
  C  C7  1  0.97714500  0.26841000  0.76381000  1
  C  C8  1  0.31836200  0.63672400  0.91206900  1
  C  C9  1  0.68163800  0.36327600  0.08793100  1
  C  C10  1  0.49941100  0.66465000  0.71031400  1
  C  C11  1  0.50058900  0.33535000  0.28968600  1
  C  C12  1  0.83476100  0.33535000  0.28968600  1
  C  C13  1  0.16523900  0.66465000  0.71031400  1
  Cu  Cu14  1  0.71803273  0.01920694  0.02293416  1
  Cu  Cu15  1  0.25344268  0.95397309  0.99457236  1
  Cu  Cu16  1  0.49029042  0.02941292  0.68789938  1
  Cu  Cu17  1  0.52204594  0.05201006  0.31061375  1
  Cu  Cu18  1  0.83770889  0.66544803  0.90440874  1
  Cu  Cu19  1  0.14258039  0.36463790  0.10163073  1
  Cu  Cu20  1  0.67107546  0.34348833  0.57910400  1
  Ni  Ni21  1  0.32320500  0.64641000  0.41684100  1
  Cu  Cu22  1  0.03744423  0.13144307  0.76129548  1
  Cu  Cu23  1  0.91790456  0.83389401  0.23707921  1
  Cu  Cu24  1  0.87717339  0.73613522  0.44823667  1
  Cu  Cu25  1  0.14682989  0.28907044  0.53409315  1
