# generated using pymatgen
data_Cu7Ni2C23
_symmetry_space_group_name_H-M   'P 1'
_cell_length_a   5.90638100
_cell_length_b   6.53408332
_cell_length_c   7.77198480
_cell_angle_alpha   86.52775199
_cell_angle_beta   80.74713013
_cell_angle_gamma   76.88464505
_symmetry_Int_Tables_number   1
_chemical_formula_structural   Cu7Ni2C23
_chemical_formula_sum   'Cu7 Ni2 C23'
_cell_volume   288.22716694
_cell_formula_units_Z   1
loop_
 _symmetry_equiv_pos_site_id
 _symmetry_equiv_pos_as_xyz
  1  'x, y, z'
loop_
 _atom_site_type_symbol
 _atom_site_label
 _atom_site_symmetry_multiplicity
 _atom_site_fract_x
 _atom_site_fract_y
 _atom_site_fract_z
 _atom_site_occupancy
  Cu  Cu0  1  0.88904922  0.89095462  0.39486149  1
  Cu  Cu1  1  0.71852332  0.33727006  0.85695390  1
  Ni  Ni2  1  0.57234100  0.12669700  0.61157200  1
  Cu  Cu3  1  0.31656392  0.61873363  0.11446843  1
  Cu  Cu4  1  0.12817000  0.37130295  0.90311393  1
  Cu  Cu5  1  0.82976641  0.61290047  0.12885393  1
  Cu  Cu6  1  0.43270144  0.88386963  0.36811904  1
  Cu  Cu7  1  0.01957461  0.15999404  0.63485548  1
  Ni  Ni8  1  0.62582600  0.25187700  0.24874700  1
  C  C9  1  0.99821600  0.99724200  0.00413000  1
  C  C10  1  0.74712000  0.50029500  0.49510500  1
  C  C11  1  0.49697400  0.01406300  0.00781200  1
  C  C12  1  0.25714600  0.49871300  0.49323400  1
  C  C13  1  0.37657800  0.75157500  0.75238000  1
  C  C14  1  0.11912000  0.24799900  0.25530900  1
  C  C15  1  0.87597200  0.74540200  0.74938000  1
  C  C16  1  0.20957900  0.94167200  0.17807900  1
  C  C17  1  0.94954800  0.45758100  0.68256800  1
  C  C18  1  0.84335700  0.21035100  0.43881600  1
  C  C19  1  0.58338100  0.70153000  0.92724400  1
  C  C20  1  0.48324000  0.44664500  0.66094200  1
  C  C21  1  0.09300000  0.70270600  0.93450000  1
  C  C22  1  0.74013000  0.93981500  0.16634600  1
  C  C23  1  0.32389000  0.21032300  0.43307600  1
  C  C24  1  0.65915600  0.79977200  0.56566400  1
  C  C25  1  0.40486600  0.29646000  0.05913500  1
  C  C26  1  0.25889800  0.04968900  0.82788200  1
  C  C27  1  0.01995400  0.55271900  0.33561900  1
  C  C28  1  0.92573600  0.28871400  0.06658300  1
  C  C29  1  0.54614600  0.56236900  0.32334100  1
  C  C30  1  0.17025700  0.78710500  0.57016100  1
  C  C31  1  0.79520500  0.04421500  0.82278000  1
