# generated using pymatgen
data_Cu3Ni3C17
_symmetry_space_group_name_H-M   'P 1'
_cell_length_a   8.59268674
_cell_length_b   8.59268674
_cell_length_c   8.59268674
_cell_angle_alpha   109.47122063
_cell_angle_beta   109.47122063
_cell_angle_gamma   109.47122063
_symmetry_Int_Tables_number   1
_chemical_formula_structural   Cu3Ni3C17
_chemical_formula_sum   'Cu3 Ni3 C17'
_cell_volume   488.38806935
_cell_formula_units_Z   1
loop_
 _symmetry_equiv_pos_site_id
 _symmetry_equiv_pos_as_xyz
  1  'x, y, z'
loop_
 _atom_site_type_symbol
 _atom_site_label
 _atom_site_symmetry_multiplicity
 _atom_site_fract_x
 _atom_site_fract_y
 _atom_site_fract_z
 _atom_site_occupancy
  Cu  Cu0  1  0.01748706  0.32966560  0.31414689  1
  Cu  Cu1  1  0.00536667  0.68733737  0.70365156  1
  Ni  Ni2  1  0.30216900  0.00000000  0.30216900  1
  Ni  Ni3  1  0.69783100  0.69783100  0.00000000  1
  Cu  Cu4  1  0.68913222  0.97221055  0.68166994  1
  Ni  Ni5  1  0.30216900  0.30216900  0.00000000  1
  C  C6  1  0.00000000  0.00000000  0.50000000  1
  C  C7  1  0.50000000  0.00000000  0.00000000  1
  C  C8  1  0.00000000  0.50000000  0.00000000  1
  C  C9  1  0.50000000  0.50000000  0.50000000  1
  C  C10  1  0.34079900  0.65920100  0.00000000  1
  C  C11  1  0.00000000  0.34079900  0.65920100  1
  C  C12  1  0.65920100  0.00000000  0.34079900  1
  C  C13  1  0.31840100  0.65920100  0.65920100  1
  C  C14  1  0.65920100  0.31840100  0.65920100  1
  C  C15  1  0.68159900  0.34079900  0.34079900  1
  C  C16  1  0.34079900  0.68159900  0.34079900  1
  C  C17  1  0.34079900  0.34079900  0.68159900  1
  C  C18  1  0.00000000  0.65920100  0.34079900  1
  C  C19  1  0.65920100  0.65920100  0.31840100  1
  C  C20  1  0.34079900  0.00000000  0.65920100  1
  C  C21  1  0.00000000  0.00000000  0.00000000  1
  C  C22  1  0.65920100  0.34079900  0.00000000  1
