# generated using pymatgen
data_CuC2
_symmetry_space_group_name_H-M   'P 1'
_cell_length_a   3.25342501
_cell_length_b   3.25342501
_cell_length_c   36.93006000
_cell_angle_alpha   90.00000000
_cell_angle_beta   90.00000000
_cell_angle_gamma   120.00002055
_symmetry_Int_Tables_number   1
_chemical_formula_structural   CuC2
_chemical_formula_sum   'Cu4 C8'
_cell_volume   338.52609919
_cell_formula_units_Z   4
loop_
 _symmetry_equiv_pos_site_id
 _symmetry_equiv_pos_as_xyz
  1  'x, y, z'
loop_
 _atom_site_type_symbol
 _atom_site_label
 _atom_site_symmetry_multiplicity
 _atom_site_fract_x
 _atom_site_fract_y
 _atom_site_fract_z
 _atom_site_occupancy
  Cu  Cu0  1  0.99520261  0.96892620  0.09038266  1
  Cu  Cu1  1  0.98856116  0.98463675  0.47199409  1
  Cu  Cu2  1  0.27979158  0.65630089  0.28139341  1
  Cu  Cu3  1  0.26798809  0.62557282  0.65753336  1
  C  C4  1  0.00000000  0.00000000  0.70382900  1
  C  C5  1  0.33333300  0.66666700  0.42339400  1
  C  C6  1  0.33333300  0.66666700  0.51591900  1
  C  C7  1  0.00000000  0.00000000  0.61129000  1
  C  C8  1  0.00000000  0.00000000  0.32379500  1
  C  C9  1  0.33333300  0.66666700  0.05190900  1
  C  C10  1  0.33333300  0.66666700  0.13592400  1
  C  C11  1  0.00000000  0.00000000  0.23978600  1
