# generated using pymatgen
data_CuNi
_symmetry_space_group_name_H-M   'P 1'
_cell_length_a   9.16653700
_cell_length_b   10.07873400
_cell_length_c   16.03328000
_cell_angle_alpha   90.00000000
_cell_angle_beta   90.00000000
_cell_angle_gamma   90.00000000
_symmetry_Int_Tables_number   1
_chemical_formula_structural   CuNi
_chemical_formula_sum   'Cu24 Ni24'
_cell_volume   1481.26805228
_cell_formula_units_Z   24
loop_
 _symmetry_equiv_pos_site_id
 _symmetry_equiv_pos_as_xyz
  1  'x, y, z'
loop_
 _atom_site_type_symbol
 _atom_site_label
 _atom_site_symmetry_multiplicity
 _atom_site_fract_x
 _atom_site_fract_y
 _atom_site_fract_z
 _atom_site_occupancy
  Ni  Ni0  1  0.72561100  0.51191600  0.81004200  1
  Ni  Ni1  1  0.22561100  0.98808400  0.68995800  1
  Ni  Ni2  1  0.77438900  0.51191600  0.18995800  1
  Ni  Ni3  1  0.27438900  0.98808400  0.31004200  1
  Ni  Ni4  1  0.27438900  0.48808400  0.18995800  1
  Ni  Ni5  1  0.77438900  0.01191600  0.31004200  1
  Ni  Ni6  1  0.22561100  0.48808400  0.81004200  1
  Ni  Ni7  1  0.72561100  0.01191600  0.68995800  1
  Ni  Ni8  1  0.94038900  0.68024300  0.97119700  1
  Ni  Ni9  1  0.44038900  0.81975700  0.52880300  1
  Ni  Ni10  1  0.55961100  0.68024300  0.02880300  1
  Ni  Ni11  1  0.05961100  0.81975700  0.47119700  1
  Ni  Ni12  1  0.05961100  0.31975700  0.02880300  1
  Ni  Ni13  1  0.55961100  0.18024300  0.47119700  1
  Ni  Ni14  1  0.44038900  0.31975700  0.97119700  1
  Ni  Ni15  1  0.94038900  0.18024300  0.52880300  1
  Ni  Ni16  1  0.75797800  0.67047000  0.61333600  1
  Ni  Ni17  1  0.25797800  0.82953000  0.88666400  1
  Ni  Ni18  1  0.74202200  0.67047000  0.38666400  1
  Ni  Ni19  1  0.24202200  0.82953000  0.11333600  1
  Ni  Ni20  1  0.24202200  0.32953000  0.38666400  1
  Ni  Ni21  1  0.74202200  0.17047000  0.11333600  1
  Ni  Ni22  1  0.25797800  0.32953000  0.61333600  1
  Ni  Ni23  1  0.75797800  0.17047000  0.88666400  1
  Cu  Cu24  1  0.75000000  0.92775400  0.50000000  1
  Cu  Cu25  1  0.25000000  0.57224600  0.00000000  1
  Cu  Cu26  1  0.25000000  0.07224600  0.50000000  1
  Cu  Cu27  1  0.75000000  0.42775400  0.00000000  1
  Cu  Cu28  1  0.51119900  0.24726100  0.25305500  1
  Cu  Cu29  1  0.01119900  0.25273900  0.24694500  1
  Cu  Cu30  1  0.98880100  0.24726100  0.74694500  1
  Cu  Cu31  1  0.48880100  0.25273900  0.75305500  1
  Cu  Cu32  1  0.48880100  0.75273900  0.74694500  1
  Cu  Cu33  1  0.98880100  0.74726100  0.75305500  1
  Cu  Cu34  1  0.01119900  0.75273900  0.25305500  1
  Cu  Cu35  1  0.51119900  0.74726100  0.24694500  1
  Cu  Cu36  1  0.30770500  0.14067900  0.13281800  1
  Cu  Cu37  1  0.80770500  0.35932100  0.36718200  1
  Cu  Cu38  1  0.19229500  0.14067900  0.86718200  1
  Cu  Cu39  1  0.69229500  0.35932100  0.63281800  1
  Cu  Cu40  1  0.69229500  0.85932100  0.86718200  1
  Cu  Cu41  1  0.19229500  0.64067900  0.63281800  1
  Cu  Cu42  1  0.80770500  0.85932100  0.13281800  1
  Cu  Cu43  1  0.30770500  0.64067900  0.36718200  1
  Cu  Cu44  1  0.00000000  0.50000000  0.50000000  1
  Cu  Cu45  1  0.50000000  0.00000000  0.00000000  1
  Cu  Cu46  1  0.50000000  0.50000000  0.50000000  1
  Cu  Cu47  1  0.00000000  0.00000000  0.00000000  1
