# generated using pymatgen
data_Cu21Ni3C40
_symmetry_space_group_name_H-M   'P 1'
_cell_length_a   7.35918200
_cell_length_b   7.62961300
_cell_length_c   14.28016500
_cell_angle_alpha   90.00000000
_cell_angle_beta   90.00000000
_cell_angle_gamma   90.00000000
_symmetry_Int_Tables_number   1
_chemical_formula_structural   Cu21Ni3C40
_chemical_formula_sum   'Cu21 Ni3 C40'
_cell_volume   801.79857255
_cell_formula_units_Z   1
loop_
 _symmetry_equiv_pos_site_id
 _symmetry_equiv_pos_as_xyz
  1  'x, y, z'
loop_
 _atom_site_type_symbol
 _atom_site_label
 _atom_site_symmetry_multiplicity
 _atom_site_fract_x
 _atom_site_fract_y
 _atom_site_fract_z
 _atom_site_occupancy
  C  C0  1  0.39510100  0.95750700  0.18948300  1
  C  C1  1  0.89510100  0.54249300  0.81051700  1
  C  C2  1  0.60489900  0.45750700  0.31051700  1
  C  C3  1  0.10489900  0.04249300  0.68948300  1
  C  C4  1  0.60489900  0.04249300  0.81051700  1
  C  C5  1  0.10489900  0.45750700  0.18948300  1
  C  C6  1  0.39510100  0.54249300  0.68948300  1
  C  C7  1  0.89510100  0.95750700  0.31051700  1
  Cu  Cu8  1  0.84477567  0.90389541  0.96199962  1
  Cu  Cu9  1  0.38815529  0.57207898  0.02970978  1
  Cu  Cu10  1  0.13800443  0.39538993  0.53843356  1
  Cu  Cu11  1  0.61270484  0.06811621  0.46752741  1
  Cu  Cu12  1  0.11658459  0.05938122  0.03512703  1
  Cu  Cu13  1  0.60572810  0.38361901  0.97107040  1
  Cu  Cu14  1  0.88089466  0.58985109  0.45210501  1
  Cu  Cu15  1  0.40897124  0.91053409  0.53894175  1
  Ni  Ni16  1  0.71498000  0.75983300  0.97744900  1
  Cu  Cu17  1  0.22849122  0.73694569  0.01868590  1
  Cu  Cu18  1  0.28059726  0.25420434  0.51541674  1
  Cu  Cu19  1  0.77429332  0.24459479  0.47813900  1
  Cu  Cu20  1  0.28776242  0.23468958  0.01969339  1
  Cu  Cu21  1  0.78013837  0.26132279  0.98932196  1
  Cu  Cu22  1  0.73995596  0.72381999  0.48386453  1
  Cu  Cu23  1  0.21718403  0.75929222  0.51800149  1
  Cu  Cu24  1  0.68311089  0.66764983  0.12703610  1
  Cu  Cu25  1  0.16544996  0.84873589  0.89474220  1
  Ni  Ni26  1  0.32887600  0.14693900  0.38036500  1
  Cu  Cu27  1  0.83816012  0.37658019  0.60227720  1
  Cu  Cu28  1  0.33828286  0.36916423  0.89647368  1
  Cu  Cu29  1  0.82927755  0.14654889  0.12362744  1
  Ni  Ni30  1  0.67112400  0.85306100  0.61963500  1
  Cu  Cu31  1  0.16440343  0.68091340  0.37157771  1
  C  C32  1  0.88092200  0.79408400  0.09306300  1
  C  C33  1  0.38092200  0.70591600  0.90693700  1
  C  C34  1  0.11907800  0.29408400  0.40693700  1
  C  C35  1  0.61907800  0.20591600  0.59306300  1
  C  C36  1  0.11907800  0.20591600  0.90693700  1
  C  C37  1  0.61907800  0.29408400  0.09306300  1
  C  C38  1  0.88092200  0.70591600  0.59306300  1
  C  C39  1  0.38092200  0.79408400  0.40693700  1
  C  C40  1  0.84008800  0.80252500  0.99751000  1
  C  C41  1  0.34008800  0.69747500  0.00249000  1
  C  C42  1  0.15991200  0.30252500  0.50249000  1
  C  C43  1  0.65991200  0.19747500  0.49751000  1
  C  C44  1  0.15991200  0.19747500  0.00249000  1
  C  C45  1  0.65991200  0.30252500  0.99751000  1
  C  C46  1  0.84008800  0.69747500  0.49751000  1
  C  C47  1  0.34008800  0.80252500  0.50249000  1
  C  C48  1  0.78031400  0.70240300  0.15315900  1
  C  C49  1  0.28031400  0.79759700  0.84684100  1
  C  C50  1  0.21968600  0.20240300  0.34684100  1
  C  C51  1  0.71968600  0.29759700  0.65315900  1
  C  C52  1  0.21968600  0.29759700  0.84684100  1
  C  C53  1  0.71968600  0.20240300  0.15315900  1
  C  C54  1  0.78031400  0.79759700  0.65315900  1
  C  C55  1  0.28031400  0.70240300  0.34684100  1
  C  C56  1  0.02791100  0.87489800  0.11882100  1
  C  C57  1  0.52791100  0.62510200  0.88117900  1
  C  C58  1  0.97208900  0.37489800  0.38117900  1
  C  C59  1  0.47208900  0.12510200  0.61882100  1
  C  C60  1  0.97208900  0.12510200  0.88117900  1
  C  C61  1  0.47208900  0.37489800  0.11882100  1
  C  C62  1  0.02791100  0.62510200  0.61882100  1
  C  C63  1  0.52791100  0.87489800  0.38117900  1
