# generated using pymatgen
data_Cu31NiC32
_symmetry_space_group_name_H-M   'P 1'
_cell_length_a   5.52620300
_cell_length_b   11.07878900
_cell_length_c   14.29200100
_cell_angle_alpha   90.00000000
_cell_angle_beta   90.00000000
_cell_angle_gamma   90.00000000
_symmetry_Int_Tables_number   1
_chemical_formula_structural   Cu31NiC32
_chemical_formula_sum   'Cu31 Ni1 C32'
_cell_volume   875.00828134
_cell_formula_units_Z   1
loop_
 _symmetry_equiv_pos_site_id
 _symmetry_equiv_pos_as_xyz
  1  'x, y, z'
loop_
 _atom_site_type_symbol
 _atom_site_label
 _atom_site_symmetry_multiplicity
 _atom_site_fract_x
 _atom_site_fract_y
 _atom_site_fract_z
 _atom_site_occupancy
  C  C0  1  0.72311800  0.97384900  0.43874300  1
  C  C1  1  0.22311800  0.52615100  0.56125700  1
  C  C2  1  0.27688200  0.47384900  0.06125700  1
  C  C3  1  0.77688200  0.02615100  0.93874300  1
  C  C4  1  0.27688200  0.02615100  0.56125700  1
  C  C5  1  0.77688200  0.47384900  0.43874300  1
  C  C6  1  0.72311800  0.52615100  0.93874300  1
  C  C7  1  0.22311800  0.97384900  0.06125700  1
  C  C8  1  0.79427000  0.25902300  0.31068600  1
  C  C9  1  0.29427000  0.24097700  0.68931400  1
  C  C10  1  0.20573000  0.75902300  0.18931400  1
  C  C11  1  0.70573000  0.74097700  0.81068600  1
  C  C12  1  0.20573000  0.74097700  0.68931400  1
  C  C13  1  0.70573000  0.75902300  0.31068600  1
  C  C14  1  0.79427000  0.24097700  0.81068600  1
  C  C15  1  0.29427000  0.25902300  0.18931400  1
  C  C16  1  0.68688800  0.02268400  0.18706500  1
  C  C17  1  0.18688800  0.47731600  0.81293500  1
  C  C18  1  0.31311200  0.52268400  0.31293500  1
  C  C19  1  0.81311200  0.97731600  0.68706500  1
  C  C20  1  0.31311200  0.97731600  0.81293500  1
  C  C21  1  0.81311200  0.52268400  0.18706500  1
  C  C22  1  0.68688800  0.47731600  0.68706500  1
  C  C23  1  0.18688800  0.02268400  0.31293500  1
  C  C24  1  0.78809900  0.27902200  0.06151000  1
  C  C25  1  0.28809900  0.22097800  0.93849000  1
  C  C26  1  0.21190100  0.77902200  0.43849000  1
  C  C27  1  0.71190100  0.72097800  0.56151000  1
  C  C28  1  0.21190100  0.72097800  0.93849000  1
  C  C29  1  0.71190100  0.77902200  0.06151000  1
  C  C30  1  0.78809900  0.22097800  0.56151000  1
  C  C31  1  0.28809900  0.27902200  0.43849000  1
  Cu  Cu32  1  0.64359133  0.48794442  0.28078186  1
  Cu  Cu33  1  0.09912302  0.02535562  0.70359968  1
  Cu  Cu34  1  0.39769272  0.97482687  0.21825754  1
  Cu  Cu35  1  0.93207645  0.52446755  0.79294448  1
  Cu  Cu36  1  0.40352756  0.51298208  0.71236749  1
  Cu  Cu37  1  0.87197938  0.97247583  0.29549880  1
  Cu  Cu38  1  0.67718682  0.01438935  0.80533751  1
  Cu  Cu39  1  0.12807803  0.47759485  0.21829535  1
  Cu  Cu40  1  0.60832300  0.25892395  0.45087710  1
  Cu  Cu41  1  0.07813352  0.21384342  0.54772088  1
  Cu  Cu42  1  0.36204277  0.77726889  0.04292058  1
  Cu  Cu43  1  0.85972444  0.73173413  0.95583532  1
  Cu  Cu44  1  0.37306826  0.70276120  0.54486150  1
  Cu  Cu45  1  0.88949069  0.76683410  0.45828095  1
  Cu  Cu46  1  0.63038386  0.23417924  0.95306359  1
  Cu  Cu47  1  0.12701459  0.25631854  0.03664973  1
  Cu  Cu48  1  0.65747352  0.43975083  0.07937215  1
  Cu  Cu49  1  0.22488027  0.05169828  0.93551206  1
  Ni  Ni50  1  0.30053000  0.94135700  0.41956500  1
  Cu  Cu51  1  0.79634221  0.52871315  0.58205468  1
  Cu  Cu52  1  0.31641468  0.56225251  0.92617508  1
  Cu  Cu53  1  0.84330816  0.94285729  0.08794286  1
  Cu  Cu54  1  0.69869234  0.04693634  0.59169199  1
  Cu  Cu55  1  0.21939669  0.47525321  0.43015399  1
  Cu  Cu56  1  0.69000815  0.17925636  0.16081691  1
  Cu  Cu57  1  0.20595351  0.32176213  0.83194313  1
  Cu  Cu58  1  0.36196843  0.69300254  0.34309972  1
  Cu  Cu59  1  0.83175599  0.80069502  0.66136391  1
  Cu  Cu60  1  0.28808575  0.81004185  0.83901151  1
  Cu  Cu61  1  0.81727468  0.68184585  0.16145936  1
  Cu  Cu62  1  0.66182345  0.30878361  0.66442268  1
  Cu  Cu63  1  0.16807978  0.19985630  0.32132022  1
