# generated using pymatgen
data_Cu19Ni4C9
_symmetry_space_group_name_H-M   'P 1'
_cell_length_a   23.58011588
_cell_length_b   23.21259559
_cell_length_c   6.71467724
_cell_angle_alpha   84.86704492
_cell_angle_beta   78.65668607
_cell_angle_gamma   16.47626901
_symmetry_Int_Tables_number   1
_chemical_formula_structural   Cu19Ni4C9
_chemical_formula_sum   'Cu38 Ni8 C18'
_cell_volume   954.86072134
_cell_formula_units_Z   2
loop_
 _symmetry_equiv_pos_site_id
 _symmetry_equiv_pos_as_xyz
  1  'x, y, z'
loop_
 _atom_site_type_symbol
 _atom_site_label
 _atom_site_symmetry_multiplicity
 _atom_site_fract_x
 _atom_site_fract_y
 _atom_site_fract_z
 _atom_site_occupancy
  Ni  Ni0  1  0.96772300  0.32433700  0.16491400  1
  Ni  Ni1  1  0.16491400  0.54302600  0.96772300  1
  Ni  Ni2  1  0.92566300  0.28227700  0.70697400  1
  Ni  Ni3  1  0.70697400  0.08508600  0.92566300  1
  Ni  Ni4  1  0.41612400  0.79244200  0.20652300  1
  Ni  Ni5  1  0.20652300  0.58491100  0.41612400  1
  Ni  Ni6  1  0.45755800  0.83387600  0.66508900  1
  Ni  Ni7  1  0.66508900  0.04347700  0.45755800  1
  C  C8  1  0.43855100  0.71908900  0.69324600  1
  C  C9  1  0.69324600  0.14911500  0.43855100  1
  C  C10  1  0.53091100  0.81144900  0.10088500  1
  C  C11  1  0.10088500  0.55675400  0.53091100  1
  C  C12  1  0.85400700  0.30472600  0.26683100  1
  C  C13  1  0.26683100  0.57443500  0.85400700  1
  C  C14  1  0.94527400  0.39599300  0.67556500  1
  C  C15  1  0.67556500  0.98316900  0.94527400  1
  C  C16  1  0.23048900  0.20356800  0.27117200  1
  C  C17  1  0.27117200  0.29477200  0.23048900  1
  C  C18  1  0.04643200  0.01951100  0.95522800  1
  C  C19  1  0.95522800  0.97882800  0.04643200  1
  C  C20  1  0.45441000  0.54559000  0.45441000  1
  C  C21  1  0.70441000  0.79559000  0.70441000  1
  C  C22  1  0.95571000  0.07594600  0.51180500  1
  C  C23  1  0.51180500  0.45653900  0.95571000  1
  C  C24  1  0.17405400  0.29429000  0.79346100  1
  C  C25  1  0.79346100  0.73819500  0.17405400  1
  Cu  Cu26  1  0.03526300  0.15992000  0.32818700  1
  Cu  Cu27  1  0.32818700  0.47663000  0.03526300  1
  Cu  Cu28  1  0.09008000  0.21473700  0.77337000  1
  Cu  Cu29  1  0.77337000  0.92181300  0.09008000  1
  Cu  Cu30  1  0.28798200  0.77052400  0.40093100  1
  Cu  Cu31  1  0.40093100  0.54056300  0.28798200  1
  Cu  Cu32  1  0.47947600  0.96201800  0.70943700  1
  Cu  Cu33  1  0.70943700  0.84906900  0.47947600  1
  Cu  Cu34  1  0.92570400  0.17100900  0.17416500  1
  Cu  Cu35  1  0.17416500  0.72912100  0.92570400  1
  Cu  Cu36  1  0.07899100  0.32429600  0.52087900  1
  Cu  Cu37  1  0.52087900  0.07583500  0.07899100  1
  Cu  Cu38  1  0.84679700  0.45279900  0.54427900  1
  Cu  Cu39  1  0.54427900  0.15612500  0.84679700  1
  Cu  Cu40  1  0.79720100  0.40320300  0.09387500  1
  Cu  Cu41  1  0.09387500  0.70572100  0.79720100  1
  Cu  Cu42  1  0.59099500  0.71218100  0.27746700  1
  Cu  Cu43  1  0.27746700  0.41935600  0.59099500  1
  Cu  Cu44  1  0.53781900  0.65900500  0.83064400  1
  Cu  Cu45  1  0.83064400  0.97253300  0.53781900  1
  Cu  Cu46  1  0.45464300  0.94992100  0.18524200  1
  Cu  Cu47  1  0.18524200  0.41019400  0.45464300  1
  Cu  Cu48  1  0.30007900  0.79535700  0.83980600  1
  Cu  Cu49  1  0.83980600  0.06475800  0.30007900  1
  Cu  Cu50  1  0.09271200  0.34006500  0.12194600  1
  Cu  Cu51  1  0.12194600  0.44527700  0.09271200  1
  Cu  Cu52  1  0.90993500  0.15728800  0.80472300  1
  Cu  Cu53  1  0.80472300  0.12805400  0.90993500  1
  Cu  Cu54  1  0.49106600  0.37374300  0.63667300  1
  Cu  Cu55  1  0.63667300  0.49851900  0.49106600  1
  Cu  Cu56  1  0.87625700  0.75893400  0.75148100  1
  Cu  Cu57  1  0.75148100  0.61332700  0.87625700  1
  Cu  Cu58  1  0.06441300  0.93558700  0.06441300  1
  Cu  Cu59  1  0.31441300  0.18558700  0.31441300  1
  Cu  Cu60  1  0.35108800  0.95128300  0.04594300  1
  Cu  Cu61  1  0.04594300  0.65168600  0.35108800  1
  Cu  Cu62  1  0.29871700  0.89891200  0.59831400  1
  Cu  Cu63  1  0.59831400  0.20405700  0.29871700  1
