# generated using pymatgen
data_Cu2C3
_symmetry_space_group_name_H-M   'P 1'
_cell_length_a   4.46873951
_cell_length_b   6.20594265
_cell_length_c   5.27077400
_cell_angle_alpha   90.00000000
_cell_angle_beta   90.00000000
_cell_angle_gamma   133.97726735
_symmetry_Int_Tables_number   1
_chemical_formula_structural   Cu2C3
_chemical_formula_sum   'Cu4 C6'
_cell_volume   105.18834338
_cell_formula_units_Z   2
loop_
 _symmetry_equiv_pos_site_id
 _symmetry_equiv_pos_as_xyz
  1  'x, y, z'
loop_
 _atom_site_type_symbol
 _atom_site_label
 _atom_site_symmetry_multiplicity
 _atom_site_fract_x
 _atom_site_fract_y
 _atom_site_fract_z
 _atom_site_occupancy
  C  C0  1  0.37077200  0.02883500  0.82789800  1
  C  C1  1  0.62922800  0.65806300  0.82789800  1
  C  C2  1  0.62922800  0.97116500  0.32789800  1
  C  C3  1  0.37077200  0.34193700  0.32789800  1
  C  C4  1  0.00000000  0.52978800  0.61027500  1
  C  C5  1  0.00000000  0.47021200  0.11027500  1
  Cu  Cu6  1  0.47180476  0.14234864  0.18427143  1
  Cu  Cu7  1  0.55435124  0.64280876  0.17102298  1
  Cu  Cu8  1  0.56332872  0.87645793  0.69320514  1
  Cu  Cu9  1  0.33910134  0.28181275  0.68083825  1
