# generated using pymatgen
data_Cu6C25
_symmetry_space_group_name_H-M   'P 1'
_cell_length_a   7.42366300
_cell_length_b   7.06721800
_cell_length_c   17.41876133
_cell_angle_alpha   89.59819053
_cell_angle_beta   90.00000000
_cell_angle_gamma   90.00000000
_symmetry_Int_Tables_number   1
_chemical_formula_structural   Cu6C25
_chemical_formula_sum   'Cu12 C50'
_cell_volume   913.84665350
_cell_formula_units_Z   2
loop_
 _symmetry_equiv_pos_site_id
 _symmetry_equiv_pos_as_xyz
  1  'x, y, z'
loop_
 _atom_site_type_symbol
 _atom_site_label
 _atom_site_symmetry_multiplicity
 _atom_site_fract_x
 _atom_site_fract_y
 _atom_site_fract_z
 _atom_site_occupancy
  C  C0  1  0.62533400  0.00000000  0.25000000  1
  C  C1  1  0.37466600  0.00000000  0.75000000  1
  C  C2  1  0.12436900  0.00000000  0.25000000  1
  C  C3  1  0.87563100  0.00000000  0.75000000  1
  C  C4  1  0.87437400  0.15976900  0.43462100  1
  C  C5  1  0.87437400  0.84023100  0.06537900  1
  C  C6  1  0.12562600  0.84023100  0.56537900  1
  C  C7  1  0.12562600  0.15976900  0.93462100  1
  C  C8  1  0.37543200  0.16068400  0.43302100  1
  C  C9  1  0.37543200  0.83931600  0.06697900  1
  C  C10  1  0.62456800  0.83931600  0.56697900  1
  C  C11  1  0.62456800  0.16068400  0.93302100  1
  Cu  Cu12  1  0.83316976  0.26866904  0.10566292  1
  Cu  Cu13  1  0.83913835  0.73162007  0.39774174  1
  Cu  Cu14  1  0.16137195  0.72846277  0.89127877  1
  Cu  Cu15  1  0.18401332  0.26665046  0.60945432  1
  Cu  Cu16  1  0.41271958  0.26802044  0.10282195  1
  Cu  Cu17  1  0.43378479  0.74503850  0.40104031  1
  Cu  Cu18  1  0.59240454  0.73675111  0.89088730  1
  Cu  Cu19  1  0.58115810  0.25504631  0.61103732  1
  Cu  Cu20  1  0.13011143  0.44632716  0.33403348  1
  Cu  Cu21  1  0.11749564  0.57881718  0.16459759  1
  Cu  Cu22  1  0.87748463  0.57529448  0.65751273  1
  Cu  Cu23  1  0.84842504  0.44681480  0.84152780  1
  C  C24  1  0.12532400  0.50000000  0.25000000  1
  C  C25  1  0.87467600  0.50000000  0.75000000  1
  C  C26  1  0.62436900  0.34227600  0.10571200  1
  C  C27  1  0.62436900  0.65772400  0.39428800  1
  C  C28  1  0.37563100  0.65772400  0.89428800  1
  C  C29  1  0.37563100  0.34227600  0.60571200  1
  C  C30  1  0.37471800  0.11553500  0.17367900  1
  C  C31  1  0.37471800  0.88446500  0.32632100  1
  C  C32  1  0.62528200  0.88446500  0.82632100  1
  C  C33  1  0.62528200  0.11553500  0.67367900  1
  C  C34  1  0.87478200  0.11637500  0.17350700  1
  C  C35  1  0.87478200  0.88362500  0.32649300  1
  C  C36  1  0.12521800  0.88362500  0.82649300  1
  C  C37  1  0.12521800  0.11637500  0.67350700  1
  C  C38  1  0.94554100  0.47269200  0.11525900  1
  C  C39  1  0.94554100  0.52730800  0.38474100  1
  C  C40  1  0.05445900  0.52730800  0.88474100  1
  C  C41  1  0.05445900  0.47269200  0.61525900  1
  C  C42  1  0.30268600  0.47115400  0.11472000  1
  C  C43  1  0.30268600  0.52884600  0.38528000  1
  C  C44  1  0.69731400  0.52884600  0.88528000  1
  C  C45  1  0.69731400  0.47115400  0.61472000  1
  C  C46  1  0.37278700  0.16729000  0.02318600  1
  C  C47  1  0.37278700  0.83271000  0.47681400  1
  C  C48  1  0.62721300  0.83271000  0.97681400  1
  C  C49  1  0.62721300  0.16729000  0.52318600  1
  C  C50  1  0.87717700  0.17036300  0.02291300  1
  C  C51  1  0.87717700  0.82963700  0.47708700  1
  C  C52  1  0.12282300  0.82963700  0.97708700  1
  C  C53  1  0.12282300  0.17036300  0.52291300  1
  C  C54  1  0.12520600  0.21947800  0.35260600  1
  C  C55  1  0.12520600  0.78052200  0.14739400  1
  C  C56  1  0.87479400  0.78052200  0.64739400  1
  C  C57  1  0.87479400  0.21947800  0.85260600  1
  C  C58  1  0.62454300  0.19963800  0.35375100  1
  C  C59  1  0.62454300  0.80036200  0.14624900  1
  C  C60  1  0.37545700  0.80036200  0.64624900  1
  C  C61  1  0.37545700  0.19963800  0.85375100  1
