# generated using pymatgen
data_Cu17C4
_symmetry_space_group_name_H-M   'P 1'
_cell_length_a   6.53140799
_cell_length_b   6.48650039
_cell_length_c   6.53140799
_cell_angle_alpha   83.69612345
_cell_angle_beta   84.61099963
_cell_angle_gamma   83.69612345
_symmetry_Int_Tables_number   1
_chemical_formula_structural   Cu17C4
_chemical_formula_sum   'Cu17 C4'
_cell_volume   272.43331547
_cell_formula_units_Z   1
loop_
 _symmetry_equiv_pos_site_id
 _symmetry_equiv_pos_as_xyz
  1  'x, y, z'
loop_
 _atom_site_type_symbol
 _atom_site_label
 _atom_site_symmetry_multiplicity
 _atom_site_fract_x
 _atom_site_fract_y
 _atom_site_fract_z
 _atom_site_occupancy
  C  C0  1  0.63861500  0.66072900  0.63861500  1
  C  C1  1  0.36138500  0.33927100  0.36138500  1
  Cu  Cu2  1  0.90895751  0.93520349  0.90396343  1
  Cu  Cu3  1  0.10204619  0.07299786  0.06874374  1
  Cu  Cu4  1  0.70187901  0.99006998  0.23703291  1
  Cu  Cu5  1  0.98453103  0.26676850  0.71630578  1
  Cu  Cu6  1  0.24792748  0.74402541  0.01319435  1
  Cu  Cu7  1  0.04184365  0.68782836  0.31983264  1
  Cu  Cu8  1  0.71610294  0.28172875  0.00058170  1
  Cu  Cu9  1  0.27858836  0.00060225  0.75361779  1
  Cu  Cu10  1  0.36239937  0.33479987  0.90839998  1
  Cu  Cu11  1  0.32482164  0.87400946  0.36827998  1
  Cu  Cu12  1  0.88316450  0.31057082  0.32513428  1
  Cu  Cu13  1  0.67338258  0.67025168  0.15199254  1
  Cu  Cu14  1  0.61373021  0.11286937  0.64969538  1
  Cu  Cu15  1  0.12536473  0.66481869  0.66528576  1
  Cu  Cu16  1  0.96055642  0.51386720  0.03676765  1
  Cu  Cu17  1  0.51172820  0.98918256  0.02439432  1
  Cu  Cu18  1  0.98126694  0.99323182  0.48571298  1
  C  C19  1  0.00000000  0.50000000  0.50000000  1
  C  C20  1  0.50000000  0.50000000  0.00000000  1
