# generated using pymatgen
data_Cu3C8
_symmetry_space_group_name_H-M   'P 1'
_cell_length_a   5.36504723
_cell_length_b   6.78556857
_cell_length_c   7.97034162
_cell_angle_alpha   108.20858619
_cell_angle_beta   97.59391394
_cell_angle_gamma   97.83431905
_symmetry_Int_Tables_number   1
_chemical_formula_structural   Cu3C8
_chemical_formula_sum   'Cu6 C16'
_cell_volume   268.30829435
_cell_formula_units_Z   2
loop_
 _symmetry_equiv_pos_site_id
 _symmetry_equiv_pos_as_xyz
  1  'x, y, z'
loop_
 _atom_site_type_symbol
 _atom_site_label
 _atom_site_symmetry_multiplicity
 _atom_site_fract_x
 _atom_site_fract_y
 _atom_site_fract_z
 _atom_site_occupancy
  C  C0  1  0.83319530  0.43069215  0.61907196  1
  C  C1  1  0.16680470  0.56930785  0.38092804  1
  C  C2  1  0.64700560  0.83439864  0.89744129  1
  C  C3  1  0.35299440  0.16560136  0.10255871  1
  C  C4  1  0.65412374  0.61727475  0.21942238  1
  C  C5  1  0.34587626  0.38272525  0.78057762  1
  Cu  Cu6  1  0.91623111  0.33195314  0.97772433  1
  Cu  Cu7  1  0.11255963  0.67646061  0.01683547  1
  Cu  Cu8  1  0.66302169  0.00715439  0.59654672  1
  Cu  Cu9  1  0.27372093  0.02342763  0.38307169  1
  Cu  Cu10  1  0.06112483  0.89175648  0.69126747  1
  Cu  Cu11  1  0.91438173  0.15773227  0.31182027  1
  C  C12  1  0.92938066  0.11006934  0.77562055  1
  C  C13  1  0.07061934  0.88993066  0.22437945  1
  C  C14  1  0.83328155  0.73877427  0.54540683  1
  C  C15  1  0.16671845  0.26122573  0.45459317  1
  C  C16  1  0.77761855  0.51528968  0.92581736  1
  C  C17  1  0.22238145  0.48471032  0.07418264  1
  C  C18  1  0.36145257  0.94875578  0.60161358  1
  C  C19  1  0.63854743  0.05124422  0.39838642  1
  C  C20  1  0.20513634  0.79590348  0.87644531  1
  C  C21  1  0.79486366  0.20409652  0.12355469  1
