# generated using pymatgen
data_CuNi2C5
_symmetry_space_group_name_H-M   'P 1'
_cell_length_a   8.80749806
_cell_length_b   4.23595758
_cell_length_c   4.23595758
_cell_angle_alpha   90.00000000
_cell_angle_beta   90.00000000
_cell_angle_gamma   90.00000000
_symmetry_Int_Tables_number   1
_chemical_formula_structural   CuNi2C5
_chemical_formula_sum   'Cu2 Ni4 C10'
_cell_volume   158.03590247
_cell_formula_units_Z   2
loop_
 _symmetry_equiv_pos_site_id
 _symmetry_equiv_pos_as_xyz
  1  'x, y, z'
loop_
 _atom_site_type_symbol
 _atom_site_label
 _atom_site_symmetry_multiplicity
 _atom_site_fract_x
 _atom_site_fract_y
 _atom_site_fract_z
 _atom_site_occupancy
  Cu  Cu0  1  0.99247234  0.51850492  0.51968243  1
  Ni  Ni1  1  0.50000000  0.50000000  0.50000000  1
  Ni  Ni2  1  0.24299467  0.00000000  0.50000000  1
  Ni  Ni3  1  0.75700533  0.00000000  0.50000000  1
  Ni  Ni4  1  0.24299467  0.50000000  0.00000000  1
  Cu  Cu5  1  0.74515898  0.47663960  0.99900322  1
  C  C6  1  0.50000000  0.00000000  0.00000000  1
  C  C7  1  0.00000000  0.00000000  0.00000000  1
  C  C8  1  0.26569807  0.00000000  0.00000000  1
  C  C9  1  0.73430193  0.00000000  0.00000000  1
  C  C10  1  0.24940939  0.50000000  0.50000000  1
  C  C11  1  0.75059061  0.50000000  0.50000000  1
  C  C12  1  0.00000000  0.00000000  0.50000000  1
  C  C13  1  0.50000000  0.00000000  0.50000000  1
  C  C14  1  0.00000000  0.50000000  0.00000000  1
  C  C15  1  0.50000000  0.50000000  0.00000000  1
