# generated using pymatgen
data_Cu6C7
_symmetry_space_group_name_H-M   'P 1'
_cell_length_a   8.51963000
_cell_length_b   7.73955463
_cell_length_c   10.74677874
_cell_angle_alpha   90.49087835
_cell_angle_beta   66.64789130
_cell_angle_gamma   90.00000000
_symmetry_Int_Tables_number   1
_chemical_formula_structural   Cu6C7
_chemical_formula_sum   'Cu12 C14'
_cell_volume   650.54836798
_cell_formula_units_Z   2
loop_
 _symmetry_equiv_pos_site_id
 _symmetry_equiv_pos_as_xyz
  1  'x, y, z'
loop_
 _atom_site_type_symbol
 _atom_site_label
 _atom_site_symmetry_multiplicity
 _atom_site_fract_x
 _atom_site_fract_y
 _atom_site_fract_z
 _atom_site_occupancy
  Cu  Cu0  1  0.83016414  0.01319185  0.00205518  1
  Cu  Cu1  1  0.27859474  0.98498781  0.05227495  1
  Cu  Cu2  1  0.81749766  0.49006902  0.99537903  1
  Cu  Cu3  1  0.29478615  0.52833517  0.94043873  1
  Cu  Cu4  1  0.47959483  0.77109235  0.32045770  1
  Cu  Cu5  1  0.19102003  0.16539462  0.37748282  1
  Cu  Cu6  1  0.56095860  0.31849891  0.62922123  1
  Cu  Cu7  1  0.79484537  0.78019886  0.70359971  1
  Cu  Cu8  1  0.78787650  0.00225683  0.35919005  1
  Cu  Cu9  1  0.77303773  0.50711816  0.36249050  1
  Cu  Cu10  1  0.08546518  0.03883607  0.62755304  1
  Cu  Cu11  1  0.13758685  0.49947688  0.65034517  1
  C  C12  1  0.22893900  0.75391700  0.50971100  1
  C  C13  1  0.27678500  0.24846200  0.53147400  1
  C  C14  1  0.80825800  0.25153800  0.46852600  1
  C  C15  1  0.73864900  0.74608300  0.49028900  1
  C  C16  1  0.63280100  0.00470600  0.22116100  1
  C  C17  1  0.10290800  0.97503700  0.26876900  1
  C  C18  1  0.61714100  0.50008200  0.22217700  1
  C  C19  1  0.83931900  0.99991800  0.77782300  1
  C  C20  1  0.37167700  0.52496300  0.73123100  1
  C  C21  1  0.85396200  0.49529400  0.77883900  1
  C  C22  1  0.98922800  0.25000000  0.00000000  1
  C  C23  1  0.06708500  0.75000000  0.00000000  1
  C  C24  1  0.46426500  0.75000000  0.00000000  1
  C  C25  1  0.40601300  0.25000000  0.00000000  1
