# generated using pymatgen
data_Cu12NiC5
_symmetry_space_group_name_H-M   'P 1'
_cell_length_a   8.31846600
_cell_length_b   11.89176000
_cell_length_c   12.92415778
_cell_angle_alpha   57.47735723
_cell_angle_beta   90.00000000
_cell_angle_gamma   90.00000000
_symmetry_Int_Tables_number   1
_chemical_formula_structural   Cu12NiC5
_chemical_formula_sum   'Cu48 Ni4 C20'
_cell_volume   1077.98182105
_cell_formula_units_Z   4
loop_
 _symmetry_equiv_pos_site_id
 _symmetry_equiv_pos_as_xyz
  1  'x, y, z'
loop_
 _atom_site_type_symbol
 _atom_site_label
 _atom_site_symmetry_multiplicity
 _atom_site_fract_x
 _atom_site_fract_y
 _atom_site_fract_z
 _atom_site_occupancy
  Ni  Ni0  1  0.06384500  0.41326600  0.64676200  1
  Ni  Ni1  1  0.56384500  0.58673400  0.85323800  1
  Ni  Ni2  1  0.43615500  0.41326600  0.14676200  1
  Ni  Ni3  1  0.93615500  0.58673400  0.35323800  1
  C  C4  1  0.63194900  0.21420800  0.80999900  1
  C  C5  1  0.43190500  0.37544900  0.87610700  1
  C  C6  1  0.83032900  0.71151000  0.94854300  1
  C  C7  1  0.93190500  0.62455100  0.62389300  1
  C  C8  1  0.97709700  0.96653400  0.75197400  1
  C  C9  1  0.13194900  0.78579200  0.69000100  1
  C  C10  1  0.47709700  0.03346600  0.74802600  1
  C  C11  1  0.66967100  0.71151000  0.44854300  1
  C  C12  1  0.33032900  0.28849000  0.55145700  1
  C  C13  1  0.52290300  0.96653400  0.25197400  1
  C  C14  1  0.86805100  0.21420800  0.30999900  1
  C  C15  1  0.02290300  0.03346600  0.24802600  1
  C  C16  1  0.06809500  0.37544900  0.37610700  1
  C  C17  1  0.16967100  0.28849000  0.05145700  1
  C  C18  1  0.56809500  0.62455100  0.12389300  1
  C  C19  1  0.36805100  0.78579200  0.19000100  1
  C  C20  1  0.76719000  0.23113300  0.04967000  1
  C  C21  1  0.23281000  0.76886700  0.95033000  1
  C  C22  1  0.26719000  0.76886700  0.45033000  1
  C  C23  1  0.73281000  0.23113300  0.54967000  1
  Cu  Cu24  1  0.74078800  0.17775500  0.91579900  1
  Cu  Cu25  1  0.29281700  0.27134900  0.96224500  1
  Cu  Cu26  1  0.00700600  0.32128800  0.98996900  1
  Cu  Cu27  1  0.57363800  0.37630500  0.95242700  1
  Cu  Cu28  1  0.48300900  0.30173200  0.80683600  1
  Cu  Cu29  1  0.75316500  0.62529600  0.91212200  1
  Cu  Cu30  1  0.87423900  0.48633000  0.71077400  1
  Cu  Cu31  1  0.20503000  0.71652400  0.81581300  1
  Cu  Cu32  1  0.37423900  0.51367000  0.78922600  1
  Cu  Cu33  1  0.42525100  0.89223900  0.83236800  1
  Cu  Cu34  1  0.10097800  0.94930600  0.84401700  1
  Cu  Cu35  1  0.83133000  0.86567000  0.82664200  1
  Cu  Cu36  1  0.54441500  0.07902200  0.83832400  1
  Cu  Cu37  1  0.98300900  0.69826800  0.69316400  1
  Cu  Cu38  1  0.07363800  0.62369500  0.54757300  1
  Cu  Cu39  1  0.50700600  0.67871200  0.51003100  1
  Cu  Cu40  1  0.04441500  0.92097800  0.66167600  1
  Cu  Cu41  1  0.79281700  0.72865100  0.53775500  1
  Cu  Cu42  1  0.24078800  0.82224500  0.58420100  1
  Cu  Cu43  1  0.33133000  0.13433000  0.67335800  1
  Cu  Cu44  1  0.60097800  0.05069400  0.65598300  1
  Cu  Cu45  1  0.92525100  0.10776100  0.66763200  1
  Cu  Cu46  1  0.74683500  0.62529600  0.41212200  1
  Cu  Cu47  1  0.70503000  0.28347600  0.68418700  1
  Cu  Cu48  1  0.29497000  0.71652400  0.31581300  1
  Cu  Cu49  1  0.25316500  0.37470400  0.58787800  1
  Cu  Cu50  1  0.07474900  0.89223900  0.33236800  1
  Cu  Cu51  1  0.39902200  0.94930600  0.34401700  1
  Cu  Cu52  1  0.66867000  0.86567000  0.32664200  1
  Cu  Cu53  1  0.75921200  0.17775500  0.41579900  1
  Cu  Cu54  1  0.20718300  0.27134900  0.46224500  1
  Cu  Cu55  1  0.95558500  0.07902200  0.33832400  1
  Cu  Cu56  1  0.49299400  0.32128800  0.48996900  1
  Cu  Cu57  1  0.92636200  0.37630500  0.45242700  1
  Cu  Cu58  1  0.01699100  0.30173200  0.30683600  1
  Cu  Cu59  1  0.45558500  0.92097800  0.16167600  1
  Cu  Cu60  1  0.16867000  0.13433000  0.17335800  1
  Cu  Cu61  1  0.89902200  0.05069400  0.15598300  1
  Cu  Cu62  1  0.57474900  0.10776100  0.16763200  1
  Cu  Cu63  1  0.62576100  0.48633000  0.21077400  1
  Cu  Cu64  1  0.79497000  0.28347600  0.18418700  1
  Cu  Cu65  1  0.12576100  0.51367000  0.28922600  1
  Cu  Cu66  1  0.24683500  0.37470400  0.08787800  1
  Cu  Cu67  1  0.51699100  0.69826800  0.19316400  1
  Cu  Cu68  1  0.42636200  0.62369500  0.04757300  1
  Cu  Cu69  1  0.99299400  0.67871200  0.01003100  1
  Cu  Cu70  1  0.70718300  0.72865100  0.03775500  1
  Cu  Cu71  1  0.25921200  0.82224500  0.08420100  1
