# generated using pymatgen
data_Cu11Ni5C48
_symmetry_space_group_name_H-M   'P 1'
_cell_length_a   5.92368400
_cell_length_b   11.86738200
_cell_length_c   14.48330000
_cell_angle_alpha   90.00000000
_cell_angle_beta   90.00000000
_cell_angle_gamma   90.00000000
_symmetry_Int_Tables_number   1
_chemical_formula_structural   Cu11Ni5C48
_chemical_formula_sum   'Cu11 Ni5 C48'
_cell_volume   1018.15601572
_cell_formula_units_Z   1
loop_
 _symmetry_equiv_pos_site_id
 _symmetry_equiv_pos_as_xyz
  1  'x, y, z'
loop_
 _atom_site_type_symbol
 _atom_site_label
 _atom_site_symmetry_multiplicity
 _atom_site_fract_x
 _atom_site_fract_y
 _atom_site_fract_z
 _atom_site_occupancy
  Ni  Ni0  1  0.66641000  0.03144600  0.31497700  1
  Cu  Cu1  1  0.18177702  0.46348686  0.68010988  1
  Cu  Cu2  1  0.31437182  0.53938855  0.16852858  1
  Cu  Cu3  1  0.85055723  0.97560020  0.81163949  1
  Ni  Ni4  1  0.33359000  0.96855400  0.68502300  1
  Ni  Ni5  1  0.83359000  0.53144600  0.31497700  1
  Cu  Cu6  1  0.66640570  0.47837075  0.80749474  1
  Cu  Cu7  1  0.18749488  0.03709823  0.18625965  1
  Ni  Ni8  1  0.77463800  0.28476200  0.44002500  1
  Ni  Ni9  1  0.27463800  0.21523800  0.55997500  1
  Cu  Cu10  1  0.22306500  0.80248300  0.04640167  1
  Cu  Cu11  1  0.72335501  0.71281619  0.92429156  1
  Cu  Cu12  1  0.19349600  0.72063105  0.55988760  1
  Cu  Cu13  1  0.73810741  0.77202973  0.45103054  1
  Cu  Cu14  1  0.76236651  0.21882442  0.93341521  1
  Cu  Cu15  1  0.26928357  0.28581634  0.05358525  1
  C  C16  1  0.21246700  0.99784500  0.43360800  1
  C  C17  1  0.71246700  0.50215500  0.56639200  1
  C  C18  1  0.78753300  0.49784500  0.06639200  1
  C  C19  1  0.28753300  0.00215500  0.93360800  1
  C  C20  1  0.78753300  0.00215500  0.56639200  1
  C  C21  1  0.28753300  0.49784500  0.43360800  1
  C  C22  1  0.21246700  0.50215500  0.93360800  1
  C  C23  1  0.71246700  0.99784500  0.06639200  1
  C  C24  1  0.19134900  0.27108700  0.30370600  1
  C  C25  1  0.69134900  0.22891300  0.69629400  1
  C  C26  1  0.80865100  0.77108700  0.19629400  1
  C  C27  1  0.30865100  0.72891300  0.80370600  1
  C  C28  1  0.80865100  0.72891300  0.69629400  1
  C  C29  1  0.30865100  0.77108700  0.30370600  1
  C  C30  1  0.19134900  0.22891300  0.80370600  1
  C  C31  1  0.69134900  0.27108700  0.19629400  1
  C  C32  1  0.10104600  0.26744300  0.45459100  1
  C  C33  1  0.60104600  0.23255700  0.54540900  1
  C  C34  1  0.89895400  0.76744300  0.04540900  1
  C  C35  1  0.39895400  0.73255700  0.95459100  1
  C  C36  1  0.89895400  0.73255700  0.54540900  1
  C  C37  1  0.39895400  0.76744300  0.45459100  1
  C  C38  1  0.10104600  0.23255700  0.95459100  1
  C  C39  1  0.60104600  0.26744300  0.04540900  1
  C  C40  1  0.71297100  0.44610800  0.41918700  1
  C  C41  1  0.21297100  0.05389200  0.58081300  1
  C  C42  1  0.28702900  0.94610800  0.08081300  1
  C  C43  1  0.78702900  0.55389200  0.91918700  1
  C  C44  1  0.28702900  0.55389200  0.58081300  1
  C  C45  1  0.78702900  0.94610800  0.41918700  1
  C  C46  1  0.71297100  0.05389200  0.91918700  1
  C  C47  1  0.21297100  0.44610800  0.08081300  1
  C  C48  1  0.68171300  0.19379700  0.33464300  1
  C  C49  1  0.18171300  0.30620300  0.66535700  1
  C  C50  1  0.31828700  0.69379700  0.16535700  1
  C  C51  1  0.81828700  0.80620300  0.83464300  1
  C  C52  1  0.31828700  0.80620300  0.66535700  1
  C  C53  1  0.81828700  0.69379700  0.33464300  1
  C  C54  1  0.68171300  0.30620300  0.83464300  1
  C  C55  1  0.18171300  0.19379700  0.16535700  1
  C  C56  1  0.64957100  0.48990500  0.20811800  1
  C  C57  1  0.14957100  0.01009500  0.79188200  1
  C  C58  1  0.35042900  0.98990500  0.29188200  1
  C  C59  1  0.85042900  0.51009500  0.70811800  1
  C  C60  1  0.35042900  0.51009500  0.79188200  1
  C  C61  1  0.85042900  0.98990500  0.20811800  1
  C  C62  1  0.64957100  0.01009500  0.70811800  1
  C  C63  1  0.14957100  0.48990500  0.29188200  1
