# generated using pymatgen
data_CuC9
_symmetry_space_group_name_H-M   'P 1'
_cell_length_a   6.32542362
_cell_length_b   6.32542362
_cell_length_c   6.32542442
_cell_angle_alpha   47.29423992
_cell_angle_beta   47.29423992
_cell_angle_gamma   47.29423391
_symmetry_Int_Tables_number   1
_chemical_formula_structural   CuC9
_chemical_formula_sum   'Cu1 C9'
_cell_volume   125.00872410
_cell_formula_units_Z   1
loop_
 _symmetry_equiv_pos_site_id
 _symmetry_equiv_pos_as_xyz
  1  'x, y, z'
loop_
 _atom_site_type_symbol
 _atom_site_label
 _atom_site_symmetry_multiplicity
 _atom_site_fract_x
 _atom_site_fract_y
 _atom_site_fract_z
 _atom_site_occupancy
  C  C0  1  0.00000000  0.00000000  0.00000000  1
  Cu  Cu1  1  0.52227042  0.47970506  0.47484954  1
  C  C2  1  0.76723800  0.76723800  0.76723800  1
  C  C3  1  0.23276200  0.23276200  0.23276200  1
  C  C4  1  0.07298200  0.56017100  0.65935500  1
  C  C5  1  0.65935500  0.07298200  0.56017100  1
  C  C6  1  0.43982900  0.34064500  0.92701800  1
  C  C7  1  0.92701800  0.43982900  0.34064500  1
  C  C8  1  0.34064500  0.92701800  0.43982900  1
  C  C9  1  0.56017100  0.65935500  0.07298200  1
