# generated using pymatgen
data_Cu13Ni2C11
_symmetry_space_group_name_H-M   'P 1'
_cell_length_a   8.97682033
_cell_length_b   8.97682033
_cell_length_c   18.19712215
_cell_angle_alpha   85.56737925
_cell_angle_beta   85.56737925
_cell_angle_gamma   81.59495190
_symmetry_Int_Tables_number   1
_chemical_formula_structural   Cu13Ni2C11
_chemical_formula_sum   'Cu26 Ni4 C22'
_cell_volume   1443.05471314
_cell_formula_units_Z   2
loop_
 _symmetry_equiv_pos_site_id
 _symmetry_equiv_pos_as_xyz
  1  'x, y, z'
loop_
 _atom_site_type_symbol
 _atom_site_label
 _atom_site_symmetry_multiplicity
 _atom_site_fract_x
 _atom_site_fract_y
 _atom_site_fract_z
 _atom_site_occupancy
  C  C0  1  0.13953700  0.03847100  0.07292900  1
  C  C1  1  0.96152900  0.86046300  0.42707100  1
  C  C2  1  0.86046300  0.96152900  0.92707100  1
  C  C3  1  0.03847100  0.13953700  0.57292900  1
  C  C4  1  0.39565000  0.88219300  0.43464100  1
  C  C5  1  0.11780700  0.60435000  0.06535900  1
  C  C6  1  0.60435000  0.11780700  0.56535900  1
  C  C7  1  0.88219300  0.39565000  0.93464100  1
  C  C8  1  0.50405700  0.23689300  0.99905800  1
  C  C9  1  0.76310700  0.49594300  0.50094200  1
  C  C10  1  0.49594300  0.76310700  0.00094200  1
  C  C11  1  0.23689300  0.50405700  0.49905800  1
  C  C12  1  0.58865600  0.22459900  0.34155600  1
  C  C13  1  0.77540100  0.41134400  0.15844400  1
  C  C14  1  0.41134400  0.77540100  0.65844400  1
  C  C15  1  0.22459900  0.58865600  0.84155600  1
  C  C16  1  0.73845700  0.88193000  0.16213500  1
  C  C17  1  0.11807000  0.26154300  0.33786500  1
  C  C18  1  0.26154300  0.11807000  0.83786500  1
  C  C19  1  0.88193000  0.73845700  0.66213500  1
  C  C20  1  0.37462600  0.62537400  0.25000000  1
  C  C21  1  0.62537400  0.37462600  0.75000000  1
  Ni  Ni22  1  0.81613700  0.18386300  0.25000000  1
  Cu  Cu23  1  0.14524050  0.85338503  0.75693542  1
  Cu  Cu24  1  0.18780715  0.93787004  0.34922658  1
  Cu  Cu25  1  0.06563623  0.80585406  0.16616199  1
  Cu  Cu26  1  0.80499068  0.06597992  0.65532292  1
  Cu  Cu27  1  0.95375865  0.18019205  0.83985481  1
  Cu  Cu28  1  0.83514321  0.11533019  0.03653134  1
  Cu  Cu29  1  0.87271360  0.16596398  0.47061555  1
  Cu  Cu30  1  0.16722934  0.87800034  0.96129603  1
  Cu  Cu31  1  0.11413099  0.84907363  0.52845405  1
  Cu  Cu32  1  0.45312447  0.95927097  0.07599461  1
  Cu  Cu33  1  0.05381527  0.57657052  0.39814911  1
  Ni  Ni34  1  0.57200400  0.04906300  0.90281300  1
  Cu  Cu35  1  0.93963496  0.41617932  0.60447686  1
  Cu  Cu36  1  0.45908794  0.62254889  0.41076744  1
  Cu  Cu37  1  0.39521829  0.55642627  0.09193953  1
  Cu  Cu38  1  0.54924293  0.36749594  0.60121888  1
  Ni  Ni39  1  0.60587700  0.44984600  0.91119600  1
  Cu  Cu40  1  0.60677611  0.93470373  0.33579816  1
  Cu  Cu41  1  0.04128272  0.39145279  0.17129531  1
  Cu  Cu42  1  0.41648885  0.03815376  0.67169525  1
  Cu  Cu43  1  0.94270568  0.60884658  0.84835234  1
  Cu  Cu44  1  0.23451427  0.28560373  0.96063928  1
  Cu  Cu45  1  0.70232632  0.77786336  0.54715842  1
  Cu  Cu46  1  0.76769678  0.69578778  0.04213442  1
  Cu  Cu47  1  0.30250012  0.23201635  0.46600206  1
  Ni  Ni48  1  0.30955900  0.39983300  0.75130400  1
  Cu  Cu49  1  0.59096122  0.67786622  0.75361188  1
  Cu  Cu50  1  0.69109510  0.58893456  0.25579244  1
  Cu  Cu51  1  0.40333991  0.30991984  0.26139169  1
