# generated using pymatgen
data_Cu9Ni9C14
_symmetry_space_group_name_H-M   'P 1'
_cell_length_a   7.44234300
_cell_length_b   7.46001302
_cell_length_c   7.51294975
_cell_angle_alpha   108.90649075
_cell_angle_beta   108.99343315
_cell_angle_gamma   107.36795128
_symmetry_Int_Tables_number   1
_chemical_formula_structural   Cu9Ni9C14
_chemical_formula_sum   'Cu9 Ni9 C14'
_cell_volume   332.91679167
_cell_formula_units_Z   1
loop_
 _symmetry_equiv_pos_site_id
 _symmetry_equiv_pos_as_xyz
  1  'x, y, z'
loop_
 _atom_site_type_symbol
 _atom_site_label
 _atom_site_symmetry_multiplicity
 _atom_site_fract_x
 _atom_site_fract_y
 _atom_site_fract_z
 _atom_site_occupancy
  C  C0  1  0.68972700  0.15538900  0.38955000  1
  C  C1  1  0.41349200  0.69359900  0.19407200  1
  C  C2  1  0.15720400  0.16183100  0.15010900  1
  C  C3  1  0.18792700  0.43544400  0.71283100  1
  C  C4  1  0.96510200  0.84795600  0.46436300  1
  C  C5  1  0.58059500  0.56012300  0.58092000  1
  C  C6  1  0.84947300  0.46517900  0.96316300  1
  C  C7  1  0.46691100  0.96496900  0.84731900  1
  C  C8  1  0.75465000  0.84259700  0.07610200  1
  C  C9  1  0.59976100  0.41322300  0.19089000  1
  C  C10  1  0.82923100  0.06574500  0.74327900  1
  C  C11  1  0.19339200  0.59552500  0.41528600  1
  C  C12  1  0.40932200  0.19438500  0.59701900  1
  C  C13  1  0.07486500  0.75614400  0.84192700  1
  Ni  Ni14  1  0.95071700  0.94812600  0.21929900  1
  Ni  Ni15  1  0.61645700  0.91447000  0.09824500  1
  Cu  Cu16  1  0.62107496  0.33549617  0.06379171  1
  Cu  Cu17  1  0.64076963  0.63589443  0.26901402  1
  Ni  Ni18  1  0.89399600  0.08281000  0.60258200  1
  Ni  Ni19  1  0.55149400  0.32911300  0.30381900  1
  Cu  Cu20  1  0.89286193  0.68847013  0.62882143  1
  Cu  Cu21  1  0.65823952  0.91285581  0.68741479  1
  Ni  Ni22  1  0.30676400  0.53725000  0.33390100  1
  Cu  Cu23  1  0.94006221  0.20932378  0.92730809  1
  Cu  Cu24  1  0.61330181  0.26454022  0.62566780  1
  Cu  Cu25  1  0.30448283  0.29069144  0.54580588  1
  Cu  Cu26  1  0.67282883  0.64889589  0.90768719  1
  Ni  Ni27  1  0.30382500  0.02342300  0.60033400  1
  Cu  Cu28  1  0.04347069  0.59418445  0.31435676  1
  Ni  Ni29  1  0.24740700  0.64859100  0.61419200  1
  Ni  Ni30  1  0.22064700  0.94993300  0.94723000  1
  Ni  Ni31  1  0.09755200  0.61872000  0.91325600  1
