# generated using pymatgen
data_Cu3NiC31
_symmetry_space_group_name_H-M   'P 1'
_cell_length_a   9.38707760
_cell_length_b   9.38707760
_cell_length_c   9.38707776
_cell_angle_alpha   56.29904110
_cell_angle_beta   56.29904110
_cell_angle_gamma   56.29903671
_symmetry_Int_Tables_number   1
_chemical_formula_structural   Cu3NiC31
_chemical_formula_sum   'Cu3 Ni1 C31'
_cell_volume   534.81245941
_cell_formula_units_Z   1
loop_
 _symmetry_equiv_pos_site_id
 _symmetry_equiv_pos_as_xyz
  1  'x, y, z'
loop_
 _atom_site_type_symbol
 _atom_site_label
 _atom_site_symmetry_multiplicity
 _atom_site_fract_x
 _atom_site_fract_y
 _atom_site_fract_z
 _atom_site_occupancy
  C  C0  1  0.50000000  0.50000000  0.50000000  1
  Cu  Cu1  1  0.84633714  0.84376308  0.87089963  1
  Cu  Cu2  1  0.11522725  0.15124946  0.17313813  1
  Ni  Ni3  1  0.35024900  0.35024900  0.35024900  1
  Cu  Cu4  1  0.63764803  0.66087082  0.63534565  1
  C  C5  1  0.04323400  0.74490700  0.46834800  1
  C  C6  1  0.74490700  0.46834800  0.04323400  1
  C  C7  1  0.46834800  0.04323400  0.74490700  1
  C  C8  1  0.53165200  0.95676600  0.25509300  1
  C  C9  1  0.95676600  0.25509300  0.53165200  1
  C  C10  1  0.25509300  0.53165200  0.95676600  1
  C  C11  1  0.31269600  0.04362700  0.93118800  1
  C  C12  1  0.29843400  0.49868500  0.11156800  1
  C  C13  1  0.74399600  0.64488000  0.01965300  1
  C  C14  1  0.49868500  0.11156800  0.29843400  1
  C  C15  1  0.23095100  0.59292800  0.41253600  1
  C  C16  1  0.50131500  0.88843200  0.70156600  1
  C  C17  1  0.68730400  0.95637300  0.06881200  1
  C  C18  1  0.01965300  0.74399600  0.64488000  1
  C  C19  1  0.41253600  0.23095100  0.59292800  1
  C  C20  1  0.40707200  0.58746400  0.76904900  1
  C  C21  1  0.98034700  0.25600400  0.35512000  1
  C  C22  1  0.76904900  0.40707200  0.58746400  1
  C  C23  1  0.88843200  0.70156600  0.50131500  1
  C  C24  1  0.70156600  0.50131500  0.88843200  1
  C  C25  1  0.11156800  0.29843400  0.49868500  1
  C  C26  1  0.95637300  0.06881200  0.68730400  1
  C  C27  1  0.59292800  0.41253600  0.23095100  1
  C  C28  1  0.35512000  0.98034700  0.25600400  1
  C  C29  1  0.06881200  0.68730400  0.95637300  1
  C  C30  1  0.04362700  0.93118800  0.31269600  1
  C  C31  1  0.58746400  0.76904900  0.40707200  1
  C  C32  1  0.25600400  0.35512000  0.98034700  1
  C  C33  1  0.93118800  0.31269600  0.04362700  1
  C  C34  1  0.64488000  0.01965300  0.74399600  1
