# generated using pymatgen
data_Cu13Ni5C12
_symmetry_space_group_name_H-M   'P 1'
_cell_length_a   9.41064333
_cell_length_b   9.41064333
_cell_length_c   8.93088200
_cell_angle_alpha   90.00000000
_cell_angle_beta   90.00000000
_cell_angle_gamma   119.99999531
_symmetry_Int_Tables_number   1
_chemical_formula_structural   Cu13Ni5C12
_chemical_formula_sum   'Cu26 Ni10 C24'
_cell_volume   684.95750900
_cell_formula_units_Z   2
loop_
 _symmetry_equiv_pos_site_id
 _symmetry_equiv_pos_as_xyz
  1  'x, y, z'
loop_
 _atom_site_type_symbol
 _atom_site_label
 _atom_site_symmetry_multiplicity
 _atom_site_fract_x
 _atom_site_fract_y
 _atom_site_fract_z
 _atom_site_occupancy
  C  C0  1  0.66666700  0.33333300  0.56051000  1
  C  C1  1  0.33333300  0.66666700  0.43949000  1
  C  C2  1  0.33333300  0.66666700  0.06051000  1
  C  C3  1  0.66666700  0.33333300  0.93949000  1
  C  C4  1  0.98863000  0.34869300  0.58863100  1
  C  C5  1  0.65130700  0.63993700  0.91136900  1
  C  C6  1  0.36006300  0.01137000  0.58863100  1
  C  C7  1  0.34869300  0.36006300  0.41136900  1
  C  C8  1  0.34869300  0.36006300  0.08863100  1
  C  C9  1  0.63993700  0.98863000  0.41136900  1
  C  C10  1  0.01137000  0.65130700  0.08863100  1
  C  C11  1  0.36006300  0.01137000  0.91136900  1
  C  C12  1  0.65130700  0.63993700  0.58863100  1
  C  C13  1  0.63993700  0.98863000  0.08863100  1
  C  C14  1  0.98863000  0.34869300  0.91136900  1
  C  C15  1  0.01137000  0.65130700  0.41136900  1
  C  C16  1  0.36259700  0.02611400  0.25000000  1
  C  C17  1  0.97388600  0.33648300  0.25000000  1
  C  C18  1  0.33648300  0.36259700  0.75000000  1
  C  C19  1  0.02611400  0.66351700  0.75000000  1
  C  C20  1  0.63740300  0.97388600  0.75000000  1
  C  C21  1  0.66351700  0.63740300  0.25000000  1
  C  C22  1  0.00000000  0.00000000  0.00000000  1
  C  C23  1  0.00000000  0.00000000  0.50000000  1
  Cu  Cu24  1  0.43508963  0.85135851  0.26987082  1
  Cu  Cu25  1  0.41212176  0.53854775  0.57131351  1
  Ni  Ni26  1  0.47724200  0.87068600  0.58693400  1
  Cu  Cu27  1  0.85547739  0.38803553  0.44515477  1
  Cu  Cu28  1  0.20900930  0.91371678  0.39772335  1
  Cu  Cu29  1  0.17703654  0.88806399  0.07760550  1
  Ni  Ni30  1  0.90077100  0.69581300  0.90883000  1
  Cu  Cu31  1  0.19229361  0.90483089  0.74193791  1
  Cu  Cu32  1  0.72721781  0.81342904  0.75445608  1
  Ni  Ni33  1  0.79504200  0.09922900  0.59117000  1
  Ni  Ni34  1  0.52275800  0.12931400  0.41306600  1
  Ni  Ni35  1  0.90077100  0.69581300  0.59117000  1
  Cu  Cu36  1  0.07122102  0.29514624  0.08675984  1
  Cu  Cu37  1  0.28686785  0.20200484  0.61242194  1
  Cu  Cu38  1  0.83741263  0.38423968  0.07402874  1
  Cu  Cu39  1  0.81355322  0.11170704  0.27014259  1
  Cu  Cu40  1  0.62787782  0.48347780  0.40493256  1
  Cu  Cu41  1  0.69214428  0.81139219  0.42470021  1
  Cu  Cu42  1  0.12064758  0.59349665  0.58604452  1
  Cu  Cu43  1  0.39806118  0.54486999  0.26235429  1
  Cu  Cu44  1  0.11946326  0.60229679  0.89645700  1
  Cu  Cu45  1  0.87604648  0.41063259  0.75171212  1
  Ni  Ni46  1  0.13282000  0.58045700  0.25000000  1
  Cu  Cu47  1  0.57350814  0.42406528  0.76016600  1
  Ni  Ni48  1  0.30418700  0.20495800  0.90883000  1
  Cu  Cu49  1  0.78441276  0.09990329  0.90831087  1
  Cu  Cu50  1  0.60063725  0.49189040  0.08246865  1
  Cu  Cu51  1  0.55437927  0.13793326  0.74057955  1
  Ni  Ni52  1  0.52275800  0.12931400  0.08693400  1
  Cu  Cu53  1  0.27199587  0.19458210  0.25854576  1
  Cu  Cu54  1  0.11422062  0.31995834  0.42467865  1
  Ni  Ni55  1  0.10584300  0.29358400  0.75000000  1
  Ni  Ni56  1  0.89415700  0.70641600  0.25000000  1
  Cu  Cu57  1  0.47839375  0.86834873  0.91451899  1
  Cu  Cu58  1  0.38348686  0.51251098  0.93676859  1
  Cu  Cu59  1  0.70628530  0.79842163  0.07979063  1
