# generated using pymatgen
data_Cu8NiC3
_symmetry_space_group_name_H-M   'P 1'
_cell_length_a   9.90519100
_cell_length_b   10.30958000
_cell_length_c   14.75352000
_cell_angle_alpha   90.00000000
_cell_angle_beta   90.00000000
_cell_angle_gamma   90.00000000
_symmetry_Int_Tables_number   1
_chemical_formula_structural   Cu8NiC3
_chemical_formula_sum   'Cu64 Ni8 C24'
_cell_volume   1506.60525231
_cell_formula_units_Z   8
loop_
 _symmetry_equiv_pos_site_id
 _symmetry_equiv_pos_as_xyz
  1  'x, y, z'
loop_
 _atom_site_type_symbol
 _atom_site_label
 _atom_site_symmetry_multiplicity
 _atom_site_fract_x
 _atom_site_fract_y
 _atom_site_fract_z
 _atom_site_occupancy
  Ni  Ni0  1  0.77848000  0.03448700  0.89609500  1
  Ni  Ni1  1  0.77848000  0.53448700  0.60390500  1
  Ni  Ni2  1  0.27848000  0.46551300  0.89609500  1
  Ni  Ni3  1  0.72152000  0.03448700  0.39609500  1
  Ni  Ni4  1  0.22152000  0.96551300  0.10390500  1
  Ni  Ni5  1  0.22152000  0.46551300  0.39609500  1
  Ni  Ni6  1  0.72152000  0.53448700  0.10390500  1
  Ni  Ni7  1  0.27848000  0.96551300  0.60390500  1
  C  C8  1  0.18883800  0.31688100  0.19718300  1
  C  C9  1  0.68883800  0.68311900  0.30281700  1
  C  C10  1  0.31116200  0.81688100  0.80281700  1
  C  C11  1  0.81116200  0.18311900  0.69718300  1
  C  C12  1  0.81116200  0.68311900  0.80281700  1
  C  C13  1  0.31116200  0.31688100  0.69718300  1
  C  C14  1  0.68883800  0.18311900  0.19718300  1
  C  C15  1  0.18883800  0.81688100  0.30281700  1
  C  C16  1  0.66801700  0.89715400  0.65306700  1
  C  C17  1  0.00092500  0.78079600  0.44302800  1
  C  C18  1  0.50092500  0.21920400  0.05697200  1
  C  C19  1  0.49907500  0.28079600  0.55697200  1
  C  C20  1  0.99907500  0.71920400  0.94302800  1
  C  C21  1  0.99907500  0.21920400  0.55697200  1
  C  C22  1  0.49907500  0.78079600  0.94302800  1
  C  C23  1  0.50092500  0.71920400  0.44302800  1
  C  C24  1  0.00092500  0.28079600  0.05697200  1
  C  C25  1  0.16801700  0.10284600  0.84693300  1
  C  C26  1  0.83198300  0.39715400  0.34693300  1
  C  C27  1  0.33198300  0.60284600  0.15306700  1
  C  C28  1  0.66801700  0.39715400  0.84693300  1
  C  C29  1  0.83198300  0.89715400  0.15306700  1
  C  C30  1  0.16801700  0.60284600  0.65306700  1
  C  C31  1  0.33198300  0.10284600  0.34693300  1
  Cu  Cu32  1  0.10684300  0.32911000  0.49791200  1
  Cu  Cu33  1  0.60684300  0.67089000  0.00208800  1
  Cu  Cu34  1  0.39315700  0.82911000  0.50208800  1
  Cu  Cu35  1  0.89315700  0.17089000  0.99791200  1
  Cu  Cu36  1  0.89315700  0.67089000  0.50208800  1
  Cu  Cu37  1  0.39315700  0.32911000  0.99791200  1
  Cu  Cu38  1  0.60684300  0.17089000  0.49791200  1
  Cu  Cu39  1  0.10684300  0.82911000  0.00208800  1
  Cu  Cu40  1  0.24372800  0.98878100  0.27174900  1
  Cu  Cu41  1  0.74372700  0.01121900  0.22825100  1
  Cu  Cu42  1  0.25627300  0.48878100  0.72825100  1
  Cu  Cu43  1  0.75627300  0.51121900  0.77174900  1
  Cu  Cu44  1  0.75627300  0.01121900  0.72825100  1
  Cu  Cu45  1  0.25627300  0.98878100  0.77174900  1
  Cu  Cu46  1  0.74372700  0.51121900  0.27174900  1
  Cu  Cu47  1  0.24372800  0.48878100  0.22825100  1
  Cu  Cu48  1  0.22446100  0.76595300  0.68000900  1
  Cu  Cu49  1  0.72446100  0.23404700  0.81999100  1
  Cu  Cu50  1  0.27553900  0.26595300  0.31999100  1
  Cu  Cu51  1  0.77553900  0.73404700  0.18000900  1
  Cu  Cu52  1  0.77553900  0.23404700  0.31999100  1
  Cu  Cu53  1  0.27553900  0.76595300  0.18000900  1
  Cu  Cu54  1  0.72446100  0.73404700  0.68000900  1
  Cu  Cu55  1  0.89077900  0.32041900  0.63252500  1
  Cu  Cu56  1  0.22446100  0.26595300  0.81999100  1
  Cu  Cu57  1  0.29318500  0.57309000  0.03732400  1
  Cu  Cu58  1  0.70681500  0.92691000  0.53732400  1
  Cu  Cu59  1  0.20681500  0.07309000  0.96267600  1
  Cu  Cu60  1  0.20681500  0.57309000  0.53732400  1
  Cu  Cu61  1  0.70681500  0.42691000  0.96267600  1
  Cu  Cu62  1  0.29318500  0.07309000  0.46267600  1
  Cu  Cu63  1  0.79318500  0.92691000  0.03732400  1
  Cu  Cu64  1  0.90105000  0.62958500  0.02258800  1
  Cu  Cu65  1  0.40105000  0.37041500  0.47741200  1
  Cu  Cu66  1  0.59895000  0.12958500  0.97741200  1
  Cu  Cu67  1  0.09895000  0.87041500  0.52258800  1
  Cu  Cu68  1  0.09895000  0.37041500  0.97741200  1
  Cu  Cu69  1  0.59895000  0.62958500  0.52258800  1
  Cu  Cu70  1  0.40105000  0.87041500  0.02258800  1
  Cu  Cu71  1  0.90105000  0.12958500  0.47741200  1
  Cu  Cu72  1  0.89690200  0.38786200  0.12324800  1
  Cu  Cu73  1  0.39690200  0.61213800  0.37675200  1
  Cu  Cu74  1  0.60309800  0.88786200  0.87675200  1
  Cu  Cu75  1  0.10309800  0.11213800  0.62324800  1
  Cu  Cu76  1  0.10309800  0.61213800  0.87675200  1
  Cu  Cu77  1  0.60309800  0.38786200  0.62324800  1
  Cu  Cu78  1  0.39690200  0.11213800  0.12324800  1
  Cu  Cu79  1  0.89690200  0.88786200  0.37675200  1
  Cu  Cu80  1  0.99026600  0.08809900  0.83175900  1
  Cu  Cu81  1  0.49026600  0.91190100  0.66824100  1
  Cu  Cu82  1  0.50973400  0.58809900  0.16824100  1
  Cu  Cu83  1  0.00973400  0.41190100  0.33175900  1
  Cu  Cu84  1  0.00973400  0.91190100  0.16824100  1
  Cu  Cu85  1  0.50973400  0.08809900  0.33175900  1
  Cu  Cu86  1  0.49026600  0.41190100  0.83175900  1
  Cu  Cu87  1  0.99026600  0.58809900  0.66824100  1
  Cu  Cu88  1  0.89077900  0.82041900  0.86747500  1
  Cu  Cu89  1  0.39077900  0.17958100  0.63252500  1
  Cu  Cu90  1  0.60922100  0.32041900  0.13252500  1
  Cu  Cu91  1  0.10922100  0.67958100  0.36747500  1
  Cu  Cu92  1  0.10922100  0.17958100  0.13252500  1
  Cu  Cu93  1  0.60922100  0.82041900  0.36747500  1
  Cu  Cu94  1  0.39077900  0.67958100  0.86747500  1
  Cu  Cu95  1  0.79318500  0.42691000  0.46267600  1
