# generated using pymatgen
data_Cu11NiC4
_symmetry_space_group_name_H-M   'P 1'
_cell_length_a   14.15646447
_cell_length_b   14.15646447
_cell_length_c   14.15646465
_cell_angle_alpha   34.51751705
_cell_angle_beta   34.51751705
_cell_angle_gamma   34.51751780
_symmetry_Int_Tables_number   1
_chemical_formula_structural   Cu11NiC4
_chemical_formula_sum   'Cu44 Ni4 C16'
_cell_volume   812.72640774
_cell_formula_units_Z   4
loop_
 _symmetry_equiv_pos_site_id
 _symmetry_equiv_pos_as_xyz
  1  'x, y, z'
loop_
 _atom_site_type_symbol
 _atom_site_label
 _atom_site_symmetry_multiplicity
 _atom_site_fract_x
 _atom_site_fract_y
 _atom_site_fract_z
 _atom_site_occupancy
  C  C0  1  0.03976400  0.03976400  0.03976400  1
  C  C1  1  0.53976400  0.53976400  0.53976400  1
  C  C2  1  0.46023600  0.46023600  0.46023600  1
  C  C3  1  0.96023600  0.96023600  0.96023600  1
  C  C4  1  0.49042500  0.78772300  0.08144500  1
  C  C5  1  0.41855500  0.71227700  0.00957500  1
  C  C6  1  0.91855500  0.50957500  0.21227700  1
  C  C7  1  0.50957500  0.21227700  0.91855500  1
  C  C8  1  0.21227700  0.91855500  0.50957500  1
  C  C9  1  0.58144500  0.28772300  0.99042500  1
  C  C10  1  0.28772300  0.99042500  0.58144500  1
  C  C11  1  0.08144500  0.49042500  0.78772300  1
  C  C12  1  0.71227700  0.00957500  0.41855500  1
  C  C13  1  0.78772300  0.08144500  0.49042500  1
  C  C14  1  0.99042500  0.58144500  0.28772300  1
  C  C15  1  0.00957500  0.41855500  0.71227700  1
  Ni  Ni16  1  0.34110700  0.34110700  0.34110700  1
  Ni  Ni17  1  0.15889300  0.15889300  0.15889300  1
  Ni  Ni18  1  0.84110700  0.84110700  0.84110700  1
  Ni  Ni19  1  0.65889300  0.65889300  0.65889300  1
  Cu  Cu20  1  0.54417100  0.48868600  0.84823500  1
  Cu  Cu21  1  0.78102000  0.82598900  0.46027000  1
  Cu  Cu22  1  0.21898000  0.17401100  0.53973000  1
  Cu  Cu23  1  0.03774500  0.46225500  0.25000000  1
  Cu  Cu24  1  0.59754800  0.35071300  0.71062900  1
  Cu  Cu25  1  0.48868600  0.84823500  0.54417100  1
  Cu  Cu26  1  0.46027000  0.78102000  0.82598900  1
  Cu  Cu27  1  0.32598900  0.28102000  0.96027000  1
  Cu  Cu28  1  0.21062900  0.85071300  0.09754800  1
  Cu  Cu29  1  0.51131400  0.15176500  0.45582900  1
  Cu  Cu30  1  0.75000000  0.96225500  0.53774500  1
  Cu  Cu31  1  0.17401100  0.53973000  0.21898000  1
  Cu  Cu32  1  0.95582900  0.65176500  0.01131400  1
  Cu  Cu33  1  0.82598900  0.46027000  0.78102000  1
  Cu  Cu34  1  0.34823500  0.98868600  0.04417100  1
  Cu  Cu35  1  0.64928700  0.28937100  0.40245200  1
  Cu  Cu36  1  0.14928700  0.90245200  0.78937100  1
  Cu  Cu37  1  0.25000000  0.03774500  0.46225500  1
  Cu  Cu38  1  0.46225500  0.25000000  0.03774500  1
  Cu  Cu39  1  0.96027000  0.32598900  0.28102000  1
  Cu  Cu40  1  0.96225500  0.53774500  0.75000000  1
  Cu  Cu41  1  0.04417100  0.34823500  0.98868600  1
  Cu  Cu42  1  0.01131400  0.95582900  0.65176500  1
  Cu  Cu43  1  0.35071300  0.71062900  0.59754800  1
  Cu  Cu44  1  0.53973000  0.21898000  0.17401100  1
  Cu  Cu45  1  0.15176500  0.45582900  0.51131400  1
  Cu  Cu46  1  0.50000000  0.50000000  0.50000000  1
  Cu  Cu47  1  0.90245200  0.78937100  0.14928700  1
  Cu  Cu48  1  0.71898000  0.03973000  0.67401100  1
  Cu  Cu49  1  0.78937100  0.14928700  0.90245200  1
  Cu  Cu50  1  0.45582900  0.51131400  0.15176500  1
  Cu  Cu51  1  0.03973000  0.67401100  0.71898000  1
  Cu  Cu52  1  0.71062900  0.59754800  0.35071300  1
  Cu  Cu53  1  0.09754800  0.21062900  0.85071300  1
  Cu  Cu54  1  0.28937100  0.40245200  0.64928700  1
  Cu  Cu55  1  0.65176500  0.01131400  0.95582900  1
  Cu  Cu56  1  0.53774500  0.75000000  0.96225500  1
  Cu  Cu57  1  0.67401100  0.71898000  0.03973000  1
  Cu  Cu58  1  0.28102000  0.96027000  0.32598900  1
  Cu  Cu59  1  0.85071300  0.09754800  0.21062900  1
  Cu  Cu60  1  0.84823500  0.54417100  0.48868600  1
  Cu  Cu61  1  0.40245200  0.64928700  0.28937100  1
  Cu  Cu62  1  0.98868600  0.04417100  0.34823500  1
  Cu  Cu63  1  0.00000000  0.00000000  0.00000000  1
