# generated using pymatgen
data_Cu11Ni8C13
_symmetry_space_group_name_H-M   'P 1'
_cell_length_a   23.58011588
_cell_length_b   23.21259559
_cell_length_c   6.71467724
_cell_angle_alpha   84.86704492
_cell_angle_beta   78.65668607
_cell_angle_gamma   16.47626901
_symmetry_Int_Tables_number   1
_chemical_formula_structural   Cu11Ni8C13
_chemical_formula_sum   'Cu22 Ni16 C26'
_cell_volume   954.86072134
_cell_formula_units_Z   2
loop_
 _symmetry_equiv_pos_site_id
 _symmetry_equiv_pos_as_xyz
  1  'x, y, z'
loop_
 _atom_site_type_symbol
 _atom_site_label
 _atom_site_symmetry_multiplicity
 _atom_site_fract_x
 _atom_site_fract_y
 _atom_site_fract_z
 _atom_site_occupancy
  C  C0  1  0.96772300  0.32433700  0.16491400  1
  C  C1  1  0.16491400  0.54302600  0.96772300  1
  C  C2  1  0.92566300  0.28227700  0.70697400  1
  C  C3  1  0.70697400  0.08508600  0.92566300  1
  C  C4  1  0.41612400  0.79244200  0.20652300  1
  C  C5  1  0.20652300  0.58491100  0.41612400  1
  C  C6  1  0.45755800  0.83387600  0.66508900  1
  C  C7  1  0.66508900  0.04347700  0.45755800  1
  C  C8  1  0.43855100  0.71908900  0.69324600  1
  C  C9  1  0.69324600  0.14911500  0.43855100  1
  C  C10  1  0.53091100  0.81144900  0.10088500  1
  C  C11  1  0.10088500  0.55675400  0.53091100  1
  C  C12  1  0.85400700  0.30472600  0.26683100  1
  C  C13  1  0.26683100  0.57443500  0.85400700  1
  C  C14  1  0.94527400  0.39599300  0.67556500  1
  C  C15  1  0.67556500  0.98316900  0.94527400  1
  C  C16  1  0.23048900  0.20356800  0.27117200  1
  C  C17  1  0.27117200  0.29477200  0.23048900  1
  C  C18  1  0.04643200  0.01951100  0.95522800  1
  C  C19  1  0.95522800  0.97882800  0.04643200  1
  C  C20  1  0.45441000  0.54559000  0.45441000  1
  C  C21  1  0.70441000  0.79559000  0.70441000  1
  C  C22  1  0.95571000  0.07594600  0.51180500  1
  C  C23  1  0.51180500  0.45653900  0.95571000  1
  C  C24  1  0.17405400  0.29429000  0.79346100  1
  C  C25  1  0.79346100  0.73819500  0.17405400  1
  Cu  Cu26  1  0.03984560  0.15146007  0.32911077  1
  Cu  Cu27  1  0.29012068  0.51512442  0.04197337  1
  Ni  Ni28  1  0.09008000  0.21473700  0.77337000  1
  Ni  Ni29  1  0.77337000  0.92181300  0.09008000  1
  Cu  Cu30  1  0.33560772  0.72632281  0.35868204  1
  Cu  Cu31  1  0.38837758  0.55878638  0.28859880  1
  Ni  Ni32  1  0.47947600  0.96201800  0.70943700  1
  Ni  Ni33  1  0.70943700  0.84906900  0.47947600  1
  Ni  Ni34  1  0.92570400  0.17100900  0.17416500  1
  Cu  Cu35  1  0.17966866  0.72413943  0.97463523  1
  Cu  Cu36  1  0.04321136  0.35003271  0.55764358  1
  Cu  Cu37  1  0.54818412  0.04878583  0.05309520  1
  Ni  Ni38  1  0.84679700  0.45279900  0.54427900  1
  Cu  Cu39  1  0.54578674  0.16312488  0.85302258  1
  Ni  Ni40  1  0.79720100  0.40320300  0.09387500  1
  Cu  Cu41  1  0.12301029  0.67708632  0.78397864  1
  Ni  Ni42  1  0.59099500  0.71218100  0.27746700  1
  Ni  Ni43  1  0.27746700  0.41935600  0.59099500  1
  Cu  Cu44  1  0.58052339  0.62292051  0.83429890  1
  Ni  Ni45  1  0.83064400  0.97253300  0.53781900  1
  Ni  Ni46  1  0.45464300  0.94992100  0.18524200  1
  Ni  Ni47  1  0.18524200  0.41019400  0.45464300  1
  Cu  Cu48  1  0.29884830  0.79566541  0.82835484  1
  Cu  Cu49  1  0.83017186  0.07032515  0.30239759  1
  Cu  Cu50  1  0.10505468  0.32461634  0.14076791  1
  Cu  Cu51  1  0.15789817  0.40464873  0.07933027  1
  Ni  Ni52  1  0.90993500  0.15728800  0.80472300  1
  Cu  Cu53  1  0.79603457  0.13288093  0.94340170  1
  Cu  Cu54  1  0.47935876  0.38358656  0.60548954  1
  Ni  Ni55  1  0.63667300  0.49851900  0.49106600  1
  Cu  Cu56  1  0.87461773  0.76151742  0.76490621  1
  Cu  Cu57  1  0.75967648  0.61266805  0.86036486  1
  Cu  Cu58  1  0.07610360  0.92603279  0.05264714  1
  Ni  Ni59  1  0.31441300  0.18558700  0.31441300  1
  Cu  Cu60  1  0.35469044  0.94718671  0.04489535  1
  Cu  Cu61  1  0.03684214  0.65762629  0.32390923  1
  Ni  Ni62  1  0.29871700  0.89891200  0.59831400  1
  Cu  Cu63  1  0.61576392  0.18663546  0.29601134  1
