# generated using pymatgen
data_CuC
_symmetry_space_group_name_H-M   'P 1'
_cell_length_a   4.72356600
_cell_length_b   4.72356600
_cell_length_c   4.72356600
_cell_angle_alpha   90.00000000
_cell_angle_beta   90.00000000
_cell_angle_gamma   90.00000000
_symmetry_Int_Tables_number   1
_chemical_formula_structural   CuC
_chemical_formula_sum   'Cu4 C4'
_cell_volume   105.39256243
_cell_formula_units_Z   4
loop_
 _symmetry_equiv_pos_site_id
 _symmetry_equiv_pos_as_xyz
  1  'x, y, z'
loop_
 _atom_site_type_symbol
 _atom_site_label
 _atom_site_symmetry_multiplicity
 _atom_site_fract_x
 _atom_site_fract_y
 _atom_site_fract_z
 _atom_site_occupancy
  C  C0  1  0.15345300  0.34654700  0.65345300  1
  C  C1  1  0.34654700  0.65345300  0.15345300  1
  C  C2  1  0.65345300  0.15345300  0.34654700  1
  C  C3  1  0.84654700  0.84654700  0.84654700  1
  Cu  Cu4  1  0.82042897  0.66466843  0.30567715  1
  Cu  Cu5  1  0.63189292  0.30331237  0.87957005  1
  Cu  Cu6  1  0.36446887  0.84757815  0.67807064  1
  Cu  Cu7  1  0.14456328  0.19287499  0.11896908  1
