# generated using pymatgen
data_Cu3NiC6
_symmetry_space_group_name_H-M   'P 1'
_cell_length_a   7.41026900
_cell_length_b   7.41026900
_cell_length_c   3.63039300
_cell_angle_alpha   90.00000000
_cell_angle_beta   90.00000000
_cell_angle_gamma   90.00000000
_symmetry_Int_Tables_number   1
_chemical_formula_structural   Cu3NiC6
_chemical_formula_sum   'Cu3 Ni1 C6'
_cell_volume   199.35245500
_cell_formula_units_Z   1
loop_
 _symmetry_equiv_pos_site_id
 _symmetry_equiv_pos_as_xyz
  1  'x, y, z'
loop_
 _atom_site_type_symbol
 _atom_site_label
 _atom_site_symmetry_multiplicity
 _atom_site_fract_x
 _atom_site_fract_y
 _atom_site_fract_z
 _atom_site_occupancy
  Cu  Cu0  1  0.68524386  0.19221591  0.51469486  1
  Cu  Cu1  1  0.34129812  0.83309245  0.50166283  1
  Cu  Cu2  1  0.16983173  0.36292847  0.47296913  1
  Ni  Ni3  1  0.82692300  0.67307700  0.50000000  1
  C  C4  1  0.50000000  0.50000000  0.00000000  1
  C  C5  1  0.00000000  0.00000000  0.00000000  1
  C  C6  1  0.11932400  0.61932400  0.00000000  1
  C  C7  1  0.88067600  0.38067600  0.00000000  1
  C  C8  1  0.61932400  0.88067600  0.00000000  1
  C  C9  1  0.38067600  0.11932400  0.00000000  1
