# generated using pymatgen
data_Cu11NiC12
_symmetry_space_group_name_H-M   'P 1'
_cell_length_a   5.13377800
_cell_length_b   5.87603241
_cell_length_c   7.67560947
_cell_angle_alpha   77.64559826
_cell_angle_beta   75.97761171
_cell_angle_gamma   71.56863416
_symmetry_Int_Tables_number   1
_chemical_formula_structural   Cu11NiC12
_chemical_formula_sum   'Cu11 Ni1 C12'
_cell_volume   210.73478045
_cell_formula_units_Z   1
loop_
 _symmetry_equiv_pos_site_id
 _symmetry_equiv_pos_as_xyz
  1  'x, y, z'
loop_
 _atom_site_type_symbol
 _atom_site_label
 _atom_site_symmetry_multiplicity
 _atom_site_fract_x
 _atom_site_fract_y
 _atom_site_fract_z
 _atom_site_occupancy
  C  C0  1  0.50104900  0.33398600  0.65656400  1
  C  C1  1  0.49643500  0.17112700  0.34265400  1
  C  C2  1  0.50000000  0.00000000  0.00000000  1
  C  C3  1  0.50356500  0.82887300  0.65734600  1
  C  C4  1  0.49895100  0.66601400  0.34343600  1
  C  C5  1  0.50000000  0.50000000  0.00000000  1
  C  C6  1  0.00000000  0.50000000  0.50000000  1
  C  C7  1  0.99690000  0.66199500  0.82911100  1
  C  C8  1  0.00310000  0.33800500  0.17088900  1
  C  C9  1  0.00013000  0.16703100  0.82994900  1
  C  C10  1  0.00000000  0.00000000  0.50000000  1
  C  C11  1  0.99987000  0.83296900  0.17005100  1
  Cu  Cu12  1  0.23185256  0.18621227  0.61169753  1
  Cu  Cu13  1  0.19685882  0.04103941  0.29306083  1
  Cu  Cu14  1  0.17470363  0.88163011  0.86926264  1
  Cu  Cu15  1  0.17632791  0.71726443  0.56448883  1
  Cu  Cu16  1  0.17867660  0.53489491  0.19290377  1
  Cu  Cu17  1  0.22542628  0.31561263  0.94894066  1
  Cu  Cu18  1  0.76855160  0.47484166  0.78139664  1
  Ni  Ni19  1  0.76065400  0.33135700  0.40012600  1
  Cu  Cu20  1  0.78369225  0.15336327  0.05899454  1
  Cu  Cu21  1  0.75668616  0.94623178  0.75347976  1
  Cu  Cu22  1  0.81595479  0.82543511  0.39842328  1
  Cu  Cu23  1  0.72081402  0.66065261  0.07215562  1
