# generated using pymatgen
data_CuC4
_symmetry_space_group_name_H-M   'P 1'
_cell_length_a   5.90720287
_cell_length_b   5.90720287
_cell_length_c   5.89796400
_cell_angle_alpha   90.00000000
_cell_angle_beta   90.00000000
_cell_angle_gamma   120.00000973
_symmetry_Int_Tables_number   1
_chemical_formula_structural   CuC4
_chemical_formula_sum   'Cu2 C8'
_cell_volume   178.23643141
_cell_formula_units_Z   2
loop_
 _symmetry_equiv_pos_site_id
 _symmetry_equiv_pos_as_xyz
  1  'x, y, z'
loop_
 _atom_site_type_symbol
 _atom_site_label
 _atom_site_symmetry_multiplicity
 _atom_site_fract_x
 _atom_site_fract_y
 _atom_site_fract_z
 _atom_site_occupancy
  C  C0  1  0.33333300  0.66666700  0.75000000  1
  C  C1  1  0.66666700  0.33333300  0.25000000  1
  Cu  Cu2  1  0.98579764  0.00747739  0.01901079  1
  Cu  Cu3  1  0.03276475  0.03285744  0.53087074  1
  C  C4  1  0.15440300  0.84559700  0.75000000  1
  C  C5  1  0.15440300  0.30880600  0.75000000  1
  C  C6  1  0.30880600  0.15440300  0.25000000  1
  C  C7  1  0.69119400  0.84559700  0.75000000  1
  C  C8  1  0.84559700  0.69119400  0.25000000  1
  C  C9  1  0.84559700  0.15440300  0.25000000  1
