# generated using pymatgen
data_Cu20C9
_symmetry_space_group_name_H-M   'P 1'
_cell_length_a   8.70646579
_cell_length_b   8.70646579
_cell_length_c   8.70646579
_cell_angle_alpha   60.00000000
_cell_angle_beta   60.00000000
_cell_angle_gamma   60.00000000
_symmetry_Int_Tables_number   1
_chemical_formula_structural   Cu20C9
_chemical_formula_sum   'Cu20 C9'
_cell_volume   466.67087336
_cell_formula_units_Z   1
loop_
 _symmetry_equiv_pos_site_id
 _symmetry_equiv_pos_as_xyz
  1  'x, y, z'
loop_
 _atom_site_type_symbol
 _atom_site_label
 _atom_site_symmetry_multiplicity
 _atom_site_fract_x
 _atom_site_fract_y
 _atom_site_fract_z
 _atom_site_occupancy
  C  C0  1  0.25000000  0.25000000  0.25000000  1
  C  C1  1  0.75000000  0.75000000  0.75000000  1
  C  C2  1  0.00000000  0.00000000  0.00000000  1
  C  C3  1  0.73672900  0.26327100  0.26327100  1
  C  C4  1  0.26327100  0.73672900  0.73672900  1
  C  C5  1  0.26327100  0.73672900  0.26327100  1
  C  C6  1  0.73672900  0.26327100  0.73672900  1
  C  C7  1  0.26327100  0.26327100  0.73672900  1
  C  C8  1  0.73672900  0.73672900  0.26327100  1
  Cu  Cu9  1  0.38023759  0.39080724  0.36402348  1
  Cu  Cu10  1  0.60450395  0.61808821  0.61416933  1
  Cu  Cu11  1  0.38277534  0.38760047  0.85519344  1
  Cu  Cu12  1  0.36685223  0.85767429  0.37521600  1
  Cu  Cu13  1  0.62672778  0.60235196  0.15414496  1
  Cu  Cu14  1  0.60963146  0.16989599  0.62035986  1
  Cu  Cu15  1  0.82647199  0.39721112  0.38956469  1
  Cu  Cu16  1  0.11920507  0.62180831  0.62464752  1
  Cu  Cu17  1  0.35425866  0.00431437  0.01573971  1
  Cu  Cu18  1  0.65138119  0.02521425  0.97530699  1
  Cu  Cu19  1  0.97676780  0.37309072  0.65692630  1
  Cu  Cu20  1  0.01044428  0.63741106  0.35425194  1
  Cu  Cu21  1  0.01883681  0.31162942  0.01583799  1
  Cu  Cu22  1  0.63678518  0.00984709  0.33964265  1
  Cu  Cu23  1  0.97388955  0.65605951  0.00208842  1
  Cu  Cu24  1  0.32904959  0.99565870  0.65931876  1
  Cu  Cu25  1  0.01720619  0.94154347  0.36030484  1
  Cu  Cu26  1  0.02081423  0.97706625  0.66768209  1
  Cu  Cu27  1  0.66515637  0.35406928  0.98467942  1
  Cu  Cu28  1  0.38271081  0.63869755  0.96894733  1
