# generated using pymatgen
data_Cu7C34
_symmetry_space_group_name_H-M   'P 1'
_cell_length_a   9.12180571
_cell_length_b   9.11935500
_cell_length_c   22.43370089
_cell_angle_alpha   90.06450370
_cell_angle_beta   89.89769619
_cell_angle_gamma   120.03242022
_symmetry_Int_Tables_number   1
_chemical_formula_structural   Cu7C34
_chemical_formula_sum   'Cu21 C102'
_cell_volume   1615.59989977
_cell_formula_units_Z   3
loop_
 _symmetry_equiv_pos_site_id
 _symmetry_equiv_pos_as_xyz
  1  'x, y, z'
loop_
 _atom_site_type_symbol
 _atom_site_label
 _atom_site_symmetry_multiplicity
 _atom_site_fract_x
 _atom_site_fract_y
 _atom_site_fract_z
 _atom_site_occupancy
  Cu  Cu0  1  0.37553247  0.35614970  0.24548340  1
  Cu  Cu1  1  0.63059959  0.64498627  0.75195171  1
  Cu  Cu2  1  0.99284056  0.36679458  0.74885052  1
  Cu  Cu3  1  0.36803258  0.01659871  0.75319712  1
  Cu  Cu4  1  0.29568634  0.34262504  0.58364638  1
  Cu  Cu5  1  0.02833354  0.68578328  0.58829530  1
  Cu  Cu6  1  0.67282221  0.94061478  0.58741593  1
  Cu  Cu7  1  0.30319702  0.96999130  0.08766435  1
  Cu  Cu8  1  0.64958417  0.67677527  0.07688871  1
  Cu  Cu9  1  0.03539881  0.31166286  0.09298500  1
  Cu  Cu10  1  0.97853732  0.68378899  0.91369433  1
  Cu  Cu11  1  0.70936517  0.01582197  0.91470243  1
  Cu  Cu12  1  0.96490214  0.29037078  0.42424733  1
  Cu  Cu13  1  0.30339120  0.03251086  0.40854740  1
  Cu  Cu14  1  0.66849252  0.68439832  0.40835593  1
  Cu  Cu15  1  0.00597140  0.00029325  0.49690100  1
  Cu  Cu16  1  0.98995018  0.94513813  0.00858016  1
  Cu  Cu17  1  0.67104073  0.34410905  0.83571459  1
  Cu  Cu18  1  0.65098658  0.32248489  0.32462512  1
  Cu  Cu19  1  0.32532831  0.69763406  0.16624938  1
  Cu  Cu20  1  0.33640074  0.67586286  0.66275284  1
  C  C21  1  0.99886450  0.99891887  0.14834562  1
  C  C22  1  0.33316908  0.67003364  0.31034576  1
  C  C23  1  0.33384472  0.66611141  0.81523603  1
  C  C24  1  0.29388376  0.00066151  0.25075789  1
  C  C25  1  0.70810195  0.70537224  0.25156028  1
  C  C26  1  0.99520501  0.29198330  0.25170089  1
  C  C27  1  0.29240570  0.29124259  0.74899496  1
  C  C28  1  0.99890339  0.70772564  0.75003139  1
  C  C29  1  0.70848966  0.00120699  0.74988196  1
  C  C30  1  0.95953998  0.33322083  0.58293107  1
  C  C31  1  0.37375209  0.04022352  0.58311533  1
  C  C32  1  0.66670669  0.62648830  0.58305941  1
  C  C33  1  0.95794918  0.62416571  0.08203999  1
  C  C34  1  0.66604840  0.04318042  0.08210731  1
  C  C35  1  0.37671214  0.33370624  0.08383330  1
  C  C36  1  0.62677140  0.66465239  0.91762080  1
  C  C37  1  0.04047877  0.37104347  0.91851866  1
  C  C38  1  0.33275353  0.96179062  0.91800597  1
  C  C39  1  0.62538738  0.95759805  0.41717188  1
  C  C40  1  0.33248014  0.37451055  0.41640880  1
  C  C41  1  0.04243926  0.66733249  0.41703258  1
  C  C42  1  0.99890768  0.99930430  0.35086482  1
  C  C43  1  0.00364298  0.00329060  0.85291276  1
  C  C44  1  0.00049888  0.00060565  0.64773555  1
  C  C45  1  0.66685833  0.33356165  0.68479750  1
  C  C46  1  0.66984712  0.33307135  0.18672383  1
  C  C47  1  0.66338557  0.33282392  0.97942859  1
  C  C48  1  0.66659017  0.33336664  0.47955480  1
  C  C49  1  0.33326157  0.66571782  0.01879591  1
  C  C50  1  0.33323416  0.66665022  0.51808315  1
  C  C51  1  0.21421901  0.03812996  0.31022497  1
  C  C52  1  0.81741299  0.78582510  0.31179134  1
  C  C53  1  0.97117530  0.18410156  0.31223833  1
  C  C54  1  0.20901099  0.16312767  0.80483915  1
  C  C55  1  0.95775455  0.78717187  0.80842041  1
  C  C56  1  0.82811821  0.04037237  0.80828017  1
  C  C57  1  0.78291976  0.95518282  0.69074731  1
  C  C58  1  0.17421670  0.22085607  0.68912601  1
  C  C59  1  0.04515864  0.82800033  0.69084709  1
  C  C60  1  0.80475206  0.82847028  0.19302479  1
  C  C61  1  0.02741606  0.19556411  0.19376584  1
  C  C62  1  0.17010254  0.97433198  0.19236620  1
  C  C63  1  0.88180717  0.37322574  0.64278180  1
  C  C64  1  0.49163655  0.11841291  0.64276575  1
  C  C65  1  0.62707800  0.50859081  0.64272534  1
  C  C66  1  0.87385674  0.49660773  0.13791496  1
  C  C67  1  0.61986658  0.12526623  0.13795500  1
  C  C68  1  0.49360865  0.37568682  0.14334147  1
  C  C69  1  0.45366126  0.28290202  0.02692783  1
  C  C70  1  0.84011694  0.55337200  0.02177850  1
  C  C71  1  0.71456381  0.16088930  0.02163975  1
  C  C72  1  0.45364133  0.16087474  0.52405074  1
  C  C73  1  0.70770618  0.54663668  0.52399231  1
  C  C74  1  0.83875068  0.29268449  0.52401003  1
  C  C75  1  0.54757524  0.70515251  0.97624879  1
  C  C76  1  0.15057389  0.45359019  0.97825678  1
  C  C77  1  0.29588392  0.84292024  0.97678408  1
  C  C78  1  0.55084846  0.84334928  0.47785687  1
  C  C79  1  0.29263655  0.45046194  0.47677574  1
  C  C80  1  0.15687836  0.70793480  0.47765406  1
  C  C81  1  0.14246562  0.63681115  0.36157668  1
  C  C82  1  0.49526552  0.85662063  0.36179178  1
  C  C83  1  0.36300999  0.49915558  0.35915326  1
  C  C84  1  0.14011136  0.49650152  0.86000994  1
  C  C85  1  0.35781748  0.86070135  0.85941934  1
  C  C86  1  0.50493509  0.64454228  0.85891885  1
  C  C87  1  0.02302743  0.83600715  0.41156167  1
  C  C88  1  0.81383289  0.97779819  0.41217985  1
  C  C89  1  0.16420239  0.18501666  0.41234516  1
  C  C90  1  0.01183509  0.18065814  0.91253925  1
  C  C91  1  0.15710744  0.96605655  0.91158590  1
  C  C92  1  0.81194798  0.83732636  0.91114897  1
  C  C93  1  0.97579950  0.16182487  0.58732205  1
  C  C94  1  0.18575452  0.02326976  0.58749630  1
  C  C95  1  0.83799108  0.81438443  0.58760942  1
  C  C96  1  0.97787949  0.81484700  0.09021376  1
  C  C97  1  0.83634841  0.02290244  0.09093938  1
  C  C98  1  0.18454388  0.16416401  0.09069696  1
  C  C99  1  0.68664602  0.16873663  0.74553786  1
  C  C100  1  0.48253691  0.31466903  0.74514828  1
  C  C101  1  0.83142431  0.51825722  0.74548217  1
  C  C102  1  0.67637258  0.51437632  0.24537156  1
  C  C103  1  0.83085101  0.31283839  0.24555779  1
  C  C104  1  0.47494570  0.17368719  0.24423728  1
  C  C105  1  0.64746193  0.49791778  0.91799939  1
  C  C106  1  0.85731299  0.36526148  0.91816518  1
  C  C107  1  0.51221488  0.13923067  0.91839896  1
  C  C108  1  0.63669495  0.14322372  0.41915941  1
  C  C109  1  0.50675168  0.36257431  0.41937557  1
  C  C110  1  0.85673025  0.49304613  0.41920531  1
  C  C111  1  0.35410854  0.50141360  0.07879327  1
  C  C112  1  0.14952356  0.64944327  0.07896751  1
  C  C113  1  0.49972078  0.85168590  0.07827770  1
  C  C114  1  0.35610528  0.85203986  0.57932954  1
  C  C115  1  0.49590183  0.64370690  0.57928141  1
  C  C116  1  0.14773293  0.50397012  0.57918281  1
  C  C117  1  0.30618061  0.82824819  0.25586603  1
  C  C118  1  0.51910887  0.68893144  0.25584524  1
  C  C119  1  0.17645029  0.47391362  0.25560727  1
  C  C120  1  0.31179554  0.48144669  0.75719258  1
  C  C121  1  0.16954321  0.68773935  0.75725300  1
  C  C122  1  0.51767569  0.83031844  0.75669472  1
