# generated using pymatgen
data_Cu49Ni25C33
_symmetry_space_group_name_H-M   'P 1'
_cell_length_a   3.98461445
_cell_length_b   22.35928388
_cell_length_c   22.35928388
_cell_angle_alpha   119.99999835
_cell_angle_beta   90.00000000
_cell_angle_gamma   90.00000000
_symmetry_Int_Tables_number   1
_chemical_formula_structural   Cu49Ni25C33
_chemical_formula_sum   'Cu49 Ni25 C33'
_cell_volume   1725.17328529
_cell_formula_units_Z   1
loop_
 _symmetry_equiv_pos_site_id
 _symmetry_equiv_pos_as_xyz
  1  'x, y, z'
loop_
 _atom_site_type_symbol
 _atom_site_label
 _atom_site_symmetry_multiplicity
 _atom_site_fract_x
 _atom_site_fract_y
 _atom_site_fract_z
 _atom_site_occupancy
  Ni  Ni0  1  0.50000000  0.57266563  0.60853258  1
  Ni  Ni1  1  0.50000000  0.03586695  0.42733437  1
  Ni  Ni2  1  0.50000000  0.03586695  0.60853258  1
  Ni  Ni3  1  0.50000000  0.39146742  0.96413305  1
  Ni  Ni4  1  0.50000000  0.39146742  0.42733437  1
  Ni  Ni5  1  0.50000000  0.57266563  0.96413305  1
  Ni  Ni6  1  0.00000000  0.82244249  0.64488499  1
  Ni  Ni7  1  -0.00000000  0.82244249  0.17755751  1
  Ni  Ni8  1  0.00000000  0.35511501  0.17755751  1
  Ni  Ni9  1  0.50000000  0.57438970  0.14877940  1
  Ni  Ni10  1  0.50000000  0.57438970  0.42561030  1
  Ni  Ni11  1  0.50000000  0.85122060  0.42561030  1
  Ni  Ni12  1  -0.00000000  0.00095397  0.18008369  1
  Ni  Ni13  1  0.00000000  0.17912972  0.99904603  1
  Ni  Ni14  1  -0.00000000  0.17912972  0.18008369  1
  Ni  Ni15  1  -0.00000000  0.81991631  0.82087028  1
  Ni  Ni16  1  -0.00000000  0.81991631  0.99904603  1
  Ni  Ni17  1  0.00000000  0.00095397  0.82087028  1
  Ni  Ni18  1  -0.00000000  0.00000000  0.00000000  1
  Ni  Ni19  1  0.50000000  0.21349875  0.42699750  1
  Ni  Ni20  1  0.50000000  0.21349875  0.78650125  1
  Ni  Ni21  1  0.50000000  0.57300250  0.78650125  1
  Ni  Ni22  1  0.50000000  0.39297448  0.78594897  1
  Ni  Ni23  1  0.50000000  0.39297448  0.60702552  1
  Ni  Ni24  1  0.50000000  0.21405103  0.60702552  1
  Cu  Cu25  1  0.50000000  0.88512885  0.30377619  1
  Cu  Cu26  1  0.50000000  0.41864735  0.11487115  1
  Cu  Cu27  1  0.50000000  0.41864735  0.30377619  1
  Cu  Cu28  1  0.50000000  0.69622381  0.58135265  1
  Cu  Cu29  1  0.50000000  0.69622381  0.11487115  1
  Cu  Cu30  1  0.50000000  0.88512885  0.58135265  1
  Cu  Cu31  1  0.00000000  0.80468053  0.30371866  1
  Cu  Cu32  1  -0.00000000  0.49903813  0.19531947  1
  Cu  Cu33  1  0.00000000  0.49903813  0.30371866  1
  Cu  Cu34  1  0.00000000  0.69628134  0.50096187  1
  Cu  Cu35  1  0.00000000  0.69628134  0.19531947  1
  Cu  Cu36  1  -0.00000000  0.80468053  0.50096187  1
  Cu  Cu37  1  0.50000000  0.69540978  0.75985860  1
  Cu  Cu38  1  0.50000000  0.06444883  0.30459022  1
  Cu  Cu39  1  0.50000000  0.06444883  0.75985860  1
  Cu  Cu40  1  0.50000000  0.24014140  0.93555117  1
  Cu  Cu41  1  0.50000000  0.24014140  0.30459022  1
  Cu  Cu42  1  0.50000000  0.69540978  0.93555117  1
  Cu  Cu43  1  -0.00000000  0.51245905  0.02491810  1
  Cu  Cu44  1  0.00000000  0.51245905  0.48754095  1
  Cu  Cu45  1  -0.00000000  0.97508190  0.48754095  1
  Cu  Cu46  1  -0.00000000  0.63100638  0.26201275  1
  Cu  Cu47  1  0.00000000  0.63100638  0.36899362  1
  Cu  Cu48  1  -0.00000000  0.73798725  0.36899362  1
  Cu  Cu49  1  0.50000000  0.06019394  0.12038789  1
  Cu  Cu50  1  0.50000000  0.06019394  0.93980606  1
  Cu  Cu51  1  0.50000000  0.87961211  0.93980606  1
  Cu  Cu52  1  0.50000000  0.70750110  0.41500219  1
  Cu  Cu53  1  0.50000000  0.70750110  0.29249890  1
  Cu  Cu54  1  0.50000000  0.58499781  0.29249890  1
  Cu  Cu55  1  -0.00000000  0.33333300  0.66666700  1
  Cu  Cu56  1  0.00000000  0.97367080  0.30293720  1
  Cu  Cu57  1  -0.00000000  0.32926640  0.02632920  1
  Cu  Cu58  1  -0.00000000  0.32926640  0.30293720  1
  Cu  Cu59  1  -0.00000000  0.69706280  0.67073360  1
  Cu  Cu60  1  0.00000000  0.69706280  0.02632920  1
  Cu  Cu61  1  -0.00000000  0.97367080  0.67073360  1
  Cu  Cu62  1  0.00000000  0.15104440  0.30208879  1
  Cu  Cu63  1  -0.00000000  0.15104440  0.84895560  1
  Cu  Cu64  1  0.00000000  0.69791121  0.84895560  1
  Cu  Cu65  1  0.50000000  0.88067140  0.76134280  1
  Cu  Cu66  1  0.50000000  0.88067140  0.11932860  1
  Cu  Cu67  1  0.50000000  0.23865720  0.11932860  1
  Cu  Cu68  1  -0.00000000  0.51277830  0.66720561  1
  Cu  Cu69  1  0.00000000  0.15442731  0.48722170  1
  Cu  Cu70  1  0.00000000  0.15442731  0.66720561  1
  Cu  Cu71  1  0.00000000  0.33279439  0.84557269  1
  Cu  Cu72  1  -0.00000000  0.33279439  0.48722170  1
  Cu  Cu73  1  0.00000000  0.51277830  0.84557269  1
  C  C74  1  0.50000000  0.76377806  0.52755612  1
  C  C75  1  0.50000000  0.76377806  0.23622194  1
  C  C76  1  0.50000000  0.47244388  0.23622194  1
  C  C77  1  -0.00000000  0.27372522  0.54745043  1
  C  C78  1  0.00000000  0.27372522  0.72627478  1
  C  C79  1  -0.00000000  0.45254957  0.72627478  1
  C  C80  1  0.00000000  0.45245407  0.90490814  1
  C  C81  1  -0.00000000  0.45245407  0.54754593  1
  C  C82  1  0.00000000  0.09509186  0.54754593  1
  C  C83  1  0.50000000  0.11928351  0.23856701  1
  C  C84  1  0.50000000  0.11928351  0.88071649  1
  C  C85  1  0.50000000  0.76143299  0.88071649  1
  C  C86  1  -0.00000000  0.63157696  0.72676512  1
  C  C87  1  0.00000000  0.09518816  0.36842304  1
  C  C88  1  0.00000000  0.09518816  0.72676512  1
  C  C89  1  0.00000000  0.27323488  0.90481184  1
  C  C90  1  -0.00000000  0.27323488  0.36842304  1
  C  C91  1  0.00000000  0.63157696  0.90481184  1
  C  C92  1  0.00000000  0.91947485  0.37018912  1
  C  C93  1  0.00000000  0.45071427  0.08052515  1
  C  C94  1  -0.00000000  0.45071427  0.37018912  1
  C  C95  1  -0.00000000  0.62981088  0.54928573  1
  C  C96  1  0.00000000  0.62981088  0.08052515  1
  C  C97  1  0.00000000  0.91947485  0.54928573  1
  C  C98  1  0.50000000  0.94058707  0.88117414  1
  C  C99  1  0.50000000  0.94058707  0.05941293  1
  C  C100  1  0.50000000  0.11882586  0.05941293  1
  C  C101  1  0.50000000  0.94194692  0.23850196  1
  C  C102  1  0.50000000  0.29655504  0.05805308  1
  C  C103  1  0.50000000  0.29655504  0.23850196  1
  C  C104  1  0.50000000  0.76149804  0.70344496  1
  C  C105  1  0.50000000  0.76149804  0.05805308  1
  C  C106  1  0.50000000  0.94194692  0.70344496  1
