# generated using pymatgen
data_Cu34Ni15C58
_symmetry_space_group_name_H-M   'P 1'
_cell_length_a   3.98461445
_cell_length_b   22.35928388
_cell_length_c   22.35928388
_cell_angle_alpha   119.99999835
_cell_angle_beta   90.00000000
_cell_angle_gamma   90.00000000
_symmetry_Int_Tables_number   1
_chemical_formula_structural   Cu34Ni15C58
_chemical_formula_sum   'Cu34 Ni15 C58'
_cell_volume   1725.17328529
_cell_formula_units_Z   1
loop_
 _symmetry_equiv_pos_site_id
 _symmetry_equiv_pos_as_xyz
  1  'x, y, z'
loop_
 _atom_site_type_symbol
 _atom_site_label
 _atom_site_symmetry_multiplicity
 _atom_site_fract_x
 _atom_site_fract_y
 _atom_site_fract_z
 _atom_site_occupancy
  C  C0  1  0.50000000  0.57266563  0.60853258  1
  C  C1  1  0.50000000  0.03586695  0.42733437  1
  C  C2  1  0.50000000  0.03586695  0.60853258  1
  C  C3  1  0.50000000  0.39146742  0.96413305  1
  C  C4  1  0.50000000  0.39146742  0.42733437  1
  C  C5  1  0.50000000  0.57266563  0.96413305  1
  C  C6  1  0.00000000  0.82244249  0.64488499  1
  C  C7  1  -0.00000000  0.82244249  0.17755751  1
  C  C8  1  0.00000000  0.35511501  0.17755751  1
  C  C9  1  0.50000000  0.57438970  0.14877940  1
  C  C10  1  0.50000000  0.57438970  0.42561030  1
  C  C11  1  0.50000000  0.85122060  0.42561030  1
  C  C12  1  -0.00000000  0.00095397  0.18008369  1
  C  C13  1  0.00000000  0.17912972  0.99904603  1
  C  C14  1  -0.00000000  0.17912972  0.18008369  1
  C  C15  1  -0.00000000  0.81991631  0.82087028  1
  C  C16  1  -0.00000000  0.81991631  0.99904603  1
  C  C17  1  0.00000000  0.00095397  0.82087028  1
  C  C18  1  -0.00000000  0.00000000  0.00000000  1
  C  C19  1  0.50000000  0.21349875  0.42699750  1
  C  C20  1  0.50000000  0.21349875  0.78650125  1
  C  C21  1  0.50000000  0.57300250  0.78650125  1
  C  C22  1  0.50000000  0.39297448  0.78594897  1
  C  C23  1  0.50000000  0.39297448  0.60702552  1
  C  C24  1  0.50000000  0.21405103  0.60702552  1
  Ni  Ni25  1  0.50000000  0.88512885  0.30377619  1
  Cu  Cu26  1  0.51894368  0.42117314  0.11526501  1
  Ni  Ni27  1  0.50000000  0.41864735  0.30377619  1
  Cu  Cu28  1  0.48840932  0.69115070  0.58118450  1
  Cu  Cu29  1  0.44385769  0.69998144  0.12010447  1
  Ni  Ni30  1  0.50000000  0.88512885  0.58135265  1
  Cu  Cu31  1  0.95972873  0.80516770  0.30289498  1
  Ni  Ni32  1  -0.00000000  0.49903813  0.19531947  1
  Cu  Cu33  1  0.98475780  0.49371271  0.31017798  1
  Cu  Cu34  1  0.01658911  0.70053649  0.50726104  1
  Cu  Cu35  1  0.01112772  0.68828112  0.19470144  1
  Ni  Ni36  1  -0.00000000  0.80468053  0.50096187  1
  Cu  Cu37  1  0.49853909  0.69415284  0.75780120  1
  Cu  Cu38  1  0.52042811  0.07241315  0.30363303  1
  Cu  Cu39  1  0.50535966  0.05811536  0.75666968  1
  Cu  Cu40  1  0.53698078  0.24452897  0.93699991  1
  Cu  Cu41  1  0.49871479  0.23549269  0.29752803  1
  Cu  Cu42  1  0.45697290  0.68819176  0.93472678  1
  Cu  Cu43  1  0.02735614  0.51068605  0.02409835  1
  Cu  Cu44  1  0.04468650  0.51160900  0.48961882  1
  Cu  Cu45  1  0.98210859  0.97669053  0.49236105  1
  Cu  Cu46  1  0.02067471  0.62961671  0.25471088  1
  Cu  Cu47  1  0.96654956  0.64087241  0.37603684  1
  Cu  Cu48  1  0.99644450  0.73491326  0.37145019  1
  Ni  Ni49  1  0.50000000  0.06019394  0.12038789  1
  Ni  Ni50  1  0.50000000  0.06019394  0.93980606  1
  Cu  Cu51  1  0.53179656  0.88420736  0.93978963  1
  Cu  Cu52  1  0.47475914  0.69995188  0.41604213  1
  Cu  Cu53  1  0.47279857  0.70439920  0.29071126  1
  Cu  Cu54  1  0.51458746  0.58029170  0.28609333  1
  Cu  Cu55  1  0.01542829  0.33059911  0.66359248  1
  Cu  Cu56  1  0.99425727  0.97086181  0.30540575  1
  Cu  Cu57  1  0.99898012  0.32265080  0.02403499  1
  Ni  Ni58  1  -0.00000000  0.32926640  0.30293720  1
  Cu  Cu59  1  0.99058245  0.68455980  0.65558416  1
  Cu  Cu60  1  0.98180519  0.69479823  0.02490330  1
  Ni  Ni61  1  -0.00000000  0.97367080  0.67073360  1
  Cu  Cu62  1  0.97350899  0.15099094  0.30142281  1
  Ni  Ni63  1  -0.00000000  0.15104440  0.84895560  1
  Cu  Cu64  1  0.92380960  0.69663437  0.84707615  1
  Cu  Cu65  1  0.51627258  0.87821341  0.76225129  1
  Ni  Ni66  1  0.50000000  0.88067140  0.11932860  1
  Ni  Ni67  1  0.50000000  0.23865720  0.11932860  1
  Ni  Ni68  1  -0.00000000  0.51277830  0.66720561  1
  Cu  Cu69  1  0.01402735  0.15042543  0.49055736  1
  Ni  Ni70  1  0.00000000  0.15442731  0.66720561  1
  Cu  Cu71  1  0.02760551  0.33943855  0.84689294  1
  Cu  Cu72  1  0.01688542  0.33420072  0.47935508  1
  Ni  Ni73  1  0.00000000  0.51277830  0.84557269  1
  C  C74  1  0.50000000  0.76377806  0.52755612  1
  C  C75  1  0.50000000  0.76377806  0.23622194  1
  C  C76  1  0.50000000  0.47244388  0.23622194  1
  C  C77  1  -0.00000000  0.27372522  0.54745043  1
  C  C78  1  0.00000000  0.27372522  0.72627478  1
  C  C79  1  -0.00000000  0.45254957  0.72627478  1
  C  C80  1  0.00000000  0.45245407  0.90490814  1
  C  C81  1  -0.00000000  0.45245407  0.54754593  1
  C  C82  1  0.00000000  0.09509186  0.54754593  1
  C  C83  1  0.50000000  0.11928351  0.23856701  1
  C  C84  1  0.50000000  0.11928351  0.88071649  1
  C  C85  1  0.50000000  0.76143299  0.88071649  1
  C  C86  1  -0.00000000  0.63157696  0.72676512  1
  C  C87  1  0.00000000  0.09518816  0.36842304  1
  C  C88  1  0.00000000  0.09518816  0.72676512  1
  C  C89  1  0.00000000  0.27323488  0.90481184  1
  C  C90  1  -0.00000000  0.27323488  0.36842304  1
  C  C91  1  0.00000000  0.63157696  0.90481184  1
  C  C92  1  0.00000000  0.91947485  0.37018912  1
  C  C93  1  0.00000000  0.45071427  0.08052515  1
  C  C94  1  -0.00000000  0.45071427  0.37018912  1
  C  C95  1  -0.00000000  0.62981088  0.54928573  1
  C  C96  1  0.00000000  0.62981088  0.08052515  1
  C  C97  1  0.00000000  0.91947485  0.54928573  1
  C  C98  1  0.50000000  0.94058707  0.88117414  1
  C  C99  1  0.50000000  0.94058707  0.05941293  1
  C  C100  1  0.50000000  0.11882586  0.05941293  1
  C  C101  1  0.50000000  0.94194692  0.23850196  1
  C  C102  1  0.50000000  0.29655504  0.05805308  1
  C  C103  1  0.50000000  0.29655504  0.23850196  1
  C  C104  1  0.50000000  0.76149804  0.70344496  1
  C  C105  1  0.50000000  0.76149804  0.05805308  1
  C  C106  1  0.50000000  0.94194692  0.70344496  1
