# generated using pymatgen
data_Cu3Ni13C56
_symmetry_space_group_name_H-M   'P 1'
_cell_length_a   9.37755400
_cell_length_b   9.30934200
_cell_length_c   12.90633629
_cell_angle_alpha   46.46679943
_cell_angle_beta   90.00000000
_cell_angle_gamma   90.00000000
_symmetry_Int_Tables_number   1
_chemical_formula_structural   Cu3Ni13C56
_chemical_formula_sum   'Cu3 Ni13 C56'
_cell_volume   816.83585290
_cell_formula_units_Z   1
loop_
 _symmetry_equiv_pos_site_id
 _symmetry_equiv_pos_as_xyz
  1  'x, y, z'
loop_
 _atom_site_type_symbol
 _atom_site_label
 _atom_site_symmetry_multiplicity
 _atom_site_fract_x
 _atom_site_fract_y
 _atom_site_fract_z
 _atom_site_occupancy
  C  C0  1  0.00949100  0.74165400  0.75167000  1
  C  C1  1  0.51351900  0.24353900  0.75365400  1
  C  C2  1  0.48648100  0.24353900  0.25365400  1
  C  C3  1  0.99050900  0.74165400  0.25167000  1
  C  C4  1  0.26941600  0.49670800  0.74895200  1
  C  C5  1  0.23170600  0.98385800  0.24982200  1
  C  C6  1  0.76829400  0.98385800  0.74982200  1
  C  C7  1  0.73058400  0.49670800  0.24895200  1
  Ni  Ni8  1  0.02054800  0.74806500  0.00061600  1
  Ni  Ni9  1  0.02780800  0.25282100  0.50097700  1
  Ni  Ni10  1  0.24914200  0.98081100  0.99906900  1
  Ni  Ni11  1  0.24756300  0.51961200  0.99767300  1
  Ni  Ni12  1  0.24850300  0.02917900  0.50160700  1
  Cu  Cu13  1  0.25679108  0.48381109  0.49350793  1
  Ni  Ni14  1  0.46814600  0.25027400  0.50231100  1
  Cu  Cu15  1  0.47783640  0.74969401  0.98716817  1
  Ni  Ni16  1  0.51859100  0.75282300  0.49707600  1
  Ni  Ni17  1  0.53185400  0.25027400  0.00231100  1
  Ni  Ni18  1  0.75149700  0.02917900  0.00160700  1
  Ni  Ni19  1  0.75085800  0.98081100  0.49906900  1
  Ni  Ni20  1  0.75463300  0.47204100  0.00189200  1
  Ni  Ni21  1  0.75243700  0.51961200  0.49767300  1
  Cu  Cu22  1  0.96098772  0.24113764  0.01326493  1
  Ni  Ni23  1  0.97945200  0.74806500  0.50061600  1
  C  C24  1  0.05259300  0.44028400  0.88203600  1
  C  C25  1  0.05091800  0.05929700  0.12067400  1
  C  C26  1  0.05674400  0.56691100  0.62403700  1
  C  C27  1  0.06034000  0.93388900  0.37499000  1
  C  C28  1  0.13269500  0.69576400  0.93221400  1
  C  C29  1  0.13110500  0.80819400  0.06416700  1
  C  C30  1  0.13587100  0.29044300  0.57819600  1
  C  C31  1  0.13463500  0.20694400  0.42972900  1
  C  C32  1  0.17349300  0.66398900  0.38092500  1
  C  C33  1  0.17711700  0.83562700  0.62083500  1
  C  C34  1  0.18938000  0.32150600  0.12348600  1
  C  C35  1  0.19229800  0.18108900  0.87593100  1
  C  C36  1  0.31086100  0.56274100  0.86920500  1
  C  C37  1  0.31126300  0.93668500  0.12724300  1
  C  C38  1  0.31900500  0.43802500  0.62269500  1
  C  C39  1  0.32162900  0.07063400  0.37953700  1
  C  C40  1  0.36226300  0.43635300  0.43067800  1
  C  C41  1  0.36035600  0.06811000  0.57530800  1
  C  C42  1  0.37277600  0.93148900  0.93827200  1
  C  C43  1  0.37354800  0.57378100  0.05358500  1
  C  C44  1  0.44549600  0.68694800  0.62735400  1
  C  C45  1  0.43705500  0.81532700  0.37220200  1
  C  C46  1  0.45986700  0.29652700  0.87847200  1
  C  C47  1  0.45284300  0.20709500  0.12080400  1
  C  C48  1  0.54715700  0.20709500  0.62080400  1
  C  C49  1  0.54013300  0.29652700  0.37847200  1
  C  C50  1  0.56294500  0.81532700  0.87220200  1
  C  C51  1  0.55450400  0.68694800  0.12735400  1
  C  C52  1  0.62722400  0.93148900  0.43827200  1
  C  C53  1  0.62645200  0.57378100  0.55358500  1
  C  C54  1  0.63773700  0.43635300  0.93067800  1
  C  C55  1  0.63964400  0.06811000  0.07530800  1
  C  C56  1  0.67837100  0.07063400  0.87953700  1
  C  C57  1  0.68099500  0.43802500  0.12269500  1
  C  C58  1  0.68913900  0.56274100  0.36920500  1
  C  C59  1  0.68873700  0.93668500  0.62724300  1
  C  C60  1  0.81062000  0.32150600  0.62348600  1
  C  C61  1  0.80770200  0.18108900  0.37593100  1
  C  C62  1  0.82650700  0.66398900  0.88092500  1
  C  C63  1  0.82288300  0.83562700  0.12083500  1
  C  C64  1  0.86536500  0.20694400  0.92972900  1
  C  C65  1  0.86412900  0.29044300  0.07819600  1
  C  C66  1  0.86889500  0.80819400  0.56416700  1
  C  C67  1  0.86730500  0.69576400  0.43221400  1
  C  C68  1  0.94325600  0.56691100  0.12403700  1
  C  C69  1  0.93966000  0.93388900  0.87499000  1
  C  C70  1  0.94908200  0.05929700  0.62067400  1
  C  C71  1  0.94740700  0.44028400  0.38203600  1
