# generated using pymatgen
data_CuNi3C8
_symmetry_space_group_name_H-M   'P 1'
_cell_length_a   3.43724123
_cell_length_b   3.43724123
_cell_length_c   39.05473600
_cell_angle_alpha   90.00000000
_cell_angle_beta   90.00000000
_cell_angle_gamma   119.99998515
_symmetry_Int_Tables_number   1
_chemical_formula_structural   CuNi3C8
_chemical_formula_sum   'Cu1 Ni3 C8'
_cell_volume   399.59903229
_cell_formula_units_Z   1
loop_
 _symmetry_equiv_pos_site_id
 _symmetry_equiv_pos_as_xyz
  1  'x, y, z'
loop_
 _atom_site_type_symbol
 _atom_site_label
 _atom_site_symmetry_multiplicity
 _atom_site_fract_x
 _atom_site_fract_y
 _atom_site_fract_z
 _atom_site_occupancy
  Cu  Cu0  1  0.69486900  0.33724046  0.04326672  1
  Ni  Ni1  1  0.66666700  0.33333300  0.42212900  1
  Ni  Ni2  1  0.66666700  0.33333300  0.14146800  1
  Ni  Ni3  1  0.66666700  0.33333300  0.51718000  1
  C  C4  1  0.33333300  0.66666700  0.09390700  1
  C  C5  1  0.33333300  0.66666700  0.46965000  1
  C  C6  1  0.66666700  0.33333300  0.28178000  1
  C  C7  1  0.66666700  0.33333300  0.65755000  1
  C  C8  1  0.33333300  0.66666700  0.32377900  1
  C  C9  1  0.33333300  0.66666700  0.69954400  1
  C  C10  1  0.33333300  0.66666700  0.23984300  1
  C  C11  1  0.33333300  0.66666700  0.61551600  1
