# generated using pymatgen
data_Cu4(Ni2C9)3
_symmetry_space_group_name_H-M   'P 1'
_cell_length_a   5.57187940
_cell_length_b   8.16619909
_cell_length_c   9.02969937
_cell_angle_alpha   67.10147984
_cell_angle_beta   86.34061660
_cell_angle_gamma   85.50586126
_symmetry_Int_Tables_number   1
_chemical_formula_structural   Cu4(Ni2C9)3
_chemical_formula_sum   'Cu4 Ni6 C27'
_cell_volume   377.07095243
_cell_formula_units_Z   1
loop_
 _symmetry_equiv_pos_site_id
 _symmetry_equiv_pos_as_xyz
  1  'x, y, z'
loop_
 _atom_site_type_symbol
 _atom_site_label
 _atom_site_symmetry_multiplicity
 _atom_site_fract_x
 _atom_site_fract_y
 _atom_site_fract_z
 _atom_site_occupancy
  C  C0  1  0.50000000  0.00000000  0.00000000  1
  C  C1  1  0.00106000  0.19008000  0.81279900  1
  C  C2  1  0.99894000  0.80992000  0.18720100  1
  C  C3  1  0.49704400  0.34432500  0.67021900  1
  C  C4  1  0.50295600  0.65567500  0.32978100  1
  C  C5  1  0.03282300  0.35260000  0.39233000  1
  C  C6  1  0.96717600  0.64740000  0.60767000  1
  Ni  Ni7  1  0.27145700  0.11213800  0.60107400  1
  Ni  Ni8  1  0.72854300  0.88786200  0.39892600  1
  Cu  Cu9  1  0.63136855  0.31984622  0.39911471  1
  Ni  Ni10  1  0.39482500  0.67887900  0.59931800  1
  Ni  Ni11  1  0.71708700  0.66889600  0.05446900  1
  Ni  Ni12  1  0.28291300  0.33110400  0.94553100  1
  Cu  Cu13  1  0.71917002  0.00403451  0.73183070  1
  Cu  Cu14  1  0.29012218  0.00893472  0.25000610  1
  Cu  Cu15  1  0.75813160  0.43860817  0.85858897  1
  Ni  Ni16  1  0.24118100  0.55490700  0.14580800  1
  C  C17  1  0.78858600  0.21366700  0.18182700  1
  C  C18  1  0.21141400  0.78633300  0.81817300  1
  C  C19  1  0.82309200  0.09377000  0.08681000  1
  C  C20  1  0.17690800  0.90623000  0.91319000  1
  C  C21  1  0.72462000  0.39600200  0.07074600  1
  C  C22  1  0.27538000  0.60399800  0.92925400  1
  C  C23  1  0.39707400  0.85912800  0.68890900  1
  C  C24  1  0.60292600  0.14087200  0.31109100  1
  C  C25  1  0.02710600  0.20446000  0.25781400  1
  C  C26  1  0.97289400  0.79554000  0.74218600  1
  C  C27  1  0.20396100  0.23026000  0.59409200  1
  C  C28  1  0.79603900  0.76974000  0.40590800  1
  C  C29  1  0.68142200  0.40231300  0.43846300  1
  C  C30  1  0.31857800  0.59768700  0.56153700  1
  C  C31  1  0.69780100  0.75410200  0.10693800  1
  C  C32  1  0.30219900  0.24589800  0.89306200  1
  C  C33  1  0.69096600  0.09500900  0.78500000  1
  C  C34  1  0.30903400  0.90499100  0.21500000  1
  C  C35  1  0.79830200  0.43551300  0.74921000  1
  C  C36  1  0.20169800  0.56448700  0.25079000  1
