# generated using pymatgen
data_Cu2NiC3
_symmetry_space_group_name_H-M   'P 1'
_cell_length_a   3.85425770
_cell_length_b   3.85425770
_cell_length_c   56.67484800
_cell_angle_alpha   90.00000000
_cell_angle_beta   90.00000000
_cell_angle_gamma   119.99999493
_symmetry_Int_Tables_number   1
_chemical_formula_structural   Cu2NiC3
_chemical_formula_sum   'Cu12 Ni6 C18'
_cell_volume   729.12588474
_cell_formula_units_Z   6
loop_
 _symmetry_equiv_pos_site_id
 _symmetry_equiv_pos_as_xyz
  1  'x, y, z'
loop_
 _atom_site_type_symbol
 _atom_site_label
 _atom_site_symmetry_multiplicity
 _atom_site_fract_x
 _atom_site_fract_y
 _atom_site_fract_z
 _atom_site_occupancy
  C  C0  1  0.00000000  0.00000000  0.16666800  1
  C  C1  1  0.33333300  0.66666700  0.72221800  1
  C  C2  1  0.66666700  0.33333300  0.27777700  1
  C  C3  1  0.33333300  0.66666700  0.55556200  1
  C  C4  1  0.33333300  0.66666700  0.05556100  1
  C  C5  1  0.66666700  0.33333300  0.61111300  1
  C  C6  1  0.00000000  0.00000000  0.66666800  1
  C  C7  1  0.66666700  0.33333300  0.11111300  1
  C  C8  1  0.66666700  0.33333300  0.44444300  1
  C  C9  1  0.33333300  0.66666700  0.22222300  1
  C  C10  1  0.66666700  0.33333300  0.77777600  1
  C  C11  1  0.66666700  0.33333300  0.94443900  1
  C  C12  1  0.33333300  0.66666700  0.38889200  1
  C  C13  1  0.00000000  0.00000000  0.33333200  1
  C  C14  1  0.33333300  0.66666700  0.83334600  1
  C  C15  1  0.00000000  0.00000000  0.00001300  1
  C  C16  1  0.00000000  0.00000000  0.88888600  1
  C  C17  1  0.00000000  0.00000000  0.50000100  1
  Ni  Ni18  1  0.66666700  0.33333300  0.98614300  1
  Ni  Ni19  1  0.00000000  0.00000000  0.04166700  1
  Cu  Cu20  1  0.64395541  0.34516656  0.48679321  1
  Cu  Cu21  1  0.33001563  0.64039077  0.43214947  1
  Cu  Cu22  1  0.70707848  0.33926426  0.65445905  1
  Ni  Ni23  1  0.66666700  0.33333300  0.15277900  1
  Cu  Cu24  1  0.03157526  0.02069098  0.54888372  1
  Ni  Ni25  1  0.33333300  0.66666700  0.09722800  1
  Cu  Cu26  1  0.35857886  0.69001518  0.76133104  1
  Cu  Cu27  1  0.00559683  0.99802035  0.70788844  1
  Ni  Ni28  1  0.66666700  0.33333300  0.81947900  1
  Cu  Cu29  1  0.99296636  0.98497126  0.37067988  1
  Cu  Cu30  1  0.06271045  0.03545338  0.92535039  1
  Ni  Ni31  1  0.33333300  0.66666700  0.59722800  1
  Cu  Cu32  1  0.27744466  0.64978609  0.26413405  1
  Cu  Cu33  1  0.63966141  0.30164205  0.31659944  1
  Cu  Cu34  1  0.00489648  0.02194947  0.20700040  1
  Cu  Cu35  1  0.30471641  0.63400555  0.87417448  1
