# generated using pymatgen
data_Cu143NiC90
_symmetry_space_group_name_H-M   'P 1'
_cell_length_a   17.92654457
_cell_length_b   9.05784178
_cell_length_c   22.31317859
_cell_angle_alpha   89.94294578
_cell_angle_beta   89.27397342
_cell_angle_gamma   120.36448615
_symmetry_Int_Tables_number   1
_chemical_formula_structural   Cu143NiC90
_chemical_formula_sum   'Cu143 Ni1 C90'
_cell_volume   3125.76062463
_cell_formula_units_Z   1
loop_
 _symmetry_equiv_pos_site_id
 _symmetry_equiv_pos_as_xyz
  1  'x, y, z'
loop_
 _atom_site_type_symbol
 _atom_site_label
 _atom_site_symmetry_multiplicity
 _atom_site_fract_x
 _atom_site_fract_y
 _atom_site_fract_z
 _atom_site_occupancy
  C  C0  1  0.81109587  0.00471835  0.24278541  1
  C  C1  1  0.00244041  0.63101952  0.24427444  1
  C  C2  1  0.50132737  0.62885537  0.24322861  1
  C  C3  1  0.00121016  0.37436230  0.74206210  1
  C  C4  1  0.50102721  0.37429744  0.74303394  1
  C  C5  1  0.18404019  0.00954074  0.75282391  1
  C  C6  1  0.65631318  0.35024258  0.58138977  1
  C  C7  1  0.65905080  0.95873678  0.08431426  1
  C  C8  1  0.83127164  0.68879289  0.07580072  1
  C  C9  1  0.01167609  0.33934031  0.08100786  1
  C  C10  1  0.48046658  0.66145272  0.92295979  1
  C  C11  1  0.84862036  0.03418810  0.92276192  1
  C  C12  1  0.16618504  0.29679418  0.91211318  1
  C  C13  1  0.66610128  0.29880594  0.91076770  1
  C  C14  1  0.48013696  0.29831394  0.42223012  1
  C  C15  1  0.98363666  0.30233974  0.42414243  1
  C  C16  1  0.16639469  0.03495264  0.41171180  1
  C  C17  1  0.66525035  0.03449461  0.41118118  1
  C  C18  1  0.99211660  0.99169737  0.49731521  1
  C  C19  1  0.48291642  0.97467515  0.49610660  1
  C  C20  1  0.00052372  0.97613835  0.99521031  1
  C  C21  1  0.48298414  0.99162673  0.99661097  1
  C  C22  1  0.32790324  0.33429792  0.83066278  1
  C  C23  1  0.82685100  0.34308903  0.82721519  1
  C  C24  1  0.31971151  0.32143324  0.32737467  1
  C  C25  1  0.82244102  0.33721363  0.32993660  1
  C  C26  1  0.17268671  0.69073639  0.16532198  1
  C  C27  1  0.65938219  0.66115885  0.16277536  1
  C  C28  1  0.16482132  0.64491286  0.66077223  1
  C  C29  1  0.66700669  0.66898104  0.66602000  1
  C  C30  1  0.00372263  0.01715607  0.64634707  1
  C  C31  1  0.50105050  0.00778121  0.64725698  1
  C  C32  1  0.00686760  0.99718699  0.14671591  1
  C  C33  1  0.49883218  0.98969436  0.14869551  1
  C  C34  1  0.00795674  0.00252977  0.34609954  1
  C  C35  1  0.50138622  0.00096907  0.34551266  1
  C  C36  1  0.00689320  -0.00016418  0.84577503  1
  C  C37  1  0.50504189  0.00753189  0.84412616  1
  C  C38  1  0.33400480  0.34799147  0.67912058  1
  C  C39  1  0.83167957  0.33694707  0.68179459  1
  C  C40  1  0.33045651  0.32115889  0.18185007  1
  C  C41  1  0.83005308  0.31682732  0.17816554  1
  C  C42  1  0.33927855  0.33315416  0.99261102  1
  C  C43  1  0.85073381  0.34631320  0.99425654  1
  C  C44  1  0.33837488  0.34123914  0.49308045  1
  C  C45  1  0.84282777  0.34623418  0.49209765  1
  C  C46  1  0.16625876  0.68335676  0.01767652  1
  C  C47  1  0.66035327  0.66806645  0.02108523  1
  C  C48  1  0.16052072  0.65096692  0.51957460  1
  C  C49  1  0.65984603  0.66002435  0.51807411  1
  C  C50  1  0.17116387  0.68690655  0.31329233  1
  C  C51  1  0.66569565  0.67279017  0.31426090  1
  C  C52  1  0.16946987  0.65277863  0.81432035  1
  C  C53  1  0.67014508  0.65082676  0.81079886  1
  C  C54  1  0.15597633  0.00673059  0.25423402  1
  C  C55  1  0.65172435  0.00735659  0.25444470  1
  C  C56  1  0.15449455  0.30410039  0.75274179  1
  C  C57  1  0.65438276  0.30094284  0.75262810  1
  C  C58  1  0.48049639  0.34207286  0.58442224  1
  C  C59  1  0.98074366  0.34480404  0.58456843  1
  C  C60  1  0.47653753  0.61611859  0.08490227  1
  C  C61  1  0.98180633  0.62300376  0.08627074  1
  C  C62  1  0.83308121  0.03056396  0.08268003  1
  C  C63  1  0.35131703  0.70678433  0.25294493  1
  C  C64  1  0.85356919  0.70907623  0.25138200  1
  C  C65  1  0.00239894  0.29203400  0.25271042  1
  C  C66  1  0.50088197  0.29198012  0.25265197  1
  C  C67  1  -0.00059462  0.71003957  0.75106562  1
  C  C68  1  0.50010328  0.70953890  0.75270260  1
  C  C69  1  0.35244882  0.99497981  0.75202578  1
  C  C70  1  0.85339535  0.99574098  0.75295139  1
  C  C71  1  0.18497340  0.03464338  0.58361185  1
  C  C72  1  0.68548170  0.03523563  0.58250010  1
  C  C73  1  0.33330107  0.63256698  0.58367737  1
  C  C74  1  0.83514888  0.63457071  0.58328810  1
  C  C75  1  0.33367396  0.03506053  0.08389384  1
  C  C76  1  0.18857064  0.33851971  0.08221258  1
  C  C77  1  0.68299754  0.32932914  0.08247689  1
  C  C78  1  0.31374412  0.66946904  0.91673734  1
  C  C79  1  0.81472201  0.66603250  0.91658625  1
  C  C80  1  0.01737186  0.37084229  0.91585282  1
  C  C81  1  0.51809750  0.37094227  0.91637093  1
  C  C82  1  0.16846888  0.96486844  0.91489421  1
  C  C83  1  0.66592046  0.95957151  0.91536799  1
  C  C84  1  0.31347176  0.95805879  0.41724090  1
  C  C85  1  0.81359222  0.95823210  0.41546905  1
  C  C86  1  0.16873928  0.37643063  0.41602267  1
  C  C87  1  0.66859790  0.37501621  0.41741641  1
  C  C88  1  0.01707967  0.66522434  0.41596319  1
  C  C89  1  0.51658876  0.66500258  0.41629700  1
  Cu  Cu90  1  0.11509168  0.04287042  0.31438517  1
  Cu  Cu91  1  0.61711675  0.01213784  0.31526853  1
  Cu  Cu92  1  0.40643979  0.78550304  0.31211662  1
  Cu  Cu93  1  0.90356641  0.78623557  0.30634469  1
  Ni  Ni94  1  0.49006527  0.19554225  0.30864647  1
  Cu  Cu95  1  0.99432785  0.18628090  0.30236048  1
  Cu  Cu96  1  0.11596204  0.19102061  0.80888683  1
  Cu  Cu97  1  0.61330932  0.19861770  0.81135560  1
  Cu  Cu98  1  0.49749544  0.81135764  0.81546656  1
  Cu  Cu99  1  0.98436590  0.76693674  0.81163598  1
  Cu  Cu100  1  0.39968710  0.00526394  0.80594221  1
  Cu  Cu101  1  0.90245366  0.99427195  0.80099677  1
  Cu  Cu102  1  0.38585028  0.95690973  0.69650282  1
  Cu  Cu103  1  0.90710604  0.97395823  0.70696113  1
  Cu  Cu104  1  0.09581659  0.20326881  0.70288725  1
  Cu  Cu105  1  0.59083665  0.19880772  0.70783251  1
  Cu  Cu106  1  0.03427664  0.84571354  0.69930020  1
  Cu  Cu107  1  0.50223142  0.80851950  0.70594848  1
  Cu  Cu108  1  0.39904005  0.82272668  0.20186908  1
  Cu  Cu109  1  0.89966326  0.80727844  0.20522198  1
  Cu  Cu110  1  0.01251274  0.18061935  0.20745711  1
  Cu  Cu111  1  0.49624068  0.18536850  0.20807534  1
  Cu  Cu112  1  0.08404045  0.99260212  0.19925644  1
  Cu  Cu113  1  0.58941112  0.01844398  0.19760888  1
  Cu  Cu114  1  0.44289368  0.37486073  0.64297609  1
  Cu  Cu115  1  0.92904372  0.37203870  0.63572007  1
  Cu  Cu116  1  0.22776697  0.12366476  0.64167746  1
  Cu  Cu117  1  0.74113647  0.10832329  0.62765206  1
  Cu  Cu118  1  0.30115808  0.49838441  0.64539141  1
  Cu  Cu119  1  0.80981633  0.51893768  0.62666996  1
  Cu  Cu120  1  0.44907709  0.50214010  0.14812757  1
  Cu  Cu121  1  0.94770677  0.51759317  0.15624687  1
  Cu  Cu122  1  0.31738438  0.10032836  0.12915195  1
  Cu  Cu123  1  0.81452841  0.10000040  0.14834615  1
  Cu  Cu124  1  0.25030907  0.37870769  0.13316914  1
  Cu  Cu125  1  0.73624076  0.35579922  0.12091901  1
  Cu  Cu126  1  0.23524773  0.31138491  0.02223864  1
  Cu  Cu127  1  0.72073345  0.31456365  0.03374876  1
  Cu  Cu128  1  0.42841279  0.54717264  0.01122776  1
  Cu  Cu129  1  0.93024399  0.58015276  0.02758549  1
  Cu  Cu130  1  0.33889067  0.11140468  0.02659879  1
  Cu  Cu131  1  0.86873253  0.15814471  0.01530734  1
  Cu  Cu132  1  0.21729586  0.15146800  0.52394330  1
  Cu  Cu133  1  0.73036444  0.14742976  0.51678499  1
  Cu  Cu134  1  0.33825376  0.55425327  0.52331165  1
  Cu  Cu135  1  0.84849520  0.53132096  0.52322171  1
  Cu  Cu136  1  0.41994433  0.31590402  0.52861403  1
  Cu  Cu137  1  0.92173203  0.28341183  0.51683299  1
  Cu  Cu138  1  0.27473857  0.68739662  0.97319057  1
  Cu  Cu139  1  0.76406536  0.68389212  0.97186843  1
  Cu  Cu140  1  0.07340122  0.45010846  0.97895021  1
  Cu  Cu141  1  0.58187518  0.45440077  0.97216702  1
  Cu  Cu142  1  0.16578386  0.85304678  0.96582621  1
  Cu  Cu143  1  0.66306662  0.89185351  0.95644235  1
  Cu  Cu144  1  0.27837763  0.86859180  0.47315971  1
  Cu  Cu145  1  0.77503163  0.86180798  0.45867574  1
  Cu  Cu146  1  0.15435697  0.46432334  0.46748160  1
  Cu  Cu147  1  0.66365884  0.44458383  0.47721300  1
  Cu  Cu148  1  0.06926439  0.69099364  0.47177439  1
  Cu  Cu149  1  0.57605381  0.70594436  0.46896916  1
  Cu  Cu150  1  0.05466304  0.62929568  0.36567780  1
  Cu  Cu151  1  0.54652807  0.63763079  0.36626639  1
  Cu  Cu152  1  0.26655637  0.87403918  0.35861836  1
  Cu  Cu153  1  0.76394963  0.87213996  0.35184271  1
  Cu  Cu154  1  0.17610311  0.48398447  0.36132419  1
  Cu  Cu155  1  0.67079336  0.47016067  0.37016977  1
  Cu  Cu156  1  0.05701809  0.45668870  0.85663280  1
  Cu  Cu157  1  0.56458011  0.46618341  0.85588348  1
  Cu  Cu158  1  0.18391563  0.91121553  0.85323851  1
  Cu  Cu159  1  0.68433674  0.86519047  0.85572186  1
  Cu  Cu160  1  0.26221356  0.64102297  0.85572747  1
  Cu  Cu161  1  0.78073225  0.69475098  0.86863329  1
  Cu  Cu162  1  0.00384471  0.81879415  0.41276987  1
  Cu  Cu163  1  0.50537167  0.81326070  0.41841764  1
  Cu  Cu164  1  0.41368329  0.99892870  0.41097562  1
  Cu  Cu165  1  0.90631514  0.99140044  0.41462201  1
  Cu  Cu166  1  0.08155329  0.19096491  0.41604523  1
  Cu  Cu167  1  0.58619610  0.21354286  0.41066031  1
  Cu  Cu168  1  0.00018422  0.19829136  0.92510912  1
  Cu  Cu169  1  0.49970958  0.20290167  0.92159958  1
  Cu  Cu170  1  0.07684001  0.97298830  0.90983866  1
  Cu  Cu171  1  0.58031741  0.96452450  0.91704912  1
  Cu  Cu172  1  0.39656331  0.80475977  0.91509237  1
  Cu  Cu173  1  0.88503103  0.80475280  0.91992563  1
  Cu  Cu174  1  0.49612490  0.15894389  0.59135732  1
  Cu  Cu175  1  0.99037292  0.15841983  0.59885521  1
  Cu  Cu176  1  0.08984584  0.98190670  0.58642920  1
  Cu  Cu177  1  0.60948768  0.04801791  0.58552899  1
  Cu  Cu178  1  0.41868263  0.82017518  0.58957033  1
  Cu  Cu179  1  0.91063725  0.83325504  0.58966451  1
  Cu  Cu180  1  0.48690192  0.81076652  0.08675099  1
  Cu  Cu181  1  0.00085524  0.81565177  0.09845175  1
  Cu  Cu182  1  0.42723256  0.05397166  0.08920303  1
  Cu  Cu183  1  0.92699311  0.03779367  0.09538366  1
  Cu  Cu184  1  0.09130802  0.16689086  0.09122716  1
  Cu  Cu185  1  0.57769255  0.14725315  0.09542187  1
  Cu  Cu186  1  0.33973494  0.14637441  0.74567083  1
  Cu  Cu187  1  0.84832276  0.15641210  0.74101113  1
  Cu  Cu188  1  0.24147329  0.32124558  0.74496228  1
  Cu  Cu189  1  0.74332177  0.33038534  0.73997576  1
  Cu  Cu190  1  0.43884156  0.54454657  0.75821562  1
  Cu  Cu191  1  0.92177771  0.54205858  0.74816001  1
  Cu  Cu192  1  0.34720707  0.55520139  0.23624213  1
  Cu  Cu193  1  0.84269912  0.54920421  0.24801410  1
  Cu  Cu194  1  0.42168734  0.29374865  0.25839120  1
  Cu  Cu195  1  0.91707292  0.29441181  0.25009457  1
  Cu  Cu196  1  0.26178252  0.21713598  0.23751013  1
  Cu  Cu197  1  0.74147884  0.18405499  0.23926033  1
  Cu  Cu198  1  0.31542986  0.48796730  0.91879117  1
  Cu  Cu199  1  0.80602866  0.51396591  0.92308093  1
  Cu  Cu200  1  0.42906260  0.35576326  0.92514360  1
  Cu  Cu201  1  0.92325679  0.34497775  0.91607345  1
  Cu  Cu202  1  0.23228672  0.12052942  0.91661380  1
  Cu  Cu203  1  0.74244760  0.11934003  0.91209461  1
  Cu  Cu204  1  0.30534170  0.11837101  0.42383215  1
  Cu  Cu205  1  0.82303505  0.14413930  0.41545698  1
  Cu  Cu206  1  0.25920595  0.39137504  0.42984154  1
  Cu  Cu207  1  0.73178255  0.34247235  0.42400990  1
  Cu  Cu208  1  0.43206885  0.47972453  0.42154354  1
  Cu  Cu209  1  0.94394652  0.51568275  0.42684216  1
  Cu  Cu210  1  0.18126953  0.49696952  0.07971897  1
  Cu  Cu211  1  0.66527906  0.49223539  0.07734961  1
  Cu  Cu212  1  0.07993505  0.68794562  0.08130842  1
  Cu  Cu213  1  0.58972549  0.69604431  0.07930947  1
  Cu  Cu214  1  0.27126492  0.87609476  0.08024421  1
  Cu  Cu215  1  0.74732843  0.81535213  0.07018231  1
  Cu  Cu216  1  0.17442268  0.86391972  0.57683805  1
  Cu  Cu217  1  0.68681370  0.87680034  0.57412758  1
  Cu  Cu218  1  0.25920151  0.64548380  0.57070406  1
  Cu  Cu219  1  0.75042652  0.65237988  0.59022030  1
  Cu  Cu220  1  0.07320106  0.50090272  0.57942437  1
  Cu  Cu221  1  0.58249890  0.48179899  0.57815397  1
  Cu  Cu222  1  0.15117836  0.81877392  0.25708749  1
  Cu  Cu223  1  0.66127146  0.83852402  0.26018486  1
  Cu  Cu224  1  0.26895475  0.69515087  0.25640881  1
  Cu  Cu225  1  0.76579102  0.72108347  0.24408498  1
  Cu  Cu226  1  0.08320695  0.46818925  0.24878325  1
  Cu  Cu227  1  0.59310820  0.44185334  0.24864207  1
  Cu  Cu228  1  0.16203980  0.45869025  0.75646181  1
  Cu  Cu229  1  0.66168056  0.45788129  0.75082632  1
  Cu  Cu230  1  0.06827644  0.69517826  0.75137155  1
  Cu  Cu231  1  0.59018247  0.69118053  0.74856135  1
  Cu  Cu232  1  0.25960147  0.83417434  0.76322756  1
  Cu  Cu233  1  0.78218153  0.85905957  0.75547910  1
