# generated using pymatgen
data_CuNiC18
_symmetry_space_group_name_H-M   'P 1'
_cell_length_a   8.59667537
_cell_length_b   8.60078222
_cell_length_c   8.58256977
_cell_angle_alpha   90.00000000
_cell_angle_beta   90.00000000
_cell_angle_gamma   90.00000000
_symmetry_Int_Tables_number   1
_chemical_formula_structural   CuNiC18
_chemical_formula_sum   'Cu2 Ni2 C36'
_cell_volume   634.57918233
_cell_formula_units_Z   2
loop_
 _symmetry_equiv_pos_site_id
 _symmetry_equiv_pos_as_xyz
  1  'x, y, z'
loop_
 _atom_site_type_symbol
 _atom_site_label
 _atom_site_symmetry_multiplicity
 _atom_site_fract_x
 _atom_site_fract_y
 _atom_site_fract_z
 _atom_site_occupancy
  Ni  Ni0  1  0.00000000  0.50000000  0.50000000  1
  Cu  Cu1  1  0.48259373  0.99577782  0.48073681  1
  Cu  Cu2  1  0.51351743  0.49059650  0.99528019  1
  Ni  Ni3  1  0.00000000  0.50000000  -0.00000000  1
  C  C4  1  0.74971347  0.74971699  0.74986286  1
  C  C5  1  0.25028653  0.25028301  0.74986286  1
  C  C6  1  0.25028653  0.74971699  0.25013714  1
  C  C7  1  0.74971347  0.25028301  0.25013714  1
  C  C8  1  0.50000000  0.00000000  -0.00000000  1
  C  C9  1  0.00000000  0.00000000  0.50000000  1
  C  C10  1  0.00000000  0.00000000  0.00000000  1
  C  C11  1  0.50000000  0.50000000  0.50000000  1
  C  C12  1  0.25051471  0.25067662  0.24972885  1
  C  C13  1  0.74948529  0.74932338  0.24972885  1
  C  C14  1  0.74948529  0.25067662  0.75027115  1
  C  C15  1  0.25051471  0.74932338  0.75027115  1
  C  C16  1  0.02105493  0.19566576  0.29322254  1
  C  C17  1  0.97894507  0.80433424  0.29322254  1
  C  C18  1  0.97894507  0.19566576  0.70677746  1
  C  C19  1  0.02105493  0.80433424  0.70677746  1
  C  C20  1  0.29300778  0.02106889  0.19596927  1
  C  C21  1  0.29300778  0.97893111  0.80403073  1
  C  C22  1  0.70699222  0.97893111  0.19596927  1
  C  C23  1  0.70699222  0.02106889  0.80403073  1
  C  C24  1  0.19726696  0.29143879  0.02146041  1
  C  C25  1  0.80273304  0.29143879  0.97853959  1
  C  C26  1  0.19726696  0.70856121  0.97853959  1
  C  C27  1  0.80273304  0.70856121  0.02146041  1
  C  C28  1  0.47859870  0.30225567  0.20820409  1
  C  C29  1  0.52140130  0.69774433  0.20820409  1
  C  C30  1  0.52140130  0.30225567  0.79179591  1
  C  C31  1  0.47859870  0.69774433  0.79179591  1
  C  C32  1  0.20836411  0.47833919  0.30263482  1
  C  C33  1  0.20836411  0.52166081  0.69736518  1
  C  C34  1  0.79163589  0.52166081  0.30263482  1
  C  C35  1  0.79163589  0.47833919  0.69736518  1
  C  C36  1  0.30236659  0.20798203  0.47880943  1
  C  C37  1  0.69763341  0.20798203  0.52119057  1
  C  C38  1  0.30236659  0.79201797  0.52119057  1
  C  C39  1  0.69763341  0.79201797  0.47880943  1
