# generated using pymatgen
data_CuC3
_symmetry_space_group_name_H-M   'P 1'
_cell_length_a   5.72538688
_cell_length_b   5.72538688
_cell_length_c   7.16924568
_cell_angle_alpha   70.87014229
_cell_angle_beta   70.87014229
_cell_angle_gamma   52.74507319
_symmetry_Int_Tables_number   1
_chemical_formula_structural   CuC3
_chemical_formula_sum   'Cu4 C12'
_cell_volume   174.09226032
_cell_formula_units_Z   4
loop_
 _symmetry_equiv_pos_site_id
 _symmetry_equiv_pos_as_xyz
  1  'x, y, z'
loop_
 _atom_site_type_symbol
 _atom_site_label
 _atom_site_symmetry_multiplicity
 _atom_site_fract_x
 _atom_site_fract_y
 _atom_site_fract_z
 _atom_site_occupancy
  C  C0  1  0.00000000  0.00000000  0.50000000  1
  C  C1  1  0.00000000  0.00000000  0.00000000  1
  Cu  Cu2  1  0.39921863  0.37231842  0.20344412  1
  Cu  Cu3  1  0.64071615  0.63228760  0.28354716  1
  Cu  Cu4  1  0.67073345  0.63240321  0.79137597  1
  Cu  Cu5  1  0.37100258  0.37920616  0.71107688  1
  C  C6  1  0.19067000  0.80933000  0.75000000  1
  C  C7  1  0.80933000  0.19067000  0.25000000  1
  C  C8  1  0.58832300  0.25059200  0.94834800  1
  C  C9  1  0.74940800  0.41167700  0.55165200  1
  C  C10  1  0.41167700  0.74940800  0.05165200  1
  C  C11  1  0.25059200  0.58832300  0.44834800  1
  C  C12  1  0.03544600  0.33208900  0.84994000  1
  C  C13  1  0.66791100  0.96455400  0.65006000  1
  C  C14  1  0.96455400  0.66791100  0.15006000  1
  C  C15  1  0.33208900  0.03544600  0.34994000  1
