# generated using pymatgen
data_CuC2
_symmetry_space_group_name_H-M   'P 1'
_cell_length_a   6.76103519
_cell_length_b   6.76103519
_cell_length_c   3.52600500
_cell_angle_alpha   90.00000000
_cell_angle_beta   90.00000000
_cell_angle_gamma   119.99999210
_symmetry_Int_Tables_number   1
_chemical_formula_structural   CuC2
_chemical_formula_sum   'Cu3 C6'
_cell_volume   139.58539606
_cell_formula_units_Z   3
loop_
 _symmetry_equiv_pos_site_id
 _symmetry_equiv_pos_as_xyz
  1  'x, y, z'
loop_
 _atom_site_type_symbol
 _atom_site_label
 _atom_site_symmetry_multiplicity
 _atom_site_fract_x
 _atom_site_fract_y
 _atom_site_fract_z
 _atom_site_occupancy
  Cu  Cu0  1  0.70131323  0.33632029  0.98508361  1
  Cu  Cu1  1  0.30125257  0.67275030  0.00379337  1
  Cu  Cu2  1  0.96394640  0.96482451  0.49681872  1
  C  C3  1  0.60727900  0.00000000  0.50000000  1
  C  C4  1  0.39272100  0.39272100  0.50000000  1
  C  C5  1  0.00000000  0.60727900  0.50000000  1
  C  C6  1  0.00000000  0.26759900  0.00000000  1
  C  C7  1  0.73240100  0.73240100  0.00000000  1
  C  C8  1  0.26759900  0.00000000  0.00000000  1
