# generated using pymatgen
data_Cu4NiC4
_symmetry_space_group_name_H-M   'P 1'
_cell_length_a   6.19996800
_cell_length_b   7.84546300
_cell_length_c   14.31128300
_cell_angle_alpha   90.00000000
_cell_angle_beta   90.00000000
_cell_angle_gamma   90.00000000
_symmetry_Int_Tables_number   1
_chemical_formula_structural   Cu4NiC4
_chemical_formula_sum   'Cu16 Ni4 C16'
_cell_volume   696.12398289
_cell_formula_units_Z   4
loop_
 _symmetry_equiv_pos_site_id
 _symmetry_equiv_pos_as_xyz
  1  'x, y, z'
loop_
 _atom_site_type_symbol
 _atom_site_label
 _atom_site_symmetry_multiplicity
 _atom_site_fract_x
 _atom_site_fract_y
 _atom_site_fract_z
 _atom_site_occupancy
  C  C0  1  0.50000000  0.00000000  0.00000000  1
  C  C1  1  0.50000000  0.50000000  0.00000000  1
  C  C2  1  0.86873600  0.25000000  0.08719900  1
  C  C3  1  0.30429100  0.49985700  0.17779500  1
  C  C4  1  0.30429100  0.00014300  0.17779500  1
  C  C5  1  0.80429100  0.99985700  0.32220500  1
  C  C6  1  0.80429100  0.50014300  0.32220500  1
  C  C7  1  0.36873600  0.75000000  0.41280100  1
  C  C8  1  0.00000000  0.00000000  0.50000000  1
  C  C9  1  0.00000000  0.50000000  0.50000000  1
  C  C10  1  0.63126400  0.25000000  0.58719900  1
  C  C11  1  0.19570900  0.49985700  0.67779500  1
  C  C12  1  0.19570900  0.00014300  0.67779500  1
  C  C13  1  0.69570900  0.99985700  0.82220500  1
  C  C14  1  0.69570900  0.50014300  0.82220500  1
  C  C15  1  0.13126400  0.75000000  0.91280100  1
  Ni  Ni16  1  0.84788600  0.75000000  0.08850600  1
  Ni  Ni17  1  0.34788600  0.25000000  0.41149400  1
  Ni  Ni18  1  0.65211400  0.75000000  0.58850600  1
  Ni  Ni19  1  0.15211400  0.25000000  0.91149400  1
  Cu  Cu20  1  0.26418400  0.25000000  0.06370500  1
  Cu  Cu21  1  0.21366900  0.75000000  0.08245900  1
  Cu  Cu22  1  0.71739700  0.50925600  0.15682400  1
  Cu  Cu23  1  0.71739700  0.99074400  0.15682400  1
  Cu  Cu24  1  0.21739700  0.00925600  0.34317600  1
  Cu  Cu25  1  0.21739700  0.49074400  0.34317600  1
  Cu  Cu26  1  0.71366900  0.25000000  0.41754100  1
  Cu  Cu27  1  0.76418400  0.75000000  0.43629500  1
  Cu  Cu28  1  0.23581600  0.25000000  0.56370500  1
  Cu  Cu29  1  0.28633100  0.75000000  0.58245900  1
  Cu  Cu30  1  0.78260300  0.50925600  0.65682400  1
  Cu  Cu31  1  0.78260300  0.99074400  0.65682400  1
  Cu  Cu32  1  0.28260300  0.00925600  0.84317600  1
  Cu  Cu33  1  0.28260300  0.49074400  0.84317600  1
  Cu  Cu34  1  0.78633100  0.25000000  0.91754100  1
  Cu  Cu35  1  0.73581600  0.75000000  0.93629500  1
