# generated using pymatgen
data_Cu2Ni2C25
_symmetry_space_group_name_H-M   'P 1'
_cell_length_a   8.75832600
_cell_length_b   12.81091600
_cell_length_c   14.83406158
_cell_angle_alpha   77.62095934
_cell_angle_beta   90.00000000
_cell_angle_gamma   90.00000000
_symmetry_Int_Tables_number   1
_chemical_formula_structural   Cu2Ni2C25
_chemical_formula_sum   'Cu8 Ni8 C100'
_cell_volume   1625.71767558
_cell_formula_units_Z   4
loop_
 _symmetry_equiv_pos_site_id
 _symmetry_equiv_pos_as_xyz
  1  'x, y, z'
loop_
 _atom_site_type_symbol
 _atom_site_label
 _atom_site_symmetry_multiplicity
 _atom_site_fract_x
 _atom_site_fract_y
 _atom_site_fract_z
 _atom_site_occupancy
  Ni  Ni0  1  0.85367700  0.59542300  0.99105800  1
  Cu  Cu1  1  0.59636896  0.40315190  0.94437802  1
  Cu  Cu2  1  0.30899815  0.24985713  0.84589933  1
  Cu  Cu3  1  0.89283341  0.42997913  0.79850587  1
  Ni  Ni4  1  0.40910400  0.07319200  0.70972100  1
  Ni  Ni5  1  0.35367700  0.90457700  0.50894200  1
  Ni  Ni6  1  0.81166400  0.25804100  0.65855400  1
  Cu  Cu7  1  0.88982907  0.90589086  0.44701710  1
  Cu  Cu8  1  0.08360803  0.09143734  0.57764410  1
  Ni  Ni9  1  0.18833600  0.74195900  0.34144600  1
  Ni  Ni10  1  0.64632300  0.09542300  0.49105800  1
  Cu  Cu11  1  0.59175945  0.93805367  0.28105405  1
  Ni  Ni12  1  0.09089600  0.57319200  0.20972100  1
  Ni  Ni13  1  0.68833600  0.75804100  0.15855400  1
  Cu  Cu14  1  0.41298853  0.59468773  0.07160830  1
  Cu  Cu15  1  0.14239205  0.41216571  0.00935049  1
  C  C16  1  0.59813700  0.79476400  0.92972500  1
  C  C17  1  0.07556500  0.96624100  0.81843100  1
  C  C18  1  0.17843700  0.64096200  0.84465200  1
  C  C19  1  0.68782500  0.13043000  0.91387800  1
  C  C20  1  0.67843700  0.85903800  0.65534800  1
  C  C21  1  0.57556500  0.53375900  0.68156900  1
  C  C22  1  0.09813700  0.70523600  0.57027500  1
  C  C23  1  0.18782500  0.36957000  0.58612200  1
  C  C24  1  0.81217500  0.63043000  0.41387800  1
  C  C25  1  0.90186300  0.29476400  0.42972500  1
  C  C26  1  0.42443500  0.46624100  0.31843100  1
  C  C27  1  0.32156300  0.14096200  0.34465200  1
  C  C28  1  0.31217500  0.86957000  0.08612200  1
  C  C29  1  0.82156300  0.35903800  0.15534800  1
  C  C30  1  0.92443500  0.03375900  0.18156900  1
  C  C31  1  0.40186300  0.20523600  0.07027500  1
  C  C32  1  0.86423300  0.34095100  0.97930400  1
  C  C33  1  0.59510000  0.60087500  0.88868400  1
  C  C34  1  0.12288600  0.17410600  0.02166000  1
  C  C35  1  0.76567000  0.57191700  0.81274800  1
  C  C36  1  0.91903500  0.68618500  0.76510000  1
  C  C37  1  0.29482600  0.03321000  0.90851800  1
  C  C38  1  0.94646600  0.22979800  0.88767400  1
  C  C39  1  0.41903500  0.81381500  0.73490000  1
  C  C40  1  0.29075100  0.45946300  0.81966900  1
  C  C41  1  0.26567000  0.92808300  0.68725200  1
  C  C42  1  0.14653000  0.38311300  0.75431400  1
  C  C43  1  0.02238700  0.16247300  0.74523600  1
  C  C44  1  0.09510000  0.89912500  0.61131600  1
  C  C45  1  0.52238700  0.33752700  0.75476400  1
  C  C46  1  0.64653000  0.11688700  0.74568600  1
  C  C47  1  0.79075100  0.04053700  0.68033100  1
  C  C48  1  0.44646600  0.27020200  0.61232600  1
  C  C49  1  0.79482600  0.46679000  0.59148200  1
  C  C50  1  0.63576700  0.84095100  0.47930400  1
  C  C51  1  0.37711400  0.67410600  0.52166000  1
  C  C52  1  0.62288600  0.32589400  0.47834000  1
  C  C53  1  0.36423300  0.15904900  0.52069600  1
  C  C54  1  0.20517400  0.53321000  0.40851800  1
  C  C55  1  0.55353400  0.72979800  0.38767400  1
  C  C56  1  0.20924900  0.95946300  0.31966900  1
  C  C57  1  0.35347000  0.88311300  0.25431400  1
  C  C58  1  0.47761300  0.66247300  0.24523600  1
  C  C59  1  0.90490000  0.10087500  0.38868400  1
  C  C60  1  0.97761300  0.83752700  0.25476400  1
  C  C61  1  0.85347000  0.61688700  0.24568600  1
  C  C62  1  0.73433000  0.07191700  0.31274800  1
  C  C63  1  0.70924900  0.54053700  0.18033100  1
  C  C64  1  0.58096500  0.18618500  0.26510000  1
  C  C65  1  0.05353400  0.77020200  0.11232600  1
  C  C66  1  0.70517400  0.96679000  0.09148200  1
  C  C67  1  0.08096500  0.31381500  0.23490000  1
  C  C68  1  0.23433000  0.42808300  0.18725200  1
  C  C69  1  0.87711400  0.82589400  0.97834000  1
  C  C70  1  0.40490000  0.39912500  0.11131600  1
  C  C71  1  0.13576700  0.65904900  0.02069600  1
  C  C72  1  0.80499100  0.77154700  0.00869400  1
  C  C73  1  0.13817900  0.59756800  0.98877900  1
  C  C74  1  0.58393800  0.62582100  0.94710500  1
  C  C75  1  0.52106200  0.22839100  0.94723300  1
  C  C76  1  0.93871100  0.63121300  0.82025600  1
  C  C77  1  0.84694200  0.26145000  0.89546900  1
  C  C78  1  0.19110000  0.47519800  0.84402800  1
  C  C79  1  0.67460200  0.52517200  0.81254300  1
  C  C80  1  0.17460200  0.97482800  0.68745700  1
  C  C81  1  0.26338200  0.05968000  0.84451800  1
  C  C82  1  0.43871100  0.86878700  0.67974400  1
  C  C83  1  0.44987100  0.39744100  0.74567700  1
  C  C84  1  0.60144800  0.17067700  0.77620700  1
  C  C85  1  0.10144800  0.32932300  0.72379300  1
  C  C86  1  0.94987100  0.10255900  0.75432300  1
  C  C87  1  0.76338200  0.44032000  0.65548200  1
  C  C88  1  0.08393800  0.87417900  0.55289500  1
  C  C89  1  0.63817900  0.90243200  0.51122100  1
  C  C90  1  0.30499100  0.72845300  0.49130600  1
  C  C91  1  0.69110000  0.02480200  0.65597200  1
  C  C92  1  0.34694200  0.23855000  0.60453100  1
  C  C93  1  0.97893800  0.72839100  0.44723300  1
  C  C94  1  0.02106200  0.27160900  0.55276700  1
  C  C95  1  0.65305800  0.76145000  0.39546900  1
  C  C96  1  0.30890000  0.97519800  0.34402800  1
  C  C97  1  0.69500900  0.27154700  0.50869400  1
  C  C98  1  0.36182100  0.09756800  0.48877900  1
  C  C99  1  0.91606200  0.12582100  0.44710500  1
  C  C100  1  0.23661800  0.55968000  0.34451800  1
  C  C101  1  0.05012900  0.89744100  0.24567700  1
  C  C102  1  0.89855200  0.67067700  0.27620700  1
  C  C103  1  0.39855200  0.82932300  0.22379300  1
  C  C104  1  0.55012900  0.60255900  0.25432300  1
  C  C105  1  0.56128900  0.13121300  0.32025600  1
  C  C106  1  0.73661800  0.94032000  0.15548200  1
  C  C107  1  0.82539800  0.02517200  0.31254300  1
  C  C108  1  0.32539800  0.47482800  0.18745700  1
  C  C109  1  0.80890000  0.52480200  0.15597200  1
  C  C110  1  0.15305800  0.73855000  0.10453100  1
  C  C111  1  0.06128900  0.36878700  0.17974400  1
  C  C112  1  0.47893800  0.77160900  0.05276700  1
  C  C113  1  0.41606200  0.37417900  0.05289500  1
  C  C114  1  0.86182100  0.40243200  0.01122100  1
  C  C115  1  0.19500900  0.22845300  0.99130600  1
