# generated using pymatgen
data_CuNi7C6
_symmetry_space_group_name_H-M   'P 1'
_cell_length_a   10.01648600
_cell_length_b   10.01648600
_cell_length_c   10.01648600
_cell_angle_alpha   90.00000000
_cell_angle_beta   90.00000000
_cell_angle_gamma   90.00000000
_symmetry_Int_Tables_number   1
_chemical_formula_structural   CuNi7C6
_chemical_formula_sum   'Cu6 Ni42 C36'
_cell_volume   1004.95395813
_cell_formula_units_Z   6
loop_
 _symmetry_equiv_pos_site_id
 _symmetry_equiv_pos_as_xyz
  1  'x, y, z'
loop_
 _atom_site_type_symbol
 _atom_site_label
 _atom_site_symmetry_multiplicity
 _atom_site_fract_x
 _atom_site_fract_y
 _atom_site_fract_z
 _atom_site_occupancy
  C  C0  1  0.00000000  0.50000000  0.50000000  1
  C  C1  1  0.50000000  0.50000000  0.00000000  1
  C  C2  1  0.50000000  0.00000000  0.50000000  1
  C  C3  1  0.00000000  0.00000000  0.00000000  1
  C  C4  1  0.37509100  0.12490900  0.87509100  1
  C  C5  1  0.12490900  0.87509100  0.37509100  1
  C  C6  1  0.87509100  0.37509100  0.12490900  1
  C  C7  1  0.62490900  0.62490900  0.62490900  1
  C  C8  1  0.62490900  0.87509100  0.12490900  1
  C  C9  1  0.87509100  0.12490900  0.62490900  1
  C  C10  1  0.12490900  0.62490900  0.87509100  1
  C  C11  1  0.37509100  0.37509100  0.37509100  1
  C  C12  1  0.68988800  0.34671800  0.38046300  1
  C  C13  1  0.18988800  0.15328200  0.61953700  1
  C  C14  1  0.31011200  0.84671800  0.11953700  1
  C  C15  1  0.15328200  0.61953700  0.18988800  1
  C  C16  1  0.11953700  0.31011200  0.84671800  1
  C  C17  1  0.61953700  0.18988800  0.15328200  1
  C  C18  1  0.34671800  0.38046300  0.68988800  1
  C  C19  1  0.38046300  0.68988800  0.34671800  1
  C  C20  1  0.84671800  0.11953700  0.31011200  1
  C  C21  1  0.65328200  0.88046300  0.81011200  1
  C  C22  1  0.88046300  0.81011200  0.65328200  1
  C  C23  1  0.81011200  0.65328200  0.88046300  1
  C  C24  1  0.31011200  0.65328200  0.61953700  1
  C  C25  1  0.81011200  0.84671800  0.38046300  1
  C  C26  1  0.68988800  0.15328200  0.88046300  1
  C  C27  1  0.84671800  0.38046300  0.81011200  1
  C  C28  1  0.88046300  0.68988800  0.15328200  1
  C  C29  1  0.38046300  0.81011200  0.84671800  1
  C  C30  1  0.65328200  0.61953700  0.31011200  1
  C  C31  1  0.61953700  0.31011200  0.65328200  1
  C  C32  1  0.15328200  0.88046300  0.68988800  1
  C  C33  1  0.34671800  0.11953700  0.18988800  1
  C  C34  1  0.11953700  0.18988800  0.34671800  1
  C  C35  1  0.18988800  0.34671800  0.11953700  1
  Ni  Ni36  1  0.71513400  0.50696900  0.41147100  1
  Ni  Ni37  1  0.21513400  0.99303100  0.58852900  1
  Ni  Ni38  1  0.28486600  0.00696900  0.08852900  1
  Ni  Ni39  1  0.99303100  0.58852900  0.21513400  1
  Ni  Ni40  1  0.08852900  0.28486600  0.00696900  1
  Ni  Ni41  1  0.58852900  0.21513400  0.99303100  1
  Ni  Ni42  1  0.50696900  0.41147100  0.71513400  1
  Ni  Ni43  1  0.41147100  0.71513400  0.50696900  1
  Ni  Ni44  1  0.00696900  0.08852900  0.28486600  1
  Ni  Ni45  1  0.49303100  0.91147100  0.78486600  1
  Ni  Ni46  1  0.91147100  0.78486600  0.49303100  1
  Cu  Cu47  1  0.79485421  0.48198760  0.92836366  1
  Ni  Ni48  1  0.28486600  0.49303100  0.58852900  1
  Ni  Ni49  1  0.78486600  0.00696900  0.41147100  1
  Ni  Ni50  1  0.71513400  0.99303100  0.91147100  1
  Cu  Cu51  1  0.99884744  0.39706052  0.77871610  1
  Ni  Ni52  1  0.91147100  0.71513400  0.99303100  1
  Ni  Ni53  1  0.41147100  0.78486600  0.00696900  1
  Ni  Ni54  1  0.49303100  0.58852900  0.28486600  1
  Ni  Ni55  1  0.58852900  0.28486600  0.49303100  1
  Cu  Cu56  1  0.15758558  0.73685590  0.62571830  1
  Cu  Cu57  1  0.99186312  0.92477004  0.69597698  1
  Ni  Ni58  1  0.08852900  0.21513400  0.50696900  1
  Ni  Ni59  1  0.21513400  0.50696900  0.08852900  1
  Ni  Ni60  1  0.83452000  0.26894400  0.37890300  1
  Ni  Ni61  1  0.33452000  0.23105600  0.62109700  1
  Ni  Ni62  1  0.16548000  0.76894400  0.12109700  1
  Ni  Ni63  1  0.23105600  0.62109700  0.33452000  1
  Ni  Ni64  1  0.12109700  0.16548000  0.76894400  1
  Ni  Ni65  1  0.62109700  0.33452000  0.23105600  1
  Ni  Ni66  1  0.26894400  0.37890300  0.83452000  1
  Ni  Ni67  1  0.37890300  0.83452000  0.26894400  1
  Ni  Ni68  1  0.76894400  0.12109700  0.16548000  1
  Ni  Ni69  1  0.73105600  0.87890300  0.66548000  1
  Ni  Ni70  1  0.87890300  0.66548000  0.73105600  1
  Ni  Ni71  1  0.66548000  0.73105600  0.87890300  1
  Ni  Ni72  1  0.33452000  0.26894400  0.12109700  1
  Ni  Ni73  1  0.12109700  0.33452000  0.26894400  1
  Ni  Ni74  1  0.26894400  0.12109700  0.33452000  1
  Ni  Ni75  1  0.23105600  0.87890300  0.83452000  1
  Ni  Ni76  1  0.62109700  0.16548000  0.73105600  1
  Ni  Ni77  1  0.73105600  0.62109700  0.16548000  1
  Ni  Ni78  1  0.37890300  0.66548000  0.76894400  1
  Cu  Cu79  1  0.88063991  0.83445992  0.23159286  1
  Ni  Ni80  1  0.76894400  0.37890300  0.66548000  1
  Cu  Cu81  1  0.81880518  0.22360565  0.87315653  1
  Ni  Ni82  1  0.66548000  0.76894400  0.37890300  1
  Ni  Ni83  1  0.50696900  0.08852900  0.21513400  1
