# generated using pymatgen
data_Cu5NiC13
_symmetry_space_group_name_H-M   'P 1'
_cell_length_a   4.86933835
_cell_length_b   4.93320667
_cell_length_c   9.49389062
_cell_angle_alpha   91.43448999
_cell_angle_beta   89.70629925
_cell_angle_gamma   89.59660682
_symmetry_Int_Tables_number   1
_chemical_formula_structural   Cu5NiC13
_chemical_formula_sum   'Cu5 Ni1 C13'
_cell_volume   227.97671169
_cell_formula_units_Z   1
loop_
 _symmetry_equiv_pos_site_id
 _symmetry_equiv_pos_as_xyz
  1  'x, y, z'
loop_
 _atom_site_type_symbol
 _atom_site_label
 _atom_site_symmetry_multiplicity
 _atom_site_fract_x
 _atom_site_fract_y
 _atom_site_fract_z
 _atom_site_occupancy
  C  C0  1  0.55198266  0.02599698  0.49616453  1
  C  C1  1  0.98562962  0.92980532  0.99776064  1
  C  C2  1  0.04085769  0.02356127  0.30764060  1
  C  C3  1  0.05981677  0.00765332  0.68904380  1
  C  C4  1  0.49208810  0.49829481  0.83470020  1
  C  C5  1  0.54099986  0.44257629  0.15971644  1
  C  C6  1  0.21308215  0.49288578  0.49666968  1
  C  C7  1  0.17721817  0.88284343  0.48616298  1
  C  C8  1  0.18204025  0.75863131  0.83990299  1
  C  C9  1  0.35481743  0.27387563  0.32575344  1
  C  C10  1  0.34977793  0.29634335  0.66419166  1
  C  C11  1  0.67997231  0.66072858  0.00195666  1
  C  C12  1  0.84390988  0.17081524  0.15231003  1
  Cu  Cu13  1  0.23810457  0.72017743  0.17899301  1
  Cu  Cu14  1  0.32184654  0.25020442  0.97551812  1
  Ni  Ni15  1  0.71240232  0.78165702  0.34132910  1
  Cu  Cu16  1  0.69267694  0.76549420  0.64846692  1
  Cu  Cu17  1  0.84026658  0.27738189  0.49580326  1
  Cu  Cu18  1  0.82019806  0.20679404  0.83260458  1
