# generated using pymatgen
data_Cu2C25
_symmetry_space_group_name_H-M   'P 1'
_cell_length_a   8.18184872
_cell_length_b   8.18184872
_cell_length_c   12.10892504
_cell_angle_alpha   84.46979741
_cell_angle_beta   84.46979741
_cell_angle_gamma   26.90778798
_symmetry_Int_Tables_number   1
_chemical_formula_structural   Cu2C25
_chemical_formula_sum   'Cu2 C25'
_cell_volume   365.03800184
_cell_formula_units_Z   1
loop_
 _symmetry_equiv_pos_site_id
 _symmetry_equiv_pos_as_xyz
  1  'x, y, z'
loop_
 _atom_site_type_symbol
 _atom_site_label
 _atom_site_symmetry_multiplicity
 _atom_site_fract_x
 _atom_site_fract_y
 _atom_site_fract_z
 _atom_site_occupancy
  Cu  Cu0  1  0.47192381  0.39510311  0.79402847  1
  Cu  Cu1  1  0.56047324  0.53875196  0.18315546  1
  C  C2  1  0.89015500  0.89015500  0.07081400  1
  C  C3  1  0.84875600  0.84875600  0.32755600  1
  C  C4  1  0.80500600  0.80500600  0.57566100  1
  C  C5  1  0.75729600  0.75729600  0.83161600  1
  C  C6  1  0.24270400  0.24270400  0.16838400  1
  C  C7  1  0.19499400  0.19499400  0.42433900  1
  C  C8  1  0.15124400  0.15124400  0.67244400  1
  C  C9  1  0.10984500  0.10984500  0.92918600  1
  C  C10  1  0.93518000  0.93518000  0.21824700  1
  C  C11  1  0.89183100  0.89183100  0.46268400  1
  C  C12  1  0.84705800  0.84705800  0.71083300  1
  C  C13  1  0.82858200  0.82858200  0.93644800  1
  C  C14  1  0.36359400  0.36359400  0.08482500  1
  C  C15  1  0.31440700  0.31440700  0.32178500  1
  C  C16  1  0.27203500  0.27203500  0.56786300  1
  C  C17  1  0.22740200  0.22740200  0.81885000  1
  C  C18  1  0.77259800  0.77259800  0.18115000  1
  C  C19  1  0.72796500  0.72796500  0.43213700  1
  C  C20  1  0.68559300  0.68559300  0.67821500  1
  C  C21  1  0.63640600  0.63640600  0.91517500  1
  C  C22  1  0.17141800  0.17141800  0.06355200  1
  C  C23  1  0.15294200  0.15294200  0.28916700  1
  C  C24  1  0.10816900  0.10816900  0.53731600  1
  C  C25  1  0.06482000  0.06482000  0.78175300  1
  C  C26  1  0.00000000  0.00000000  0.00000000  1
