# generated using pymatgen
data_CuNiC3
_symmetry_space_group_name_H-M   'P 1'
_cell_length_a   6.75630834
_cell_length_b   6.75630834
_cell_length_c   5.65607500
_cell_angle_alpha   90.00000000
_cell_angle_beta   90.00000000
_cell_angle_gamma   119.24689640
_symmetry_Int_Tables_number   1
_chemical_formula_structural   CuNiC3
_chemical_formula_sum   'Cu2 Ni2 C6'
_cell_volume   225.27381032
_cell_formula_units_Z   2
loop_
 _symmetry_equiv_pos_site_id
 _symmetry_equiv_pos_as_xyz
  1  'x, y, z'
loop_
 _atom_site_type_symbol
 _atom_site_label
 _atom_site_symmetry_multiplicity
 _atom_site_fract_x
 _atom_site_fract_y
 _atom_site_fract_z
 _atom_site_occupancy
  Ni  Ni0  1  0.33645200  0.66354800  0.74865600  1
  Ni  Ni1  1  0.66354800  0.33645200  0.24865600  1
  Cu  Cu2  1  0.02447400  0.97552600  0.48605800  1
  Cu  Cu3  1  0.97552600  0.02447400  0.98605800  1
  C  C4  1  0.31978600  0.15990100  0.75779600  1
  C  C5  1  0.68021400  0.84009900  0.25779600  1
  C  C6  1  0.84009900  0.68021400  0.75779600  1
  C  C7  1  0.15990100  0.31978600  0.25779600  1
  C  C8  1  0.17090700  0.82909300  0.24079400  1
  C  C9  1  0.82909300  0.17090700  0.74079500  1
