# generated using pymatgen
data_Cu35NiC24
_symmetry_space_group_name_H-M   'P 1'
_cell_length_a   9.09246569
_cell_length_b   9.07318472
_cell_length_c   22.51243023
_cell_angle_alpha   88.95843887
_cell_angle_beta   90.70555916
_cell_angle_gamma   119.79053029
_symmetry_Int_Tables_number   1
_chemical_formula_structural   Cu35NiC24
_chemical_formula_sum   'Cu70 Ni2 C48'
_cell_volume   1611.50771437
_cell_formula_units_Z   2
loop_
 _symmetry_equiv_pos_site_id
 _symmetry_equiv_pos_as_xyz
  1  'x, y, z'
loop_
 _atom_site_type_symbol
 _atom_site_label
 _atom_site_symmetry_multiplicity
 _atom_site_fract_x
 _atom_site_fract_y
 _atom_site_fract_z
 _atom_site_occupancy
  C  C0  1  0.62992228  0.99501848  0.25679701  1
  C  C1  1  0.37006109  0.36681538  0.24400405  1
  C  C2  1  0.64288777  0.64588465  0.73954902  1
  C  C3  1  0.31025567  0.34305392  0.58926645  1
  C  C4  1  0.02599811  0.70222172  0.58397232  1
  C  C5  1  0.66793400  0.94838947  0.58562060  1
  C  C6  1  0.29581335  0.97035337  0.07757877  1
  C  C7  1  0.05094336  0.33822990  0.07753394  1
  C  C8  1  0.98659196  0.67627205  0.91365264  1
  C  C9  1  0.70957649  0.03590827  0.90429828  1
  C  C10  1  0.30606954  0.28316750  0.91757675  1
  C  C11  1  0.69812870  0.68472573  0.41917477  1
  C  C12  1  0.98576801  0.99739201  0.49654600  1
  C  C13  1  0.01209540  0.01119435  0.99734245  1
  C  C14  1  0.67174173  0.30681611  0.82356387  1
  C  C15  1  0.67631520  0.32257031  0.33171433  1
  C  C16  1  0.33721045  0.65650932  0.16250249  1
  C  C17  1  0.34871570  0.67561167  0.66660476  1
  C  C18  1  0.65595208  0.32434729  0.98193001  1
  C  C19  1  0.66751182  0.32944811  0.47979152  1
  C  C20  1  0.32975716  0.67826761  0.81510493  1
  C  C21  1  0.98898842  0.00414289  0.35100459  1
  C  C22  1  0.00407960  0.02649008  0.84797179  1
  C  C23  1  0.96784356  0.97574066  0.65560996  1
  C  C24  1  0.01297504  0.00841269  0.14976137  1
  C  C25  1  0.66245366  0.32397150  0.68551262  1
  C  C26  1  0.66421226  0.34962927  0.17768035  1
  C  C27  1  0.32285491  0.65004591  0.01314342  1
  C  C28  1  0.36434609  0.67350513  0.51190669  1
  C  C29  1  0.33329455  0.68674114  0.32616076  1
  C  C30  1  0.70221641  0.00530839  0.74963595  1
  C  C31  1  0.66664305  0.62391434  0.58547615  1
  C  C32  1  0.36697474  0.33925799  0.08699830  1
  C  C33  1  0.03625817  0.36981792  0.91936080  1
  C  C34  1  0.32719085  0.95668673  0.92094162  1
  C  C35  1  0.63648119  0.96733913  0.41426369  1
  C  C36  1  0.29007443  0.99530350  0.25097165  1
  C  C37  1  0.71025934  0.70604507  0.24969158  1
  C  C38  1  0.00009792  0.29898068  0.24883660  1
  C  C39  1  0.29671557  0.29731607  0.74961835  1
  C  C40  1  0.00116077  0.70742521  0.75046593  1
  C  C41  1  0.96493901  0.33831867  0.58338160  1
  C  C42  1  0.37127673  0.03925094  0.58389188  1
  C  C43  1  0.95706155  0.62780932  0.08514710  1
  C  C44  1  0.66762151  0.03786534  0.08724724  1
  C  C45  1  0.62519550  0.66556896  0.91785762  1
  C  C46  1  0.32903117  0.36761464  0.41586845  1
  C  C47  1  0.04105692  0.66643408  0.41808095  1
  Cu  Cu48  1  0.19750430  0.03021716  0.29458122  1
  Cu  Cu49  1  0.79109555  0.77608947  0.30531369  1
  Cu  Cu50  1  0.94607632  0.18403763  0.30305876  1
  Cu  Cu51  1  0.19160473  0.17385052  0.80708605  1
  Cu  Cu52  1  0.99327582  0.78558385  0.80583988  1
  Cu  Cu53  1  0.81556004  0.02584871  0.81072155  1
  Cu  Cu54  1  0.79009743  0.98870624  0.69006683  1
  Cu  Cu55  1  0.24598159  0.25734437  0.70467370  1
  Cu  Cu56  1  0.03371145  0.81479455  0.69047574  1
  Cu  Cu57  1  0.78888925  0.81397802  0.20088687  1
  Cu  Cu58  1  0.02837810  0.22430552  0.20209187  1
  Cu  Cu59  1  0.19269605  0.00056919  0.19465359  1
  Cu  Cu60  1  0.85913162  0.36854460  0.64174084  1
  Cu  Cu61  1  0.49607811  0.12013546  0.63952884  1
  Cu  Cu62  1  0.65729675  0.52264433  0.64543426  1
  Cu  Cu63  1  0.86931022  0.52029072  0.13976320  1
  Cu  Cu64  1  0.68026728  0.16008889  0.13689769  1
  Cu  Cu65  1  0.44167898  0.30946215  0.14589456  1
  Cu  Cu66  1  0.46640577  0.32718819  0.03289730  1
  Cu  Cu67  1  0.84479448  0.55216092  0.03143715  1
  Cu  Cu68  1  0.68689593  0.14510942  0.03756267  1
  Cu  Cu69  1  0.47765676  0.14011523  0.55182452  1
  Cu  Cu70  1  0.67906207  0.53802913  0.52670372  1
  Ni  Ni71  1  0.84886359  0.30775567  0.52996863  1
  Cu  Cu72  1  0.55932135  0.69927548  0.97654984  1
  Cu  Cu73  1  0.14046955  0.44957469  0.97721294  1
  Cu  Cu74  1  0.31061672  0.84123843  0.97408846  1
  Cu  Cu75  1  0.55668407  0.87482534  0.48053214  1
  Cu  Cu76  1  0.33243404  0.45442510  0.47562066  1
  Cu  Cu77  1  0.13061628  0.68048199  0.47910911  1
  Cu  Cu78  1  0.09891303  0.62654903  0.36933951  1
  Cu  Cu79  1  0.53028863  0.89876369  0.36387815  1
  Ni  Ni80  1  0.36069510  0.47711543  0.36202099  1
  Cu  Cu81  1  0.12683720  0.49356545  0.86877959  1
  Cu  Cu82  1  0.36807219  0.87139236  0.86676405  1
  Cu  Cu83  1  0.51284919  0.63171477  0.85175009  1
  Cu  Cu84  1  0.99962711  0.79054974  0.40948737  1
  Cu  Cu85  1  0.82307748  0.96887060  0.41805822  1
  Cu  Cu86  1  0.18880089  0.21883607  0.41778380  1
  Cu  Cu87  1  0.00175875  0.16309669  0.91452230  1
  Cu  Cu88  1  0.14172355  0.97464253  0.90915661  1
  Cu  Cu89  1  0.79284791  0.81212176  0.91680114  1
  Cu  Cu90  1  0.97993978  0.15291895  0.57801263  1
  Cu  Cu91  1  0.18282629  0.02591109  0.58885381  1
  Cu  Cu92  1  0.85036218  0.80684526  0.58251897  1
  Cu  Cu93  1  0.96787380  0.80386880  0.08909818  1
  Cu  Cu94  1  0.81248919  0.01531185  0.09092858  1
  Cu  Cu95  1  0.18514613  0.15490097  0.09228516  1
  Cu  Cu96  1  0.70956496  0.18404207  0.76057559  1
  Cu  Cu97  1  0.47843072  0.32884389  0.76128049  1
  Cu  Cu98  1  0.85489740  0.54542734  0.74777590  1
  Cu  Cu99  1  0.67750460  0.51888791  0.24756337  1
  Cu  Cu100  1  0.86643417  0.30314367  0.25073664  1
  Cu  Cu101  1  0.47617073  0.18014888  0.25753835  1
  Cu  Cu102  1  0.64135438  0.50800071  0.92154507  1
  Cu  Cu103  1  0.84732639  0.39951432  0.91942306  1
  Cu  Cu104  1  0.51557407  0.17029857  0.92319968  1
  Cu  Cu105  1  0.62075851  0.13886074  0.42227041  1
  Cu  Cu106  1  0.48305938  0.34402844  0.41508985  1
  Cu  Cu107  1  0.84609484  0.49779649  0.42633211  1
  Cu  Cu108  1  0.35031404  0.50431995  0.07755257  1
  Cu  Cu109  1  0.13320662  0.65225533  0.07905684  1
  Cu  Cu110  1  0.51734467  0.89860718  0.07614247  1
  Cu  Cu111  1  0.32822707  0.85120886  0.57852256  1
  Cu  Cu112  1  0.48003826  0.65897141  0.58523364  1
  Cu  Cu113  1  0.13864174  0.51676930  0.57689800  1
  Cu  Cu114  1  0.29802133  0.83543233  0.24868719  1
  Cu  Cu115  1  0.54901214  0.68563727  0.25651183  1
  Cu  Cu116  1  0.14813161  0.44760966  0.25974610  1
  Cu  Cu117  1  0.31483128  0.48632595  0.75021366  1
  Cu  Cu118  1  0.14673430  0.68541101  0.75000203  1
  Cu  Cu119  1  0.52545973  0.82686197  0.75594018  1
