# generated using pymatgen
data_Cu2C13
_symmetry_space_group_name_H-M   'P 1'
_cell_length_a   10.30291400
_cell_length_b   4.94836400
_cell_length_c   7.00245100
_cell_angle_alpha   72.18527331
_cell_angle_beta   90.00000000
_cell_angle_gamma   90.00000000
_symmetry_Int_Tables_number   1
_chemical_formula_structural   Cu2C13
_chemical_formula_sum   'Cu4 C26'
_cell_volume   339.88493016
_cell_formula_units_Z   2
loop_
 _symmetry_equiv_pos_site_id
 _symmetry_equiv_pos_as_xyz
  1  'x, y, z'
loop_
 _atom_site_type_symbol
 _atom_site_label
 _atom_site_symmetry_multiplicity
 _atom_site_fract_x
 _atom_site_fract_y
 _atom_site_fract_z
 _atom_site_occupancy
  C  C0  1  0.40073300  0.62206300  0.41556200  1
  C  C1  1  0.90073300  0.37793700  0.58443800  1
  Cu  Cu2  1  0.91761207  0.61924651  0.98201988  1
  Cu  Cu3  1  0.41583416  0.41673813  0.08604775  1
  Cu  Cu4  1  0.58301570  0.12709539  0.45851933  1
  Cu  Cu5  1  0.05577751  0.89961329  0.57735487  1
  C  C6  1  0.34713000  0.02651400  0.78000400  1
  C  C7  1  0.15080100  0.52603600  0.27715900  1
  C  C8  1  0.84713000  0.97348600  0.21999600  1
  C  C9  1  0.65080100  0.47396400  0.72284100  1
  C  C10  1  0.78386400  0.57543200  0.77176200  1
  C  C11  1  0.95459500  0.97972300  0.74421500  1
  C  C12  1  0.57589200  0.31224400  0.91458100  1
  C  C13  1  0.42615800  0.77335500  0.91037800  1
  C  C14  1  0.31660200  0.23874700  0.89614100  1
  C  C15  1  0.07589200  0.68775600  0.08541900  1
  C  C16  1  0.81660200  0.76125300  0.10385900  1
  C  C17  1  0.28386400  0.42456800  0.22823800  1
  C  C18  1  0.92615800  0.22664500  0.08962200  1
  C  C19  1  0.54158000  0.48102600  0.24973200  1
  C  C20  1  0.45459500  0.02027700  0.25578500  1
  C  C21  1  0.06752100  0.28150900  0.41088200  1
  C  C22  1  0.72164200  0.07987100  0.28594600  1
  C  C23  1  0.18685100  0.73543000  0.39693800  1
  C  C24  1  0.92740600  0.80642700  0.40993000  1
  C  C25  1  0.68685100  0.26457000  0.60306200  1
  C  C26  1  0.56752100  0.71849100  0.58911800  1
  C  C27  1  0.42740600  0.19357300  0.59007000  1
  C  C28  1  0.04158000  0.51897400  0.75026800  1
  C  C29  1  0.22164200  0.92012900  0.71405400  1
