# generated using pymatgen
data_Cu11NiC8
_symmetry_space_group_name_H-M   'P 1'
_cell_length_a   7.26790200
_cell_length_b   7.26790200
_cell_length_c   11.92623643
_cell_angle_alpha   107.74025108
_cell_angle_beta   107.74025108
_cell_angle_gamma   90.00000000
_symmetry_Int_Tables_number   1
_chemical_formula_structural   Cu11NiC8
_chemical_formula_sum   'Cu11 Ni1 C8'
_cell_volume   568.48269223
_cell_formula_units_Z   1
loop_
 _symmetry_equiv_pos_site_id
 _symmetry_equiv_pos_as_xyz
  1  'x, y, z'
loop_
 _atom_site_type_symbol
 _atom_site_label
 _atom_site_symmetry_multiplicity
 _atom_site_fract_x
 _atom_site_fract_y
 _atom_site_fract_z
 _atom_site_occupancy
  C  C0  1  0.29594200  0.51667200  0.59188500  1
  C  C1  1  0.29594200  0.07521300  0.59188500  1
  C  C2  1  0.32521300  0.04594200  0.09188500  1
  C  C3  1  0.95405800  0.67478700  0.90811500  1
  C  C4  1  0.95405800  0.23332800  0.90811500  1
  C  C5  1  0.76667200  0.04594200  0.09188500  1
  C  C6  1  0.92478700  0.70405800  0.40811500  1
  C  C7  1  0.48332800  0.70405800  0.40811500  1
  Cu  Cu8  1  0.81762643  0.06690695  0.60104832  1
  Cu  Cu9  1  0.81664325  0.52756342  0.60853534  1
  Cu  Cu10  1  0.81769054  0.55430228  0.10959204  1
  Cu  Cu11  1  0.43819501  0.22595306  0.90852121  1
  Cu  Cu12  1  0.42928613  0.68997141  0.90159076  1
  Cu  Cu13  1  0.35297252  0.54597145  0.10632572  1
  Cu  Cu14  1  0.48295943  0.19727554  0.38699536  1
  Cu  Cu15  1  0.89898298  0.17060351  0.38508008  1
  Cu  Cu16  1  0.11720291  0.37428494  0.24061938  1
  Cu  Cu17  1  0.11526006  0.87330009  0.24802045  1
  Ni  Ni18  1  0.12500000  0.87500000  0.75000000  1
  Cu  Cu19  1  0.63952855  0.89104061  0.78599167  1
