# generated using pymatgen
data_CuNiC6
_symmetry_space_group_name_H-M   'P 1'
_cell_length_a   9.42759238
_cell_length_b   9.42759238
_cell_length_c   9.42759238
_cell_angle_alpha   109.47122063
_cell_angle_beta   109.47122063
_cell_angle_gamma   109.47122063
_symmetry_Int_Tables_number   1
_chemical_formula_structural   CuNiC6
_chemical_formula_sum   'Cu5 Ni5 C30'
_cell_volume   645.03087011
_cell_formula_units_Z   5
loop_
 _symmetry_equiv_pos_site_id
 _symmetry_equiv_pos_as_xyz
  1  'x, y, z'
loop_
 _atom_site_type_symbol
 _atom_site_label
 _atom_site_symmetry_multiplicity
 _atom_site_fract_x
 _atom_site_fract_y
 _atom_site_fract_z
 _atom_site_occupancy
  C  C0  1  0.75000000  0.25000000  0.50000000  1
  C  C1  1  0.75000000  0.50000000  0.25000000  1
  C  C2  1  0.50000000  0.25000000  0.75000000  1
  C  C3  1  0.50000000  0.75000000  0.25000000  1
  C  C4  1  0.25000000  0.75000000  0.50000000  1
  C  C5  1  0.25000000  0.50000000  0.75000000  1
  Cu  Cu6  1  0.51837884  0.01603206  0.98407069  1
  Ni  Ni7  1  0.28399400  0.00000000  0.28399400  1
  Cu  Cu8  1  0.29312668  0.29545485  0.01131327  1
  Cu  Cu9  1  0.72060772  0.01481258  0.71487711  1
  Ni  Ni10  1  0.71600600  0.71600600  0.00000000  1
  Cu  Cu11  1  0.00587591  0.52902061  0.02116370  1
  Ni  Ni12  1  0.00000000  0.00000000  0.51556100  1
  Ni  Ni13  1  0.48443900  0.48443900  0.48443900  1
  Ni  Ni14  1  0.00000000  0.28399400  0.28399400  1
  Cu  Cu15  1  0.99450161  0.71284900  0.72216561  1
  C  C16  1  0.47991800  0.00000000  0.20184600  1
  C  C17  1  0.47991800  0.20184700  0.00000000  1
  C  C18  1  0.70287500  0.50087500  0.00000000  1
  C  C19  1  0.70287500  0.00000000  0.50087500  1
  C  C20  1  0.79800000  0.29712500  0.29712500  1
  C  C21  1  0.49912500  0.49912500  0.20200000  1
  C  C22  1  0.49912500  0.20200000  0.49912500  1
  C  C23  1  0.50087500  0.70287500  0.00000000  1
  C  C24  1  0.50087500  0.00000000  0.70287500  1
  C  C25  1  0.72192900  0.52008200  0.52008200  1
  C  C26  1  0.79815400  0.27807100  0.79815300  1
  C  C27  1  0.79815400  0.79815400  0.27807100  1
  C  C28  1  0.20184700  0.47991800  0.00000000  1
  C  C29  1  0.20184700  0.00000000  0.47991800  1
  C  C30  1  0.52008200  0.72192900  0.52008200  1
  C  C31  1  0.52008200  0.52008200  0.72192900  1
  C  C32  1  0.00000000  0.47991800  0.20184600  1
  C  C33  1  0.00000000  0.20184600  0.47991800  1
  C  C34  1  0.29712500  0.79800000  0.29712500  1
  C  C35  1  0.29712500  0.29712500  0.79800000  1
  C  C36  1  0.20200000  0.49912500  0.49912500  1
  C  C37  1  0.00000000  0.70287500  0.50087500  1
  C  C38  1  0.00000000  0.50087500  0.70287500  1
  C  C39  1  0.27807100  0.79815300  0.79815300  1
