# generated using pymatgen
data_Cu25(Ni4C7)2
_symmetry_space_group_name_H-M   'P 1'
_cell_length_a   9.39306000
_cell_length_b   10.11261430
_cell_length_c   10.39848588
_cell_angle_alpha   118.13197505
_cell_angle_beta   114.22928425
_cell_angle_gamma   90.57953350
_symmetry_Int_Tables_number   1
_chemical_formula_structural   Cu25(Ni4C7)2
_chemical_formula_sum   'Cu25 Ni8 C14'
_cell_volume   768.43531061
_cell_formula_units_Z   1
loop_
 _symmetry_equiv_pos_site_id
 _symmetry_equiv_pos_as_xyz
  1  'x, y, z'
loop_
 _atom_site_type_symbol
 _atom_site_label
 _atom_site_symmetry_multiplicity
 _atom_site_fract_x
 _atom_site_fract_y
 _atom_site_fract_z
 _atom_site_occupancy
  C  C0  1  0.16038600  0.31063300  0.39313000  1
  C  C1  1  0.83961400  0.68936700  0.60687000  1
  C  C2  1  0.18942500  0.59323900  0.80357000  1
  C  C3  1  0.81057500  0.40676100  0.19643000  1
  C  C4  1  0.83893800  0.29779900  0.48275000  1
  C  C5  1  0.16106200  0.70220100  0.51725000  1
  C  C6  1  0.64997800  0.85661100  0.14461400  1
  C  C7  1  0.35002200  0.14338900  0.85538600  1
  C  C8  1  0.41462900  0.20566300  0.32119900  1
  C  C9  1  0.58537100  0.79433700  0.67880100  1
  C  C10  1  0.16741900  0.85747900  0.34154700  1
  C  C11  1  0.83258100  0.14252100  0.65845300  1
  C  C12  1  0.32125700  0.55194400  0.08144600  1
  C  C13  1  0.67874300  0.44805600  0.91855400  1
  Ni  Ni14  1  0.11771300  0.34000200  0.60525600  1
  Ni  Ni15  1  0.88228700  0.65999800  0.39474400  1
  Cu  Cu16  1  0.55359378  0.18825491  0.28903907  1
  Cu  Cu17  1  0.46060994  0.82277768  0.69136366  1
  Cu  Cu18  1  0.38659640  0.52320177  0.20067596  1
  Cu  Cu19  1  0.61901048  0.47039592  0.79512754  1
  Cu  Cu20  1  0.63108298  0.90913534  0.26551822  1
  Cu  Cu21  1  0.30870913  0.07811041  0.68796873  1
  Cu  Cu22  1  0.87909663  0.21822931  0.25155583  1
  Ni  Ni23  1  0.10984100  0.77199900  0.73392300  1
  Cu  Cu24  1  0.06841558  0.48324728  0.29349086  1
  Ni  Ni25  1  0.92306300  0.53523100  0.70563900  1
  Cu  Cu26  1  0.38963512  0.22058415  0.41599422  1
  Cu  Cu27  1  0.61962436  0.81010012  0.58634871  1
  Ni  Ni28  1  0.16907700  0.53522300  0.00538300  1
  Cu  Cu29  1  0.82522700  0.46488145  0.98861486  1
  Cu  Cu30  1  0.28179064  0.56858530  0.62086420  1
  Cu  Cu31  1  0.72347546  0.44202594  0.36567085  1
  Cu  Cu32  1  0.79286023  0.84073547  0.13592855  1
  Cu  Cu33  1  0.21436841  0.16109691  0.86304745  1
  Ni  Ni34  1  0.69115200  0.75127900  0.76549600  1
  Cu  Cu35  1  0.30983674  0.25738374  0.24585466  1
  Ni  Ni36  1  0.00000000  0.50000000  0.50000000  1
  Cu  Cu37  1  0.52415334  0.82839178  0.01146449  1
  Cu  Cu38  1  0.47983849  0.16949249  0.00264527  1
  Cu  Cu39  1  0.08176298  0.89190505  0.40660763  1
  Cu  Cu40  1  0.91386531  0.09895121  0.58965888  1
  Cu  Cu41  1  0.16018050  0.90102846  0.25714774  1
  Cu  Cu42  1  0.84477584  0.09213419  0.75587858  1
  Cu  Cu43  1  0.40434118  0.62401094  0.04904491  1
  Ni  Ni44  1  0.59338600  0.39403600  0.96191900  1
  Cu  Cu45  1  0.25990322  0.77546045  0.36580377  1
  Cu  Cu46  1  0.75815458  0.22361821  0.66172012  1
