# generated using pymatgen
data_Cu4C5
_symmetry_space_group_name_H-M   'P 1'
_cell_length_a   5.41197600
_cell_length_b   5.41197600
_cell_length_c   5.41197600
_cell_angle_alpha   90.00000000
_cell_angle_beta   90.00000000
_cell_angle_gamma   90.00000000
_symmetry_Int_Tables_number   1
_chemical_formula_structural   Cu4C5
_chemical_formula_sum   'Cu4 C5'
_cell_volume   158.51398568
_cell_formula_units_Z   1
loop_
 _symmetry_equiv_pos_site_id
 _symmetry_equiv_pos_as_xyz
  1  'x, y, z'
loop_
 _atom_site_type_symbol
 _atom_site_label
 _atom_site_symmetry_multiplicity
 _atom_site_fract_x
 _atom_site_fract_y
 _atom_site_fract_z
 _atom_site_occupancy
  C  C0  1  0.78084200  0.21915800  0.21915800  1
  C  C1  1  0.78084200  0.78084200  0.78084200  1
  C  C2  1  0.21915800  0.78084200  0.21915800  1
  C  C3  1  0.21915800  0.21915800  0.78084200  1
  C  C4  1  0.50000000  0.50000000  0.50000000  1
  Cu  Cu5  1  0.66963798  0.68367695  0.38565086  1
  Cu  Cu6  1  0.30687985  0.64261885  0.69185512  1
  Cu  Cu7  1  0.32177417  0.33713292  0.35511955  1
  Cu  Cu8  1  0.68785117  0.32804122  0.63673379  1
