# generated using pymatgen
data_Cu5Ni3C76
_symmetry_space_group_name_H-M   'P 1'
_cell_length_a   10.01648600
_cell_length_b   10.01648600
_cell_length_c   10.01648600
_cell_angle_alpha   90.00000000
_cell_angle_beta   90.00000000
_cell_angle_gamma   90.00000000
_symmetry_Int_Tables_number   1
_chemical_formula_structural   Cu5Ni3C76
_chemical_formula_sum   'Cu5 Ni3 C76'
_cell_volume   1004.95395813
_cell_formula_units_Z   1
loop_
 _symmetry_equiv_pos_site_id
 _symmetry_equiv_pos_as_xyz
  1  'x, y, z'
loop_
 _atom_site_type_symbol
 _atom_site_label
 _atom_site_symmetry_multiplicity
 _atom_site_fract_x
 _atom_site_fract_y
 _atom_site_fract_z
 _atom_site_occupancy
  C  C0  1  0.00000000  0.50000000  0.50000000  1
  C  C1  1  0.50000000  0.50000000  0.00000000  1
  C  C2  1  0.50000000  0.00000000  0.50000000  1
  C  C3  1  0.00000000  0.00000000  0.00000000  1
  Ni  Ni4  1  0.37509100  0.12490900  0.87509100  1
  Cu  Cu5  1  0.10942420  0.89706902  0.38468668  1
  Ni  Ni6  1  0.87509100  0.37509100  0.12490900  1
  Cu  Cu7  1  0.62808229  0.62624113  0.64746473  1
  Cu  Cu8  1  0.64075137  0.88449201  0.10617968  1
  Cu  Cu9  1  0.86774772  0.12625289  0.62877767  1
  Ni  Ni10  1  0.12490900  0.62490900  0.87509100  1
  Cu  Cu11  1  0.36859958  0.35936350  0.37184673  1
  C  C12  1  0.68988800  0.34671800  0.38046300  1
  C  C13  1  0.18988800  0.15328200  0.61953700  1
  C  C14  1  0.31011200  0.84671800  0.11953700  1
  C  C15  1  0.15328200  0.61953700  0.18988800  1
  C  C16  1  0.11953700  0.31011200  0.84671800  1
  C  C17  1  0.61953700  0.18988800  0.15328200  1
  C  C18  1  0.34671800  0.38046300  0.68988800  1
  C  C19  1  0.38046300  0.68988800  0.34671800  1
  C  C20  1  0.84671800  0.11953700  0.31011200  1
  C  C21  1  0.65328200  0.88046300  0.81011200  1
  C  C22  1  0.88046300  0.81011200  0.65328200  1
  C  C23  1  0.81011200  0.65328200  0.88046300  1
  C  C24  1  0.31011200  0.65328200  0.61953700  1
  C  C25  1  0.81011200  0.84671800  0.38046300  1
  C  C26  1  0.68988800  0.15328200  0.88046300  1
  C  C27  1  0.84671800  0.38046300  0.81011200  1
  C  C28  1  0.88046300  0.68988800  0.15328200  1
  C  C29  1  0.38046300  0.81011200  0.84671800  1
  C  C30  1  0.65328200  0.61953700  0.31011200  1
  C  C31  1  0.61953700  0.31011200  0.65328200  1
  C  C32  1  0.15328200  0.88046300  0.68988800  1
  C  C33  1  0.34671800  0.11953700  0.18988800  1
  C  C34  1  0.11953700  0.18988800  0.34671800  1
  C  C35  1  0.18988800  0.34671800  0.11953700  1
  C  C36  1  0.71513400  0.50696900  0.41147100  1
  C  C37  1  0.21513400  0.99303100  0.58852900  1
  C  C38  1  0.28486600  0.00696900  0.08852900  1
  C  C39  1  0.99303100  0.58852900  0.21513400  1
  C  C40  1  0.08852900  0.28486600  0.00696900  1
  C  C41  1  0.58852900  0.21513400  0.99303100  1
  C  C42  1  0.50696900  0.41147100  0.71513400  1
  C  C43  1  0.41147100  0.71513400  0.50696900  1
  C  C44  1  0.00696900  0.08852900  0.28486600  1
  C  C45  1  0.49303100  0.91147100  0.78486600  1
  C  C46  1  0.91147100  0.78486600  0.49303100  1
  C  C47  1  0.78486600  0.49303100  0.91147100  1
  C  C48  1  0.28486600  0.49303100  0.58852900  1
  C  C49  1  0.78486600  0.00696900  0.41147100  1
  C  C50  1  0.71513400  0.99303100  0.91147100  1
  C  C51  1  0.00696900  0.41147100  0.78486600  1
  C  C52  1  0.91147100  0.71513400  0.99303100  1
  C  C53  1  0.41147100  0.78486600  0.00696900  1
  C  C54  1  0.49303100  0.58852900  0.28486600  1
  C  C55  1  0.58852900  0.28486600  0.49303100  1
  C  C56  1  0.16548000  0.73105600  0.62109700  1
  C  C57  1  0.99303100  0.91147100  0.71513400  1
  C  C58  1  0.08852900  0.21513400  0.50696900  1
  C  C59  1  0.21513400  0.50696900  0.08852900  1
  C  C60  1  0.83452000  0.26894400  0.37890300  1
  C  C61  1  0.33452000  0.23105600  0.62109700  1
  C  C62  1  0.16548000  0.76894400  0.12109700  1
  C  C63  1  0.23105600  0.62109700  0.33452000  1
  C  C64  1  0.12109700  0.16548000  0.76894400  1
  C  C65  1  0.62109700  0.33452000  0.23105600  1
  C  C66  1  0.26894400  0.37890300  0.83452000  1
  C  C67  1  0.37890300  0.83452000  0.26894400  1
  C  C68  1  0.76894400  0.12109700  0.16548000  1
  C  C69  1  0.73105600  0.87890300  0.66548000  1
  C  C70  1  0.87890300  0.66548000  0.73105600  1
  C  C71  1  0.66548000  0.73105600  0.87890300  1
  C  C72  1  0.33452000  0.26894400  0.12109700  1
  C  C73  1  0.12109700  0.33452000  0.26894400  1
  C  C74  1  0.26894400  0.12109700  0.33452000  1
  C  C75  1  0.23105600  0.87890300  0.83452000  1
  C  C76  1  0.62109700  0.16548000  0.73105600  1
  C  C77  1  0.73105600  0.62109700  0.16548000  1
  C  C78  1  0.37890300  0.66548000  0.76894400  1
  C  C79  1  0.87890300  0.83452000  0.23105600  1
  C  C80  1  0.76894400  0.37890300  0.66548000  1
  C  C81  1  0.83452000  0.23105600  0.87890300  1
  C  C82  1  0.66548000  0.76894400  0.37890300  1
  C  C83  1  0.50696900  0.08852900  0.21513400  1
