# generated using pymatgen
data_Cu7C
_symmetry_space_group_name_H-M   'P 1'
_cell_length_a   6.26722563
_cell_length_b   6.26722514
_cell_length_c   10.19723155
_cell_angle_alpha   90.00000000
_cell_angle_beta   90.00000000
_cell_angle_gamma   120.00000255
_symmetry_Int_Tables_number   1
_chemical_formula_structural   Cu7C
_chemical_formula_sum   'Cu14 C2'
_cell_volume   346.86743424
_cell_formula_units_Z   2
loop_
 _symmetry_equiv_pos_site_id
 _symmetry_equiv_pos_as_xyz
  1  'x, y, z'
loop_
 _atom_site_type_symbol
 _atom_site_label
 _atom_site_symmetry_multiplicity
 _atom_site_fract_x
 _atom_site_fract_y
 _atom_site_fract_z
 _atom_site_occupancy
  Cu  Cu0  1  0.14493024  0.82331677  0.12811266  1
  Cu  Cu1  1  0.15938939  0.78817586  0.64325127  1
  Cu  Cu2  1  0.65423559  0.31186987  0.14642232  1
  Cu  Cu3  1  0.68418755  0.32302984  0.62395417  1
  Cu  Cu4  1  0.66089552  0.86232659  0.14331249  1
  Cu  Cu5  1  0.65330479  0.81843682  0.63912861  1
  Cu  Cu6  1  0.26933917  0.14061507  0.41741931  1
  Cu  Cu7  1  0.36106612  0.17458572  0.88886844  1
  Cu  Cu8  1  0.27941008  0.63349582  0.39937973  1
  Cu  Cu9  1  0.34367996  0.66658815  0.87036319  1
  Cu  Cu10  1  0.85905191  0.19613633  0.40915992  1
  Cu  Cu11  1  0.86411569  0.17924845  0.87073673  1
  Cu  Cu12  1  0.83100394  0.66286733  0.39118527  1
  Cu  Cu13  1  0.81955659  0.64248838  0.88280160  1
  C  C14  1  0.16666700  0.33333300  0.12500000  1
  C  C15  1  0.16666700  0.33333300  0.62500000  1
