# generated using pymatgen
data_Cu7(NiC)2
_symmetry_space_group_name_H-M   'P 1'
_cell_length_a   7.56359049
_cell_length_b   7.56359049
_cell_length_c   7.56359100
_cell_angle_alpha   60.00817282
_cell_angle_beta   60.00817282
_cell_angle_gamma   60.00816571
_symmetry_Int_Tables_number   1
_chemical_formula_structural   Cu7(NiC)2
_chemical_formula_sum   'Cu14 Ni4 C4'
_cell_volume   306.01977513
_cell_formula_units_Z   2
loop_
 _symmetry_equiv_pos_site_id
 _symmetry_equiv_pos_as_xyz
  1  'x, y, z'
loop_
 _atom_site_type_symbol
 _atom_site_label
 _atom_site_symmetry_multiplicity
 _atom_site_fract_x
 _atom_site_fract_y
 _atom_site_fract_z
 _atom_site_occupancy
  Ni  Ni0  1  0.50000000  0.50000000  0.50000000  1
  Ni  Ni1  1  0.00000000  0.50000000  0.50000000  1
  Ni  Ni2  1  0.50000000  0.50000000  0.00000000  1
  Ni  Ni3  1  0.50000000  0.00000000  0.50000000  1
  C  C4  1  0.50000000  0.00000000  0.00000000  1
  C  C5  1  0.00000000  0.00000000  0.50000000  1
  C  C6  1  0.00000000  0.50000000  0.00000000  1
  C  C7  1  0.00000000  0.00000000  0.00000000  1
  Cu  Cu8  1  0.37402100  0.37402100  0.37402100  1
  Cu  Cu9  1  0.62597900  0.62597900  0.62597900  1
  Cu  Cu10  1  0.91604600  0.33886500  0.33886500  1
  Cu  Cu11  1  0.31784300  0.92365000  0.92365000  1
  Cu  Cu12  1  0.33886500  0.33886500  0.91604600  1
  Cu  Cu13  1  0.92365000  0.92365000  0.31784300  1
  Cu  Cu14  1  0.92365000  0.31784300  0.92365000  1
  Cu  Cu15  1  0.33886500  0.91604600  0.33886500  1
  Cu  Cu16  1  0.08395400  0.66113500  0.66113500  1
  Cu  Cu17  1  0.68215700  0.07635000  0.07635000  1
  Cu  Cu18  1  0.66113500  0.66113500  0.08395400  1
  Cu  Cu19  1  0.07635000  0.07635000  0.68215700  1
  Cu  Cu20  1  0.07635000  0.68215700  0.07635000  1
  Cu  Cu21  1  0.66113500  0.08395400  0.66113500  1
