# generated using pymatgen
data_Cu5Ni15C8
_symmetry_space_group_name_H-M   'P 1'
_cell_length_a   9.62937230
_cell_length_b   13.01758235
_cell_length_c   19.93770634
_cell_angle_alpha   109.05383188
_cell_angle_beta   101.52325226
_cell_angle_gamma   90.00000000
_symmetry_Int_Tables_number   1
_chemical_formula_structural   Cu5Ni15C8
_chemical_formula_sum   'Cu30 Ni90 C48'
_cell_volume   2308.92775522
_cell_formula_units_Z   6
loop_
 _symmetry_equiv_pos_site_id
 _symmetry_equiv_pos_as_xyz
  1  'x, y, z'
loop_
 _atom_site_type_symbol
 _atom_site_label
 _atom_site_symmetry_multiplicity
 _atom_site_fract_x
 _atom_site_fract_y
 _atom_site_fract_z
 _atom_site_occupancy
  C  C0  1  0.91626734  0.42265196  0.26632252  1
  C  C1  1  0.58373266  0.15632944  0.73367748  1
  C  C2  1  0.08373266  0.57734804  0.73367748  1
  C  C3  1  0.41626734  0.84367056  0.26632252  1
  C  C4  1  0.93662483  0.90851400  0.27417583  1
  C  C5  1  0.56337517  0.63433816  0.72582417  1
  C  C6  1  0.06337517  0.09148600  0.72582417  1
  C  C7  1  0.43662483  0.36566184  0.27417583  1
  C  C8  1  0.54974148  0.14053004  0.23011649  1
  C  C9  1  0.95025852  0.91041356  0.76988351  1
  C  C10  1  0.45025852  0.85946996  0.76988351  1
  C  C11  1  0.04974148  0.08958644  0.23011649  1
  C  C12  1  0.73708370  0.93474289  0.50795337  1
  C  C13  1  0.76291630  0.42678952  0.49204663  1
  C  C14  1  0.26291630  0.06525711  0.49204663  1
  C  C15  1  0.23708370  0.57321048  0.50795337  1
  C  C16  1  0.08938314  0.58150347  0.22874703  1
  C  C17  1  0.41061686  0.35275644  0.77125297  1
  C  C18  1  0.91061686  0.41849653  0.77125297  1
  C  C19  1  0.58938314  0.64724356  0.22874703  1
  C  C20  1  0.75000000  0.92862430  -0.00000000  1
  C  C21  1  0.25000000  0.07137570  -0.00000000  1
  C  C22  1  0.75000000  0.43132715  0.00000000  1
  C  C23  1  0.25000000  0.56867285  0.00000000  1
  C  C24  1  0.50266563  0.25719967  0.48982685  1
  C  C25  1  0.99733437  0.76737282  0.51017315  1
  C  C26  1  0.49733437  0.74280033  0.51017315  1
  C  C27  1  0.00266563  0.23262718  0.48982685  1
  C  C28  1  0.49680136  0.24566408  0.98904477  1
  C  C29  1  0.00319864  0.25661931  0.01095523  1
  C  C30  1  0.50319864  0.75433592  0.01095523  1
  C  C31  1  0.99680136  0.74338069  0.98904477  1
  C  C32  1  0.79852895  0.19577332  0.61863290  1
  C  C33  1  0.70147105  0.57714042  0.38136710  1
  C  C34  1  0.20147105  0.80422668  0.38136710  1
  C  C35  1  0.29852895  0.42285958  0.61863290  1
  C  C36  1  0.78527625  0.18765499  0.12354604  1
  C  C37  1  0.71472375  0.06410895  0.87645396  1
  C  C38  1  0.21472375  0.81234501  0.87645396  1
  C  C39  1  0.28527625  0.93589105  0.12354604  1
  C  C40  1  0.81733131  0.68578833  0.12294748  1
  C  C41  1  0.68266869  0.56284084  0.87705252  1
  C  C42  1  0.18266869  0.31421167  0.87705252  1
  C  C43  1  0.31733131  0.43715916  0.12294748  1
  C  C44  1  0.19343708  0.32301176  0.37178078  1
  C  C45  1  0.30656292  0.95123097  0.62821922  1
  C  C46  1  0.80656292  0.67698824  0.62821922  1
  C  C47  1  0.69343708  0.04876903  0.37178078  1
  Cu  Cu48  1  0.88252045  0.89072943  0.53128970  1
  Cu  Cu49  1  0.61402623  0.36848501  0.45655624  1
  Cu  Cu50  1  0.11053964  0.09169201  0.46072595  1
  Ni  Ni51  1  0.38345193  0.63429533  0.53477303  1
  Ni  Ni52  1  0.50426276  0.25504795  0.27782051  1
  Cu  Cu53  1  0.99980064  0.97182270  0.71986004  1
  Ni  Ni54  1  0.49573724  0.74495205  0.72217949  1
  Cu  Cu55  1  0.99702793  0.02946082  0.28010132  1
  Ni  Ni56  1  0.61380939  0.35689223  0.96789883  1
  Ni  Ni57  1  0.88619061  0.38899340  0.03210117  1
  Ni  Ni58  1  0.38619061  0.64310777  0.03210117  1
  Ni  Ni59  1  0.11380939  0.61100660  0.96789883  1
  Ni  Ni60  1  0.12013532  0.65451938  0.30902908  1
  Ni  Ni61  1  0.37986468  0.34549030  0.69097092  1
  Cu  Cu62  1  0.87682097  0.34993434  0.68601676  1
  Ni  Ni63  1  0.62013532  0.65450970  0.30902908  1
  Ni  Ni64  1  0.00172748  0.47335484  0.22248840  1
  Ni  Ni65  1  0.49827252  0.25086644  0.77751160  1
  Ni  Ni66  1  0.99827252  0.52664516  0.77751160  1
  Ni  Ni67  1  0.50172748  0.74913356  0.22248840  1
  Ni  Ni68  1  0.71883876  0.04320180  0.56996521  1
  Cu  Cu69  1  0.79186313  0.46847518  0.43963356  1
  Ni  Ni70  1  0.28116124  0.95679820  0.43003479  1
  Ni  Ni71  1  0.21883876  0.52676341  0.56996521  1
  Ni  Ni72  1  0.02232856  0.38063074  0.31626063  1
  Ni  Ni73  1  0.47767144  0.06437012  0.68373937  1
  Cu  Cu74  1  0.95938291  0.60422177  0.67951228  1
  Cu  Cu75  1  0.51837583  0.93600847  0.30757322  1
  Ni  Ni76  1  0.76468980  0.47162615  0.93490288  1
  Ni  Ni77  1  0.73531020  0.53672327  0.06509712  1
  Cu  Cu78  1  0.22890349  0.52471861  0.06757279  1
  Ni  Ni79  1  0.26468980  0.46327673  0.93490288  1
  Ni  Ni80  1  0.89475135  0.83508693  0.19439123  1
  Ni  Ni81  1  0.60524865  0.64069570  0.80560877  1
  Ni  Ni82  1  0.10524865  0.16491307  0.80560877  1
  Ni  Ni83  1  0.39475135  0.35930430  0.19439123  1
  Ni  Ni84  1  0.88853572  0.87998473  0.02113323  1
  Ni  Ni85  1  0.61146428  0.85885151  0.97886677  1
  Ni  Ni86  1  0.11146428  0.12001527  0.97886677  1
  Cu  Cu87  1  0.40080704  0.14917520  0.01868252  1
  Ni  Ni88  1  0.81917635  0.33074628  0.20598004  1
  Ni  Ni89  1  0.68082365  0.12476624  0.79401996  1
  Cu  Cu90  1  0.18042884  0.66183410  0.80154357  1
  Ni  Ni91  1  0.31917635  0.87523376  0.20598004  1
  Ni  Ni92  1  0.80708866  0.93160985  0.30788807  1
  Ni  Ni93  1  0.69291134  0.62372178  0.69211193  1
  Cu  Cu94  1  0.19974673  0.07792467  0.70217054  1
  Ni  Ni95  1  0.30708866  0.37627822  0.30788807  1
  Ni  Ni96  1  0.99523949  0.63170461  0.17859087  1
  Ni  Ni97  1  0.50476051  0.45311374  0.82140913  1
  Ni  Ni98  1  0.00476051  0.36829539  0.82140913  1
  Ni  Ni99  1  0.49523949  0.54688626  0.17859087  1
  Ni  Ni100  1  0.22694875  0.54281960  0.20471572  1
  Ni  Ni101  1  0.27305125  0.33810388  0.79528428  1
  Ni  Ni102  1  0.77305125  0.45718040  0.79528428  1
  Ni  Ni103  1  0.72694875  0.66189612  0.20471572  1
  Ni  Ni104  1  0.64845271  0.09919278  0.28469098  1
  Ni  Ni105  1  0.85154729  0.81450180  0.71530902  1
  Ni  Ni106  1  0.35154729  0.90080722  0.71530902  1
  Ni  Ni107  1  0.14845271  0.18549820  0.28469098  1
  Ni  Ni108  1  0.05516582  0.86102765  0.31475392  1
  Ni  Ni109  1  0.44483418  0.54627373  0.68524608  1
  Ni  Ni110  1  0.94483418  0.13897235  0.68524608  1
  Cu  Cu111  1  0.55241429  0.46588733  0.31629140  1
  Ni  Ni112  1  0.82784505  0.50897243  0.30580951  1
  Ni  Ni113  1  0.67215495  0.20316292  0.69419049  1
  Ni  Ni114  1  0.17215495  0.49102757  0.69419049  1
  Ni  Ni115  1  0.32784505  0.79683708  0.30580951  1
  Ni  Ni116  1  0.73712795  0.96678012  0.43850774  1
  Ni  Ni117  1  0.76287205  0.52827238  0.56149226  1
  Ni  Ni118  1  0.26287205  0.03321988  0.56149226  1
  Cu  Cu119  1  0.26382302  0.47726920  0.44039369  1
  Ni  Ni120  1  0.74306773  0.03436360  0.06522471  1
  Cu  Cu121  1  0.77666206  0.97465891  0.94449521  1
  Cu  Cu122  1  0.26245192  0.96908626  0.93056761  1
  Ni  Ni123  1  0.24306773  0.03086111  0.06522471  1
  Ni  Ni124  1  0.62653961  0.15895456  0.17552608  1
  Ni  Ni125  1  0.87346039  0.98342849  0.82447392  1
  Ni  Ni126  1  0.37346039  0.84104544  0.82447392  1
  Ni  Ni127  1  0.12653961  0.01657151  0.17552608  1
  Cu  Cu128  1  0.61359748  0.85769017  0.49039117  1
  Ni  Ni129  1  0.89100366  0.36813425  0.51350603  1
  Ni  Ni130  1  0.39100366  0.14537178  0.51350603  1
  Ni  Ni131  1  0.10899634  0.63186575  0.48649397  1
  Cu  Cu132  1  0.41221513  0.05771990  0.20244107  1
  Cu  Cu133  1  0.07987479  0.87785187  0.81099893  1
  Ni  Ni134  1  0.58741725  0.93176402  0.80294508  1
  Cu  Cu135  1  0.90670683  0.12982558  0.19197515  1
  Ni  Ni136  1  0.65783987  0.24893684  0.56879323  1
  Ni  Ni137  1  0.84216013  0.68014362  0.43120677  1
  Ni  Ni138  1  0.34216013  0.75106316  0.43120677  1
  Ni  Ni139  1  0.15783987  0.31985638  0.56879323  1
  Ni  Ni140  1  0.92433140  0.69563561  0.06090001  1
  Ni  Ni141  1  0.57566860  0.63473559  0.93909999  1
  Ni  Ni142  1  0.07566860  0.30436439  0.93909999  1
  Cu  Cu143  1  0.40696055  0.36912099  0.05774919  1
  Ni  Ni144  1  0.92630507  0.18900691  0.56292774  1
  Cu  Cu145  1  0.58835470  0.62338965  0.43358767  1
  Ni  Ni146  1  0.07369493  0.81099309  0.43707226  1
  Ni  Ni147  1  0.42630507  0.37392083  0.56292774  1
  Ni  Ni148  1  0.35044964  0.27115619  0.41099760  1
  Cu  Cu149  1  0.15694046  0.87010339  0.59293635  1
  Ni  Ni150  1  0.64955036  0.72884381  0.58900240  1
  Ni  Ni151  1  0.85044964  0.13984141  0.41099760  1
  Ni  Ni152  1  0.07433895  0.28389402  0.41935389  1
  Cu  Cu153  1  0.44219762  0.84749738  0.57474596  1
  Cu  Cu154  1  0.91730672  0.69216527  0.57512007  1
  Cu  Cu155  1  0.54864233  0.11823197  0.40935165  1
  Ni  Ni156  1  0.93478418  0.20995052  0.08643944  1
  Cu  Cu157  1  0.55420118  0.13669564  0.91804078  1
  Ni  Ni158  1  0.06521582  0.79004948  0.91356056  1
  Ni  Ni159  1  0.43478418  0.87648892  0.08643944  1
  Ni  Ni160  1  0.66038167  0.74324734  0.08900483  1
  Cu  Cu161  1  0.82673643  0.65943017  0.90885467  1
  Ni  Ni162  1  0.33961833  0.25675266  0.91099517  1
  Cu  Cu163  1  0.15766650  0.35630837  0.09383911  1
  Ni  Ni164  1  0.65359706  0.23546449  0.06562659  1
  Ni  Ni165  1  0.84640294  0.16983791  0.93437341  1
  Ni  Ni166  1  0.34640294  0.76453551  0.93437341  1
  Ni  Ni167  1  0.15359706  0.83016209  0.06562659  1
