# generated using pymatgen
data_Cu3NiC2
_symmetry_space_group_name_H-M   'P 1'
_cell_length_a   8.50597077
_cell_length_b   8.50597077
_cell_length_c   4.87390600
_cell_angle_alpha   90.00000000
_cell_angle_beta   90.00000000
_cell_angle_gamma   125.27341453
_symmetry_Int_Tables_number   1
_chemical_formula_structural   Cu3NiC2
_chemical_formula_sum   'Cu9 Ni3 C6'
_cell_volume   287.89287159
_cell_formula_units_Z   3
loop_
 _symmetry_equiv_pos_site_id
 _symmetry_equiv_pos_as_xyz
  1  'x, y, z'
loop_
 _atom_site_type_symbol
 _atom_site_label
 _atom_site_symmetry_multiplicity
 _atom_site_fract_x
 _atom_site_fract_y
 _atom_site_fract_z
 _atom_site_occupancy
  C  C0  1  0.21133600  0.79610100  0.50000000  1
  C  C1  1  0.79610100  0.21133600  0.50000000  1
  C  C2  1  0.10969000  0.10969000  0.50000000  1
  C  C3  1  0.89759200  0.89759200  0.50000000  1
  C  C4  1  0.58460800  0.03237600  0.00000000  1
  C  C5  1  0.03237600  0.58460800  0.00000000  1
  Ni  Ni6  1  0.10008400  0.25119200  0.50000000  1
  Cu  Cu7  1  0.25265782  0.08788304  0.50608791  1
  Cu  Cu8  1  0.75514439  0.89334651  0.52970675  1
  Cu  Cu9  1  0.90138802  0.74216901  0.52413978  1
  Cu  Cu10  1  0.49839752  0.98408611  0.80052454  1
  Cu  Cu11  1  0.00787057  0.51372101  0.21974941  1
  Cu  Cu12  1  0.47073817  0.97001285  0.25795335  1
  Cu  Cu13  1  0.00554474  0.51370926  0.79609788  1
  Cu  Cu14  1  0.76860078  0.13441255  0.02499249  1
  Ni  Ni15  1  0.12976600  0.77111700  0.00000000  1
  Cu  Cu16  1  0.63940764  0.38408827  0.50318121  1
  Ni  Ni17  1  0.37569600  0.63826300  0.50000000  1
