# generated using pymatgen
data_Cu(NiC)2
_symmetry_space_group_name_H-M   'P 1'
_cell_length_a   5.26949908
_cell_length_b   5.39108300
_cell_length_c   7.86904259
_cell_angle_alpha   90.00041810
_cell_angle_beta   89.99990026
_cell_angle_gamma   90.00204200
_symmetry_Int_Tables_number   1
_chemical_formula_structural   Cu(NiC)2
_chemical_formula_sum   'Cu4 Ni8 C8'
_cell_volume   223.54617676
_cell_formula_units_Z   4
loop_
 _symmetry_equiv_pos_site_id
 _symmetry_equiv_pos_as_xyz
  1  'x, y, z'
loop_
 _atom_site_type_symbol
 _atom_site_label
 _atom_site_symmetry_multiplicity
 _atom_site_fract_x
 _atom_site_fract_y
 _atom_site_fract_z
 _atom_site_occupancy
  C  C0  1  0.00453300  0.03767800  0.27243100  1
  C  C1  1  0.49545500  0.53766400  0.22756500  1
  C  C2  1  0.99556700  0.96227000  0.72753900  1
  C  C3  1  0.50445200  0.46228300  0.77246600  1
  C  C4  1  0.99969900  0.50016700  0.49993600  1
  C  C5  1  0.49980300  0.99994600  0.00016500  1
  C  C6  1  0.50006900  0.99996400  0.49998000  1
  C  C7  1  0.00008000  0.50000800  0.99999400  1
  Ni  Ni8  1  0.65209300  0.30001000  0.40423600  1
  Ni  Ni9  1  0.84797300  0.79994700  0.09577200  1
  Ni  Ni10  1  0.34789900  0.70003600  0.59578300  1
  Ni  Ni11  1  0.15210700  0.20010700  0.90423000  1
  Cu  Cu12  1  0.17167516  0.16318767  0.55263025  1
  Ni  Ni13  1  0.31887600  0.66588400  0.95447400  1
  Ni  Ni14  1  0.81883100  0.83410600  0.45441300  1
  Cu  Cu15  1  0.67428238  0.32506671  0.05701725  1
  Ni  Ni16  1  0.12902500  0.39975300  0.22615600  1
  Cu  Cu17  1  0.36252370  0.90006457  0.27567349  1
  Ni  Ni18  1  0.62909600  0.10019800  0.72614800  1
  Cu  Cu19  1  0.86699163  0.61089176  0.78753578  1
