# generated using pymatgen
data_Cu4NiC5
_symmetry_space_group_name_H-M   'P 1'
_cell_length_a   13.84296200
_cell_length_b   13.84296200
_cell_length_c   4.86188800
_cell_angle_alpha   90.00000000
_cell_angle_beta   90.00000000
_cell_angle_gamma   90.00000000
_symmetry_Int_Tables_number   1
_chemical_formula_structural   Cu4NiC5
_chemical_formula_sum   'Cu32 Ni8 C40'
_cell_volume   931.67191400
_cell_formula_units_Z   8
loop_
 _symmetry_equiv_pos_site_id
 _symmetry_equiv_pos_as_xyz
  1  'x, y, z'
loop_
 _atom_site_type_symbol
 _atom_site_label
 _atom_site_symmetry_multiplicity
 _atom_site_fract_x
 _atom_site_fract_y
 _atom_site_fract_z
 _atom_site_occupancy
  C  C0  1  0.75645900  0.24354100  0.00000000  1
  C  C1  1  0.74354100  0.25645900  0.50000000  1
  C  C2  1  0.24354100  0.24354100  0.00000000  1
  C  C3  1  0.25645900  0.25645900  0.50000000  1
  C  C4  1  0.11023700  0.35882000  0.56819300  1
  C  C5  1  0.88976300  0.35882000  0.56819300  1
  C  C6  1  0.37211500  0.37211500  0.00000000  1
  C  C7  1  0.62788500  0.37211500  0.00000000  1
  C  C8  1  0.85882000  0.38976300  0.06819300  1
  C  C9  1  0.14118000  0.38976300  0.06819300  1
  C  C10  1  0.00000000  0.50000000  0.08926300  1
  C  C11  1  0.50000000  0.50000000  0.50000000  1
  C  C12  1  0.50000000  0.50000000  0.00000000  1
  C  C13  1  0.00000000  0.50000000  0.58926300  1
  C  C14  1  0.85882000  0.61023700  0.06819300  1
  C  C15  1  0.14118000  0.61023700  0.06819300  1
  C  C16  1  0.37211500  0.62788500  0.00000000  1
  C  C17  1  0.62788500  0.62788500  0.00000000  1
  C  C18  1  0.88976300  0.64118000  0.56819300  1
  C  C19  1  0.11023700  0.64118000  0.56819300  1
  C  C20  1  0.24354100  0.75645900  0.00000000  1
  C  C21  1  0.25645900  0.74354100  0.50000000  1
  C  C22  1  0.75645900  0.75645900  0.00000000  1
  C  C23  1  0.74354100  0.74354100  0.50000000  1
  C  C24  1  0.38976300  0.85882000  0.93180700  1
  C  C25  1  0.61023700  0.85882000  0.93180700  1
  C  C26  1  0.87211500  0.87211500  0.50000000  1
  C  C27  1  0.12788500  0.87211500  0.50000000  1
  C  C28  1  0.35882000  0.88976300  0.43180700  1
  C  C29  1  0.64118000  0.88976300  0.43180700  1
  C  C30  1  0.00000000  0.00000000  0.00000000  1
  C  C31  1  0.00000000  0.00000000  0.50000000  1
  C  C32  1  0.50000000  0.00000000  0.91073700  1
  C  C33  1  0.50000000  0.00000000  0.41073700  1
  C  C34  1  0.35882000  0.11023700  0.43180700  1
  C  C35  1  0.64118000  0.11023700  0.43180700  1
  C  C36  1  0.87211500  0.12788500  0.50000000  1
  C  C37  1  0.12788500  0.12788500  0.50000000  1
  C  C38  1  0.38976300  0.14118000  0.93180700  1
  C  C39  1  0.61023700  0.14118000  0.93180700  1
  Ni  Ni40  1  0.50000000  0.27376700  0.45475600  1
  Ni  Ni41  1  0.27376700  0.50000000  0.54524400  1
  Ni  Ni42  1  0.72623300  0.50000000  0.54524400  1
  Ni  Ni43  1  0.50000000  0.72623300  0.45475600  1
  Ni  Ni44  1  0.00000000  0.77376700  0.04524400  1
  Ni  Ni45  1  0.77376700  0.00000000  0.95475600  1
  Ni  Ni46  1  0.22623300  0.00000000  0.95475600  1
  Ni  Ni47  1  0.00000000  0.22623300  0.04524400  1
  Cu  Cu48  1  0.86229400  0.26124700  0.28441500  1
  Cu  Cu49  1  0.13770600  0.26124700  0.28441500  1
  Cu  Cu50  1  0.76124700  0.36229400  0.78441500  1
  Cu  Cu51  1  0.23875300  0.36229400  0.78441500  1
  Cu  Cu52  1  0.00000000  0.38195200  0.83349500  1
  Cu  Cu53  1  0.50000000  0.38812800  0.77863900  1
  Cu  Cu54  1  0.88195200  0.50000000  0.33349500  1
  Cu  Cu55  1  0.38812800  0.50000000  0.22136100  1
  Cu  Cu56  1  0.61187200  0.50000000  0.22136100  1
  Cu  Cu57  1  0.11804800  0.50000000  0.33349500  1
  Cu  Cu58  1  0.50000000  0.61187200  0.77863900  1
  Cu  Cu59  1  0.00000000  0.61804800  0.83349500  1
  Cu  Cu60  1  0.23875300  0.63770600  0.78441500  1
  Cu  Cu61  1  0.76124700  0.63770600  0.78441500  1
  Cu  Cu62  1  0.86229400  0.73875300  0.28441500  1
  Cu  Cu63  1  0.13770600  0.73875300  0.28441500  1
  Cu  Cu64  1  0.36229400  0.76124700  0.21558500  1
  Cu  Cu65  1  0.63770600  0.76124700  0.21558500  1
  Cu  Cu66  1  0.73875300  0.86229400  0.71558500  1
  Cu  Cu67  1  0.26124700  0.86229400  0.71558500  1
  Cu  Cu68  1  0.50000000  0.88195200  0.66650500  1
  Cu  Cu69  1  0.00000000  0.88812800  0.72136100  1
  Cu  Cu70  1  0.88812800  0.00000000  0.27863900  1
  Cu  Cu71  1  0.11187200  0.00000000  0.27863900  1
  Cu  Cu72  1  0.38195200  0.00000000  0.16650500  1
  Cu  Cu73  1  0.61804800  0.00000000  0.16650500  1
  Cu  Cu74  1  0.00000000  0.11187200  0.72136100  1
  Cu  Cu75  1  0.50000000  0.11804800  0.66650500  1
  Cu  Cu76  1  0.73875300  0.13770600  0.71558500  1
  Cu  Cu77  1  0.26124700  0.13770600  0.71558500  1
  Cu  Cu78  1  0.36229400  0.23875300  0.21558500  1
  Cu  Cu79  1  0.63770600  0.23875300  0.21558500  1
