# generated using pymatgen
data_Cu32NiC31
_symmetry_space_group_name_H-M   'P 1'
_cell_length_a   8.60345800
_cell_length_b   8.60345800
_cell_length_c   8.59789200
_cell_angle_alpha   90.00000000
_cell_angle_beta   90.00000000
_cell_angle_gamma   90.00000000
_symmetry_Int_Tables_number   1
_chemical_formula_structural   Cu32NiC31
_chemical_formula_sum   'Cu32 Ni1 C31'
_cell_volume   636.41157711
_cell_formula_units_Z   1
loop_
 _symmetry_equiv_pos_site_id
 _symmetry_equiv_pos_as_xyz
  1  'x, y, z'
loop_
 _atom_site_type_symbol
 _atom_site_label
 _atom_site_symmetry_multiplicity
 _atom_site_fract_x
 _atom_site_fract_y
 _atom_site_fract_z
 _atom_site_occupancy
  C  C0  1  0.50000000  0.00000000  0.00000000  1
  C  C1  1  0.00000000  0.50000000  0.00000000  1
  C  C2  1  0.00000000  0.00000000  0.50000000  1
  C  C3  1  0.50000000  0.00000000  0.50000000  1
  C  C4  1  0.00000000  0.50000000  0.50000000  1
  C  C5  1  0.50000000  0.50000000  0.50000000  1
  C  C6  1  0.24601700  0.24601700  0.00000000  1
  C  C7  1  0.75398300  0.24601700  0.00000000  1
  C  C8  1  0.24601700  0.75398300  0.00000000  1
  C  C9  1  0.75398300  0.75398300  0.00000000  1
  C  C10  1  0.24951300  0.24951300  0.50000000  1
  C  C11  1  0.75048700  0.24951300  0.50000000  1
  C  C12  1  0.24951300  0.75048700  0.50000000  1
  C  C13  1  0.75048700  0.75048700  0.50000000  1
  C  C14  1  0.25000400  0.00000000  0.25070000  1
  C  C15  1  0.74999600  0.00000000  0.25070000  1
  C  C16  1  0.24556000  0.50000000  0.25424800  1
  C  C17  1  0.75444000  0.50000000  0.25424800  1
  C  C18  1  0.25000400  0.00000000  0.74930000  1
  C  C19  1  0.74999600  0.00000000  0.74930000  1
  C  C20  1  0.24556000  0.50000000  0.74575200  1
  C  C21  1  0.75444000  0.50000000  0.74575200  1
  C  C22  1  0.00000000  0.25000400  0.25070000  1
  C  C23  1  0.50000000  0.24556000  0.25424800  1
  C  C24  1  0.00000000  0.74999600  0.25070000  1
  C  C25  1  0.50000000  0.75444000  0.25424800  1
  C  C26  1  0.00000000  0.25000400  0.74930000  1
  C  C27  1  0.50000000  0.24556000  0.74575200  1
  C  C28  1  0.00000000  0.74999600  0.74930000  1
  C  C29  1  0.50000000  0.75444000  0.74575200  1
  Ni  Ni30  1  0.00000000  0.00000000  0.00000000  1
  C  C31  1  0.50000000  0.50000000  0.00000000  1
  Cu  Cu32  1  0.00000000  0.00000000  0.25499100  1
  Cu  Cu33  1  0.50000000  0.00000000  0.25363700  1
  Cu  Cu34  1  0.00000000  0.50000000  0.25363700  1
  Cu  Cu35  1  0.50000000  0.50000000  0.27017800  1
  Cu  Cu36  1  0.00000000  0.00000000  0.74500900  1
  Cu  Cu37  1  0.50000000  0.00000000  0.74636300  1
  Cu  Cu38  1  0.00000000  0.50000000  0.74636300  1
  Cu  Cu39  1  0.50000000  0.50000000  0.72982200  1
  Cu  Cu40  1  0.25020400  0.25020400  0.24935700  1
  Cu  Cu41  1  0.74979600  0.25020400  0.24935700  1
  Cu  Cu42  1  0.25020400  0.74979600  0.24935700  1
  Cu  Cu43  1  0.74979600  0.74979600  0.24935700  1
  Cu  Cu44  1  0.25020400  0.25020400  0.75064300  1
  Cu  Cu45  1  0.74979600  0.25020400  0.75064300  1
  Cu  Cu46  1  0.25020400  0.74979600  0.75064300  1
  Cu  Cu47  1  0.74979600  0.74979600  0.75064300  1
  Cu  Cu48  1  0.25207800  0.00000000  0.00000000  1
  Cu  Cu49  1  0.74792200  0.00000000  0.00000000  1
  Cu  Cu50  1  0.23013500  0.50000000  0.00000000  1
  Cu  Cu51  1  0.76986500  0.50000000  0.00000000  1
  Cu  Cu52  1  0.24927900  0.00000000  0.50000000  1
  Cu  Cu53  1  0.75072100  0.00000000  0.50000000  1
  Cu  Cu54  1  0.24675800  0.50000000  0.50000000  1
  Cu  Cu55  1  0.75324200  0.50000000  0.50000000  1
  Cu  Cu56  1  0.00000000  0.25207800  0.00000000  1
  Cu  Cu57  1  0.50000000  0.23013500  0.00000000  1
  Cu  Cu58  1  0.00000000  0.74792200  0.00000000  1
  Cu  Cu59  1  0.50000000  0.76986500  0.00000000  1
  Cu  Cu60  1  0.00000000  0.24927900  0.50000000  1
  Cu  Cu61  1  0.50000000  0.24675800  0.50000000  1
  Cu  Cu62  1  0.00000000  0.75072100  0.50000000  1
  Cu  Cu63  1  0.50000000  0.75324200  0.50000000  1
