# generated using pymatgen
data_Cu2C7
_symmetry_space_group_name_H-M   'P 1'
_cell_length_a   5.85610084
_cell_length_b   5.85610084
_cell_length_c   5.79490321
_cell_angle_alpha   71.72822170
_cell_angle_beta   108.27177830
_cell_angle_gamma   68.56832746
_symmetry_Int_Tables_number   1
_chemical_formula_structural   Cu2C7
_chemical_formula_sum   'Cu2 C7'
_cell_volume   153.68637900
_cell_formula_units_Z   1
loop_
 _symmetry_equiv_pos_site_id
 _symmetry_equiv_pos_as_xyz
  1  'x, y, z'
loop_
 _atom_site_type_symbol
 _atom_site_label
 _atom_site_symmetry_multiplicity
 _atom_site_fract_x
 _atom_site_fract_y
 _atom_site_fract_z
 _atom_site_occupancy
  C  C0  1  0.35334584  0.35334584  0.75000000  1
  C  C1  1  0.61264503  0.61264503  0.25000000  1
  C  C2  1  0.73111318  0.73111318  0.75000000  1
  Cu  Cu3  1  0.98283126  0.04573614  0.75893583  1
  Cu  Cu4  1  0.01764132  0.01945339  0.30527653  1
  C  C5  1  0.31650800  0.90567730  0.63158684  1
  C  C6  1  0.96043849  0.77888667  0.05351197  1
  C  C7  1  0.90567730  0.31650800  0.86841316  1
  C  C8  1  0.77888667  0.96043849  0.44648803  1
