# generated using pymatgen
data_CuC2
_symmetry_space_group_name_H-M   'P 1'
_cell_length_a   4.03611400
_cell_length_b   8.78967818
_cell_length_c   8.79352052
_cell_angle_alpha   120.11555284
_cell_angle_beta   90.00000000
_cell_angle_gamma   90.00000000
_symmetry_Int_Tables_number   1
_chemical_formula_structural   CuC2
_chemical_formula_sum   'Cu6 C12'
_cell_volume   269.85032575
_cell_formula_units_Z   6
loop_
 _symmetry_equiv_pos_site_id
 _symmetry_equiv_pos_as_xyz
  1  'x, y, z'
loop_
 _atom_site_type_symbol
 _atom_site_label
 _atom_site_symmetry_multiplicity
 _atom_site_fract_x
 _atom_site_fract_y
 _atom_site_fract_z
 _atom_site_occupancy
  C  C0  1  0.00000000  0.33334900  0.66671400  1
  C  C1  1  0.00000000  0.66691900  0.33351600  1
  C  C2  1  0.00000000  0.99977000  0.99977400  1
  Cu  Cu3  1  0.51490735  0.48512184  0.01084910  1
  Cu  Cu4  1  0.48626916  0.50700806  0.49796264  1
  Cu  Cu5  1  0.52214828  0.01682838  0.48996543  1
  Cu  Cu6  1  0.53463017  0.84029904  0.69068483  1
  Cu  Cu7  1  0.51224759  0.26387577  0.13948296  1
  Cu  Cu8  1  0.51773000  0.83811875  0.18083073  1
  C  C9  1  0.00000000  0.32261100  0.98943300  1
  C  C10  1  0.00000000  0.66656300  0.67642100  1
  C  C11  1  0.00000000  0.01000900  0.33336700  1
  C  C12  1  0.00000000  0.66673200  0.98999900  1
  C  C13  1  0.00000000  0.32296800  0.33331500  1
  C  C14  1  0.00000000  0.01044800  0.67705300  1
  C  C15  1  0.50000000  0.16674800  0.33339900  1
  C  C16  1  0.50000000  0.16676000  0.83332400  1
  C  C17  1  0.50000000  0.66682000  0.83345000  1
