# generated using pymatgen
data_Cu22NiC14
_symmetry_space_group_name_H-M   'P 1'
_cell_length_a   4.98659700
_cell_length_b   13.62763300
_cell_length_c   13.98125400
_cell_angle_alpha   90.00000000
_cell_angle_beta   90.00000000
_cell_angle_gamma   90.00000000
_symmetry_Int_Tables_number   1
_chemical_formula_structural   Cu22NiC14
_chemical_formula_sum   'Cu44 Ni2 C28'
_cell_volume   950.10329963
_cell_formula_units_Z   2
loop_
 _symmetry_equiv_pos_site_id
 _symmetry_equiv_pos_as_xyz
  1  'x, y, z'
loop_
 _atom_site_type_symbol
 _atom_site_label
 _atom_site_symmetry_multiplicity
 _atom_site_fract_x
 _atom_site_fract_y
 _atom_site_fract_z
 _atom_site_occupancy
  C  C0  1  0.50000000  0.25735700  0.54148300  1
  C  C1  1  0.50000000  0.21311800  0.73737700  1
  C  C2  1  0.00000000  0.24264300  0.04148300  1
  C  C3  1  0.00000000  0.43025000  0.94067600  1
  C  C4  1  0.00000000  0.71311800  0.76262300  1
  C  C5  1  0.50000000  0.93025000  0.55932400  1
  C  C6  1  0.50000000  0.14892600  0.02603800  1
  C  C7  1  0.50000000  0.57168900  0.17197900  1
  C  C8  1  0.50000000  0.74264300  0.45851700  1
  C  C9  1  0.00000000  0.88727900  0.25770800  1
  C  C10  1  0.50000000  0.51293500  0.57683800  1
  C  C11  1  0.50000000  0.78688200  0.26262300  1
  C  C12  1  0.50000000  0.61272100  0.75770800  1
  C  C13  1  0.50000000  0.48706500  0.42316200  1
  C  C14  1  0.50000000  0.42831100  0.82802100  1
  C  C15  1  0.00000000  0.07168900  0.32802100  1
  C  C16  1  0.00000000  0.35107400  0.52603800  1
  C  C17  1  0.00000000  0.92831100  0.67197900  1
  C  C18  1  0.00000000  0.56975000  0.05932400  1
  C  C19  1  0.00000000  0.11272100  0.74229200  1
  C  C20  1  0.00000000  0.98706500  0.07683800  1
  C  C21  1  0.00000000  0.28688200  0.23737700  1
  C  C22  1  0.00000000  0.01293500  0.92316200  1
  C  C23  1  0.50000000  0.85107400  0.97396200  1
  C  C24  1  0.50000000  0.38727900  0.24229200  1
  C  C25  1  0.50000000  0.06975000  0.44067600  1
  C  C26  1  0.00000000  0.64892600  0.47396200  1
  C  C27  1  0.00000000  0.75735700  0.95851700  1
  Cu  Cu28  1  0.96546760  0.30195557  0.83324901  1
  Cu  Cu29  1  0.76990674  0.10723182  0.60275186  1
  Ni  Ni30  1  0.50000000  0.74588400  0.84750000  1
  Cu  Cu31  1  0.26892119  0.61248949  0.32485237  1
  Cu  Cu32  1  0.49147274  0.99805588  0.09080731  1
  Cu  Cu33  1  0.77049587  0.32128621  0.38981859  1
  Cu  Cu34  1  0.19226597  0.32297258  0.39434961  1
  Cu  Cu35  1  0.96681094  0.74936561  0.35534386  1
  Cu  Cu36  1  0.48707834  0.01985060  0.72554162  1
  Cu  Cu37  1  0.25753493  0.68252690  0.61985563  1
  Cu  Cu38  1  0.96366353  0.17964444  0.44994196  1
  Cu  Cu39  1  0.82858654  0.41279338  0.11827118  1
  Cu  Cu40  1  0.28060803  0.37705391  0.67412223  1
  Cu  Cu41  1  0.74054515  0.84071355  0.10528416  1
  Cu  Cu42  1  0.55471886  0.82138578  0.70563511  1
  Cu  Cu43  1  0.25109119  0.59816159  0.89328294  1
  Cu  Cu44  1  0.81544123  0.60599677  0.89447597  1
  Cu  Cu45  1  0.97921410  0.47603854  0.24815372  1
  Cu  Cu46  1  0.72839787  0.60732325  0.33383482  1
  Cu  Cu47  1  0.71402512  0.39012799  0.66792794  1
  Cu  Cu48  1  0.75183673  0.15167261  0.89580031  1
  Cu  Cu49  1  0.99123320  0.81864081  0.53719570  1
  Cu  Cu50  1  0.56567389  0.17388500  0.31028432  1
  Cu  Cu51  1  0.24593719  0.39676099  0.11570414  1
  Cu  Cu52  1  0.48218261  0.69204129  0.02773472  1
  Cu  Cu53  1  0.28785917  0.13670327  0.86686505  1
  Cu  Cu54  1  0.96938831  0.99695880  0.50174055  1
  Cu  Cu55  1  0.53532652  0.00472257  0.91526458  1
  Cu  Cu56  1  0.76136378  0.65836917  0.62189681  1
  Cu  Cu57  1  0.25463289  0.90172774  0.38647119  1
  Cu  Cu58  1  0.73191486  0.88589089  0.82329245  1
  Cu  Cu59  1  0.04592181  0.67350842  0.18802826  1
  Cu  Cu60  1  0.46823706  0.99037415  0.26144633  1
  Cu  Cu61  1  0.97284156  0.24341127  0.66983352  1
  Cu  Cu62  1  0.26037828  0.84864923  0.11008311  1
  Cu  Cu63  1  0.98326588  0.50832429  0.74407202  1
  Cu  Cu64  1  0.23979015  0.09625647  0.60551766  1
  Cu  Cu65  1  0.77109329  0.10253942  0.16001267  1
  Cu  Cu66  1  0.70677226  0.91524485  0.39629659  1
  Cu  Cu67  1  0.47837323  0.31870241  0.97375448  1
  Cu  Cu68  1  0.50266039  0.51202251  0.99641209  1
  Cu  Cu69  1  0.94551431  0.51923571  0.59019116  1
  Cu  Cu70  1  0.50075884  0.26323988  0.15027633  1
  Cu  Cu71  1  0.19958106  0.89120066  0.83080138  1
  Ni  Ni72  1  0.22718400  0.11150900  0.17151300  1
  Cu  Cu73  1  0.01783204  0.48664171  0.41845716  1
