# generated using pymatgen
data_Cu3NiC
_symmetry_space_group_name_H-M   'P 1'
_cell_length_a   9.41064333
_cell_length_b   9.41064333
_cell_length_c   8.93088200
_cell_angle_alpha   90.00000000
_cell_angle_beta   90.00000000
_cell_angle_gamma   119.99999531
_symmetry_Int_Tables_number   1
_chemical_formula_structural   Cu3NiC
_chemical_formula_sum   'Cu36 Ni12 C12'
_cell_volume   684.95750900
_cell_formula_units_Z   12
loop_
 _symmetry_equiv_pos_site_id
 _symmetry_equiv_pos_as_xyz
  1  'x, y, z'
loop_
 _atom_site_type_symbol
 _atom_site_label
 _atom_site_symmetry_multiplicity
 _atom_site_fract_x
 _atom_site_fract_y
 _atom_site_fract_z
 _atom_site_occupancy
  C  C0  1  0.66666700  0.33333300  0.56051000  1
  C  C1  1  0.33333300  0.66666700  0.43949000  1
  C  C2  1  0.33333300  0.66666700  0.06051000  1
  C  C3  1  0.66666700  0.33333300  0.93949000  1
  Ni  Ni4  1  0.98863000  0.34869300  0.58863100  1
  Ni  Ni5  1  0.65130700  0.63993700  0.91136900  1
  Ni  Ni6  1  0.36006300  0.01137000  0.58863100  1
  Ni  Ni7  1  0.34869300  0.36006300  0.41136900  1
  Ni  Ni8  1  0.34869300  0.36006300  0.08863100  1
  Ni  Ni9  1  0.63993700  0.98863000  0.41136900  1
  Ni  Ni10  1  0.01137000  0.65130700  0.08863100  1
  Ni  Ni11  1  0.36006300  0.01137000  0.91136900  1
  Ni  Ni12  1  0.65130700  0.63993700  0.58863100  1
  Ni  Ni13  1  0.63993700  0.98863000  0.08863100  1
  Ni  Ni14  1  0.98863000  0.34869300  0.91136900  1
  Ni  Ni15  1  0.01137000  0.65130700  0.41136900  1
  C  C16  1  0.36259700  0.02611400  0.25000000  1
  C  C17  1  0.97388600  0.33648300  0.25000000  1
  C  C18  1  0.33648300  0.36259700  0.75000000  1
  C  C19  1  0.02611400  0.66351700  0.75000000  1
  C  C20  1  0.63740300  0.97388600  0.75000000  1
  C  C21  1  0.66351700  0.63740300  0.25000000  1
  C  C22  1  0.00000000  0.00000000  0.00000000  1
  C  C23  1  0.00000000  0.00000000  0.50000000  1
  Cu  Cu24  1  0.44763700  0.86718000  0.25000000  1
  Cu  Cu25  1  0.39344400  0.52275800  0.58693400  1
  Cu  Cu26  1  0.47724200  0.87068600  0.58693400  1
  Cu  Cu27  1  0.87068600  0.39344400  0.41306600  1
  Cu  Cu28  1  0.20495800  0.90077100  0.40883000  1
  Cu  Cu29  1  0.20495800  0.90077100  0.09117000  1
  Cu  Cu30  1  0.90077100  0.69581300  0.90883000  1
  Cu  Cu31  1  0.18774100  0.89415700  0.75000000  1
  Cu  Cu32  1  0.70641600  0.81225900  0.75000000  1
  Cu  Cu33  1  0.79504200  0.09922900  0.59117000  1
  Cu  Cu34  1  0.52275800  0.12931400  0.41306600  1
  Cu  Cu35  1  0.90077100  0.69581300  0.59117000  1
  Cu  Cu36  1  0.09922900  0.30418700  0.09117000  1
  Cu  Cu37  1  0.30418700  0.20495800  0.59117000  1
  Cu  Cu38  1  0.87068600  0.39344400  0.08693400  1
  Cu  Cu39  1  0.81225900  0.10584300  0.25000000  1
  Cu  Cu40  1  0.60655600  0.47724200  0.41306600  1
  Cu  Cu41  1  0.69581300  0.79504200  0.40883000  1
  Cu  Cu42  1  0.12931400  0.60655600  0.58693400  1
  Cu  Cu43  1  0.41954300  0.55236300  0.25000000  1
  Cu  Cu44  1  0.12931400  0.60655600  0.91306600  1
  Cu  Cu45  1  0.86718000  0.41954300  0.75000000  1
  Cu  Cu46  1  0.13282000  0.58045700  0.25000000  1
  Cu  Cu47  1  0.58045700  0.44763700  0.75000000  1
  Cu  Cu48  1  0.30418700  0.20495800  0.90883000  1
  Cu  Cu49  1  0.79504200  0.09922900  0.90883000  1
  Cu  Cu50  1  0.60655600  0.47724200  0.08693400  1
  Cu  Cu51  1  0.55236300  0.13282000  0.75000000  1
  Cu  Cu52  1  0.52275800  0.12931400  0.08693400  1
  Cu  Cu53  1  0.29358400  0.18774100  0.25000000  1
  Cu  Cu54  1  0.09922900  0.30418700  0.40883000  1
  Cu  Cu55  1  0.10584300  0.29358400  0.75000000  1
  Cu  Cu56  1  0.89415700  0.70641600  0.25000000  1
  Cu  Cu57  1  0.47724200  0.87068600  0.91306600  1
  Cu  Cu58  1  0.39344400  0.52275800  0.91306600  1
  Cu  Cu59  1  0.69581300  0.79504200  0.09117000  1
