# generated using pymatgen
data_Cu3C2
_symmetry_space_group_name_H-M   'P 1'
_cell_length_a   7.09219726
_cell_length_b   7.09219726
_cell_length_c   7.09219726
_cell_angle_alpha   109.47122063
_cell_angle_beta   109.47122063
_cell_angle_gamma   109.47122063
_symmetry_Int_Tables_number   1
_chemical_formula_structural   Cu3C2
_chemical_formula_sum   'Cu12 C8'
_cell_volume   274.61264387
_cell_formula_units_Z   4
loop_
 _symmetry_equiv_pos_site_id
 _symmetry_equiv_pos_as_xyz
  1  'x, y, z'
loop_
 _atom_site_type_symbol
 _atom_site_label
 _atom_site_symmetry_multiplicity
 _atom_site_fract_x
 _atom_site_fract_y
 _atom_site_fract_z
 _atom_site_occupancy
  C  C0  1  0.10089800  0.10089800  0.10089800  1
  C  C1  1  0.50000000  0.00000000  0.89910200  1
  C  C2  1  0.89910200  0.50000000  0.00000000  1
  C  C3  1  0.00000000  0.89910200  0.50000000  1
  C  C4  1  0.39910200  0.50000000  0.00000000  1
  C  C5  1  0.00000000  0.39910200  0.50000000  1
  C  C6  1  0.50000000  0.00000000  0.39910200  1
  C  C7  1  0.60089800  0.60089800  0.60089800  1
  Cu  Cu8  1  0.52612438  0.28360425  0.24443204  1
  Cu  Cu9  1  0.23449810  0.70884655  0.46511517  1
  Cu  Cu10  1  0.76187091  0.79141523  0.04724853  1
  Cu  Cu11  1  0.08501898  0.79376468  0.80669515  1
  Cu  Cu12  1  0.50226923  0.32052178  0.73424616  1
  Cu  Cu13  1  0.67670493  0.44415001  0.25301314  1
  Cu  Cu14  1  0.18596416  0.74068913  0.93619927  1
  Cu  Cu15  1  0.74025178  0.93057416  0.19440593  1
  Cu  Cu16  1  0.26317800  0.22497357  0.55414724  1
  Cu  Cu17  1  0.24622900  0.55039052  0.32984875  1
  Cu  Cu18  1  0.97591277  0.21930328  0.76458391  1
  Cu  Cu19  1  0.78739074  0.03693745  0.76007809  1
