# generated using pymatgen
data_Cu5Ni7C10
_symmetry_space_group_name_H-M   'P 1'
_cell_length_a   5.31741795
_cell_length_b   6.20796122
_cell_length_c   8.27951520
_cell_angle_alpha   82.58156586
_cell_angle_beta   76.48894620
_cell_angle_gamma   65.74728392
_symmetry_Int_Tables_number   1
_chemical_formula_structural   Cu5Ni7C10
_chemical_formula_sum   'Cu5 Ni7 C10'
_cell_volume   242.12215489
_cell_formula_units_Z   1
loop_
 _symmetry_equiv_pos_site_id
 _symmetry_equiv_pos_as_xyz
  1  'x, y, z'
loop_
 _atom_site_type_symbol
 _atom_site_label
 _atom_site_symmetry_multiplicity
 _atom_site_fract_x
 _atom_site_fract_y
 _atom_site_fract_z
 _atom_site_occupancy
  C  C0  1  0.96973500  0.46668100  0.83029800  1
  C  C1  1  0.53791100  0.97076700  0.65104200  1
  C  C2  1  0.12595900  0.00131000  0.36169200  1
  C  C3  1  0.31332100  0.38402800  0.14278300  1
  C  C4  1  0.00017700  0.98068300  0.99909400  1
  C  C5  1  0.62804200  0.50165800  0.49621300  1
  C  C6  1  0.39038200  0.59285100  0.79326100  1
  C  C7  1  0.90069100  0.08472200  0.71552300  1
  C  C8  1  0.62668500  0.92770300  0.28346600  1
  C  C9  1  0.77842200  0.39368300  0.20236300  1
  Cu  Cu10  1  0.21933470  0.64937223  0.92424275  1
  Cu  Cu11  1  0.74042045  0.01434576  0.83982573  1
  Ni  Ni12  1  0.63498200  0.60458800  0.73599000  1
  Ni  Ni13  1  0.12042600  0.09952700  0.75160100  1
  Ni  Ni14  1  0.28167600  0.53899900  0.68755800  1
  Ni  Ni15  1  0.83863500  0.13535500  0.56872500  1
  Cu  Cu16  1  0.55684407  0.83006378  0.46632869  1
  Cu  Cu17  1  0.87684736  0.90978460  0.23680137  1
  Ni  Ni18  1  0.95333800  0.40613800  0.28311000  1
  Ni  Ni19  1  0.52284800  0.44387100  0.28336500  1
  Cu  Cu20  1  0.45467055  0.01432665  0.18215554  1
  Ni  Ni21  1  0.85875000  0.33030900  0.04882800  1
