# generated using pymatgen
data_Cu11NiC16
_symmetry_space_group_name_H-M   'P 1'
_cell_length_a   16.14134400
_cell_length_b   5.87639500
_cell_length_c   8.34867215
_cell_angle_alpha   46.12116467
_cell_angle_beta   90.00000000
_cell_angle_gamma   90.00000000
_symmetry_Int_Tables_number   1
_chemical_formula_structural   Cu11NiC16
_chemical_formula_sum   'Cu11 Ni1 C16'
_cell_volume   570.80424840
_cell_formula_units_Z   1
loop_
 _symmetry_equiv_pos_site_id
 _symmetry_equiv_pos_as_xyz
  1  'x, y, z'
loop_
 _atom_site_type_symbol
 _atom_site_label
 _atom_site_symmetry_multiplicity
 _atom_site_fract_x
 _atom_site_fract_y
 _atom_site_fract_z
 _atom_site_occupancy
  Cu  Cu0  1  0.68210638  0.32496536  0.19580112  1
  Cu  Cu1  1  0.43566515  0.72078066  0.07610476  1
  Cu  Cu2  1  0.92128267  0.25738455  0.43791250  1
  Cu  Cu3  1  0.20336157  0.62339919  0.33419150  1
  Cu  Cu4  1  0.69514226  0.80589330  0.23888511  1
  Cu  Cu5  1  0.19023437  0.20977416  0.23338447  1
  Cu  Cu6  1  0.81189636  0.78477517  0.71728212  1
  Ni  Ni7  1  0.31139500  0.20595600  0.76795400  1
  Cu  Cu8  1  0.82411837  0.37110714  0.68494738  1
  Cu  Cu9  1  0.05527425  0.71770290  0.57674548  1
  Cu  Cu10  1  0.58111310  0.25688806  0.91370303  1
  Cu  Cu11  1  0.31673158  0.60625905  0.83811321  1
  C  C12  1  0.91185100  0.13718500  0.08717700  1
  C  C13  1  0.41185100  0.86281500  0.41282300  1
  C  C14  1  0.58814900  0.13718500  0.58717700  1
  C  C15  1  0.08814900  0.86281500  0.91282300  1
  C  C16  1  0.91048800  0.77587400  0.99316000  1
  C  C17  1  0.25383500  0.70682000  0.04167200  1
  C  C18  1  0.41808800  0.25100300  0.97782400  1
  C  C19  1  0.75383500  0.29318000  0.45832800  1
  C  C20  1  0.91808800  0.74899700  0.52217600  1
  C  C21  1  0.41048800  0.22412600  0.50684000  1
  C  C22  1  0.58951200  0.77587400  0.49316000  1
  C  C23  1  0.08191200  0.25100300  0.47782400  1
  C  C24  1  0.24616500  0.70682000  0.54167200  1
  C  C25  1  0.58191200  0.74899700  0.02217600  1
  C  C26  1  0.74616500  0.29318000  0.95832800  1
  C  C27  1  0.08951200  0.22412600  0.00684000  1
