# generated using pymatgen
data_Cu7NiC5
_symmetry_space_group_name_H-M   'P 1'
_cell_length_a   5.48453866
_cell_length_b   5.48453866
_cell_length_c   7.73908300
_cell_angle_alpha   90.00000000
_cell_angle_beta   90.00000000
_cell_angle_gamma   120.00000798
_symmetry_Int_Tables_number   1
_chemical_formula_structural   Cu7NiC5
_chemical_formula_sum   'Cu7 Ni1 C5'
_cell_volume   201.60453897
_cell_formula_units_Z   1
loop_
 _symmetry_equiv_pos_site_id
 _symmetry_equiv_pos_as_xyz
  1  'x, y, z'
loop_
 _atom_site_type_symbol
 _atom_site_label
 _atom_site_symmetry_multiplicity
 _atom_site_fract_x
 _atom_site_fract_y
 _atom_site_fract_z
 _atom_site_occupancy
  C  C0  1  0.00000000  0.00000000  0.00000000  1
  C  C1  1  0.33333300  0.66666700  0.76474800  1
  C  C2  1  0.66666700  0.33333300  0.76474800  1
  C  C3  1  0.33333300  0.66666700  0.23525200  1
  C  C4  1  0.66666700  0.33333300  0.23525200  1
  Cu  Cu5  1  0.31294812  0.30900267  0.70937167  1
  Cu  Cu6  1  0.62489469  0.00419055  0.70688765  1
  Cu  Cu7  1  0.02224787  0.62563001  0.70162787  1
  Cu  Cu8  1  0.66600394  0.66829580  0.27833260  1
  Ni  Ni9  1  0.00000000  0.35977400  0.29283000  1
  Cu  Cu10  1  0.37836047  0.03642621  0.29919803  1
  Cu  Cu11  1  0.34099081  0.68783650  0.01712441  1
  Cu  Cu12  1  0.66379673  0.32282126  0.99414443  1
