# generated using pymatgen
data_Cu11NiC12
_symmetry_space_group_name_H-M   'P 1'
_cell_length_a   9.16653700
_cell_length_b   10.07873400
_cell_length_c   16.03328000
_cell_angle_alpha   90.00000000
_cell_angle_beta   90.00000000
_cell_angle_gamma   90.00000000
_symmetry_Int_Tables_number   1
_chemical_formula_structural   Cu11NiC12
_chemical_formula_sum   'Cu22 Ni2 C24'
_cell_volume   1481.26805228
_cell_formula_units_Z   2
loop_
 _symmetry_equiv_pos_site_id
 _symmetry_equiv_pos_as_xyz
  1  'x, y, z'
loop_
 _atom_site_type_symbol
 _atom_site_label
 _atom_site_symmetry_multiplicity
 _atom_site_fract_x
 _atom_site_fract_y
 _atom_site_fract_z
 _atom_site_occupancy
  Cu  Cu0  1  0.74100415  0.47528605  0.80118459  1
  Cu  Cu1  1  0.23299062  0.97679559  0.68961568  1
  Cu  Cu2  1  0.81806009  0.53882637  0.19313262  1
  Cu  Cu3  1  0.26622234  0.98466114  0.31284312  1
  Cu  Cu4  1  0.28837662  0.49815862  0.17708973  1
  Cu  Cu5  1  0.78961114  0.01169777  0.31754885  1
  Cu  Cu6  1  0.22777317  0.48581087  0.81093276  1
  Cu  Cu7  1  0.72571258  0.02027028  0.69077374  1
  Cu  Cu8  1  0.93498730  0.68222823  0.96811290  1
  Cu  Cu9  1  0.45560169  0.82918475  0.53917292  1
  Cu  Cu10  1  0.57155733  0.70272869  0.02061946  1
  Cu  Cu11  1  0.09023422  0.81721108  0.47556397  1
  Ni  Ni12  1  0.05961100  0.31975700  0.02880300  1
  Cu  Cu13  1  0.57865431  0.17434967  0.47591870  1
  Cu  Cu14  1  0.42477238  0.33151991  0.95564272  1
  Cu  Cu15  1  0.94559870  0.20156328  0.53039543  1
  Cu  Cu16  1  0.75906272  0.68269215  0.61819609  1
  Cu  Cu17  1  0.26118467  0.82281677  0.88256572  1
  Cu  Cu18  1  0.73759632  0.66825405  0.38015892  1
  Cu  Cu19  1  0.25177096  0.84221227  0.11043650  1
  Ni  Ni20  1  0.24202200  0.32953000  0.38666400  1
  Cu  Cu21  1  0.74977087  0.17417277  0.13144467  1
  Cu  Cu22  1  0.25863394  0.31280053  0.62739094  1
  Cu  Cu23  1  0.77342276  0.16863870  0.88034831  1
  C  C24  1  0.75000000  0.92775400  0.50000000  1
  C  C25  1  0.25000000  0.57224600  0.00000000  1
  C  C26  1  0.25000000  0.07224600  0.50000000  1
  C  C27  1  0.75000000  0.42775400  0.00000000  1
  C  C28  1  0.51119900  0.24726100  0.25305500  1
  C  C29  1  0.01119900  0.25273900  0.24694500  1
  C  C30  1  0.98880100  0.24726100  0.74694500  1
  C  C31  1  0.48880100  0.25273900  0.75305500  1
  C  C32  1  0.48880100  0.75273900  0.74694500  1
  C  C33  1  0.98880100  0.74726100  0.75305500  1
  C  C34  1  0.01119900  0.75273900  0.25305500  1
  C  C35  1  0.51119900  0.74726100  0.24694500  1
  C  C36  1  0.30770500  0.14067900  0.13281800  1
  C  C37  1  0.80770500  0.35932100  0.36718200  1
  C  C38  1  0.19229500  0.14067900  0.86718200  1
  C  C39  1  0.69229500  0.35932100  0.63281800  1
  C  C40  1  0.69229500  0.85932100  0.86718200  1
  C  C41  1  0.19229500  0.64067900  0.63281800  1
  C  C42  1  0.80770500  0.85932100  0.13281800  1
  C  C43  1  0.30770500  0.64067900  0.36718200  1
  C  C44  1  0.00000000  0.50000000  0.50000000  1
  C  C45  1  0.50000000  0.00000000  0.00000000  1
  C  C46  1  0.50000000  0.50000000  0.50000000  1
  C  C47  1  0.00000000  0.00000000  0.00000000  1
