# generated using pymatgen
data_Cu11NiC8
_symmetry_space_group_name_H-M   'P 1'
_cell_length_a   5.53427778
_cell_length_b   7.70906586
_cell_length_c   5.59937283
_cell_angle_alpha   90.05883914
_cell_angle_beta   89.97941447
_cell_angle_gamma   89.75898730
_symmetry_Int_Tables_number   1
_chemical_formula_structural   Cu11NiC8
_chemical_formula_sum   'Cu11 Ni1 C8'
_cell_volume   238.89001347
_cell_formula_units_Z   1
loop_
 _symmetry_equiv_pos_site_id
 _symmetry_equiv_pos_as_xyz
  1  'x, y, z'
loop_
 _atom_site_type_symbol
 _atom_site_label
 _atom_site_symmetry_multiplicity
 _atom_site_fract_x
 _atom_site_fract_y
 _atom_site_fract_z
 _atom_site_occupancy
  C  C0  1  0.51296000  0.25043300  0.54027400  1
  C  C1  1  0.01323100  0.75037900  0.95967300  1
  C  C2  1  0.98882200  0.24892100  0.03104500  1
  C  C3  1  0.48903300  0.74915600  0.46911900  1
  C  C4  1  0.49980400  0.99870700  0.99954600  1
  C  C5  1  0.99959100  0.49858600  0.50037500  1
  C  C6  1  0.99898600  0.00035300  0.50024000  1
  C  C7  1  0.49894700  0.50029600  0.99976300  1
  Cu  Cu8  1  0.56690484  0.74949982  0.04866438  1
  Cu  Cu9  1  0.07942704  0.23391634  0.46874172  1
  Cu  Cu10  1  0.26450777  0.96004677  0.21418055  1
  Cu  Cu11  1  0.73182170  0.46264758  0.29001282  1
  Ni  Ni12  1  0.21273700  0.54574400  0.21630100  1
  Cu  Cu13  1  0.70195704  0.02464179  0.28845733  1
  Cu  Cu14  1  0.94435159  0.74545657  0.58617568  1
  Cu  Cu15  1  0.46882432  0.24046866  0.02251285  1
  Cu  Cu16  1  0.27245864  0.53686824  0.70517550  1
  Cu  Cu17  1  0.77131605  0.04037423  0.77945012  1
  Cu  Cu18  1  0.30686554  0.97020093  0.71147939  1
  Cu  Cu19  1  0.79221875  0.43772155  0.76605589  1
