# generated using pymatgen
data_Cu11(NiC5)2
_symmetry_space_group_name_H-M   'P 1'
_cell_length_a   8.59268674
_cell_length_b   8.59268674
_cell_length_c   8.59268674
_cell_angle_alpha   109.47122063
_cell_angle_beta   109.47122063
_cell_angle_gamma   109.47122063
_symmetry_Int_Tables_number   1
_chemical_formula_structural   Cu11(NiC5)2
_chemical_formula_sum   'Cu11 Ni2 C10'
_cell_volume   488.38806935
_cell_formula_units_Z   1
loop_
 _symmetry_equiv_pos_site_id
 _symmetry_equiv_pos_as_xyz
  1  'x, y, z'
loop_
 _atom_site_type_symbol
 _atom_site_label
 _atom_site_symmetry_multiplicity
 _atom_site_fract_x
 _atom_site_fract_y
 _atom_site_fract_z
 _atom_site_occupancy
  C  C0  1  0.00000000  0.30216900  0.30216900  1
  C  C1  1  0.00000000  0.69783100  0.69783100  1
  C  C2  1  0.30216900  0.00000000  0.30216900  1
  C  C3  1  0.69783100  0.69783100  0.00000000  1
  C  C4  1  0.69783100  0.00000000  0.69783100  1
  C  C5  1  0.30216900  0.30216900  0.00000000  1
  C  C6  1  0.00000000  0.00000000  0.50000000  1
  C  C7  1  0.50000000  0.00000000  0.00000000  1
  C  C8  1  0.00000000  0.50000000  0.00000000  1
  C  C9  1  0.50000000  0.50000000  0.50000000  1
  Cu  Cu10  1  0.34353950  0.67909892  0.01379401  1
  Cu  Cu11  1  0.02874858  0.38898994  0.68572383  1
  Cu  Cu12  1  0.65404707  0.01542440  0.34715638  1
  Cu  Cu13  1  0.31870241  0.66715071  0.66205002  1
  Ni  Ni14  1  0.65920100  0.31840100  0.65920100  1
  Cu  Cu15  1  0.67457821  0.36574335  0.34329832  1
  Ni  Ni16  1  0.34079900  0.68159900  0.34079900  1
  Cu  Cu17  1  0.36008478  0.34381056  0.67034549  1
  Cu  Cu18  1  0.01406122  0.67437319  0.35205683  1
  Cu  Cu19  1  0.66084243  0.65944752  0.32969781  1
  Cu  Cu20  1  0.34572134  0.00440407  0.65138877  1
  Cu  Cu21  1  0.97816970  0.97756686  0.98789624  1
  Cu  Cu22  1  0.65141177  0.33886748  0.99278415  1
