# generated using pymatgen
data_Cu3Ni3C4
_symmetry_space_group_name_H-M   'P 1'
_cell_length_a   6.19630000
_cell_length_b   6.74855300
_cell_length_c   9.55926000
_cell_angle_alpha   90.00000000
_cell_angle_beta   90.00000000
_cell_angle_gamma   90.00000000
_symmetry_Int_Tables_number   1
_chemical_formula_structural   Cu3Ni3C4
_chemical_formula_sum   'Cu6 Ni6 C8'
_cell_volume   399.73057972
_cell_formula_units_Z   2
loop_
 _symmetry_equiv_pos_site_id
 _symmetry_equiv_pos_as_xyz
  1  'x, y, z'
loop_
 _atom_site_type_symbol
 _atom_site_label
 _atom_site_symmetry_multiplicity
 _atom_site_fract_x
 _atom_site_fract_y
 _atom_site_fract_z
 _atom_site_occupancy
  C  C0  1  0.54503800  0.39671600  0.99147000  1
  C  C1  1  0.45496200  0.60328400  0.49147000  1
  C  C2  1  0.04503800  0.10328400  0.49147000  1
  C  C3  1  0.95496200  0.89671600  0.99147000  1
  C  C4  1  0.00368000  0.49689500  0.23875000  1
  C  C5  1  0.99632000  0.50310500  0.73875000  1
  C  C6  1  0.50368000  0.00310500  0.73875000  1
  C  C7  1  0.49632000  0.99689500  0.23875000  1
  Cu  Cu8  1  0.82240492  0.17153990  0.83230948  1
  Ni  Ni9  1  0.17188800  0.81686400  0.32635300  1
  Ni  Ni10  1  0.32811200  0.31686400  0.32635300  1
  Cu  Cu11  1  0.66037784  0.67050153  0.82052903  1
  Ni  Ni12  1  0.82565200  0.17848200  0.15848200  1
  Ni  Ni13  1  0.17434800  0.82151800  0.65848200  1
  Ni  Ni14  1  0.32565200  0.32151800  0.65848200  1
  Cu  Cu15  1  0.67203295  0.67560610  0.15720966  1
  Cu  Cu16  1  0.82573651  0.45972466  0.48564307  1
  Cu  Cu17  1  0.15193728  0.54810616  0.00911939  1
  Ni  Ni18  1  0.33922700  0.06102600  0.98994500  1
  Cu  Cu19  1  0.66927103  0.93638932  0.48971948  1
