# generated using pymatgen
data_Cu2C9
_symmetry_space_group_name_H-M   'P 1'
_cell_length_a   5.33270600
_cell_length_b   8.71844600
_cell_length_c   12.76231200
_cell_angle_alpha   90.00000000
_cell_angle_beta   90.00000000
_cell_angle_gamma   90.00000000
_symmetry_Int_Tables_number   1
_chemical_formula_structural   Cu2C9
_chemical_formula_sum   'Cu8 C36'
_cell_volume   593.35701421
_cell_formula_units_Z   4
loop_
 _symmetry_equiv_pos_site_id
 _symmetry_equiv_pos_as_xyz
  1  'x, y, z'
loop_
 _atom_site_type_symbol
 _atom_site_label
 _atom_site_symmetry_multiplicity
 _atom_site_fract_x
 _atom_site_fract_y
 _atom_site_fract_z
 _atom_site_occupancy
  C  C0  1  0.75000000  0.61876200  0.92134400  1
  C  C1  1  0.25000000  0.38123800  0.07865600  1
  C  C2  1  0.75000000  0.11876200  0.57865600  1
  C  C3  1  0.25000000  0.88123800  0.42134400  1
  C  C4  1  0.25000000  0.81300000  0.73621600  1
  C  C5  1  0.75000000  0.18700000  0.26378400  1
  C  C6  1  0.25000000  0.31300000  0.76378400  1
  C  C7  1  0.75000000  0.68700000  0.23621600  1
  Cu  Cu8  1  0.78503266  0.01598595  0.81949471  1
  Cu  Cu9  1  0.23201162  0.97883584  0.19649127  1
  Cu  Cu10  1  0.77404516  0.49799068  0.68251008  1
  Cu  Cu11  1  0.26546644  0.48990589  0.31396426  1
  Cu  Cu12  1  0.25279504  0.71555527  0.05056214  1
  Cu  Cu13  1  0.74666983  0.25136181  0.96465535  1
  Cu  Cu14  1  0.26847238  0.22508909  0.47141398  1
  Cu  Cu15  1  0.72026574  0.77242727  0.51842584  1
  C  C16  1  0.25000000  0.73552700  0.91438700  1
  C  C17  1  0.75000000  0.26447300  0.08561300  1
  C  C18  1  0.25000000  0.23552700  0.58561300  1
  C  C19  1  0.75000000  0.76447300  0.41438700  1
  C  C20  1  0.48686200  0.16310200  0.42057200  1
  C  C21  1  0.98686200  0.83689800  0.57942800  1
  C  C22  1  0.01313800  0.66310200  0.07942800  1
  C  C23  1  0.51313800  0.33689800  0.92057200  1
  C  C24  1  0.51313800  0.83689800  0.57942800  1
  C  C25  1  0.01313800  0.16310200  0.42057200  1
  C  C26  1  0.98686200  0.33689800  0.92057200  1
  C  C27  1  0.48686200  0.66310200  0.07942800  1
  C  C28  1  0.75000000  0.83947200  0.82357600  1
  C  C29  1  0.25000000  0.16052800  0.17642400  1
  C  C30  1  0.75000000  0.33947200  0.67642400  1
  C  C31  1  0.25000000  0.66052800  0.32357600  1
  C  C32  1  0.75000000  0.58138700  0.56424600  1
  C  C33  1  0.25000000  0.41861300  0.43575400  1
  C  C34  1  0.75000000  0.08138700  0.93575400  1
  C  C35  1  0.25000000  0.91861300  0.06424600  1
  C  C36  1  0.49304800  0.93108900  0.23557400  1
  C  C37  1  0.99304800  0.06891100  0.76442600  1
  C  C38  1  0.00695200  0.43108900  0.26442600  1
  C  C39  1  0.50695200  0.56891100  0.73557400  1
  C  C40  1  0.50695200  0.06891100  0.76442600  1
  C  C41  1  0.00695200  0.93108900  0.23557400  1
  C  C42  1  0.99304800  0.56891100  0.73557400  1
  C  C43  1  0.49304800  0.43108900  0.26442600  1
