# generated using pymatgen
data_Cu7NiC8
_symmetry_space_group_name_H-M   'P 1'
_cell_length_a   5.13535000
_cell_length_b   9.77765984
_cell_length_c   14.22722500
_cell_angle_alpha   90.00000000
_cell_angle_beta   90.00000000
_cell_angle_gamma   105.22476669
_symmetry_Int_Tables_number   1
_chemical_formula_structural   Cu7NiC8
_chemical_formula_sum   'Cu21 Ni3 C24'
_cell_volume   689.30092413
_cell_formula_units_Z   3
loop_
 _symmetry_equiv_pos_site_id
 _symmetry_equiv_pos_as_xyz
  1  'x, y, z'
loop_
 _atom_site_type_symbol
 _atom_site_label
 _atom_site_symmetry_multiplicity
 _atom_site_fract_x
 _atom_site_fract_y
 _atom_site_fract_z
 _atom_site_occupancy
  C  C0  1  0.20236500  0.40472900  0.81726900  1
  C  C1  1  0.79763500  0.59527100  0.18273100  1
  C  C2  1  0.29763500  0.59527100  0.31726900  1
  C  C3  1  0.70236500  0.40472900  0.68273100  1
  C  C4  1  0.46501700  0.93003300  0.82480000  1
  C  C5  1  0.53498300  0.06996700  0.17520000  1
  C  C6  1  0.03498300  0.06996700  0.32480000  1
  C  C7  1  0.96501700  0.93003300  0.67520000  1
  C  C8  1  0.12378500  0.24756900  0.58236800  1
  C  C9  1  0.87621600  0.75243100  0.41763200  1
  C  C10  1  0.37621500  0.75243100  0.08236800  1
  C  C11  1  0.62378400  0.24756900  0.91763200  1
  C  C12  1  0.00000000  0.50000000  0.50000000  1
  C  C13  1  0.50000000  0.50000000  0.50000000  1
  C  C14  1  0.00000000  0.50000000  0.00000000  1
  C  C15  1  0.50000000  0.50000000  0.00000000  1
  C  C16  1  0.08759500  0.67519000  0.75000000  1
  C  C17  1  0.41240500  0.32481000  0.25000000  1
  C  C18  1  0.91240500  0.32481000  0.25000000  1
  C  C19  1  0.58759500  0.67519000  0.75000000  1
  C  C20  1  0.04026700  0.08053300  0.87689300  1
  C  C21  1  0.95973300  0.91946700  0.12310700  1
  C  C22  1  0.45973300  0.91946700  0.37689300  1
  C  C23  1  0.54026700  0.08053300  0.62310700  1
  Cu  Cu24  1  0.27905277  0.00343386  0.49104008  1
  Cu  Cu25  1  0.76353359  0.99218606  0.00604917  1
  Cu  Cu26  1  0.71671113  0.00392510  0.48885668  1
  Cu  Cu27  1  0.24904869  0.99850083  0.02025383  1
  Cu  Cu28  1  0.83434914  0.18884507  0.75644532  1
  Cu  Cu29  1  0.64794741  0.84579741  0.23916366  1
  Cu  Cu30  1  0.19708180  0.82235218  0.25204548  1
  Cu  Cu31  1  0.31613301  0.17725421  0.75909211  1
  Cu  Cu32  1  0.34508058  0.66571900  0.90455122  1
  Cu  Cu33  1  0.64747196  0.32112720  0.11701333  1
  Ni  Ni34  1  0.16867600  0.33735100  0.39721800  1
  Ni  Ni35  1  0.83132400  0.66264900  0.60278200  1
  Cu  Cu36  1  0.41081899  0.82991085  0.64679117  1
  Cu  Cu37  1  0.58707645  0.17526876  0.36211830  1
  Cu  Cu38  1  0.03037717  0.16221912  0.14281538  1
  Cu  Cu39  1  0.93337570  0.82920456  0.84678333  1
  Cu  Cu40  1  0.25928019  0.53083739  0.65703599  1
  Cu  Cu41  1  0.70727292  0.46857854  0.35677494  1
  Ni  Ni42  1  0.23504000  0.47007900  0.14336100  1
  Cu  Cu43  1  0.72991725  0.54795761  0.86826297  1
  Cu  Cu44  1  0.34131446  0.70755447  0.48570410  1
  Cu  Cu45  1  0.60712270  0.26390519  0.49567397  1
  Cu  Cu46  1  0.14108341  0.28438862  0.00230126  1
  Cu  Cu47  1  0.85724887  0.70890764  0.00014491  1
