# generated using pymatgen
data_Cu7NiC6
_symmetry_space_group_name_H-M   'P 1'
_cell_length_a   8.04241333
_cell_length_b   8.04241333
_cell_length_c   8.04241333
_cell_angle_alpha   60.00000000
_cell_angle_beta   60.00000000
_cell_angle_gamma   60.00000000
_symmetry_Int_Tables_number   1
_chemical_formula_structural   Cu7NiC6
_chemical_formula_sum   'Cu7 Ni1 C6'
_cell_volume   367.82747819
_cell_formula_units_Z   1
loop_
 _symmetry_equiv_pos_site_id
 _symmetry_equiv_pos_as_xyz
  1  'x, y, z'
loop_
 _atom_site_type_symbol
 _atom_site_label
 _atom_site_symmetry_multiplicity
 _atom_site_fract_x
 _atom_site_fract_y
 _atom_site_fract_z
 _atom_site_occupancy
  C  C0  1  0.12500000  0.62500000  0.62500000  1
  C  C1  1  0.62500000  0.12500000  0.62500000  1
  C  C2  1  0.62500000  0.62500000  0.12500000  1
  C  C3  1  0.62500000  0.62500000  0.62500000  1
  C  C4  1  0.25000000  0.25000000  0.25000000  1
  C  C5  1  0.00000000  0.00000000  0.00000000  1
  Cu  Cu6  1  0.84784702  0.38368568  0.39052362  1
  Cu  Cu7  1  0.37620257  0.84260903  0.38360191  1
  Cu  Cu8  1  0.38832719  0.38537197  0.84302358  1
  Cu  Cu9  1  0.37172069  0.38204170  0.37361632  1
  Cu  Cu10  1  0.42519474  0.86965543  0.84072505  1
  Cu  Cu11  1  0.87382300  0.38201063  0.86917472  1
  Cu  Cu12  1  0.87626534  0.88543119  0.38721273  1
  Ni  Ni13  1  0.86468300  0.86468300  0.86468300  1
