# generated using pymatgen
data_CuC9
_symmetry_space_group_name_H-M   'P 1'
_cell_length_a   5.95516734
_cell_length_b   5.95516734
_cell_length_c   8.62647769
_cell_angle_alpha   90.00000000
_cell_angle_beta   90.00000000
_cell_angle_gamma   89.48502899
_symmetry_Int_Tables_number   1
_chemical_formula_structural   CuC9
_chemical_formula_sum   'Cu2 C18'
_cell_volume   305.91720394
_cell_formula_units_Z   2
loop_
 _symmetry_equiv_pos_site_id
 _symmetry_equiv_pos_as_xyz
  1  'x, y, z'
loop_
 _atom_site_type_symbol
 _atom_site_label
 _atom_site_symmetry_multiplicity
 _atom_site_fract_x
 _atom_site_fract_y
 _atom_site_fract_z
 _atom_site_occupancy
  Cu  Cu0  1  0.96964505  0.03724822  0.25201232  1
  Cu  Cu1  1  0.97578934  0.01167567  0.71264616  1
  C  C2  1  0.50000000  0.50000000  0.25000000  1
  C  C3  1  0.50000000  0.50000000  0.75000000  1
  C  C4  1  0.00000000  0.50000000  -0.00000000  1
  C  C5  1  0.50000000  -0.00000000  0.50000000  1
  C  C6  1  0.00000000  0.50000000  0.50000000  1
  C  C7  1  0.50000000  -0.00000000  -0.00000000  1
  C  C8  1  0.00000000  0.50000000  0.26733581  1
  C  C9  1  0.50000000  -0.00000000  0.23266419  1
  C  C10  1  0.00000000  0.50000000  0.73266419  1
  C  C11  1  0.50000000  -0.00000000  0.76733581  1
  C  C12  1  0.35199707  0.69434121  -0.00000000  1
  C  C13  1  0.64800293  0.30565879  -0.00000000  1
  C  C14  1  0.80234611  0.84697792  -0.00000000  1
  C  C15  1  0.19765389  0.15302208  -0.00000000  1
  C  C16  1  0.84697792  0.80234611  0.50000000  1
  C  C17  1  0.15302208  0.19765389  0.50000000  1
  C  C18  1  0.30565879  0.64800293  0.50000000  1
  C  C19  1  0.69434121  0.35199707  0.50000000  1
