# generated using pymatgen
data_Cu13NiC32
_symmetry_space_group_name_H-M   'P 1'
_cell_length_a   6.99857397
_cell_length_b   6.99857397
_cell_length_c   19.91810588
_cell_angle_alpha   94.12219441
_cell_angle_beta   96.86742882
_cell_angle_gamma   117.07207273
_symmetry_Int_Tables_number   1
_chemical_formula_structural   Cu13NiC32
_chemical_formula_sum   'Cu26 Ni2 C64'
_cell_volume   853.61886885
_cell_formula_units_Z   2
loop_
 _symmetry_equiv_pos_site_id
 _symmetry_equiv_pos_as_xyz
  1  'x, y, z'
loop_
 _atom_site_type_symbol
 _atom_site_label
 _atom_site_symmetry_multiplicity
 _atom_site_fract_x
 _atom_site_fract_y
 _atom_site_fract_z
 _atom_site_occupancy
  C  C0  1  0.00000000  0.00000000  0.00000000  1
  C  C1  1  0.50000000  0.00000000  0.50000000  1
  C  C2  1  0.82513500  0.07513500  0.75000000  1
  C  C3  1  0.17486500  0.92486500  0.25000000  1
  C  C4  1  0.00109200  0.28994900  0.63051700  1
  C  C5  1  0.15943200  0.37057500  0.86948300  1
  C  C6  1  0.99890800  0.71005100  0.36948300  1
  C  C7  1  0.84056800  0.62942500  0.13051700  1
  C  C8  1  0.34516900  0.64196200  0.40096200  1
  C  C9  1  0.74100000  0.94420700  0.09903800  1
  C  C10  1  0.65483100  0.35803800  0.59903800  1
  C  C11  1  0.25900000  0.05579300  0.90096200  1
  C  C12  1  0.57959000  0.65552200  0.41476800  1
  C  C13  1  0.74075300  0.16482100  0.08523200  1
  C  C14  1  0.42041000  0.34447800  0.58523200  1
  C  C15  1  0.25924700  0.83517900  0.91476800  1
  C  C16  1  0.66931900  0.31942400  0.39679500  1
  C  C17  1  0.42262900  0.27252300  0.10320500  1
  C  C18  1  0.33068100  0.68057600  0.60320500  1
  C  C19  1  0.57737100  0.72747700  0.89679500  1
  C  C20  1  0.21800500  0.17587600  0.13814500  1
  C  C21  1  0.53773100  0.07986000  0.36185500  1
  C  C22  1  0.78199500  0.82412400  0.86185500  1
  C  C23  1  0.46226900  0.92014000  0.63814500  1
  C  C24  1  0.58003900  0.58677900  0.29822800  1
  C  C25  1  0.78855100  0.28181100  0.20177200  1
  C  C26  1  0.41996100  0.41322100  0.70177200  1
  C  C27  1  0.21144900  0.71818900  0.79822800  1
  C  C28  1  0.35512700  0.41087300  0.24207700  1
  C  C29  1  0.66879600  0.11305000  0.25792300  1
  C  C30  1  0.64487300  0.58912700  0.75792300  1
  C  C31  1  0.33120400  0.88695000  0.74207700  1
  C  C32  1  0.55682300  0.62745600  0.21423300  1
  C  C33  1  0.91322300  0.34259000  0.28576700  1
  C  C34  1  0.44317700  0.37254400  0.78576700  1
  C  C35  1  0.08677700  0.65741000  0.71423300  1
  C  C36  1  0.40014600  0.67184900  0.26507600  1
  C  C37  1  0.90677400  0.13507000  0.23492400  1
  C  C38  1  0.59985400  0.32815100  0.73492400  1
  C  C39  1  0.09322600  0.86493000  0.76507600  1
  C  C40  1  0.77998600  0.46798500  0.00241200  1
  C  C41  1  0.96557200  0.77757400  0.49758800  1
  C  C42  1  0.22001400  0.53201500  0.99758800  1
  C  C43  1  0.03442800  0.22242600  0.50241200  1
  C  C44  1  0.16803600  0.67983100  0.05711900  1
  C  C45  1  0.12271200  0.11091700  0.44288100  1
  C  C46  1  0.83196400  0.32016900  0.94288100  1
  C  C47  1  0.87728800  0.88908300  0.55711900  1
  C  C48  1  0.24697700  0.38919500  0.46241400  1
  C  C49  1  0.42678100  0.78456300  0.03758600  1
  C  C50  1  0.75302300  0.61080500  0.53758600  1
  C  C51  1  0.57321900  0.21543700  0.96241400  1
  C  C52  1  0.33269800  0.56571300  0.07908700  1
  C  C53  1  0.98662600  0.25361100  0.42091300  1
  C  C54  1  0.66730200  0.43428700  0.92091300  1
  C  C55  1  0.01337400  0.74638900  0.57908700  1
  C  C56  1  0.47085300  0.57318100  0.25471300  1
  C  C57  1  0.81846800  0.21614000  0.24528700  1
  C  C58  1  0.52914700  0.42681900  0.74528700  1
  C  C59  1  0.18153200  0.78386000  0.75471300  1
  C  C60  1  0.28999300  0.64381400  0.04291800  1
  C  C61  1  0.10089500  0.24707500  0.45708200  1
  C  C62  1  0.71000700  0.35618600  0.95708200  1
  C  C63  1  0.89910500  0.75292500  0.54291800  1
  Cu  Cu64  1  0.06660559  0.71227948  0.18545208  1
  Cu  Cu65  1  0.01110032  0.89584840  0.30970314  1
  Cu  Cu66  1  0.94253922  0.30231468  0.82072102  1
  Cu  Cu67  1  0.95066365  0.13563790  0.68853655  1
  Cu  Cu68  1  0.40587287  0.92367075  0.28383494  1
  Cu  Cu69  1  0.16931915  0.09147040  0.21745350  1
  Cu  Cu70  1  0.58732408  0.02684079  0.72529019  1
  Cu  Cu71  1  0.79231571  0.83547278  0.77806779  1
  Cu  Cu72  1  0.92153328  0.69561225  0.07830446  1
  Cu  Cu73  1  0.12597535  0.90846947  0.44515059  1
  Ni  Ni74  1  0.06677000  0.31120400  0.93530100  1
  Cu  Cu75  1  0.86653075  0.14335232  0.55728636  1
  Cu  Cu76  1  0.71537238  0.36543132  0.12707175  1
  Cu  Cu77  1  0.75010689  0.61596441  0.37152692  1
  Cu  Cu78  1  0.26928068  0.61450606  0.87814334  1
  Cu  Cu79  1  0.25265137  0.43610338  0.63079533  1
  Ni  Ni80  1  0.09205400  0.55867100  0.35003600  1
  Cu  Cu81  1  0.69891110  0.76912750  0.14768683  1
  Cu  Cu82  1  0.91289688  0.45506429  0.65161653  1
  Cu  Cu83  1  0.29748156  0.27564391  0.85174977  1
  Cu  Cu84  1  0.44383741  0.67930284  0.43138812  1
  Cu  Cu85  1  0.70166160  0.05138810  0.06379603  1
  Cu  Cu86  1  0.51599468  0.31633763  0.55906351  1
  Cu  Cu87  1  0.25841081  0.98541493  0.93162387  1
  Cu  Cu88  1  0.29564285  0.22884248  0.11225104  1
  Cu  Cu89  1  0.64895192  0.18662369  0.40550901  1
  Cu  Cu90  1  0.73672934  0.79769375  0.90263400  1
  Cu  Cu91  1  0.35326122  0.82203941  0.58841424  1
