# generated using pymatgen
data_Cu15Ni9C128
_symmetry_space_group_name_H-M   'P 1'
_cell_length_a   7.09329700
_cell_length_b   14.23591800
_cell_length_c   21.89281600
_cell_angle_alpha   90.00000000
_cell_angle_beta   90.00000000
_cell_angle_gamma   90.00000000
_symmetry_Int_Tables_number   1
_chemical_formula_structural   Cu15Ni9C128
_chemical_formula_sum   'Cu15 Ni9 C128'
_cell_volume   2210.72768087
_cell_formula_units_Z   1
loop_
 _symmetry_equiv_pos_site_id
 _symmetry_equiv_pos_as_xyz
  1  'x, y, z'
loop_
 _atom_site_type_symbol
 _atom_site_label
 _atom_site_symmetry_multiplicity
 _atom_site_fract_x
 _atom_site_fract_y
 _atom_site_fract_z
 _atom_site_occupancy
  C  C0  1  0.78520600  0.49494900  0.16563200  1
  C  C1  1  0.28520600  0.50505100  0.33436800  1
  C  C2  1  0.21479400  0.00505100  0.66563200  1
  C  C3  1  0.71479400  0.99494900  0.83436800  1
  C  C4  1  0.21479400  0.50505100  0.83436800  1
  C  C5  1  0.71479400  0.49494900  0.66563200  1
  C  C6  1  0.78520600  0.99494900  0.33436800  1
  C  C7  1  0.28520600  0.00505100  0.16563200  1
  Cu  Cu8  1  0.98245240  0.38140134  0.08641100  1
  Ni  Ni9  1  0.46391500  0.62071000  0.41881500  1
  Ni  Ni10  1  0.03608500  0.12071000  0.58118500  1
  Cu  Cu11  1  0.49868720  0.90326505  0.91757264  1
  Cu  Cu12  1  0.02241573  0.62342088  0.91600241  1
  Ni  Ni13  1  0.53608500  0.37929000  0.58118500  1
  Cu  Cu14  1  0.96343639  0.88859635  0.41261755  1
  Cu  Cu15  1  0.47582453  0.11449014  0.08313679  1
  Ni  Ni16  1  0.61673500  0.13076900  0.40847200  1
  Ni  Ni17  1  0.11673500  0.86923100  0.09152800  1
  Cu  Cu18  1  0.39349956  0.35446062  0.90489068  1
  Ni  Ni19  1  0.88326500  0.63076900  0.59152800  1
  Cu  Cu20  1  0.37187054  0.87719132  0.59120778  1
  Cu  Cu21  1  0.85062618  0.12580444  0.92003712  1
  Ni  Ni22  1  0.61673500  0.63076900  0.09152800  1
  Ni  Ni23  1  0.11673500  0.36923100  0.40847200  1
  Cu  Cu24  1  0.99578391  0.58383138  0.25765696  1
  Cu  Cu25  1  0.51853867  0.41830146  0.24322946  1
  Cu  Cu26  1  0.98846517  0.92027854  0.75983952  1
  Ni  Ni27  1  0.48501600  0.08790200  0.74001400  1
  Cu  Cu28  1  0.97465845  0.41417496  0.73557198  1
  Cu  Cu29  1  0.50180759  0.59513774  0.76835841  1
  Cu  Cu30  1  0.01556191  0.08638515  0.23499460  1
  Cu  Cu31  1  0.50634587  0.91923192  0.25214236  1
  C  C32  1  0.65111500  0.37255800  0.42347000  1
  C  C33  1  0.15111500  0.62744200  0.07653000  1
  C  C34  1  0.34888500  0.12744200  0.92347000  1
  C  C35  1  0.84888500  0.87255800  0.57653000  1
  C  C36  1  0.34888500  0.62744200  0.57653000  1
  C  C37  1  0.84888500  0.37255800  0.92347000  1
  C  C38  1  0.65111500  0.87255800  0.07653000  1
  C  C39  1  0.15111500  0.12744200  0.42347000  1
  C  C40  1  0.42071900  0.36257200  0.05761600  1
  C  C41  1  0.92071900  0.63742800  0.44238400  1
  C  C42  1  0.57928100  0.13742800  0.55761600  1
  C  C43  1  0.07928100  0.86257200  0.94238400  1
  C  C44  1  0.57928100  0.63742800  0.94238400  1
  C  C45  1  0.07928100  0.36257200  0.55761600  1
  C  C46  1  0.42071900  0.86257200  0.44238400  1
  C  C47  1  0.92071900  0.13742800  0.05761600  1
  C  C48  1  0.00873500  0.31822500  0.24630500  1
  C  C49  1  0.50873500  0.68177500  0.25369500  1
  C  C50  1  0.99126500  0.18177500  0.74630500  1
  C  C51  1  0.49126500  0.81822500  0.75369500  1
  C  C52  1  0.99126500  0.68177500  0.75369500  1
  C  C53  1  0.49126500  0.31822500  0.74630500  1
  C  C54  1  0.00873500  0.81822500  0.25369500  1
  C  C55  1  0.50873500  0.18177500  0.24630500  1
  C  C56  1  0.11271600  0.45621100  0.06838600  1
  C  C57  1  0.61271600  0.54378900  0.43161400  1
  C  C58  1  0.88728400  0.04378900  0.56838600  1
  C  C59  1  0.38728400  0.95621100  0.93161400  1
  C  C60  1  0.88728400  0.54378900  0.93161400  1
  C  C61  1  0.38728400  0.45621100  0.56838600  1
  C  C62  1  0.11271600  0.95621100  0.43161400  1
  C  C63  1  0.61271600  0.04378900  0.06838600  1
  C  C64  1  0.81480900  0.36949700  0.03052600  1
  C  C65  1  0.31480900  0.63050300  0.46947400  1
  C  C66  1  0.18519100  0.13050300  0.53052600  1
  C  C67  1  0.68519100  0.86949700  0.96947400  1
  C  C68  1  0.18519100  0.63050300  0.96947400  1
  C  C69  1  0.68519100  0.36949700  0.53052600  1
  C  C70  1  0.81480900  0.86949700  0.46947400  1
  C  C71  1  0.31480900  0.13050300  0.03052600  1
  C  C72  1  0.06972400  0.28695800  0.09528600  1
  C  C73  1  0.56972400  0.71304200  0.40471400  1
  C  C74  1  0.93027600  0.21304200  0.59528600  1
  C  C75  1  0.43027600  0.78695800  0.90471400  1
  C  C76  1  0.93027600  0.71304200  0.90471400  1
  C  C77  1  0.43027600  0.28695800  0.59528600  1
  C  C78  1  0.06972400  0.78695800  0.40471400  1
  C  C79  1  0.56972400  0.21304200  0.09528600  1
  C  C80  1  0.84807100  0.40380500  0.14187500  1
  C  C81  1  0.34807100  0.59619500  0.35812500  1
  C  C82  1  0.15192900  0.09619500  0.64187500  1
  C  C83  1  0.65192900  0.90380500  0.85812500  1
  C  C84  1  0.15192900  0.59619500  0.85812500  1
  C  C85  1  0.65192900  0.40380500  0.64187500  1
  C  C86  1  0.84807100  0.90380500  0.35812500  1
  C  C87  1  0.34807100  0.09619500  0.14187500  1
  C  C88  1  0.52475200  0.19155900  0.35872400  1
  C  C89  1  0.02475200  0.80844100  0.14127600  1
  C  C90  1  0.47524800  0.30844100  0.85872400  1
  C  C91  1  0.97524800  0.69155900  0.64127600  1
  C  C92  1  0.47524800  0.80844100  0.64127600  1
  C  C93  1  0.97524800  0.19155900  0.85872400  1
  C  C94  1  0.52475200  0.69155900  0.14127600  1
  C  C95  1  0.02475200  0.30844100  0.35872400  1
  C  C96  1  0.78497900  0.06966300  0.38022200  1
  C  C97  1  0.28497900  0.93033700  0.11977800  1
  C  C98  1  0.21502100  0.43033700  0.88022200  1
  C  C99  1  0.71502100  0.56966300  0.61977800  1
  C  C100  1  0.21502100  0.93033700  0.61977800  1
  C  C101  1  0.71502100  0.06966300  0.88022200  1
  C  C102  1  0.78497900  0.56966300  0.11977800  1
  C  C103  1  0.28497900  0.43033700  0.38022200  1
  C  C104  1  0.71228100  0.19212000  0.45837800  1
  C  C105  1  0.21228100  0.80788000  0.04162200  1
  C  C106  1  0.28771900  0.30788000  0.95837800  1
  C  C107  1  0.78771900  0.69212000  0.54162200  1
  C  C108  1  0.28771900  0.80788000  0.54162200  1
  C  C109  1  0.78771900  0.19212000  0.95837800  1
  C  C110  1  0.71228100  0.69212000  0.04162200  1
  C  C111  1  0.21228100  0.30788000  0.45837800  1
  C  C112  1  0.47129500  0.06517200  0.43954800  1
  C  C113  1  0.97129500  0.93482800  0.06045200  1
  C  C114  1  0.52870500  0.43482800  0.93954800  1
  C  C115  1  0.02870500  0.56517200  0.56045200  1
  C  C116  1  0.52870500  0.93482800  0.56045200  1
  C  C117  1  0.02870500  0.06517200  0.93954800  1
  C  C118  1  0.47129500  0.56517200  0.06045200  1
  C  C119  1  0.97129500  0.43482800  0.43954800  1
  C  C120  1  0.17327400  0.64536000  0.23026300  1
  C  C121  1  0.67327400  0.35464000  0.26973700  1
  C  C122  1  0.82672600  0.85464000  0.73026300  1
  C  C123  1  0.32672600  0.14536000  0.76973700  1
  C  C124  1  0.82672600  0.35464000  0.76973700  1
  C  C125  1  0.32672600  0.64536000  0.73026300  1
  C  C126  1  0.17327400  0.14536000  0.26973700  1
  C  C127  1  0.67327400  0.85464000  0.23026300  1
  C  C128  1  0.09249200  0.51630200  0.30937300  1
  C  C129  1  0.59249200  0.48369800  0.19062700  1
  C  C130  1  0.90750800  0.98369800  0.80937300  1
  C  C131  1  0.40750800  0.01630200  0.69062700  1
  C  C132  1  0.90750800  0.48369800  0.69062700  1
  C  C133  1  0.40750800  0.51630200  0.80937300  1
  C  C134  1  0.09249200  0.01630200  0.19062700  1
  C  C135  1  0.59249200  0.98369800  0.30937300  1
  C  C136  1  0.86720800  0.65442400  0.28729300  1
  C  C137  1  0.36720800  0.34557600  0.21270700  1
  C  C138  1  0.13279200  0.84557600  0.78729300  1
  C  C139  1  0.63279200  0.15442400  0.71270700  1
  C  C140  1  0.13279200  0.34557600  0.71270700  1
  C  C141  1  0.63279200  0.65442400  0.78729300  1
  C  C142  1  0.86720800  0.15442400  0.21270700  1
  C  C143  1  0.36720800  0.84557600  0.28729300  1
  C  C144  1  0.92576800  0.51625200  0.21417500  1
  C  C145  1  0.42576800  0.48374800  0.28582500  1
  C  C146  1  0.07423200  0.98374800  0.71417500  1
  C  C147  1  0.57423200  0.01625200  0.78582500  1
  C  C148  1  0.07423200  0.48374800  0.78582500  1
  C  C149  1  0.57423200  0.51625200  0.71417500  1
  C  C150  1  0.92576800  0.01625200  0.28582500  1
  C  C151  1  0.42576800  0.98374800  0.21417500  1
