# generated using pymatgen
data_Cu17Ni3C20
_symmetry_space_group_name_H-M   'P 1'
_cell_length_a   13.84296200
_cell_length_b   13.84296200
_cell_length_c   4.86188800
_cell_angle_alpha   90.00000000
_cell_angle_beta   90.00000000
_cell_angle_gamma   90.00000000
_symmetry_Int_Tables_number   1
_chemical_formula_structural   Cu17Ni3C20
_chemical_formula_sum   'Cu34 Ni6 C40'
_cell_volume   931.67191400
_cell_formula_units_Z   2
loop_
 _symmetry_equiv_pos_site_id
 _symmetry_equiv_pos_as_xyz
  1  'x, y, z'
loop_
 _atom_site_type_symbol
 _atom_site_label
 _atom_site_symmetry_multiplicity
 _atom_site_fract_x
 _atom_site_fract_y
 _atom_site_fract_z
 _atom_site_occupancy
  Ni  Ni0  1  0.75645900  0.24354100  0.00000000  1
  Cu  Cu1  1  0.73816736  0.24475261  0.51288548  1
  Cu  Cu2  1  0.25119659  0.24377014  0.01161249  1
  Ni  Ni3  1  0.25645900  0.25645900  0.50000000  1
  Cu  Cu4  1  0.11252828  0.35959753  0.51417497  1
  Ni  Ni5  1  0.88976300  0.35882000  0.56819300  1
  Cu  Cu6  1  0.35786224  0.36596329  0.98007134  1
  Cu  Cu7  1  0.64002153  0.37164798  0.01430456  1
  Cu  Cu8  1  0.85889460  0.38138341  0.05140644  1
  Ni  Ni9  1  0.14118000  0.38976300  0.06819300  1
  Cu  Cu10  1  0.00423783  0.51109860  0.08935096  1
  Cu  Cu11  1  0.49810604  0.49225666  0.49592612  1
  Ni  Ni12  1  0.50000000  0.50000000  0.00000000  1
  Cu  Cu13  1  0.99464096  0.49892492  0.57453683  1
  Cu  Cu14  1  0.86057789  0.60644955  0.09122402  1
  Cu  Cu15  1  0.14548271  0.60137979  0.12876568  1
  Cu  Cu16  1  0.36873161  0.64633199  0.97644246  1
  Ni  Ni17  1  0.62788500  0.62788500  0.00000000  1
  Cu  Cu18  1  0.88307666  0.64846117  0.58485492  1
  Cu  Cu19  1  0.10595308  0.63271024  0.57447705  1
  Cu  Cu20  1  0.25463902  0.75115837  0.97995472  1
  Cu  Cu21  1  0.24715753  0.75367449  0.53647160  1
  Cu  Cu22  1  0.75368378  0.75955329  0.02327827  1
  Cu  Cu23  1  0.73086336  0.76028775  0.56196621  1
  Cu  Cu24  1  0.38770924  0.86345592  0.94350686  1
  Cu  Cu25  1  0.62087009  0.86135508  0.95939866  1
  Cu  Cu26  1  0.86794324  0.88260155  0.46436838  1
  Cu  Cu27  1  0.13012329  0.86470688  0.48130584  1
  Cu  Cu28  1  0.35206748  0.89085210  0.42062461  1
  Cu  Cu29  1  0.64474852  0.88641087  0.45604306  1
  Cu  Cu30  1  0.99793667  0.99167051  0.98907202  1
  Cu  Cu31  1  0.00199290  0.00828047  0.51580021  1
  Cu  Cu32  1  0.48867432  0.98793883  0.92335137  1
  Cu  Cu33  1  0.50140787  0.97863953  0.44795922  1
  Cu  Cu34  1  0.36755657  0.12115261  0.42806810  1
  Cu  Cu35  1  0.63669205  0.10481451  0.37744743  1
  Cu  Cu36  1  0.87374542  0.12217653  0.46185838  1
  Cu  Cu37  1  0.11999897  0.12820499  0.49886400  1
  Cu  Cu38  1  0.39314273  0.14847355  0.92018315  1
  Cu  Cu39  1  0.60330873  0.14269923  0.89121893  1
  C  C40  1  0.50000000  0.27376700  0.45475600  1
  C  C41  1  0.27376700  0.50000000  0.54524400  1
  C  C42  1  0.72623300  0.50000000  0.54524400  1
  C  C43  1  0.50000000  0.72623300  0.45475600  1
  C  C44  1  0.00000000  0.77376700  0.04524400  1
  C  C45  1  0.77376700  0.00000000  0.95475600  1
  C  C46  1  0.22623300  0.00000000  0.95475600  1
  C  C47  1  0.00000000  0.22623300  0.04524400  1
  C  C48  1  0.86229400  0.26124700  0.28441500  1
  C  C49  1  0.13770600  0.26124700  0.28441500  1
  C  C50  1  0.76124700  0.36229400  0.78441500  1
  C  C51  1  0.23875300  0.36229400  0.78441500  1
  C  C52  1  0.00000000  0.38195200  0.83349500  1
  C  C53  1  0.50000000  0.38812800  0.77863900  1
  C  C54  1  0.88195200  0.50000000  0.33349500  1
  C  C55  1  0.38812800  0.50000000  0.22136100  1
  C  C56  1  0.61187200  0.50000000  0.22136100  1
  C  C57  1  0.11804800  0.50000000  0.33349500  1
  C  C58  1  0.50000000  0.61187200  0.77863900  1
  C  C59  1  0.00000000  0.61804800  0.83349500  1
  C  C60  1  0.23875300  0.63770600  0.78441500  1
  C  C61  1  0.76124700  0.63770600  0.78441500  1
  C  C62  1  0.86229400  0.73875300  0.28441500  1
  C  C63  1  0.13770600  0.73875300  0.28441500  1
  C  C64  1  0.36229400  0.76124700  0.21558500  1
  C  C65  1  0.63770600  0.76124700  0.21558500  1
  C  C66  1  0.73875300  0.86229400  0.71558500  1
  C  C67  1  0.26124700  0.86229400  0.71558500  1
  C  C68  1  0.50000000  0.88195200  0.66650500  1
  C  C69  1  0.00000000  0.88812800  0.72136100  1
  C  C70  1  0.88812800  0.00000000  0.27863900  1
  C  C71  1  0.11187200  0.00000000  0.27863900  1
  C  C72  1  0.38195200  0.00000000  0.16650500  1
  C  C73  1  0.61804800  0.00000000  0.16650500  1
  C  C74  1  0.00000000  0.11187200  0.72136100  1
  C  C75  1  0.50000000  0.11804800  0.66650500  1
  C  C76  1  0.73875300  0.13770600  0.71558500  1
  C  C77  1  0.26124700  0.13770600  0.71558500  1
  C  C78  1  0.36229400  0.23875300  0.21558500  1
  C  C79  1  0.63770600  0.23875300  0.21558500  1
