# generated using pymatgen
data_Cu4Ni7C5
_symmetry_space_group_name_H-M   'P 1'
_cell_length_a   7.39039628
_cell_length_b   7.39039628
_cell_length_c   14.22427400
_cell_angle_alpha   90.00000000
_cell_angle_beta   90.00000000
_cell_angle_gamma   120.00000248
_symmetry_Int_Tables_number   1
_chemical_formula_structural   Cu4Ni7C5
_chemical_formula_sum   'Cu12 Ni21 C15'
_cell_volume   672.81580144
_cell_formula_units_Z   3
loop_
 _symmetry_equiv_pos_site_id
 _symmetry_equiv_pos_as_xyz
  1  'x, y, z'
loop_
 _atom_site_type_symbol
 _atom_site_label
 _atom_site_symmetry_multiplicity
 _atom_site_fract_x
 _atom_site_fract_y
 _atom_site_fract_z
 _atom_site_occupancy
  C  C0  1  0.87354500  0.85907300  0.66710400  1
  C  C1  1  0.51293000  0.17075200  0.80053500  1
  C  C2  1  0.98552700  0.12645500  0.00043700  1
  C  C3  1  0.82924800  0.34217800  0.46720200  1
  C  C4  1  0.65782200  0.48707000  0.13386900  1
  C  C5  1  0.14092700  0.01447300  0.33377000  1
  C  C6  1  0.50121900  0.67548000  0.87438200  1
  C  C7  1  0.17426100  0.49878100  0.20771500  1
  C  C8  1  0.32452000  0.82573900  0.54104800  1
  C  C9  1  0.98299400  0.66357100  0.88484800  1
  C  C10  1  0.13754100  0.43712400  0.71902700  1
  C  C11  1  0.56287600  0.70041700  0.38569400  1
  C  C12  1  0.68057700  0.01700600  0.21818100  1
  C  C13  1  0.29958300  0.86245900  0.05236100  1
  C  C14  1  0.33642900  0.31942300  0.55151500  1
  Ni  Ni15  1  0.00066300  0.74966600  0.02039600  1
  Ni  Ni16  1  0.84415900  0.37039800  0.92628600  1
  Ni  Ni17  1  0.74900300  0.99933700  0.35372900  1
  Ni  Ni18  1  0.41176800  0.09153100  0.49591600  1
  Cu  Cu19  1  0.84990098  0.92271865  0.18118156  1
  Ni  Ni20  1  0.24844100  0.30067400  0.18778500  1
  Ni  Ni21  1  0.90846900  0.32023700  0.16258300  1
  Ni  Ni22  1  0.69932600  0.94776700  0.85445200  1
  Ni  Ni23  1  0.04463100  0.13636300  0.51106900  1
  Cu  Cu24  1  0.60369662  0.01721435  0.08819164  1
  Ni  Ni25  1  0.67976300  0.58823200  0.82924900  1
  Ni  Ni26  1  0.25033400  0.25099700  0.68706300  1
  Cu  Cu27  1  0.60100964  0.68574251  0.97189800  1
  Cu  Cu28  1  0.35993156  0.14493680  0.01918746  1
  Ni  Ni29  1  0.07974700  0.39639700  0.32091300  1
  Cu  Cu30  1  0.62516863  0.46624680  0.59988925  1
  Ni  Ni31  1  0.32100200  0.77716500  0.91257800  1
  Ni  Ni32  1  0.40748200  0.40704500  0.41987100  1
  Ni  Ni33  1  0.32496400  0.74853800  0.41854000  1
  Cu  Cu34  1  0.34678265  0.93365688  0.65332085  1
  Ni  Ni35  1  0.42357400  0.67503600  0.75187300  1
  Cu  Cu36  1  0.89879342  0.20708875  0.69290487  1
  Ni  Ni37  1  0.78772100  0.63993200  0.35324800  1
  Cu  Cu38  1  0.45518504  0.66216884  0.24661893  1
  Ni  Ni39  1  0.99956300  0.59251800  0.75320500  1
  Ni  Ni40  1  0.09173100  0.95536900  0.84440200  1
  Ni  Ni41  1  0.52623900  0.15584100  0.25962000  1
  Cu  Cu42  1  0.30384443  0.42871569  0.88298319  1
  Ni  Ni43  1  0.12969300  0.71903400  0.21213900  1
  Cu  Cu44  1  0.25428243  0.57547561  0.09142636  1
  Ni  Ni45  1  0.05223300  0.75155900  0.52111900  1
  Cu  Cu46  1  0.19045574  0.51468144  0.57918063  1
  Cu  Cu47  1  0.59459872  0.86800935  0.53785263  1
