# generated using pymatgen
data_CuNiC16
_symmetry_space_group_name_H-M   'P 1'
_cell_length_a   8.65389977
_cell_length_b   8.62309258
_cell_length_c   22.52266485
_cell_angle_alpha   91.03976613
_cell_angle_beta   90.00000000
_cell_angle_gamma   120.11825250
_symmetry_Int_Tables_number   1
_chemical_formula_structural   CuNiC16
_chemical_formula_sum   'Cu6 Ni6 C96'
_cell_volume   1453.48646500
_cell_formula_units_Z   6
loop_
 _symmetry_equiv_pos_site_id
 _symmetry_equiv_pos_as_xyz
  1  'x, y, z'
loop_
 _atom_site_type_symbol
 _atom_site_label
 _atom_site_symmetry_multiplicity
 _atom_site_fract_x
 _atom_site_fract_y
 _atom_site_fract_z
 _atom_site_occupancy
  Ni  Ni0  1  0.98707114  0.99103560  0.50385660  1
  Ni  Ni1  1  0.00396446  0.99103560  0.00385660  1
  Ni  Ni2  1  0.65373814  0.32436860  0.83718960  1
  Ni  Ni3  1  0.67063146  0.32436860  0.33718960  1
  Ni  Ni4  1  0.32040414  0.65770260  0.17052360  1
  Ni  Ni5  1  0.33729746  0.65770260  0.67052360  1
  C  C6  1  0.99947281  0.00244672  0.35458522  1
  C  C7  1  0.00297392  0.00244672  0.85458522  1
  C  C8  1  0.66613981  0.33577972  0.68791822  1
  C  C9  1  0.66964092  0.33577972  0.18791822  1
  C  C10  1  0.33280581  0.66911372  0.02125222  1
  C  C11  1  0.33630692  0.66911372  0.52125222  1
  C  C12  1  0.98384663  0.00990578  0.64711719  1
  C  C13  1  0.02605915  0.00990578  0.14711719  1
  C  C14  1  0.65051363  0.34323878  0.98045019  1
  C  C15  1  0.69272615  0.34323878  0.48045019  1
  C  C16  1  0.31717963  0.67657278  0.31378419  1
  C  C17  1  0.35939215  0.67657278  0.81378419  1
  C  C18  1  0.28490470  0.99067193  0.24905052  1
  C  C19  1  0.01470555  0.29428599  0.24856967  1
  C  C20  1  0.27958044  0.29428599  0.74856967  1
  C  C21  1  0.70576722  0.99067193  0.74905052  1
  C  C22  1  0.95157170  0.32400493  0.58238352  1
  C  C23  1  0.68137255  0.62761899  0.58190267  1
  C  C24  1  0.94624744  0.62761899  0.08190267  1
  C  C25  1  0.37243422  0.32400493  0.08238352  1
  C  C26  1  0.61823770  0.65733893  0.91571752  1
  C  C27  1  0.34803855  0.96095299  0.91523667  1
  C  C28  1  0.61291344  0.96095299  0.41523667  1
  C  C29  1  0.03910022  0.65733893  0.41571752  1
  Cu  Cu30  1  0.70407402  0.71763499  0.24838009  1
  Cu  Cu31  1  0.01356097  0.71763499  0.74838009  1
  Cu  Cu32  1  0.37074102  0.05096799  0.58171309  1
  Cu  Cu33  1  0.68022797  0.05096799  0.08171309  1
  Cu  Cu34  1  0.03740702  0.38430199  0.91504709  1
  Cu  Cu35  1  0.34689397  0.38430199  0.41504709  1
  C  C36  1  0.20233225  0.02318642  0.30509537  1
  C  C37  1  0.81429681  0.79400674  0.30294740  1
  C  C38  1  0.97740715  0.17905209  0.30436114  1
  C  C39  1  0.20164494  0.17905209  0.80436114  1
  C  C40  1  0.97970992  0.79400674  0.80294740  1
  C  C41  1  0.82085417  0.02318642  0.80509537  1
  C  C42  1  0.79304902  0.96290178  0.69381212  1
  C  C43  1  0.16459213  0.19778528  0.69336241  1
  C  C44  1  0.03290769  0.82375683  0.69604625  1
  C  C45  1  0.79084914  0.82375683  0.19604625  1
  C  C46  1  0.03319315  0.19778528  0.19336241  1
  C  C47  1  0.16985276  0.96290178  0.19381212  1
  C  C48  1  0.86899925  0.35651942  0.63842837  1
  C  C49  1  0.48096381  0.12733974  0.63628040  1
  C  C50  1  0.64407415  0.51238509  0.63769414  1
  C  C51  1  0.86831194  0.51238509  0.13769414  1
  C  C52  1  0.64637692  0.12733974  0.13628040  1
  C  C53  1  0.48752117  0.35651942  0.13842837  1
  C  C54  1  0.45971602  0.29623478  0.02714512  1
  C  C55  1  0.83125913  0.53111828  0.02669541  1
  C  C56  1  0.69957469  0.15708983  0.02937925  1
  C  C57  1  0.45751614  0.15708983  0.52937925  1
  C  C58  1  0.69986015  0.53111828  0.52669541  1
  C  C59  1  0.83651976  0.29623478  0.52714512  1
  C  C60  1  0.53566525  0.68985342  0.97176237  1
  C  C61  1  0.14762981  0.46067374  0.96961440  1
  C  C62  1  0.31074015  0.84571909  0.97102814  1
  C  C63  1  0.53497794  0.84571909  0.47102814  1
  C  C64  1  0.31304292  0.46067374  0.46961440  1
  C  C65  1  0.15418717  0.68985342  0.47176237  1
  C  C66  1  0.12638202  0.62956878  0.36047912  1
  C  C67  1  0.49792513  0.86445228  0.36002941  1
  C  C68  1  0.36624069  0.49042383  0.36271325  1
  C  C69  1  0.12418214  0.49042383  0.86271325  1
  C  C70  1  0.36652615  0.86445228  0.86002941  1
  C  C71  1  0.50318576  0.62956878  0.86047912  1
  C  C72  1  0.01842194  0.82539698  0.41005916  1
  C  C73  1  0.80335729  0.98507628  0.40927273  1
  C  C74  1  0.18324763  0.20211228  0.41096899  1
  C  C75  1  0.01886465  0.20211228  0.91096899  1
  C  C76  1  0.18171899  0.98507628  0.90927273  1
  C  C77  1  0.80697504  0.82539698  0.91005916  1
  C  C78  1  0.97109748  0.15745292  0.59040778  1
  C  C79  1  0.19310738  0.03013635  0.58985953  1
  C  C80  1  0.84955564  0.81315504  0.59224782  1
  C  C81  1  0.96359940  0.81315504  0.09224782  1
  C  C82  1  0.83702897  0.03013635  0.08985953  1
  C  C83  1  0.18635544  0.15745292  0.09040778  1
  C  C84  1  0.68508894  0.15872998  0.74339216  1
  C  C85  1  0.47002429  0.31840928  0.74260573  1
  C  C86  1  0.84991463  0.53544528  0.74430199  1
  C  C87  1  0.68553165  0.53544528  0.24430199  1
  C  C88  1  0.84838599  0.31840928  0.24260573  1
  C  C89  1  0.47364204  0.15872998  0.24339216  1
  C  C90  1  0.63776448  0.49078592  0.92374078  1
  C  C91  1  0.85977438  0.36346935  0.92319253  1
  C  C92  1  0.51622264  0.14648804  0.92558082  1
  C  C93  1  0.63026640  0.14648804  0.42558082  1
  C  C94  1  0.50369597  0.36346935  0.42319253  1
  C  C95  1  0.85302244  0.49078592  0.42374078  1
  C  C96  1  0.35175494  0.49206398  0.07672616  1
  C  C97  1  0.13669029  0.65174328  0.07593973  1
  C  C98  1  0.51658063  0.86877928  0.07763599  1
  C  C99  1  0.35219765  0.86877928  0.57763599  1
  C  C100  1  0.51505199  0.65174328  0.57593973  1
  C  C101  1  0.14030804  0.49206398  0.57672616  1
  C  C102  1  0.30443048  0.82411992  0.25707478  1
  C  C103  1  0.52644038  0.69680335  0.25652653  1
  C  C104  1  0.18288864  0.47982204  0.25891482  1
  C  C105  1  0.29693240  0.47982204  0.75891482  1
  C  C106  1  0.17036197  0.69680335  0.75652653  1
  C  C107  1  0.51968844  0.82411992  0.75707478  1
