# generated using pymatgen
data_Cu25Ni3C16
_symmetry_space_group_name_H-M   'P 1'
_cell_length_a   5.33270600
_cell_length_b   8.71844600
_cell_length_c   12.76231200
_cell_angle_alpha   90.00000000
_cell_angle_beta   90.00000000
_cell_angle_gamma   90.00000000
_symmetry_Int_Tables_number   1
_chemical_formula_structural   Cu25Ni3C16
_chemical_formula_sum   'Cu25 Ni3 C16'
_cell_volume   593.35701421
_cell_formula_units_Z   1
loop_
 _symmetry_equiv_pos_site_id
 _symmetry_equiv_pos_as_xyz
  1  'x, y, z'
loop_
 _atom_site_type_symbol
 _atom_site_label
 _atom_site_symmetry_multiplicity
 _atom_site_fract_x
 _atom_site_fract_y
 _atom_site_fract_z
 _atom_site_occupancy
  C  C0  1  0.75000000  0.61876200  0.92134400  1
  C  C1  1  0.25000000  0.38123800  0.07865600  1
  C  C2  1  0.75000000  0.11876200  0.57865600  1
  C  C3  1  0.25000000  0.88123800  0.42134400  1
  C  C4  1  0.25000000  0.81300000  0.73621600  1
  C  C5  1  0.75000000  0.18700000  0.26378400  1
  C  C6  1  0.25000000  0.31300000  0.76378400  1
  C  C7  1  0.75000000  0.68700000  0.23621600  1
  C  C8  1  0.75000000  0.01322400  0.81789300  1
  C  C9  1  0.25000000  0.98677600  0.18210700  1
  C  C10  1  0.75000000  0.51322400  0.68210700  1
  C  C11  1  0.25000000  0.48677600  0.31789300  1
  C  C12  1  0.25000000  0.73700300  0.03356900  1
  C  C13  1  0.75000000  0.26299700  0.96643100  1
  C  C14  1  0.25000000  0.23700300  0.46643100  1
  C  C15  1  0.75000000  0.76299700  0.53356900  1
  Cu  Cu16  1  0.26566462  0.72455939  0.92166481  1
  Cu  Cu17  1  0.75957414  0.24711170  0.09485221  1
  Cu  Cu18  1  0.24704536  0.23341969  0.58725866  1
  Cu  Cu19  1  0.76348970  0.77121122  0.41131287  1
  Cu  Cu20  1  0.46922705  0.16511542  0.40458710  1
  Cu  Cu21  1  0.00234159  0.83505402  0.59573905  1
  Cu  Cu22  1  0.02869141  0.66196768  0.07730920  1
  Cu  Cu23  1  0.49205062  0.34994862  0.92667694  1
  Cu  Cu24  1  0.54567581  0.83528941  0.57529337  1
  Cu  Cu25  1  0.98391340  0.17016314  0.42394566  1
  Cu  Cu26  1  0.99364388  0.32938393  0.92904309  1
  Cu  Cu27  1  0.48715761  0.65225546  0.07371621  1
  Cu  Cu28  1  0.74354961  0.85396634  0.81585677  1
  Cu  Cu29  1  0.22440086  0.15442685  0.19418108  1
  Ni  Ni30  1  0.75000000  0.33947200  0.67642400  1
  Ni  Ni31  1  0.25000000  0.66052800  0.32357600  1
  Cu  Cu32  1  0.71581570  0.55629792  0.56750661  1
  Cu  Cu33  1  0.24429617  0.41490230  0.42088978  1
  Cu  Cu34  1  0.76594909  0.06127453  0.94378262  1
  Cu  Cu35  1  0.23154732  0.92047264  0.06538444  1
  Cu  Cu36  1  0.52864342  0.92567809  0.23370008  1
  Cu  Cu37  1  0.99163404  0.08766933  0.74890164  1
  Cu  Cu38  1  0.02756989  0.44155569  0.27932206  1
  Ni  Ni39  1  0.50695200  0.56891100  0.73557400  1
  Cu  Cu40  1  0.52360792  0.07191870  0.75333437  1
  Cu  Cu41  1  0.93874703  0.96520093  0.21513509  1
  Cu  Cu42  1  0.02957970  0.55790384  0.72322297  1
  Cu  Cu43  1  0.48024871  0.41269718  0.25575902  1
