# generated using pymatgen
data_CuC16
_symmetry_space_group_name_H-M   'P 1'
_cell_length_a   8.90265744
_cell_length_b   8.90265744
_cell_length_c   8.90265744
_cell_angle_alpha   143.25515469
_cell_angle_beta   143.25515469
_cell_angle_gamma   52.94256642
_symmetry_Int_Tables_number   1
_chemical_formula_structural   CuC16
_chemical_formula_sum   'Cu1 C16'
_cell_volume   250.99773149
_cell_formula_units_Z   1
loop_
 _symmetry_equiv_pos_site_id
 _symmetry_equiv_pos_as_xyz
  1  'x, y, z'
loop_
 _atom_site_type_symbol
 _atom_site_label
 _atom_site_symmetry_multiplicity
 _atom_site_fract_x
 _atom_site_fract_y
 _atom_site_fract_z
 _atom_site_occupancy
  Cu  Cu0  1  0.49873724  0.48395271  0.98200362  1
  C  C1  1  0.62794700  0.12794700  0.50000000  1
  C  C2  1  0.37205300  0.87205300  0.50000000  1
  C  C3  1  0.12794700  0.62794700  0.50000000  1
  C  C4  1  0.87205300  0.37205300  0.50000000  1
  C  C5  1  0.25000000  0.75000000  0.50000000  1
  C  C6  1  0.15252700  0.15252700  0.52981100  1
  C  C7  1  0.75000000  0.25000000  0.50000000  1
  C  C8  1  0.62271600  0.15252700  0.00000000  1
  C  C9  1  0.15252700  0.62271600  0.00000000  1
  C  C10  1  0.62271600  0.62271600  0.47018900  1
  C  C11  1  0.50000000  0.00000000  0.50000000  1
  C  C12  1  0.84747300  0.84747300  0.47018900  1
  C  C13  1  0.00000000  0.50000000  0.50000000  1
  C  C14  1  0.84747300  0.37728400  0.00000000  1
  C  C15  1  0.37728400  0.84747300  0.00000000  1
  C  C16  1  0.37728400  0.37728400  0.52981100  1
