# generated using pymatgen
data_CuC
_symmetry_space_group_name_H-M   'P 1'
_cell_length_a   8.60345800
_cell_length_b   8.60345800
_cell_length_c   8.59789200
_cell_angle_alpha   90.00000000
_cell_angle_beta   90.00000000
_cell_angle_gamma   90.00000000
_symmetry_Int_Tables_number   1
_chemical_formula_structural   CuC
_chemical_formula_sum   'Cu32 C32'
_cell_volume   636.41157711
_cell_formula_units_Z   32
loop_
 _symmetry_equiv_pos_site_id
 _symmetry_equiv_pos_as_xyz
  1  'x, y, z'
loop_
 _atom_site_type_symbol
 _atom_site_label
 _atom_site_symmetry_multiplicity
 _atom_site_fract_x
 _atom_site_fract_y
 _atom_site_fract_z
 _atom_site_occupancy
  C  C0  1  0.50000000  0.00000000  0.00000000  1
  C  C1  1  0.00000000  0.50000000  0.00000000  1
  C  C2  1  0.00000000  0.00000000  0.50000000  1
  C  C3  1  0.50000000  0.00000000  0.50000000  1
  C  C4  1  0.00000000  0.50000000  0.50000000  1
  C  C5  1  0.50000000  0.50000000  0.50000000  1
  C  C6  1  0.24601700  0.24601700  0.00000000  1
  C  C7  1  0.75398300  0.24601700  0.00000000  1
  C  C8  1  0.24601700  0.75398300  0.00000000  1
  C  C9  1  0.75398300  0.75398300  0.00000000  1
  C  C10  1  0.24951300  0.24951300  0.50000000  1
  C  C11  1  0.75048700  0.24951300  0.50000000  1
  C  C12  1  0.24951300  0.75048700  0.50000000  1
  C  C13  1  0.75048700  0.75048700  0.50000000  1
  C  C14  1  0.25000400  0.00000000  0.25070000  1
  C  C15  1  0.74999600  0.00000000  0.25070000  1
  C  C16  1  0.24556000  0.50000000  0.25424800  1
  C  C17  1  0.75444000  0.50000000  0.25424800  1
  C  C18  1  0.25000400  0.00000000  0.74930000  1
  C  C19  1  0.74999600  0.00000000  0.74930000  1
  C  C20  1  0.24556000  0.50000000  0.74575200  1
  C  C21  1  0.75444000  0.50000000  0.74575200  1
  C  C22  1  0.00000000  0.25000400  0.25070000  1
  C  C23  1  0.50000000  0.24556000  0.25424800  1
  C  C24  1  0.00000000  0.74999600  0.25070000  1
  C  C25  1  0.50000000  0.75444000  0.25424800  1
  C  C26  1  0.00000000  0.25000400  0.74930000  1
  C  C27  1  0.50000000  0.24556000  0.74575200  1
  C  C28  1  0.00000000  0.74999600  0.74930000  1
  C  C29  1  0.50000000  0.75444000  0.74575200  1
  C  C30  1  0.00000000  0.00000000  0.00000000  1
  C  C31  1  0.50000000  0.50000000  0.00000000  1
  Cu  Cu32  1  0.00752180  0.97788010  0.26361046  1
  Cu  Cu33  1  0.49714163  0.97674097  0.26275294  1
  Cu  Cu34  1  0.01017018  0.50291910  0.25064448  1
  Cu  Cu35  1  0.47772643  0.48552335  0.24563348  1
  Cu  Cu36  1  0.00549796  0.99966187  0.75535361  1
  Cu  Cu37  1  0.49054296  0.97457653  0.74678241  1
  Cu  Cu38  1  0.00175003  0.49088432  0.76979465  1
  Cu  Cu39  1  0.50298466  0.49366554  0.72596970  1
  Cu  Cu40  1  0.28130067  0.25710281  0.26085774  1
  Cu  Cu41  1  0.75759061  0.24131586  0.23423215  1
  Cu  Cu42  1  0.24522471  0.75202334  0.24420157  1
  Cu  Cu43  1  0.75018994  0.74849442  0.26119638  1
  Cu  Cu44  1  0.26138591  0.28382390  0.73706267  1
  Cu  Cu45  1  0.76363485  0.25320281  0.73604176  1
  Cu  Cu46  1  0.24410707  0.76193520  0.74636386  1
  Cu  Cu47  1  0.73210954  0.74070241  0.76560886  1
  Cu  Cu48  1  0.26827751  0.00188331  0.00321681  1
  Cu  Cu49  1  0.72028542  0.99909890  0.01549788  1
  Cu  Cu50  1  0.22669774  0.49489280  0.98618621  1
  Cu  Cu51  1  0.77356124  0.50599612  0.00251360  1
  Cu  Cu52  1  0.25782955  0.00338920  0.54427901  1
  Cu  Cu53  1  0.74453755  0.04192667  0.50936908  1
  Cu  Cu54  1  0.25136070  0.50757822  0.50905555  1
  Cu  Cu55  1  0.72567557  0.50649922  0.51199016  1
  Cu  Cu56  1  0.96953717  0.28361561  0.96558913  1
  Cu  Cu57  1  0.48945461  0.23512049  0.99007324  1
  Cu  Cu58  1  0.00472741  0.74020091  0.03996885  1
  Cu  Cu59  1  0.47213097  0.75571653  0.00651635  1
  Cu  Cu60  1  0.99337142  0.22066922  0.48393026  1
  Cu  Cu61  1  0.51189591  0.28985519  0.50510344  1
  Cu  Cu62  1  0.00540062  0.75635184  0.49935209  1
  Cu  Cu63  1  0.49822498  0.73262972  0.50777135  1
