# generated using pymatgen
data_Cu19(NiC3)5
_symmetry_space_group_name_H-M   'P 1'
_cell_length_a   9.19624361
_cell_length_b   9.21360977
_cell_length_c   22.88439455
_cell_angle_alpha   90.53005683
_cell_angle_beta   90.09968037
_cell_angle_gamma   120.11371529
_symmetry_Int_Tables_number   1
_chemical_formula_structural   Cu19(NiC3)5
_chemical_formula_sum   'Cu57 Ni15 C45'
_cell_volume   1677.18569972
_cell_formula_units_Z   3
loop_
 _symmetry_equiv_pos_site_id
 _symmetry_equiv_pos_as_xyz
  1  'x, y, z'
loop_
 _atom_site_type_symbol
 _atom_site_label
 _atom_site_symmetry_multiplicity
 _atom_site_fract_x
 _atom_site_fract_y
 _atom_site_fract_z
 _atom_site_occupancy
  C  C0  1  0.64731038  0.01539697  0.25337177  1
  C  C1  1  0.00132199  0.63089272  0.24242531  1
  C  C2  1  0.63464460  0.63677317  0.74371632  1
  C  C3  1  0.99374522  0.35116784  0.74664991  1
  C  C4  1  0.31040674  0.34571944  0.58651285  1
  C  C5  1  0.66755305  0.96447867  0.57672938  1
  C  C6  1  0.30024753  0.96016880  0.07853504  1
  C  C7  1  0.69209210  0.02496471  0.91109666  1
  C  C8  1  0.96490818  0.29368596  0.41207754  1
  C  C9  1  0.97885412  0.96801700  0.49822572  1
  C  C10  1  0.00909477  0.98744973  0.99882118  1
  C  C11  1  0.62669933  0.30800677  0.83180605  1
  C  C12  1  0.63275309  0.31317140  0.33387914  1
  C  C13  1  0.31131272  0.63393650  0.16485298  1
  C  C14  1  0.32337788  0.66675613  0.66527971  1
  C  C15  1  0.00461651  0.00175204  0.35041614  1
  C  C16  1  0.01876420  0.00606736  0.85181921  1
  C  C17  1  0.66292166  0.32946674  0.68300708  1
  C  C18  1  0.66799212  0.33653600  0.18209681  1
  C  C19  1  0.32412209  0.66019176  0.01725179  1
  C  C20  1  0.33461687  0.66958463  0.51531853  1
  C  C21  1  0.99371629  0.00216440  0.65063452  1
  C  C22  1  0.00841297  0.00464412  0.15119159  1
  C  C23  1  0.67580593  0.34867718  0.98379897  1
  C  C24  1  0.67333342  0.33727203  0.48477318  1
  C  C25  1  0.33870854  0.67475278  0.31629576  1
  C  C26  1  0.34012364  0.68242154  0.81655932  1
  C  C27  1  0.29760656  0.99165608  0.24951390  1
  C  C28  1  0.00760742  0.30174781  0.25269291  1
  C  C29  1  0.29663926  0.30820505  0.74887265  1
  C  C30  1  0.70011454  0.99394813  0.75320969  1
  C  C31  1  0.96529321  0.32634359  0.58488933  1
  C  C32  1  0.67373277  0.63518536  0.58549861  1
  C  C33  1  0.96412886  0.64152014  0.08703923  1
  C  C34  1  0.34655170  0.97348528  0.92211307  1
  C  C35  1  0.63289057  0.97555969  0.41844493  1
  C  C36  1  0.70039808  0.70932809  0.24975118  1
  C  C37  1  0.00766511  0.70735382  0.74980850  1
  C  C38  1  0.36412181  0.04037337  0.58207186  1
  C  C39  1  0.67722739  0.03902940  0.08239326  1
  C  C40  1  0.36551960  0.32486686  0.08276455  1
  C  C41  1  0.62678054  0.65984992  0.91552924  1
  C  C42  1  0.02571985  0.37039987  0.91483553  1
  C  C43  1  0.34340315  0.37482107  0.41754354  1
  C  C44  1  0.02906504  0.65730486  0.41547707  1
  Cu  Cu45  1  0.20483658  0.01382671  0.30320413  1
  Cu  Cu46  1  0.81411972  0.80499082  0.30135219  1
  Cu  Cu47  1  0.96789440  0.21669411  0.30453687  1
  Ni  Ni48  1  0.21113861  0.20264051  0.80156065  1
  Ni  Ni49  1  0.98255032  0.78163060  0.80221783  1
  Cu  Cu50  1  0.81435737  0.02478238  0.80299228  1
  Ni  Ni51  1  0.79145553  0.96862260  0.69843210  1
  Ni  Ni52  1  0.18927695  0.21809861  0.69172284  1
  Cu  Cu53  1  0.03396934  0.82697938  0.69288067  1
  Cu  Cu54  1  0.79777123  0.83232389  0.19143843  1
  Ni  Ni55  1  0.02242849  0.20038530  0.19978323  1
  Ni  Ni56  1  0.18748581  0.96879902  0.19319138  1
  Cu  Cu57  1  0.89641281  0.36899529  0.63421091  1
  Cu  Cu58  1  0.48189908  0.13090670  0.63285533  1
  Cu  Cu59  1  0.64422421  0.54158122  0.64083805  1
  Cu  Cu60  1  0.90937646  0.57281169  0.14108017  1
  Cu  Cu61  1  0.68362646  0.12036584  0.13640719  1
  Cu  Cu62  1  0.43489066  0.33250000  0.13189134  1
  Cu  Cu63  1  0.45338156  0.29923762  0.03792660  1
  Cu  Cu64  1  0.83054925  0.54289762  0.03367661  1
  Cu  Cu65  1  0.70139278  0.15542640  0.03117042  1
  Cu  Cu66  1  0.43802059  0.12037186  0.53318280  1
  Cu  Cu67  1  0.67663676  0.50212621  0.52233699  1
  Cu  Cu68  1  0.84446271  0.28096479  0.53606742  1
  Cu  Cu69  1  0.55387763  0.65499210  0.97026208  1
  Cu  Cu70  1  0.13715825  0.46382623  0.96573780  1
  Cu  Cu71  1  0.34297405  0.88983881  0.97777926  1
  Cu  Cu72  1  0.56605328  0.90159822  0.46708325  1
  Cu  Cu73  1  0.30756466  0.44983397  0.46727490  1
  Cu  Cu74  1  0.11972963  0.65978672  0.47089451  1
  Cu  Cu75  1  0.09557002  0.62409001  0.35810705  1
  Cu  Cu76  1  0.52601155  0.86616701  0.36152054  1
  Cu  Cu77  1  0.35707171  0.48315932  0.36922345  1
  Ni  Ni78  1  0.10915138  0.46673659  0.86086345  1
  Cu  Cu79  1  0.36752815  0.88088157  0.86696104  1
  Cu  Cu80  1  0.53048246  0.64591487  0.86325344  1
  Ni  Ni81  1  0.00123883  0.80031905  0.41134074  1
  Cu  Cu82  1  0.81411274  0.99839167  0.41824895  1
  Cu  Cu83  1  0.16686873  0.19456819  0.40974304  1
  Cu  Cu84  1  0.97732209  0.21877209  0.91031471  1
  Cu  Cu85  1  0.20275818  0.99744524  0.91073624  1
  Cu  Cu86  1  0.80463401  0.81332707  0.90978538  1
  Cu  Cu87  1  0.97202182  0.14290883  0.58423962  1
  Cu  Cu88  1  0.19322180  0.99255196  0.58488825  1
  Cu  Cu89  1  0.82561675  0.80976651  0.58113118  1
  Cu  Cu90  1  0.98192810  0.81588732  0.08530052  1
  Cu  Cu91  1  0.83160893  0.01535212  0.09061606  1
  Cu  Cu92  1  0.20743417  0.16940232  0.08456157  1
  Ni  Ni93  1  0.68612145  0.15229105  0.74721831  1
  Cu  Cu94  1  0.45287199  0.31474402  0.74232862  1
  Ni  Ni95  1  0.85969882  0.53455401  0.74416886  1
  Ni  Ni96  1  0.67666007  0.53899261  0.24327745  1
  Cu  Cu97  1  0.84410027  0.31971792  0.25358801  1
  Cu  Cu98  1  0.49439050  0.15540162  0.24934311  1
  Ni  Ni99  1  0.64375232  0.50719795  0.92006823  1
  Cu  Cu100  1  0.84974170  0.36713917  0.92962655  1
  Ni  Ni101  1  0.51698209  0.14734943  0.92219955  1
  Cu  Cu102  1  0.64941199  0.15041761  0.42034680  1
  Cu  Cu103  1  0.51436078  0.37480834  0.41442872  1
  Cu  Cu104  1  0.84251337  0.48581689  0.42460035  1
  Cu  Cu105  1  0.33434622  0.47400649  0.07375392  1
  Cu  Cu106  1  0.16135835  0.68473053  0.08373791  1
  Cu  Cu107  1  0.53492749  0.85864631  0.06611150  1
  Cu  Cu108  1  0.33742416  0.85998509  0.56394968  1
  Cu  Cu109  1  0.52793385  0.65869317  0.58182947  1
  Cu  Cu110  1  0.15093233  0.48255653  0.57027855  1
  Cu  Cu111  1  0.27735716  0.81580820  0.25473761  1
  Cu  Cu112  1  0.54526679  0.70797105  0.25267714  1
  Cu  Cu113  1  0.21408015  0.50278640  0.26362249  1
  Ni  Ni114  1  0.29960954  0.48216500  0.75309994  1
  Cu  Cu115  1  0.15879852  0.67962292  0.75554266  1
  Ni  Ni116  1  0.52322966  0.82765867  0.75495023  1
