# generated using pymatgen
data_Cu23Ni14
_symmetry_space_group_name_H-M   'P 1'
_cell_length_a   4.98659700
_cell_length_b   13.62763300
_cell_length_c   13.98125400
_cell_angle_alpha   90.00000000
_cell_angle_beta   90.00000000
_cell_angle_gamma   90.00000000
_symmetry_Int_Tables_number   1
_chemical_formula_structural   Cu23Ni14
_chemical_formula_sum   'Cu46 Ni28'
_cell_volume   950.10329963
_cell_formula_units_Z   2
loop_
 _symmetry_equiv_pos_site_id
 _symmetry_equiv_pos_as_xyz
  1  'x, y, z'
loop_
 _atom_site_type_symbol
 _atom_site_label
 _atom_site_symmetry_multiplicity
 _atom_site_fract_x
 _atom_site_fract_y
 _atom_site_fract_z
 _atom_site_occupancy
  Ni  Ni0  1  0.50000000  0.25735700  0.54148300  1
  Ni  Ni1  1  0.50000000  0.21311800  0.73737700  1
  Ni  Ni2  1  0.00000000  0.24264300  0.04148300  1
  Ni  Ni3  1  0.00000000  0.43025000  0.94067600  1
  Ni  Ni4  1  0.00000000  0.71311800  0.76262300  1
  Ni  Ni5  1  0.50000000  0.93025000  0.55932400  1
  Ni  Ni6  1  0.50000000  0.14892600  0.02603800  1
  Ni  Ni7  1  0.50000000  0.57168900  0.17197900  1
  Ni  Ni8  1  0.50000000  0.74264300  0.45851700  1
  Ni  Ni9  1  0.00000000  0.88727900  0.25770800  1
  Ni  Ni10  1  0.50000000  0.51293500  0.57683800  1
  Ni  Ni11  1  0.50000000  0.78688200  0.26262300  1
  Ni  Ni12  1  0.50000000  0.61272100  0.75770800  1
  Ni  Ni13  1  0.50000000  0.48706500  0.42316200  1
  Ni  Ni14  1  0.50000000  0.42831100  0.82802100  1
  Ni  Ni15  1  0.00000000  0.07168900  0.32802100  1
  Ni  Ni16  1  0.00000000  0.35107400  0.52603800  1
  Ni  Ni17  1  0.00000000  0.92831100  0.67197900  1
  Ni  Ni18  1  0.00000000  0.56975000  0.05932400  1
  Ni  Ni19  1  0.00000000  0.11272100  0.74229200  1
  Ni  Ni20  1  0.00000000  0.98706500  0.07683800  1
  Ni  Ni21  1  0.00000000  0.28688200  0.23737700  1
  Ni  Ni22  1  0.00000000  0.01293500  0.92316200  1
  Ni  Ni23  1  0.50000000  0.85107400  0.97396200  1
  Ni  Ni24  1  0.50000000  0.38727900  0.24229200  1
  Ni  Ni25  1  0.50000000  0.06975000  0.44067600  1
  Ni  Ni26  1  0.00000000  0.64892600  0.47396200  1
  Ni  Ni27  1  0.00000000  0.75735700  0.95851700  1
  Cu  Cu28  1  0.00000000  0.31141900  0.82022700  1
  Cu  Cu29  1  0.73367100  0.09672600  0.60675100  1
  Cu  Cu30  1  0.50000000  0.74588400  0.84750000  1
  Cu  Cu31  1  0.27281600  0.61150900  0.32848700  1
  Cu  Cu32  1  0.50000000  0.98738900  0.08449500  1
  Cu  Cu33  1  0.74204300  0.33805100  0.38617500  1
  Cu  Cu34  1  0.25795700  0.33805100  0.38617500  1
  Cu  Cu35  1  0.00000000  0.75411600  0.34750000  1
  Cu  Cu36  1  0.50000000  0.01884300  0.73722300  1
  Cu  Cu37  1  0.25795700  0.66194900  0.61382500  1
  Cu  Cu38  1  0.00000000  0.18429400  0.46342200  1
  Cu  Cu39  1  0.76632900  0.40327400  0.10675100  1
  Cu  Cu40  1  0.27281600  0.38849100  0.67151300  1
  Cu  Cu41  1  0.75795700  0.83805100  0.11382500  1
  Cu  Cu42  1  0.50000000  0.81141900  0.67977300  1
  Cu  Cu43  1  0.23367100  0.59672600  0.89324900  1
  Cu  Cu44  1  0.76632900  0.59672600  0.89324900  1
  Cu  Cu45  1  0.00000000  0.48115700  0.23722300  1
  Cu  Cu46  1  0.72718400  0.61150900  0.32848700  1
  Cu  Cu47  1  0.72718400  0.38849100  0.67151300  1
  Cu  Cu48  1  0.75795700  0.16194900  0.88617500  1
  Cu  Cu49  1  0.00000000  0.81570600  0.53657800  1
  Cu  Cu50  1  0.50000000  0.18858100  0.32022700  1
  Cu  Cu51  1  0.23367100  0.40327400  0.10675100  1
  Cu  Cu52  1  0.50000000  0.68429400  0.03657800  1
  Cu  Cu53  1  0.24204300  0.16194900  0.88617500  1
  Cu  Cu54  1  0.00000000  0.00000000  0.50000000  1
  Cu  Cu55  1  0.50000000  0.01261100  0.91550500  1
  Cu  Cu56  1  0.74204300  0.66194900  0.61382500  1
  Cu  Cu57  1  0.26632900  0.90327400  0.39324900  1
  Cu  Cu58  1  0.77281600  0.88849100  0.82848700  1
  Cu  Cu59  1  0.00000000  0.68858100  0.17977300  1
  Cu  Cu60  1  0.50000000  0.98115700  0.26277700  1
  Cu  Cu61  1  0.00000000  0.24588400  0.65250000  1
  Cu  Cu62  1  0.24204300  0.83805100  0.11382500  1
  Cu  Cu63  1  0.00000000  0.51884300  0.76277700  1
  Cu  Cu64  1  0.26632900  0.09672600  0.60675100  1
  Cu  Cu65  1  0.77281600  0.11150900  0.17151300  1
  Cu  Cu66  1  0.73367100  0.90327400  0.39324900  1
  Cu  Cu67  1  0.50000000  0.31570600  0.96342200  1
  Cu  Cu68  1  0.50000000  0.50000000  0.00000000  1
  Cu  Cu69  1  0.00000000  0.51261100  0.58449500  1
  Cu  Cu70  1  0.50000000  0.25411600  0.15250000  1
  Cu  Cu71  1  0.22718400  0.88849100  0.82848700  1
  Cu  Cu72  1  0.22718400  0.11150900  0.17151300  1
  Cu  Cu73  1  0.00000000  0.48738900  0.41550500  1
