# generated using pymatgen
data_Cu7NiC3
_symmetry_space_group_name_H-M   'P 1'
_cell_length_a   8.98988900
_cell_length_b   8.28670500
_cell_length_c   8.65652338
_cell_angle_alpha   79.90491557
_cell_angle_beta   90.00000000
_cell_angle_gamma   90.00000000
_symmetry_Int_Tables_number   1
_chemical_formula_structural   Cu7NiC3
_chemical_formula_sum   'Cu28 Ni4 C12'
_cell_volume   634.89728911
_cell_formula_units_Z   4
loop_
 _symmetry_equiv_pos_site_id
 _symmetry_equiv_pos_as_xyz
  1  'x, y, z'
loop_
 _atom_site_type_symbol
 _atom_site_label
 _atom_site_symmetry_multiplicity
 _atom_site_fract_x
 _atom_site_fract_y
 _atom_site_fract_z
 _atom_site_occupancy
  Ni  Ni0  1  0.99262600  0.69362300  0.55378100  1
  Ni  Ni1  1  0.49262600  0.30637700  0.94621900  1
  Ni  Ni2  1  0.50737400  0.69362300  0.05378100  1
  Ni  Ni3  1  0.00737400  0.30637700  0.44621900  1
  C  C4  1  0.61898900  0.37025200  0.48664300  1
  C  C5  1  0.88101100  0.37025200  0.98664300  1
  C  C6  1  0.11898900  0.62974800  0.01335700  1
  C  C7  1  0.38101100  0.62974800  0.51335700  1
  C  C8  1  0.26819900  0.86765000  0.75244000  1
  C  C9  1  0.76819900  0.13235000  0.74756000  1
  C  C10  1  0.73180100  0.13235000  0.24756000  1
  C  C11  1  0.66965700  0.67115400  0.71783300  1
  C  C12  1  0.16965700  0.32884600  0.78216700  1
  C  C13  1  0.83034300  0.67115400  0.21783300  1
  C  C14  1  0.23180100  0.86765000  0.25244000  1
  C  C15  1  0.33034300  0.32884600  0.28216700  1
  Cu  Cu16  1  0.89226700  0.85467600  0.47708600  1
  Cu  Cu17  1  0.15573300  0.41221800  0.27622300  1
  Cu  Cu18  1  0.59156100  0.57962900  0.56764000  1
  Cu  Cu19  1  0.09317900  0.44515900  0.61103500  1
  Cu  Cu20  1  0.59317900  0.55484100  0.88896500  1
  Cu  Cu21  1  0.65573300  0.58778200  0.22377700  1
  Cu  Cu22  1  0.09156100  0.42037100  0.93236000  1
  Cu  Cu23  1  0.84426700  0.58778200  0.72377700  1
  Cu  Cu24  1  0.39840100  0.77083300  0.22943900  1
  Cu  Cu25  1  0.90682100  0.55484100  0.38896500  1
  Cu  Cu26  1  0.89840100  0.22916700  0.27056100  1
  Cu  Cu27  1  0.68643300  0.27700600  0.07584400  1
  Cu  Cu28  1  0.39226700  0.14532400  0.02291400  1
  Cu  Cu29  1  0.60773300  0.85467600  0.97708600  1
  Cu  Cu30  1  0.40682100  0.44515900  0.11103500  1
  Cu  Cu31  1  0.10159900  0.77083300  0.72943900  1
  Cu  Cu32  1  0.31356700  0.72299400  0.92415600  1
  Cu  Cu33  1  0.90843900  0.57962900  0.06764000  1
  Cu  Cu34  1  0.39318900  0.82022700  0.61837800  1
  Cu  Cu35  1  0.60681100  0.17977300  0.38162200  1
  Cu  Cu36  1  0.34426700  0.41221800  0.77622300  1
  Cu  Cu37  1  0.10681100  0.82022700  0.11837800  1
  Cu  Cu38  1  0.89318900  0.17977300  0.88162200  1
  Cu  Cu39  1  0.18643300  0.72299400  0.42415600  1
  Cu  Cu40  1  0.10773300  0.14532400  0.52291400  1
  Cu  Cu41  1  0.81356700  0.27700600  0.57584400  1
  Cu  Cu42  1  0.40843900  0.42037100  0.43236000  1
  Cu  Cu43  1  0.60159900  0.22916700  0.77056100  1
