# generated using pymatgen
data_Cu53Ni7C44
_symmetry_space_group_name_H-M   'P 1'
_cell_length_a   16.48669800
_cell_length_b   8.55281400
_cell_length_c   8.76133782
_cell_angle_alpha   85.51958507
_cell_angle_beta   90.00000000
_cell_angle_gamma   90.00000000
_symmetry_Int_Tables_number   1
_chemical_formula_structural   Cu53Ni7C44
_chemical_formula_sum   'Cu53 Ni7 C44'
_cell_volume   1231.64044358
_cell_formula_units_Z   1
loop_
 _symmetry_equiv_pos_site_id
 _symmetry_equiv_pos_as_xyz
  1  'x, y, z'
loop_
 _atom_site_type_symbol
 _atom_site_label
 _atom_site_symmetry_multiplicity
 _atom_site_fract_x
 _atom_site_fract_y
 _atom_site_fract_z
 _atom_site_occupancy
  C  C0  1  0.64180800  0.50314300  0.13849100  1
  C  C1  1  0.14180800  0.99685700  0.86150900  1
  C  C2  1  0.35819200  0.49685700  0.86150900  1
  C  C3  1  0.85819200  0.00314300  0.13849100  1
  C  C4  1  0.50045600  0.86939300  0.61975800  1
  C  C5  1  0.00045600  0.63060700  0.38024200  1
  C  C6  1  0.49954400  0.13060700  0.38024200  1
  C  C7  1  0.99954400  0.36939300  0.61975800  1
  C  C8  1  0.68350900  0.43922300  0.47255300  1
  C  C9  1  0.18350900  0.06077700  0.52744700  1
  C  C10  1  0.31649100  0.56077700  0.52744700  1
  C  C11  1  0.81649100  0.93922300  0.47255300  1
  C  C12  1  0.57049500  0.63117600  0.40972700  1
  C  C13  1  0.07049500  0.86882400  0.59027300  1
  C  C14  1  0.42950500  0.36882400  0.59027300  1
  C  C15  1  0.92950500  0.13117600  0.40972700  1
  C  C16  1  0.60918400  0.56875900  0.67395300  1
  C  C17  1  0.10918400  0.93124100  0.32604700  1
  C  C18  1  0.39081600  0.43124100  0.32604700  1
  C  C19  1  0.89081600  0.06875900  0.67395300  1
  C  C20  1  0.49860300  0.72205300  0.16056200  1
  C  C21  1  0.99860300  0.77794700  0.83943800  1
  C  C22  1  0.50139700  0.27794700  0.83943800  1
  C  C23  1  0.00139700  0.22205300  0.16056200  1
  C  C24  1  0.54136500  0.66719600  0.90694000  1
  C  C25  1  0.04136500  0.83280400  0.09306000  1
  C  C26  1  0.45863500  0.33280400  0.09306000  1
  C  C27  1  0.95863500  0.16719600  0.90694000  1
  C  C28  1  0.41605500  0.82326400  0.93846300  1
  C  C29  1  0.91605500  0.67673600  0.06153700  1
  C  C30  1  0.58394500  0.17673600  0.06153700  1
  C  C31  1  0.08394500  0.32326400  0.93846300  1
  C  C32  1  0.32043800  0.04002000  0.89359000  1
  C  C33  1  0.82043800  0.45998000  0.10641000  1
  C  C34  1  0.67956200  0.95998000  0.10641000  1
  C  C35  1  0.17956200  0.54002000  0.89359000  1
  C  C36  1  0.26806700  0.77805600  0.90435900  1
  C  C37  1  0.76806700  0.72194400  0.09564100  1
  C  C38  1  0.73193300  0.22194400  0.09564100  1
  C  C39  1  0.23193300  0.27805600  0.90435900  1
  C  C40  1  0.67384600  0.10159900  0.55683800  1
  C  C41  1  0.17384600  0.39840100  0.44316200  1
  C  C42  1  0.32615400  0.89840100  0.44316200  1
  C  C43  1  0.82615400  0.60159900  0.55683800  1
  Ni  Ni44  1  0.67243900  0.27439200  0.43183100  1
  Cu  Cu45  1  0.16725247  0.25593455  0.52431995  1
  Cu  Cu46  1  0.34365140  0.73025560  0.55408122  1
  Cu  Cu47  1  0.82365454  0.79430441  0.42553826  1
  Cu  Cu48  1  0.73302135  0.98512865  0.42988598  1
  Cu  Cu49  1  0.23370484  0.53395659  0.55066144  1
  Cu  Cu50  1  0.27635283  0.01907557  0.53977714  1
  Cu  Cu51  1  0.78156281  0.49170164  0.40173031  1
  Cu  Cu52  1  0.58134990  0.04052235  0.54801167  1
  Cu  Cu53  1  0.07188510  0.46184325  0.46685067  1
  Cu  Cu54  1  0.40891232  0.95165798  0.48084438  1
  Cu  Cu55  1  0.90851653  0.50403376  0.51797736  1
  Cu  Cu56  1  0.66203177  0.45748618  0.64682591  1
  Cu  Cu57  1  0.18140607  0.04143239  0.39015788  1
  Cu  Cu58  1  0.33932629  0.54673332  0.35424268  1
  Cu  Cu59  1  0.84888938  0.94722251  0.64030317  1
  Ni  Ni60  1  0.62898900  0.53296100  0.36301600  1
  Cu  Cu61  1  0.12597909  0.93504593  0.63336452  1
  Ni  Ni62  1  0.37101100  0.46703900  0.63698400  1
  Cu  Cu63  1  0.86551081  0.02436933  0.34338188  1
  Cu  Cu64  1  0.51120830  0.71270743  0.28912272  1
  Cu  Cu65  1  0.01549081  0.77119541  0.68923938  1
  Cu  Cu66  1  0.48687301  0.28128564  0.68714423  1
  Cu  Cu67  1  0.97817942  0.20609925  0.29922112  1
  Cu  Cu68  1  0.53383482  0.63636133  0.06747324  1
  Cu  Cu69  1  0.06552614  0.86883432  0.91683272  1
  Cu  Cu70  1  0.44471835  0.40694028  0.91749483  1
  Cu  Cu71  1  0.94502739  0.14227140  0.06575114  1
  Cu  Cu72  1  0.44563040  0.79168887  0.09132733  1
  Cu  Cu73  1  0.94781431  0.67972293  0.90473475  1
  Cu  Cu74  1  0.55731597  0.18095087  0.90728150  1
  Cu  Cu75  1  0.07108296  0.30564558  0.09587716  1
  Cu  Cu76  1  0.56860146  0.67307428  0.56234006  1
  Cu  Cu77  1  0.06624102  0.82560480  0.42976825  1
  Cu  Cu78  1  0.45314397  0.37506348  0.41560734  1
  Ni  Ni79  1  0.93766700  0.15749900  0.56544500  1
  Cu  Cu80  1  0.60285961  0.60230533  0.80850975  1
  Cu  Cu81  1  0.09938105  0.88694078  0.16341356  1
  Cu  Cu82  1  0.40054811  0.40972147  0.17077479  1
  Cu  Cu83  1  0.90967921  0.09328751  0.82970345  1
  Cu  Cu84  1  0.48071561  0.76247354  0.84200175  1
  Cu  Cu85  1  0.99514653  0.72563016  0.16260567  1
  Cu  Cu86  1  0.52206974  0.22084172  0.16151741  1
  Cu  Cu87  1  0.00961800  0.23185536  0.85636768  1
  Cu  Cu88  1  0.38293166  0.97298015  0.89032276  1
  Cu  Cu89  1  0.89925933  0.50835308  0.08431190  1
  Cu  Cu90  1  0.60398445  0.01349693  0.11083153  1
  Cu  Cu91  1  0.09550910  0.48450346  0.88848290  1
  Cu  Cu92  1  0.25595480  0.94362122  0.90074858  1
  Cu  Cu93  1  0.76067466  0.56269487  0.07595428  1
  Cu  Cu94  1  0.75302512  0.05828042  0.07999445  1
  Ni  Ni95  1  0.24550400  0.43797500  0.91181500  1
  Cu  Cu96  1  0.19808910  0.66981220  0.89035743  1
  Cu  Cu97  1  0.69862327  0.79940605  0.10366635  1
  Cu  Cu98  1  0.79619318  0.31029737  0.11178362  1
  Cu  Cu99  1  0.31018046  0.18203374  0.88423425  1
  Cu  Cu100  1  0.34506878  0.70951658  0.94323504  1
  Ni  Ni101  1  0.84413200  0.78232000  0.08515500  1
  Cu  Cu102  1  0.66053316  0.28798939  0.08725299  1
  Ni  Ni103  1  0.15586800  0.21768000  0.91484500  1
