# generated using pymatgen
data_Cu2C115
_symmetry_space_group_name_H-M   'P 1'
_cell_length_a   17.92654457
_cell_length_b   9.05784178
_cell_length_c   22.31317859
_cell_angle_alpha   89.94294578
_cell_angle_beta   89.27397342
_cell_angle_gamma   120.36448615
_symmetry_Int_Tables_number   1
_chemical_formula_structural   Cu2C115
_chemical_formula_sum   'Cu4 C230'
_cell_volume   3125.76062463
_cell_formula_units_Z   2
loop_
 _symmetry_equiv_pos_site_id
 _symmetry_equiv_pos_as_xyz
  1  'x, y, z'
loop_
 _atom_site_type_symbol
 _atom_site_label
 _atom_site_symmetry_multiplicity
 _atom_site_fract_x
 _atom_site_fract_y
 _atom_site_fract_z
 _atom_site_occupancy
  C  C0  1  0.81109587  0.00471835  0.24278541  1
  C  C1  1  0.00244041  0.63101952  0.24427444  1
  C  C2  1  0.50132737  0.62885537  0.24322861  1
  C  C3  1  0.00121016  0.37436230  0.74206210  1
  C  C4  1  0.50102721  0.37429744  0.74303394  1
  C  C5  1  0.18404019  0.00954074  0.75282391  1
  C  C6  1  0.65631318  0.35024258  0.58138977  1
  C  C7  1  0.65905080  0.95873678  0.08431426  1
  C  C8  1  0.83127164  0.68879289  0.07580072  1
  C  C9  1  0.01167609  0.33934031  0.08100786  1
  C  C10  1  0.48046658  0.66145272  0.92295979  1
  C  C11  1  0.84862036  0.03418810  0.92276192  1
  C  C12  1  0.16618504  0.29679418  0.91211318  1
  C  C13  1  0.66610128  0.29880594  0.91076770  1
  C  C14  1  0.48013696  0.29831394  0.42223012  1
  C  C15  1  0.98363666  0.30233974  0.42414243  1
  C  C16  1  0.16639469  0.03495264  0.41171180  1
  C  C17  1  0.66525035  0.03449461  0.41118118  1
  C  C18  1  0.99211660  0.99169737  0.49731521  1
  C  C19  1  0.48291642  0.97467515  0.49610660  1
  C  C20  1  0.00052372  0.97613835  0.99521031  1
  C  C21  1  0.48298414  0.99162673  0.99661097  1
  C  C22  1  0.32790324  0.33429792  0.83066278  1
  C  C23  1  0.82685100  0.34308903  0.82721519  1
  C  C24  1  0.31971151  0.32143324  0.32737467  1
  C  C25  1  0.82244102  0.33721363  0.32993660  1
  C  C26  1  0.17268671  0.69073639  0.16532198  1
  C  C27  1  0.65938219  0.66115885  0.16277536  1
  C  C28  1  0.16482132  0.64491286  0.66077223  1
  C  C29  1  0.66700669  0.66898104  0.66602000  1
  Cu  Cu30  1  0.01623376  0.02475684  0.64589318  1
  Cu  Cu31  1  0.49529919  0.99106261  0.64975892  1
  Cu  Cu32  1  0.01843960  0.99599906  0.14964119  1
  Cu  Cu33  1  0.50981664  0.00779040  0.14887228  1
  C  C34  1  0.00795674  0.00252977  0.34609954  1
  C  C35  1  0.50138622  0.00096907  0.34551266  1
  C  C36  1  0.00689320  -0.00016418  0.84577503  1
  C  C37  1  0.50504189  0.00753189  0.84412616  1
  C  C38  1  0.33400480  0.34799147  0.67912058  1
  C  C39  1  0.83167957  0.33694707  0.68179459  1
  C  C40  1  0.33045651  0.32115889  0.18185007  1
  C  C41  1  0.83005308  0.31682732  0.17816554  1
  C  C42  1  0.33927855  0.33315416  0.99261102  1
  C  C43  1  0.85073381  0.34631320  0.99425654  1
  C  C44  1  0.33837488  0.34123914  0.49308045  1
  C  C45  1  0.84282777  0.34623418  0.49209765  1
  C  C46  1  0.16625876  0.68335676  0.01767652  1
  C  C47  1  0.66035327  0.66806645  0.02108523  1
  C  C48  1  0.16052072  0.65096692  0.51957460  1
  C  C49  1  0.65984603  0.66002435  0.51807411  1
  C  C50  1  0.17116387  0.68690655  0.31329233  1
  C  C51  1  0.66569565  0.67279017  0.31426090  1
  C  C52  1  0.16946987  0.65277863  0.81432035  1
  C  C53  1  0.67014508  0.65082676  0.81079886  1
  C  C54  1  0.15597633  0.00673059  0.25423402  1
  C  C55  1  0.65172435  0.00735659  0.25444470  1
  C  C56  1  0.15449455  0.30410039  0.75274179  1
  C  C57  1  0.65438276  0.30094284  0.75262810  1
  C  C58  1  0.48049639  0.34207286  0.58442224  1
  C  C59  1  0.98074366  0.34480404  0.58456843  1
  C  C60  1  0.47653753  0.61611859  0.08490227  1
  C  C61  1  0.98180633  0.62300376  0.08627074  1
  C  C62  1  0.83308121  0.03056396  0.08268003  1
  C  C63  1  0.35131703  0.70678433  0.25294493  1
  C  C64  1  0.85356919  0.70907623  0.25138200  1
  C  C65  1  0.00239894  0.29203400  0.25271042  1
  C  C66  1  0.50088197  0.29198012  0.25265197  1
  C  C67  1  -0.00059462  0.71003957  0.75106562  1
  C  C68  1  0.50010328  0.70953890  0.75270260  1
  C  C69  1  0.35244882  0.99497981  0.75202578  1
  C  C70  1  0.85339535  0.99574098  0.75295139  1
  C  C71  1  0.18497340  0.03464338  0.58361185  1
  C  C72  1  0.68548170  0.03523563  0.58250010  1
  C  C73  1  0.33330107  0.63256698  0.58367737  1
  C  C74  1  0.83514888  0.63457071  0.58328810  1
  C  C75  1  0.33367396  0.03506053  0.08389384  1
  C  C76  1  0.18857064  0.33851971  0.08221258  1
  C  C77  1  0.68299754  0.32932914  0.08247689  1
  C  C78  1  0.31374412  0.66946904  0.91673734  1
  C  C79  1  0.81472201  0.66603250  0.91658625  1
  C  C80  1  0.01737186  0.37084229  0.91585282  1
  C  C81  1  0.51809750  0.37094227  0.91637093  1
  C  C82  1  0.16846888  0.96486844  0.91489421  1
  C  C83  1  0.66592046  0.95957151  0.91536799  1
  C  C84  1  0.31347176  0.95805879  0.41724090  1
  C  C85  1  0.81359222  0.95823210  0.41546905  1
  C  C86  1  0.16873928  0.37643063  0.41602267  1
  C  C87  1  0.66859790  0.37501621  0.41741641  1
  C  C88  1  0.01707967  0.66522434  0.41596319  1
  C  C89  1  0.51658876  0.66500258  0.41629700  1
  C  C90  1  0.11367083  0.02710007  0.31603300  1
  C  C91  1  0.60693071  0.02295481  0.31524455  1
  C  C92  1  0.40435886  0.79282761  0.30522651  1
  C  C93  1  0.90686354  0.79512069  0.30371567  1
  C  C94  1  0.49006527  0.19554225  0.30864647  1
  C  C95  1  0.98778098  0.18489412  0.30648585  1
  C  C96  1  0.11302114  0.18678523  0.81280561  1
  C  C97  1  0.61113710  0.19534704  0.81419389  1
  C  C98  1  0.48848079  0.78421326  0.80847816  1
  C  C99  1  0.98602956  0.78467366  0.80586835  1
  C  C100  1  0.40432003  0.01447220  0.80482431  1
  C  C101  1  0.90400234  0.01507092  0.80736376  1
  C  C102  1  0.39790785  0.97496528  0.69652776  1
  C  C103  1  0.90137478  0.97642926  0.69871320  1
  C  C104  1  0.08392870  0.18549812  0.69636137  1
  C  C105  1  0.58367188  0.18130077  0.69535296  1
  C  C106  1  0.00693520  0.81855936  0.69732669  1
  C  C107  1  0.50396002  0.81778348  0.69933378  1
  C  C108  1  0.39884234  0.82146565  0.19717205  1
  C  C109  1  0.89824661  0.82160165  0.19518373  1
  C  C110  1  0.00671132  0.19859379  0.19725141  1
  C  C111  1  0.50544024  0.19206377  0.19941963  1
  C  C112  1  0.08489411  0.98626198  0.19870842  1
  C  C113  1  0.58390747  0.98399003  0.19594396  1
  C  C114  1  0.43582115  0.35649395  0.64554690  1
  C  C115  1  0.93384173  0.35499208  0.64534658  1
  C  C116  1  0.23329437  0.11598110  0.63808146  1
  C  C117  1  0.73531578  0.11873047  0.63539410  1
  C  C118  1  0.31813214  0.52874615  0.63774632  1
  C  C119  1  0.81680927  0.52258351  0.63571880  1
  C  C120  1  0.43224529  0.51202458  0.14585254  1
  C  C121  1  0.93853481  0.51323065  0.14724213  1
  C  C122  1  0.31899138  0.11026537  0.13717151  1
  C  C123  1  0.80957439  0.10544620  0.14090402  1
  C  C124  1  0.23888638  0.35671796  0.13473355  1
  C  C125  1  0.73640018  0.35639565  0.13519040  1
  C  C126  1  0.21927971  0.29851257  0.02579777  1
  C  C127  1  0.71563726  0.28725891  0.02765050  1
  C  C128  1  0.42442530  0.55322561  0.02263762  1
  C  C129  1  0.91567919  0.56316943  0.03045115  1
  C  C130  1  0.35085017  0.13727404  0.02837806  1
  C  C131  1  0.85654572  0.14987649  0.02248859  1
  C  C132  1  0.21883986  0.14226593  0.52878981  1
  C  C133  1  0.71720092  0.14381776  0.52735191  1
  C  C134  1  0.35130262  0.56277358  0.52920374  1
  C  C135  1  0.85101537  0.56365335  0.52803648  1
  C  C136  1  0.42776077  0.30205634  0.52260268  1
  C  C137  1  0.92700010  0.29769633  0.52254944  1
  C  C138  1  0.27179453  0.68655824  0.97151328  1
  C  C139  1  0.77509427  0.68996706  0.97220215  1
  C  C140  1  0.06957064  0.45152865  0.96990679  1
  C  C141  1  0.57462370  0.45751240  0.96810558  1
  C  C142  1  0.15922985  0.86072527  0.96844993  1
  C  C143  1  0.65659051  0.86392299  0.97201104  1
  C  C144  1  0.27226055  0.85608062  0.47196979  1
  C  C145  1  0.76973908  0.85277018  0.46925629  1
  C  C146  1  0.15715019  0.45778483  0.47001434  1
  C  C147  1  0.65894193  0.45422975  0.47327697  1
  C  C148  1  0.07336599  0.69188224  0.46783548  1
  C  C149  1  0.57380059  0.69300137  0.46782114  1
  C  C150  1  0.05557047  0.63913019  0.35985519  1
  C  C151  1  0.55559713  0.63977109  0.36005883  1
  C  C152  1  0.26283048  0.87738681  0.36281407  1
  C  C153  1  0.76420871  0.87874992  0.35961685  1
  C  C154  1  0.17812633  0.47520467  0.36085832  1
  C  C155  1  0.67787705  0.47848079  0.36345205  1
  C  C156  1  0.05997592  0.47005752  0.86031340  1
  C  C157  1  0.55655170  0.47351802  0.86002306  1
  C  C158  1  0.17733812  0.88754842  0.85844349  1
  C  C159  1  0.67706344  0.87244124  0.86296366  1
  C  C160  1  0.26279304  0.64971035  0.86234893  1
  C  C161  1  0.76007519  0.64471253  0.86393851  1
  C  C162  1  0.00807937  0.82030226  0.41273986  1
  C  C163  1  0.50850165  0.82072330  0.41310727  1
  C  C164  1  0.40401834  0.98771239  0.41205065  1
  C  C165  1  0.90351429  0.98763132  0.41150200  1
  C  C166  1  0.08636781  0.20084374  0.41482734  1
  C  C167  1  0.58659778  0.20146593  0.41566970  1
  C  C168  1  0.00761530  0.19487108  0.91321182  1
  C  C169  1  0.50959836  0.19819210  0.91311719  1
  C  C170  1  0.08899222  0.98237862  0.91465552  1
  C  C171  1  0.58476273  0.97076173  0.91319532  1
  C  C172  1  0.40372256  0.82054828  0.91192234  1
  C  C173  1  0.90169096  0.82614414  0.91053571  1
  C  C174  1  0.49172486  0.15937081  0.59383047  1
  C  C175  1  0.98951059  0.16004353  0.59419059  1
  C  C176  1  0.09265527  0.01045914  0.59156560  1
  C  C177  1  0.59340926  0.01333014  0.59104944  1
  C  C178  1  0.41664822  0.80764527  0.59231691  1
  C  C179  1  0.91588660  0.80798888  0.59224601  1
  C  C180  1  0.48979897  0.82307539  0.09420344  1
  C  C181  1  0.99525204  0.82259586  0.09523856  1
  C  C182  1  0.41644952  0.02515946  0.09221889  1
  C  C183  1  0.92431321  0.02360360  0.09422609  1
  C  C184  1  0.09567917  0.17893620  0.09096608  1
  C  C185  1  0.59273669  0.16988022  0.09246670  1
  C  C186  1  0.34678055  0.15103694  0.74576151  1
  C  C187  1  0.84975223  0.15321230  0.74636494  1
  C  C188  1  0.24513959  0.30818737  0.74128159  1
  C  C189  1  0.74700022  0.31787369  0.74135396  1
  C  C190  1  0.42500611  0.53472275  0.74810938  1
  C  C191  1  0.92699883  0.53364432  0.74639763  1
  C  C192  1  0.34840321  0.54355253  0.24574399  1
  C  C193  1  0.84713783  0.54229578  0.24471123  1
  C  C194  1  0.42669290  0.31796856  0.24779346  1
  C  C195  1  0.92582089  0.31303314  0.24885541  1
  C  C196  1  0.24805127  0.17599502  0.24248691  1
  C  C197  1  0.74696166  0.17421912  0.24595950  1
  C  C198  1  0.32033296  0.50986951  0.91894312  1
  C  C199  1  0.82055148  0.50813698  0.91997473  1
  C  C200  1  0.43123395  0.35539574  0.92215768  1
  C  C201  1  0.92925317  0.34897726  0.91844959  1
  C  C202  1  0.24541057  0.14242899  0.91961155  1
  C  C203  1  0.74264147  0.13676134  0.91798849  1
  C  C204  1  0.32048315  0.13128136  0.42003788  1
  C  C205  1  0.81923208  0.13000374  0.41853406  1
  C  C206  1  0.24358439  0.34721704  0.42115408  1
  C  C207  1  0.74367185  0.34662966  0.42084977  1
  C  C208  1  0.43047099  0.50696657  0.42244866  1
  C  C209  1  0.93005426  0.50668071  0.42160659  1
  C  C210  1  0.17202220  0.48077207  0.07627770  1
  C  C211  1  0.67119316  0.47692216  0.07571886  1
  C  C212  1  0.07543442  0.63814607  0.07761989  1
  C  C213  1  0.57706926  0.66497304  0.08114338  1
  C  C214  1  0.26187220  0.85769219  0.07799063  1
  C  C215  1  0.75530171  0.83308040  0.07653801  1
  C  C216  1  0.17325892  0.86391855  0.57721886  1
  C  C217  1  0.67279501  0.86347346  0.57576051  1
  C  C218  1  0.26269758  0.66789406  0.57732904  1
  C  C219  1  0.76096295  0.66193331  0.57717276  1
  C  C220  1  0.07907529  0.50233807  0.58076027  1
  C  C221  1  0.58202967  0.49433936  0.58040860  1
  C  C222  1  0.15045041  0.82008342  0.25054582  1
  C  C223  1  0.65366542  0.82602224  0.25077481  1
  C  C224  1  0.26636759  0.69185199  0.25256886  1
  C  C225  1  0.76866660  0.69862753  0.25272602  1
  C  C226  1  0.08230092  0.46062633  0.25308693  1
  C  C227  1  0.58245263  0.46073447  0.25114375  1
  C  C228  1  0.15056148  0.47992619  0.75142876  1
  C  C229  1  0.64882823  0.47669688  0.74855786  1
  C  C230  1  0.08273697  0.70971344  0.75171400  1
  C  C231  1  0.58097107  0.70336841  0.75118650  1
  C  C232  1  0.26484095  0.84326446  0.75263274  1
  C  C233  1  0.76742975  0.84087769  0.75293216  1
