# generated using pymatgen
data_CuNi3C52
_symmetry_space_group_name_H-M   'P 1'
_cell_length_a   9.24597800
_cell_length_b   11.82327100
_cell_length_c   12.20386537
_cell_angle_alpha   72.67112765
_cell_angle_beta   90.00000000
_cell_angle_gamma   90.00000000
_symmetry_Int_Tables_number   1
_chemical_formula_structural   CuNi3C52
_chemical_formula_sum   'Cu1 Ni3 C52'
_cell_volume   1273.54490598
_cell_formula_units_Z   1
loop_
 _symmetry_equiv_pos_site_id
 _symmetry_equiv_pos_as_xyz
  1  'x, y, z'
loop_
 _atom_site_type_symbol
 _atom_site_label
 _atom_site_symmetry_multiplicity
 _atom_site_fract_x
 _atom_site_fract_y
 _atom_site_fract_z
 _atom_site_occupancy
  Cu  Cu0  1  0.70245871  0.94012532  0.87215067  1
  Ni  Ni1  1  0.31391900  0.08236600  0.12873300  1
  Ni  Ni2  1  0.81391900  0.41763400  0.87126700  1
  Ni  Ni3  1  0.18608100  0.58236600  0.12873300  1
  C  C4  1  0.94383500  0.25530400  0.20625900  1
  C  C5  1  0.55616500  0.75530400  0.20625900  1
  C  C6  1  0.05616500  0.74469600  0.79374100  1
  C  C7  1  0.44383500  0.24469600  0.79374100  1
  C  C8  1  0.31414900  0.36382000  0.62788700  1
  C  C9  1  0.68585100  0.63618000  0.37211300  1
  C  C10  1  0.81414900  0.13618000  0.37211300  1
  C  C11  1  0.18585100  0.86382000  0.62788700  1
  C  C12  1  0.61189100  0.74432300  0.42892600  1
  C  C13  1  0.84374500  0.67246100  0.28718700  1
  C  C14  1  0.58213300  0.52358600  0.34224400  1
  C  C15  1  0.65625500  0.17246100  0.28718700  1
  C  C16  1  0.08213300  0.97641400  0.65775600  1
  C  C17  1  0.91786700  0.02358600  0.34224400  1
  C  C18  1  0.11189100  0.75567700  0.57107400  1
  C  C19  1  0.76325700  0.55282900  0.50329400  1
  C  C20  1  0.41786700  0.47641400  0.65775600  1
  C  C21  1  0.88810900  0.24432300  0.42892600  1
  C  C22  1  0.26325700  0.94717100  0.49670600  1
  C  C23  1  0.23674300  0.44717100  0.49670600  1
  C  C24  1  0.15625500  0.32753900  0.71281300  1
  C  C25  1  0.73674300  0.05282900  0.50329400  1
  C  C26  1  0.38810900  0.25567700  0.57107400  1
  C  C27  1  0.34374500  0.82753900  0.71281300  1
  C  C28  1  0.54244900  0.68101300  0.05701100  1
  C  C29  1  0.14318000  0.56051500  0.87006600  1
  C  C30  1  0.17926600  0.28605700  0.23876500  1
  C  C31  1  0.35682000  0.06051500  0.87006600  1
  C  C32  1  0.32073400  0.78605700  0.23876500  1
  C  C33  1  0.95755100  0.18101300  0.05701100  1
  C  C34  1  0.45755100  0.31898700  0.94298900  1
  C  C35  1  0.82073400  0.71394300  0.76123500  1
  C  C36  1  0.85682000  0.43948500  0.12993400  1
  C  C37  1  0.67926600  0.21394300  0.76123500  1
  C  C38  1  0.64318000  0.93948500  0.12993400  1
  C  C39  1  0.04244900  0.81898700  0.94298900  1
  C  C40  1  0.93180800  0.31275700  0.47199900  1
  C  C41  1  0.04868000  0.30993800  0.76411500  1
  C  C42  1  0.56819200  0.81275700  0.47199900  1
  C  C43  1  0.06819200  0.68724300  0.52800100  1
  C  C44  1  0.45132000  0.80993800  0.76411500  1
  C  C45  1  0.51789100  0.44645200  0.32446300  1
  C  C46  1  0.48210900  0.55354800  0.67553700  1
  C  C47  1  0.95132000  0.69006200  0.23588500  1
  C  C48  1  0.31052700  0.99963700  0.40832800  1
  C  C49  1  0.01789100  0.05354800  0.67553700  1
  C  C50  1  0.43180800  0.18724300  0.52800100  1
  C  C51  1  0.54868000  0.19006200  0.23588500  1
  C  C52  1  0.18947300  0.49963700  0.40832800  1
  C  C53  1  0.98210900  0.94645200  0.32446300  1
  C  C54  1  0.81052700  0.50036300  0.59167200  1
  C  C55  1  0.68947300  0.00036300  0.59167200  1
