# generated using pymatgen
data_Cu7NiC16
_symmetry_space_group_name_H-M   'P 1'
_cell_length_a   2.96656400
_cell_length_b   8.77719900
_cell_length_c   10.71807100
_cell_angle_alpha   90.00000000
_cell_angle_beta   90.00000000
_cell_angle_gamma   90.00000000
_symmetry_Int_Tables_number   1
_chemical_formula_structural   Cu7NiC16
_chemical_formula_sum   'Cu7 Ni1 C16'
_cell_volume   279.07844646
_cell_formula_units_Z   1
loop_
 _symmetry_equiv_pos_site_id
 _symmetry_equiv_pos_as_xyz
  1  'x, y, z'
loop_
 _atom_site_type_symbol
 _atom_site_label
 _atom_site_symmetry_multiplicity
 _atom_site_fract_x
 _atom_site_fract_y
 _atom_site_fract_z
 _atom_site_occupancy
  Cu  Cu0  1  0.76956599  0.90712063  0.09554059  1
  Cu  Cu1  1  0.28880934  0.57262009  0.59549725  1
  Cu  Cu2  1  0.79511441  0.41427703  0.40230166  1
  Ni  Ni3  1  0.25000000  0.08575600  0.89648400  1
  Cu  Cu4  1  0.32102521  0.03691967  0.39053714  1
  Cu  Cu5  1  0.74864338  0.97362882  0.59349759  1
  Cu  Cu6  1  0.24225268  0.55349951  0.11034188  1
  Cu  Cu7  1  0.69520957  0.42248180  0.88382385  1
  C  C8  1  0.75000000  0.41964400  0.07044700  1
  C  C9  1  0.25000000  0.58035600  0.92955300  1
  C  C10  1  0.75000000  0.91964400  0.42955300  1
  C  C11  1  0.25000000  0.08035600  0.57044700  1
  C  C12  1  0.75000000  0.53442700  0.71318300  1
  C  C13  1  0.25000000  0.46557300  0.28681700  1
  C  C14  1  0.75000000  0.03442700  0.78681700  1
  C  C15  1  0.25000000  0.96557300  0.21318300  1
  C  C16  1  0.75000000  0.11929200  0.01229400  1
  C  C17  1  0.25000000  0.88070800  0.98770600  1
  C  C18  1  0.75000000  0.61929200  0.48770600  1
  C  C19  1  0.25000000  0.38070800  0.51229400  1
  C  C20  1  0.25000000  0.30846600  0.85365900  1
  C  C21  1  0.75000000  0.69153400  0.14634100  1
  C  C22  1  0.75000000  0.19153400  0.35365900  1
  C  C23  1  0.25000000  0.80846600  0.64634100  1
