# generated using pymatgen
data_Cu11NiC8
_symmetry_space_group_name_H-M   'P 1'
_cell_length_a   7.82341000
_cell_length_b   5.48592500
_cell_length_c   5.59864177
_cell_angle_alpha   89.93353099
_cell_angle_beta   90.00000000
_cell_angle_gamma   90.00000000
_symmetry_Int_Tables_number   1
_chemical_formula_structural   Cu11NiC8
_chemical_formula_sum   'Cu11 Ni1 C8'
_cell_volume   240.28593164
_cell_formula_units_Z   1
loop_
 _symmetry_equiv_pos_site_id
 _symmetry_equiv_pos_as_xyz
  1  'x, y, z'
loop_
 _atom_site_type_symbol
 _atom_site_label
 _atom_site_symmetry_multiplicity
 _atom_site_fract_x
 _atom_site_fract_y
 _atom_site_fract_z
 _atom_site_occupancy
  C  C0  1  0.50000000  0.49152900  0.53928600  1
  C  C1  1  0.50000000  0.01095800  0.04710500  1
  C  C2  1  0.00000000  0.51116600  0.45017200  1
  C  C3  1  0.00000000  0.98985300  0.95292500  1
  C  C4  1  0.24849800  0.00048900  0.50084900  1
  C  C5  1  0.75100800  0.49957700  0.99779700  1
  C  C6  1  0.75150200  0.00048900  0.50084900  1
  C  C7  1  0.24899200  0.49957700  0.99779700  1
  Cu  Cu8  1  0.53083080  0.61293436  0.96100975  1
  Cu  Cu9  1  0.49079203  0.94691784  0.49984985  1
  Ni  Ni10  1  0.00000000  0.41651900  0.02148600  1
  Cu  Cu11  1  0.02407075  0.07862932  0.51165424  1
  Cu  Cu12  1  0.28129832  0.19944671  0.78623041  1
  Cu  Cu13  1  0.71432926  0.29410641  0.29279968  1
  Cu  Cu14  1  0.79203421  0.79178100  0.22017986  1
  Cu  Cu15  1  0.21166662  0.71202178  0.71305977  1
  Cu  Cu16  1  0.20680156  0.75801028  0.22514671  1
  Cu  Cu17  1  0.80905798  0.68883406  0.76283980  1
  Cu  Cu18  1  0.69993423  0.19446355  0.77353067  1
  Cu  Cu19  1  0.30839173  0.27592133  0.33964474  1
