# generated using pymatgen
data_Cu11Ni5C28
_symmetry_space_group_name_H-M   'P 1'
_cell_length_a   10.55465300
_cell_length_b   6.21524200
_cell_length_c   13.22424864
_cell_angle_alpha   73.07910618
_cell_angle_beta   90.00000000
_cell_angle_gamma   90.00000000
_symmetry_Int_Tables_number   1
_chemical_formula_structural   Cu11Ni5C28
_chemical_formula_sum   'Cu11 Ni5 C28'
_cell_volume   829.95050347
_cell_formula_units_Z   1
loop_
 _symmetry_equiv_pos_site_id
 _symmetry_equiv_pos_as_xyz
  1  'x, y, z'
loop_
 _atom_site_type_symbol
 _atom_site_label
 _atom_site_symmetry_multiplicity
 _atom_site_fract_x
 _atom_site_fract_y
 _atom_site_fract_z
 _atom_site_occupancy
  Ni  Ni0  1  0.94518300  0.07158500  0.12041400  1
  Cu  Cu1  1  0.45680447  0.89486674  0.39181101  1
  Cu  Cu2  1  0.04691576  0.90932609  0.87618455  1
  Cu  Cu3  1  0.54631682  0.05080937  0.63006616  1
  Ni  Ni4  1  0.69017600  0.01729500  0.02536900  1
  Cu  Cu5  1  0.19108301  0.98534888  0.47849955  1
  Cu  Cu6  1  0.32081312  0.97929588  0.96836268  1
  Cu  Cu7  1  0.82239827  0.01555135  0.49942309  1
  Cu  Cu8  1  0.60561614  0.36227376  0.14097136  1
  Cu  Cu9  1  0.12344412  0.65377053  0.36986667  1
  Cu  Cu10  1  0.38401710  0.63636749  0.87714800  1
  Ni  Ni11  1  0.88483900  0.35374200  0.62982700  1
  Ni  Ni12  1  0.89284700  0.31863900  0.19243300  1
  Ni  Ni13  1  0.39284700  0.68136100  0.30756700  1
  Cu  Cu14  1  0.13381687  0.69840571  0.79458881  1
  Cu  Cu15  1  0.60389461  0.29033531  0.69835308  1
  C  C16  1  0.83003400  0.99917700  0.06223400  1
  C  C17  1  0.33003400  0.00082300  0.43776600  1
  C  C18  1  0.16996600  0.00082300  0.93776600  1
  C  C19  1  0.66996600  0.99917700  0.56223400  1
  C  C20  1  0.59965200  0.18612400  0.06023700  1
  C  C21  1  0.09965200  0.81387600  0.43976300  1
  C  C22  1  0.40034800  0.81387600  0.93976300  1
  C  C23  1  0.90034800  0.18612400  0.56023700  1
  C  C24  1  0.74746400  0.37442400  0.17706100  1
  C  C25  1  0.24746400  0.62557600  0.32293900  1
  C  C26  1  0.25253600  0.62557600  0.82293900  1
  C  C27  1  0.75253600  0.37442400  0.67706100  1
  C  C28  1  0.20053900  0.33393600  0.14908300  1
  C  C29  1  0.70053900  0.66606400  0.35091700  1
  C  C30  1  0.79946100  0.66606400  0.85091700  1
  C  C31  1  0.29946100  0.33393600  0.64908300  1
  C  C32  1  0.15382400  0.49068300  0.07606300  1
  C  C33  1  0.65382400  0.50931700  0.42393700  1
  C  C34  1  0.84617600  0.50931700  0.92393700  1
  C  C35  1  0.34617600  0.49068300  0.57606300  1
  C  C36  1  0.12451800  0.19305500  0.21404300  1
  C  C37  1  0.62451800  0.80694500  0.28595700  1
  C  C38  1  0.87548200  0.80694500  0.78595700  1
  C  C39  1  0.37548200  0.19305500  0.71404300  1
  C  C40  1  0.31754100  0.30605700  0.16253300  1
  C  C41  1  0.81754100  0.69394300  0.33746700  1
  C  C42  1  0.68245900  0.69394300  0.83746700  1
  C  C43  1  0.18245900  0.30605700  0.66253300  1
