# generated using pymatgen
data_Cu13NiC2
_symmetry_space_group_name_H-M   'P 1'
_cell_length_a   6.62949516
_cell_length_b   6.74643762
_cell_length_c   10.61764614
_cell_angle_alpha   90.00000000
_cell_angle_beta   90.00000000
_cell_angle_gamma   120.58525903
_symmetry_Int_Tables_number   1
_chemical_formula_structural   Cu13NiC2
_chemical_formula_sum   'Cu13 Ni1 C2'
_cell_volume   408.81072755
_cell_formula_units_Z   1
loop_
 _symmetry_equiv_pos_site_id
 _symmetry_equiv_pos_as_xyz
  1  'x, y, z'
loop_
 _atom_site_type_symbol
 _atom_site_label
 _atom_site_symmetry_multiplicity
 _atom_site_fract_x
 _atom_site_fract_y
 _atom_site_fract_z
 _atom_site_occupancy
  C  C0  1  0.16057912  0.83028906  0.12500000  1
  Cu  Cu1  1  0.17077865  0.35139905  0.62603989  1
  Cu  Cu2  1  0.19398573  0.89093537  0.62632052  1
  Cu  Cu3  1  0.66734774  0.34324618  0.13966952  1
  Cu  Cu4  1  0.65837329  0.30390307  0.63030938  1
  Ni  Ni5  1  0.65910227  0.82495911  0.12500000  1
  Cu  Cu6  1  0.67855685  0.86448935  0.62924897  1
  Cu  Cu7  1  0.30034168  0.16411814  0.40266503  1
  Cu  Cu8  1  0.34048328  0.18026002  0.84318837  1
  Cu  Cu9  1  0.32122468  0.64497022  0.40662908  1
  Cu  Cu10  1  0.31836440  0.62950633  0.85293215  1
  Cu  Cu11  1  0.86152632  0.17694803  0.37477234  1
  Cu  Cu12  1  0.84880563  0.17120167  0.88661031  1
  Cu  Cu13  1  0.80905935  0.65842265  0.38922189  1
  Cu  Cu14  1  0.77818098  0.62678800  0.85538804  1
  C  C15  1  0.19942608  0.34971254  0.12500000  1
