# generated using pymatgen
data_Cu15NiC8
_symmetry_space_group_name_H-M   'P 1'
_cell_length_a   2.96656400
_cell_length_b   8.77719900
_cell_length_c   10.71807100
_cell_angle_alpha   90.00000000
_cell_angle_beta   90.00000000
_cell_angle_gamma   90.00000000
_symmetry_Int_Tables_number   1
_chemical_formula_structural   Cu15NiC8
_chemical_formula_sum   'Cu15 Ni1 C8'
_cell_volume   279.07844646
_cell_formula_units_Z   1
loop_
 _symmetry_equiv_pos_site_id
 _symmetry_equiv_pos_as_xyz
  1  'x, y, z'
loop_
 _atom_site_type_symbol
 _atom_site_label
 _atom_site_symmetry_multiplicity
 _atom_site_fract_x
 _atom_site_fract_y
 _atom_site_fract_z
 _atom_site_occupancy
  C  C0  1  0.75000000  0.91424400  0.10351600  1
  C  C1  1  0.25000000  0.58575600  0.60351600  1
  C  C2  1  0.75000000  0.41424400  0.39648400  1
  C  C3  1  0.25000000  0.08575600  0.89648400  1
  C  C4  1  0.25000000  0.05177800  0.38339800  1
  C  C5  1  0.75000000  0.94822200  0.61660200  1
  C  C6  1  0.25000000  0.55177800  0.11660200  1
  C  C7  1  0.75000000  0.44822200  0.88339800  1
  Cu  Cu8  1  0.81665911  0.43511863  0.06674767  1
  Cu  Cu9  1  0.23427439  0.56661346  0.93204487  1
  Cu  Cu10  1  0.82420984  0.91579005  0.42620552  1
  Cu  Cu11  1  0.30333186  0.07691745  0.55947540  1
  Cu  Cu12  1  0.81891529  0.56207211  0.71640355  1
  Cu  Cu13  1  0.23781902  0.46536656  0.27828000  1
  Ni  Ni14  1  0.75000000  0.03442700  0.78681700  1
  Cu  Cu15  1  0.21389075  0.96393483  0.22268516  1
  Cu  Cu16  1  0.80743919  0.11051781  0.99310919  1
  Cu  Cu17  1  0.21019237  0.85887499  0.97763358  1
  Cu  Cu18  1  0.73853864  0.64867285  0.49119994  1
  Cu  Cu19  1  0.18491287  0.38777270  0.52507921  1
  Cu  Cu20  1  0.28014553  0.29970664  0.83983801  1
  Cu  Cu21  1  0.76100279  0.69609904  0.16977321  1
  Cu  Cu22  1  0.76255203  0.19522886  0.35087769  1
  Cu  Cu23  1  0.24830027  0.81168276  0.65063741  1
