# generated using pymatgen
data_CuNiC10
_symmetry_space_group_name_H-M   'P 1'
_cell_length_a   7.36276691
_cell_length_b   7.69979001
_cell_length_c   7.93510542
_cell_angle_alpha   60.97102564
_cell_angle_beta   102.88880243
_cell_angle_gamma   90.00416696
_symmetry_Int_Tables_number   1
_chemical_formula_structural   CuNiC10
_chemical_formula_sum   'Cu2 Ni2 C20'
_cell_volume   380.33133496
_cell_formula_units_Z   2
loop_
 _symmetry_equiv_pos_site_id
 _symmetry_equiv_pos_as_xyz
  1  'x, y, z'
loop_
 _atom_site_type_symbol
 _atom_site_label
 _atom_site_symmetry_multiplicity
 _atom_site_fract_x
 _atom_site_fract_y
 _atom_site_fract_z
 _atom_site_occupancy
  C  C0  1  0.76813000  0.89230900  0.21537400  1
  C  C1  1  0.23186900  0.10767100  0.78462000  1
  C  C2  1  0.14842100  0.64222500  0.71562600  1
  C  C3  1  0.85158600  0.35777400  0.28438600  1
  Cu  Cu4  1  0.33993669  0.10139371  0.32535785  1
  Cu  Cu5  1  0.66425304  0.86406705  0.70607274  1
  Ni  Ni6  1  0.31783000  0.60031900  0.29171300  1
  Ni  Ni7  1  0.68218000  0.39969300  0.70826200  1
  C  C8  1  0.28094800  0.68742300  0.05119400  1
  C  C9  1  0.28079000  0.26172000  0.05086700  1
  C  C10  1  0.71905800  0.31255900  0.94886700  1
  C  C11  1  0.71921000  0.73828500  0.94909900  1
  C  C12  1  0.37668300  0.86023500  0.27957200  1
  C  C13  1  0.62333000  0.13977800  0.72043300  1
  C  C14  1  0.27340400  0.31423400  0.37136100  1
  C  C15  1  0.72659200  0.68575800  0.62864900  1
  C  C16  1  0.59628100  0.52370600  0.38227600  1
  C  C17  1  0.59617800  0.09413800  0.38219400  1
  C  C18  1  0.40372100  0.47628900  0.61774900  1
  C  C19  1  0.40382100  0.90586400  0.61778400  1
  C  C20  1  0.07731800  0.63434700  0.32991500  1
  C  C21  1  0.07742000  0.03588900  0.32984500  1
  C  C22  1  0.92265100  0.36564900  0.67011500  1
  C  C23  1  0.92258100  0.96411400  0.67012700  1
