# generated using pymatgen
data_Cu17Ni3C8
_symmetry_space_group_name_H-M   'P 1'
_cell_length_a   9.48883300
_cell_length_b   9.83642100
_cell_length_c   11.68458296
_cell_angle_alpha   71.11346455
_cell_angle_beta   90.00000000
_cell_angle_gamma   90.00000000
_symmetry_Int_Tables_number   1
_chemical_formula_structural   Cu17Ni3C8
_chemical_formula_sum   'Cu34 Ni6 C16'
_cell_volume   1031.87806139
_cell_formula_units_Z   2
loop_
 _symmetry_equiv_pos_site_id
 _symmetry_equiv_pos_as_xyz
  1  'x, y, z'
loop_
 _atom_site_type_symbol
 _atom_site_label
 _atom_site_symmetry_multiplicity
 _atom_site_fract_x
 _atom_site_fract_y
 _atom_site_fract_z
 _atom_site_occupancy
  C  C0  1  0.57876200  0.68485200  0.14275100  1
  C  C1  1  0.07876200  0.81514800  0.85724900  1
  C  C2  1  0.42123800  0.31514800  0.85724900  1
  C  C3  1  0.92123800  0.18485200  0.14275100  1
  C  C4  1  0.39712200  0.63737500  0.48230000  1
  C  C5  1  0.89712200  0.86262500  0.51770000  1
  C  C6  1  0.60287800  0.36262500  0.51770000  1
  C  C7  1  0.10287800  0.13737500  0.48230000  1
  C  C8  1  0.42647900  0.98807600  0.03199200  1
  C  C9  1  0.92647900  0.51192400  0.96800800  1
  C  C10  1  0.57352100  0.01192400  0.96800800  1
  C  C11  1  0.07352100  0.48807600  0.03199200  1
  C  C12  1  0.41799700  0.67203200  0.86611900  1
  C  C13  1  0.91799700  0.82796800  0.13388100  1
  C  C14  1  0.58200300  0.32796800  0.13388100  1
  C  C15  1  0.08200300  0.17203200  0.86611900  1
  Cu  Cu16  1  0.42854833  0.67795012  0.39820377  1
  Cu  Cu17  1  0.94368482  0.81212955  0.63300691  1
  Cu  Cu18  1  0.56330259  0.29094192  0.61992602  1
  Cu  Cu19  1  0.08439762  0.19981730  0.38119587  1
  Cu  Cu20  1  0.18779075  0.91432634  0.39438184  1
  Cu  Cu21  1  0.68859271  0.60748913  0.62175355  1
  Cu  Cu22  1  0.80625003  0.09150594  0.63558781  1
  Cu  Cu23  1  0.30882624  0.40021602  0.38804879  1
  Ni  Ni24  1  0.37118900  0.56948300  0.58268800  1
  Cu  Cu25  1  0.87398012  0.91741836  0.41604931  1
  Cu  Cu26  1  0.61285790  0.42039392  0.41623534  1
  Ni  Ni27  1  0.12881100  0.06948300  0.58268800  1
  Cu  Cu28  1  0.40795238  0.86930497  0.11920165  1
  Cu  Cu29  1  0.90491798  0.63840365  0.88618066  1
  Ni  Ni30  1  0.59463600  0.13297200  0.88784000  1
  Cu  Cu31  1  0.09693742  0.38175409  0.10884116  1
  Cu  Cu32  1  0.63901113  0.91338259  0.98740343  1
  Ni  Ni33  1  0.16042200  0.59051300  0.99876100  1
  Cu  Cu34  1  0.34252656  0.09445786  0.00820549  1
  Cu  Cu35  1  0.81433453  0.40660164  0.00124577  1
  Ni  Ni36  1  0.49398100  0.69801600  0.94428800  1
  Cu  Cu37  1  0.99571549  0.79063235  0.06047083  1
  Cu  Cu38  1  0.50010807  0.29670110  0.05269494  1
  Ni  Ni39  1  0.00601900  0.19801600  0.94428800  1
  Cu  Cu40  1  0.58363773  0.42470189  0.15715008  1
  Cu  Cu41  1  0.09479039  0.04156736  0.82157064  1
  Cu  Cu42  1  0.42579196  0.57508783  0.82577543  1
  Cu  Cu43  1  0.90551545  0.93081984  0.17109154  1
  Cu  Cu44  1  0.29571033  0.52063698  0.25061767  1
  Cu  Cu45  1  0.79815713  0.00930436  0.71288030  1
  Cu  Cu46  1  0.67640280  0.50295657  0.73938325  1
  Cu  Cu47  1  0.22366834  0.99252704  0.26660616  1
  Cu  Cu48  1  0.74500308  0.74474936  0.27181919  1
  Cu  Cu49  1  0.21675681  0.74782380  0.73190239  1
  Cu  Cu50  1  0.27891125  0.27467387  0.71679901  1
  Cu  Cu51  1  0.79529883  0.23009328  0.27585078  1
  Cu  Cu52  1  0.82369222  0.71694913  0.18810890  1
  Cu  Cu53  1  0.34079851  0.79110969  0.80613011  1
  Cu  Cu54  1  0.13552413  0.28342896  0.80521223  1
  Cu  Cu55  1  0.64200026  0.18135763  0.19822603  1
