# generated using pymatgen
data_Cu10Ni18C17
_symmetry_space_group_name_H-M   'P 1'
_cell_length_a   10.69982000
_cell_length_b   12.15141707
_cell_length_c   12.29051213
_cell_angle_alpha   119.59501998
_cell_angle_beta   115.79972502
_cell_angle_gamma   89.99405891
_symmetry_Int_Tables_number   1
_chemical_formula_structural   Cu10Ni18C17
_chemical_formula_sum   'Cu10 Ni18 C17'
_cell_volume   1202.97609830
_cell_formula_units_Z   1
loop_
 _symmetry_equiv_pos_site_id
 _symmetry_equiv_pos_as_xyz
  1  'x, y, z'
loop_
 _atom_site_type_symbol
 _atom_site_label
 _atom_site_symmetry_multiplicity
 _atom_site_fract_x
 _atom_site_fract_y
 _atom_site_fract_z
 _atom_site_occupancy
  C  C0  1  0.12507700  0.30566400  0.34734600  1
  C  C1  1  0.13031400  0.79627200  0.36560200  1
  C  C2  1  0.63570400  0.49482200  0.76231500  1
  C  C3  1  0.65258000  0.02119000  0.77959500  1
  C  C4  1  0.23229700  0.54916900  0.86923700  1
  C  C5  1  0.22418500  0.06936500  0.87544400  1
  C  C6  1  0.86379100  0.69577100  0.63293200  1
  C  C7  1  0.87897900  0.19173600  0.65444000  1
  C  C8  1  0.34690000  0.47817200  0.22438800  1
  C  C9  1  0.36516600  0.99353100  0.23049700  1
  C  C10  1  0.77692900  0.42637600  0.12247400  1
  C  C11  1  0.76694100  0.94526000  0.13311500  1
  C  C12  1  0.33699500  0.74791900  0.66929100  1
  C  C13  1  0.32986800  0.24552700  0.66469900  1
  C  C14  1  0.66719800  0.33315700  0.33351400  1
  C  C15  1  0.66632400  0.83143500  0.33334000  1
  C  C16  1  0.99967600  0.73625000  0.00052700  1
  Ni  Ni17  1  0.33346600  0.56044600  0.66630700  1
  Ni  Ni18  1  0.33400400  0.06104600  0.66743300  1
  Cu  Cu19  1  0.65605532  0.65405091  0.33281356  1
  Ni  Ni20  1  0.67389500  0.15297000  0.34597400  1
  Cu  Cu21  1  0.46860202  0.93227468  0.86823315  1
  Ni  Ni22  1  0.48024100  0.43243600  0.89185800  1
  Ni  Ni23  1  0.11297500  0.78681300  0.59906400  1
  Ni  Ni24  1  0.10175600  0.27479300  0.57453900  1
  Ni  Ni25  1  0.42657200  0.75263000  0.53048600  1
  Cu  Cu26  1  0.37260487  0.23470380  0.48359842  1
  Ni  Ni27  1  0.52336500  0.29424400  0.10822200  1
  Ni  Ni28  1  0.52071900  0.79118500  0.10512200  1
  Ni  Ni29  1  0.89425200  0.44859700  0.41822900  1
  Cu  Cu30  1  0.88579214  0.94683360  0.42419433  1
  Ni  Ni31  1  0.58605400  0.48013200  0.47983400  1
  Cu  Cu32  1  0.58001818  0.97782168  0.46561311  1
  Cu  Cu33  1  0.23236257  0.71934079  0.18200730  1
  Cu  Cu34  1  0.25378281  0.22433444  0.17540224  1
  Ni  Ni35  1  0.84767000  0.66588200  0.08144300  1
  Ni  Ni36  1  0.83460900  0.16053100  0.09364000  1
  Ni  Ni37  1  0.90712400  0.98436500  0.74073700  1
  Cu  Cu38  1  0.91214207  0.49376500  0.76114279  1
  Ni  Ni39  1  0.74022000  0.28196000  0.83052800  1
  Cu  Cu40  1  0.75875780  0.77888241  0.85796654  1
  Cu  Cu41  1  0.15727625  0.33969278  0.91819973  1
  Ni  Ni42  1  0.14194000  0.80396800  0.91495600  1
  Ni  Ni43  1  0.08384800  0.95926800  0.22703300  1
  Ni  Ni44  1  0.09303000  0.49945800  0.26233500  1
