# generated using pymatgen
data_Cu2C3
_symmetry_space_group_name_H-M   'P 1'
_cell_length_a   5.62935764
_cell_length_b   5.62935764
_cell_length_c   5.62935764
_cell_angle_alpha   136.44619798
_cell_angle_beta   136.44619798
_cell_angle_gamma   63.29125538
_symmetry_Int_Tables_number   1
_chemical_formula_structural   Cu2C3
_chemical_formula_sum   'Cu2 C3'
_cell_volume   83.60966783
_cell_formula_units_Z   1
loop_
 _symmetry_equiv_pos_site_id
 _symmetry_equiv_pos_as_xyz
  1  'x, y, z'
loop_
 _atom_site_type_symbol
 _atom_site_label
 _atom_site_symmetry_multiplicity
 _atom_site_fract_x
 _atom_site_fract_y
 _atom_site_fract_z
 _atom_site_occupancy
  C  C0  1  0.00000000  0.00000000  0.00000000  1
  C  C1  1  0.25000000  0.75000000  0.50000000  1
  Cu  Cu2  1  0.55875063  0.63468251  0.94317443  1
  Cu  Cu3  1  0.39816870  0.37011535  0.04129925  1
  C  C4  1  0.75000000  0.25000000  0.50000000  1
