# generated using pymatgen
data_CuC3
_symmetry_space_group_name_H-M   'P 1'
_cell_length_a   3.76846500
_cell_length_b   4.77505900
_cell_length_c   5.40112942
_cell_angle_alpha   82.27600732
_cell_angle_beta   90.00000000
_cell_angle_gamma   90.00000000
_symmetry_Int_Tables_number   1
_chemical_formula_structural   CuC3
_chemical_formula_sum   'Cu2 C6'
_cell_volume   96.30957714
_cell_formula_units_Z   2
loop_
 _symmetry_equiv_pos_site_id
 _symmetry_equiv_pos_as_xyz
  1  'x, y, z'
loop_
 _atom_site_type_symbol
 _atom_site_label
 _atom_site_symmetry_multiplicity
 _atom_site_fract_x
 _atom_site_fract_y
 _atom_site_fract_z
 _atom_site_occupancy
  Cu  Cu0  1  0.01765987  0.51932108  0.51977864  1
  Cu  Cu1  1  0.49919090  0.50541412  0.97041374  1
  C  C2  1  0.00000000  0.00000000  0.00000000  1
  C  C3  1  0.50000000  0.00000000  0.50000000  1
  C  C4  1  0.30861300  0.24743400  0.74871200  1
  C  C5  1  0.69138700  0.75256600  0.25128800  1
  C  C6  1  0.19138700  0.24743400  0.24871200  1
  C  C7  1  0.80861300  0.75256600  0.75128800  1
