# generated using pymatgen
data_Cu21Ni9C34
_symmetry_space_group_name_H-M   'P 1'
_cell_length_a   8.68910200
_cell_length_b   8.68910200
_cell_length_c   8.58058000
_cell_angle_alpha   90.00000000
_cell_angle_beta   90.00000000
_cell_angle_gamma   90.00000000
_symmetry_Int_Tables_number   1
_chemical_formula_structural   Cu21Ni9C34
_chemical_formula_sum   'Cu21 Ni9 C34'
_cell_volume   647.83802509
_cell_formula_units_Z   1
loop_
 _symmetry_equiv_pos_site_id
 _symmetry_equiv_pos_as_xyz
  1  'x, y, z'
loop_
 _atom_site_type_symbol
 _atom_site_label
 _atom_site_symmetry_multiplicity
 _atom_site_fract_x
 _atom_site_fract_y
 _atom_site_fract_z
 _atom_site_occupancy
  C  C0  1  0.00000000  0.00000000  0.50000000  1
  Cu  Cu1  1  0.49868368  0.01317702  0.00586616  1
  Cu  Cu2  1  0.51342182  0.01875918  0.48720494  1
  Cu  Cu3  1  0.99044476  0.51542440  0.00543673  1
  Cu  Cu4  1  0.01652281  0.48736530  0.48771037  1
  Cu  Cu5  1  0.49250729  0.48340662  0.01257741  1
  Ni  Ni6  1  0.50000000  0.50000000  0.50000000  1
  Cu  Cu7  1  0.24818350  0.99768557  0.23080585  1
  Cu  Cu8  1  0.27217239  0.00263660  0.73178721  1
  Cu  Cu9  1  0.74322256  0.00633083  0.24873731  1
  Cu  Cu10  1  0.74345064  0.00355753  0.75768190  1
  Cu  Cu11  1  0.24535092  0.48378596  0.25764266  1
  Ni  Ni12  1  0.25059500  0.50000000  0.75099700  1
  Cu  Cu13  1  0.75949886  0.50854183  0.26487452  1
  Cu  Cu14  1  0.74729323  0.47692400  0.76569346  1
  Cu  Cu15  1  0.99432772  0.27376119  0.25013950  1
  Ni  Ni16  1  0.00000000  0.25895700  0.75791100  1
  Cu  Cu17  1  0.51054625  0.24711802  0.24172495  1
  Ni  Ni18  1  0.50000000  0.25059500  0.75099700  1
  Cu  Cu19  1  0.97132604  0.76374164  0.22730471  1
  Ni  Ni20  1  0.00000000  0.74104300  0.75791100  1
  Cu  Cu21  1  0.52055204  0.75755362  0.26281939  1
  Cu  Cu22  1  0.48905325  0.75236010  0.74187006  1
  Ni  Ni23  1  0.24939600  0.24939600  0.00000000  1
  Ni  Ni24  1  0.25736800  0.25736800  0.50000000  1
  Ni  Ni25  1  0.75060400  0.24939600  0.00000000  1
  Cu  Cu26  1  0.73673099  0.24500558  0.49350253  1
  Cu  Cu27  1  0.22159126  0.76692813  0.97538145  1
  Ni  Ni28  1  0.25736800  0.74263200  0.50000000  1
  Cu  Cu29  1  0.73998109  0.76019086  0.00397689  1
  Cu  Cu30  1  0.73282480  0.70995924  0.51623130  1
  C  C31  1  0.00000000  0.00000000  0.00000000  1
  C  C32  1  0.00000000  0.26297600  0.00000000  1
  C  C33  1  0.00000000  0.27836800  0.50000000  1
  C  C34  1  0.50000000  0.25196300  0.00000000  1
  C  C35  1  0.50000000  0.25565200  0.50000000  1
  C  C36  1  0.00000000  0.73702400  0.00000000  1
  C  C37  1  0.00000000  0.72163200  0.50000000  1
  C  C38  1  0.50000000  0.74803700  0.00000000  1
  C  C39  1  0.50000000  0.74434800  0.50000000  1
  C  C40  1  0.24854800  0.24854800  0.25066800  1
  C  C41  1  0.24854800  0.24854800  0.74933200  1
  C  C42  1  0.75145200  0.24854800  0.25066800  1
  C  C43  1  0.75145200  0.24854800  0.74933200  1
  C  C44  1  0.24854800  0.75145200  0.25066800  1
  C  C45  1  0.24854800  0.75145200  0.74933200  1
  C  C46  1  0.75145200  0.75145200  0.25066800  1
  C  C47  1  0.75145200  0.75145200  0.74933200  1
  C  C48  1  0.00000000  0.00000000  0.21784600  1
  C  C49  1  0.00000000  0.00000000  0.78215400  1
  C  C50  1  0.50000000  0.00000000  0.24575900  1
  C  C51  1  0.50000000  0.00000000  0.75424100  1
  C  C52  1  0.00000000  0.50000000  0.24575900  1
  C  C53  1  0.00000000  0.50000000  0.75424100  1
  C  C54  1  0.50000000  0.50000000  0.24913600  1
  C  C55  1  0.50000000  0.50000000  0.75086400  1
  C  C56  1  0.26297600  0.00000000  0.00000000  1
  C  C57  1  0.27836800  0.00000000  0.50000000  1
  C  C58  1  0.73702400  0.00000000  0.00000000  1
  C  C59  1  0.72163200  0.00000000  0.50000000  1
  C  C60  1  0.25196300  0.50000000  0.00000000  1
  C  C61  1  0.25565200  0.50000000  0.50000000  1
  C  C62  1  0.74803700  0.50000000  0.00000000  1
  C  C63  1  0.74434800  0.50000000  0.50000000  1
