# generated using pymatgen
data_Cu5NiC36
_symmetry_space_group_name_H-M   'P 1'
_cell_length_a   9.62937230
_cell_length_b   13.01758235
_cell_length_c   19.93770634
_cell_angle_alpha   109.05383188
_cell_angle_beta   101.52325226
_cell_angle_gamma   90.00000000
_symmetry_Int_Tables_number   1
_chemical_formula_structural   Cu5NiC36
_chemical_formula_sum   'Cu20 Ni4 C144'
_cell_volume   2308.92775522
_cell_formula_units_Z   4
loop_
 _symmetry_equiv_pos_site_id
 _symmetry_equiv_pos_as_xyz
  1  'x, y, z'
loop_
 _atom_site_type_symbol
 _atom_site_label
 _atom_site_symmetry_multiplicity
 _atom_site_fract_x
 _atom_site_fract_y
 _atom_site_fract_z
 _atom_site_occupancy
  Cu  Cu0  1  0.92328122  0.42966111  0.26874902  1
  Cu  Cu1  1  0.59067152  0.16314072  0.73151200  1
  Cu  Cu2  1  0.07849550  0.58316818  0.74329863  1
  Ni  Ni3  1  0.41626734  0.84367056  0.26632252  1
  Cu  Cu4  1  0.94417321  0.91667794  0.26826055  1
  Ni  Ni5  1  0.56337517  0.63433816  0.72582417  1
  Cu  Cu6  1  0.07619358  0.10748235  0.73904149  1
  Cu  Cu7  1  0.43192498  0.37642797  0.27944725  1
  Cu  Cu8  1  0.55262259  0.14111231  0.23182158  1
  Cu  Cu9  1  0.97614769  0.92086373  0.77755585  1
  Ni  Ni10  1  0.45025852  0.85946996  0.76988351  1
  Cu  Cu11  1  0.02233886  0.06733115  0.22440844  1
  Cu  Cu12  1  0.73117556  0.94246186  0.50150072  1
  Cu  Cu13  1  0.76315716  0.42916498  0.49026858  1
  Cu  Cu14  1  0.27333573  0.07800942  0.49680305  1
  Cu  Cu15  1  0.22271439  0.58457134  0.50234981  1
  Cu  Cu16  1  0.06100630  0.57899530  0.23020299  1
  Cu  Cu17  1  0.40326435  0.36157913  0.78247941  1
  Cu  Cu18  1  0.90040962  0.42225536  0.76751903  1
  Cu  Cu19  1  0.55446307  0.64113293  0.23169772  1
  Ni  Ni20  1  0.75000000  0.92862430  -0.00000000  1
  Cu  Cu21  1  0.23270630  0.06102794  0.98464366  1
  Cu  Cu22  1  0.75591013  0.42983822  0.00516996  1
  Cu  Cu23  1  0.24852530  0.57362695  0.00185830  1
  C  C24  1  0.50266563  0.25719967  0.48982685  1
  C  C25  1  0.99733437  0.76737282  0.51017315  1
  C  C26  1  0.49733437  0.74280033  0.51017315  1
  C  C27  1  0.00266563  0.23262718  0.48982685  1
  C  C28  1  0.49680136  0.24566408  0.98904477  1
  C  C29  1  0.00319864  0.25661931  0.01095523  1
  C  C30  1  0.50319864  0.75433592  0.01095523  1
  C  C31  1  0.99680136  0.74338069  0.98904477  1
  C  C32  1  0.79852895  0.19577332  0.61863290  1
  C  C33  1  0.70147105  0.57714042  0.38136710  1
  C  C34  1  0.20147105  0.80422668  0.38136710  1
  C  C35  1  0.29852895  0.42285958  0.61863290  1
  C  C36  1  0.78527625  0.18765499  0.12354604  1
  C  C37  1  0.71472375  0.06410895  0.87645396  1
  C  C38  1  0.21472375  0.81234501  0.87645396  1
  C  C39  1  0.28527625  0.93589105  0.12354604  1
  C  C40  1  0.81733131  0.68578833  0.12294748  1
  C  C41  1  0.68266869  0.56284084  0.87705252  1
  C  C42  1  0.18266869  0.31421167  0.87705252  1
  C  C43  1  0.31733131  0.43715916  0.12294748  1
  C  C44  1  0.19343708  0.32301176  0.37178078  1
  C  C45  1  0.30656292  0.95123097  0.62821922  1
  C  C46  1  0.80656292  0.67698824  0.62821922  1
  C  C47  1  0.69343708  0.04876903  0.37178078  1
  C  C48  1  0.88345193  0.90047770  0.53477303  1
  C  C49  1  0.61654807  0.36570467  0.46522697  1
  C  C50  1  0.11654807  0.09952230  0.46522697  1
  C  C51  1  0.38345193  0.63429533  0.53477303  1
  C  C52  1  0.50426276  0.25504795  0.27782051  1
  C  C53  1  0.99573724  0.97722744  0.72217949  1
  C  C54  1  0.49573724  0.74495205  0.72217949  1
  C  C55  1  0.00426276  0.02277256  0.27782051  1
  C  C56  1  0.61380939  0.35689223  0.96789883  1
  C  C57  1  0.88619061  0.38899340  0.03210117  1
  C  C58  1  0.38619061  0.64310777  0.03210117  1
  C  C59  1  0.11380939  0.61100660  0.96789883  1
  C  C60  1  0.12013532  0.65451938  0.30902908  1
  C  C61  1  0.37986468  0.34549030  0.69097092  1
  C  C62  1  0.87986468  0.34548062  0.69097092  1
  C  C63  1  0.62013532  0.65450970  0.30902908  1
  C  C64  1  0.00172748  0.47335484  0.22248840  1
  C  C65  1  0.49827252  0.25086644  0.77751160  1
  C  C66  1  0.99827252  0.52664516  0.77751160  1
  C  C67  1  0.50172748  0.74913356  0.22248840  1
  C  C68  1  0.71883876  0.04320180  0.56996521  1
  C  C69  1  0.78116124  0.47323659  0.43003479  1
  C  C70  1  0.28116124  0.95679820  0.43003479  1
  C  C71  1  0.21883876  0.52676341  0.56996521  1
  C  C72  1  0.02232856  0.38063074  0.31626063  1
  C  C73  1  0.47767144  0.06437012  0.68373937  1
  C  C74  1  0.97767144  0.61936926  0.68373937  1
  C  C75  1  0.52232856  0.93562988  0.31626063  1
  C  C76  1  0.76468980  0.47162615  0.93490288  1
  C  C77  1  0.73531020  0.53672327  0.06509712  1
  C  C78  1  0.23531020  0.52837385  0.06509712  1
  C  C79  1  0.26468980  0.46327673  0.93490288  1
  C  C80  1  0.89475135  0.83508693  0.19439123  1
  C  C81  1  0.60524865  0.64069570  0.80560877  1
  C  C82  1  0.10524865  0.16491307  0.80560877  1
  C  C83  1  0.39475135  0.35930430  0.19439123  1
  C  C84  1  0.88853572  0.87998473  0.02113323  1
  C  C85  1  0.61146428  0.85885151  0.97886677  1
  C  C86  1  0.11146428  0.12001527  0.97886677  1
  C  C87  1  0.38853572  0.14114849  0.02113323  1
  C  C88  1  0.81917635  0.33074628  0.20598004  1
  C  C89  1  0.68082365  0.12476624  0.79401996  1
  C  C90  1  0.18082365  0.66925372  0.79401996  1
  C  C91  1  0.31917635  0.87523376  0.20598004  1
  C  C92  1  0.80708866  0.93160985  0.30788807  1
  C  C93  1  0.69291134  0.62372178  0.69211193  1
  C  C94  1  0.19291134  0.06839015  0.69211193  1
  C  C95  1  0.30708866  0.37627822  0.30788807  1
  C  C96  1  0.99523949  0.63170461  0.17859087  1
  C  C97  1  0.50476051  0.45311374  0.82140913  1
  C  C98  1  0.00476051  0.36829539  0.82140913  1
  C  C99  1  0.49523949  0.54688626  0.17859087  1
  C  C100  1  0.22694875  0.54281960  0.20471572  1
  C  C101  1  0.27305125  0.33810388  0.79528428  1
  C  C102  1  0.77305125  0.45718040  0.79528428  1
  C  C103  1  0.72694875  0.66189612  0.20471572  1
  C  C104  1  0.64845271  0.09919278  0.28469098  1
  C  C105  1  0.85154729  0.81450180  0.71530902  1
  C  C106  1  0.35154729  0.90080722  0.71530902  1
  C  C107  1  0.14845271  0.18549820  0.28469098  1
  C  C108  1  0.05516582  0.86102765  0.31475392  1
  C  C109  1  0.44483418  0.54627373  0.68524608  1
  C  C110  1  0.94483418  0.13897235  0.68524608  1
  C  C111  1  0.55516582  0.45372627  0.31475392  1
  C  C112  1  0.82784505  0.50897243  0.30580951  1
  C  C113  1  0.67215495  0.20316292  0.69419049  1
  C  C114  1  0.17215495  0.49102757  0.69419049  1
  C  C115  1  0.32784505  0.79683708  0.30580951  1
  C  C116  1  0.73712795  0.96678012  0.43850774  1
  C  C117  1  0.76287205  0.52827238  0.56149226  1
  C  C118  1  0.26287205  0.03321988  0.56149226  1
  C  C119  1  0.23712795  0.47172762  0.43850774  1
  C  C120  1  0.74306773  0.03436360  0.06522471  1
  C  C121  1  0.75693227  0.96913889  0.93477529  1
  C  C122  1  0.25693227  0.96563640  0.93477529  1
  C  C123  1  0.24306773  0.03086111  0.06522471  1
  C  C124  1  0.62653961  0.15895456  0.17552608  1
  C  C125  1  0.87346039  0.98342849  0.82447392  1
  C  C126  1  0.37346039  0.84104544  0.82447392  1
  C  C127  1  0.12653961  0.01657151  0.17552608  1
  C  C128  1  0.60899634  0.85462822  0.48649397  1
  C  C129  1  0.89100366  0.36813425  0.51350603  1
  C  C130  1  0.39100366  0.14537178  0.51350603  1
  C  C131  1  0.10899634  0.63186575  0.48649397  1
  C  C132  1  0.41258275  0.06823598  0.19705492  1
  C  C133  1  0.08741725  0.87118106  0.80294508  1
  C  C134  1  0.58741725  0.93176402  0.80294508  1
  C  C135  1  0.91258275  0.12881894  0.19705492  1
  C  C136  1  0.65783987  0.24893684  0.56879323  1
  C  C137  1  0.84216013  0.68014362  0.43120677  1
  C  C138  1  0.34216013  0.75106316  0.43120677  1
  C  C139  1  0.15783987  0.31985638  0.56879323  1
  C  C140  1  0.92433140  0.69563561  0.06090001  1
  C  C141  1  0.57566860  0.63473559  0.93909999  1
  C  C142  1  0.07566860  0.30436439  0.93909999  1
  C  C143  1  0.42433140  0.36526441  0.06090001  1
  C  C144  1  0.92630507  0.18900691  0.56292774  1
  C  C145  1  0.57369493  0.62607917  0.43707226  1
  C  C146  1  0.07369493  0.81099309  0.43707226  1
  C  C147  1  0.42630507  0.37392083  0.56292774  1
  C  C148  1  0.35044964  0.27115619  0.41099760  1
  C  C149  1  0.14955036  0.86015859  0.58900240  1
  C  C150  1  0.64955036  0.72884381  0.58900240  1
  C  C151  1  0.85044964  0.13984141  0.41099760  1
  C  C152  1  0.07433895  0.28389402  0.41935389  1
  C  C153  1  0.42566105  0.86454013  0.58064611  1
  C  C154  1  0.92566105  0.71610598  0.58064611  1
  C  C155  1  0.57433895  0.13545987  0.41935389  1
  C  C156  1  0.93478418  0.20995052  0.08643944  1
  C  C157  1  0.56521582  0.12351108  0.91356056  1
  C  C158  1  0.06521582  0.79004948  0.91356056  1
  C  C159  1  0.43478418  0.87648892  0.08643944  1
  C  C160  1  0.66038167  0.74324734  0.08900483  1
  C  C161  1  0.83961833  0.65424251  0.91099517  1
  C  C162  1  0.33961833  0.25675266  0.91099517  1
  C  C163  1  0.16038167  0.34575749  0.08900483  1
  C  C164  1  0.65359706  0.23546449  0.06562659  1
  C  C165  1  0.84640294  0.16983791  0.93437341  1
  C  C166  1  0.34640294  0.76453551  0.93437341  1
  C  C167  1  0.15359706  0.83016209  0.06562659  1
