# generated using pymatgen
data_CuC22
_symmetry_space_group_name_H-M   'P 1'
_cell_length_a   9.03071600
_cell_length_b   9.03071600
_cell_length_c   9.03071600
_cell_angle_alpha   90.00000000
_cell_angle_beta   90.00000000
_cell_angle_gamma   90.00000000
_symmetry_Int_Tables_number   1
_chemical_formula_structural   CuC22
_chemical_formula_sum   'Cu2 C44'
_cell_volume   736.48949074
_cell_formula_units_Z   2
loop_
 _symmetry_equiv_pos_site_id
 _symmetry_equiv_pos_as_xyz
  1  'x, y, z'
loop_
 _atom_site_type_symbol
 _atom_site_label
 _atom_site_symmetry_multiplicity
 _atom_site_fract_x
 _atom_site_fract_y
 _atom_site_fract_z
 _atom_site_occupancy
  C  C0  1  0.18574100  0.18574100  0.18574100  1
  C  C1  1  0.68574100  0.68574100  0.68574100  1
  C  C2  1  0.31425900  0.68574100  0.31425900  1
  C  C3  1  0.31425900  0.31425900  0.68574100  1
  C  C4  1  0.68574100  0.31425900  0.31425900  1
  C  C5  1  0.81425900  0.81425900  0.18574100  1
  C  C6  1  0.81425900  0.18574100  0.81425900  1
  C  C7  1  0.18574100  0.81425900  0.81425900  1
  C  C8  1  0.75000000  0.50000000  0.00000000  1
  C  C9  1  0.00000000  0.25000000  0.50000000  1
  C  C10  1  0.50000000  0.00000000  0.25000000  1
  C  C11  1  0.50000000  0.00000000  0.75000000  1
  C  C12  1  0.25000000  0.50000000  0.00000000  1
  C  C13  1  0.00000000  0.75000000  0.50000000  1
  C  C14  1  0.75000000  0.00000000  0.50000000  1
  C  C15  1  0.25000000  0.00000000  0.50000000  1
  C  C16  1  0.00000000  0.50000000  0.75000000  1
  C  C17  1  0.00000000  0.50000000  0.25000000  1
  C  C18  1  0.50000000  0.25000000  0.00000000  1
  C  C19  1  0.50000000  0.75000000  0.00000000  1
  Cu  Cu20  1  0.98755163  0.99256962  0.00279486  1
  Cu  Cu21  1  0.49959678  0.49780343  0.50479247  1
  C  C22  1  0.34952000  0.05742500  0.64055500  1
  C  C23  1  0.64055500  0.65048000  0.94257500  1
  C  C24  1  0.64055500  0.34952000  0.05742500  1
  C  C25  1  0.65048000  0.94257500  0.64055500  1
  C  C26  1  0.34952000  0.94257500  0.35944500  1
  C  C27  1  0.94257500  0.64055500  0.65048000  1
  C  C28  1  0.05742500  0.35944500  0.65048000  1
  C  C29  1  0.85944500  0.55742500  0.15048000  1
  C  C30  1  0.85944500  0.44257500  0.84952000  1
  C  C31  1  0.14055500  0.55742500  0.84952000  1
  C  C32  1  0.44257500  0.84952000  0.85944500  1
  C  C33  1  0.84952000  0.14055500  0.55742500  1
  C  C34  1  0.84952000  0.85944500  0.44257500  1
  C  C35  1  0.55742500  0.15048000  0.85944500  1
  C  C36  1  0.15048000  0.85944500  0.55742500  1
  C  C37  1  0.55742500  0.84952000  0.14055500  1
  C  C38  1  0.44257500  0.15048000  0.14055500  1
  C  C39  1  0.15048000  0.14055500  0.44257500  1
  C  C40  1  0.05742500  0.64055500  0.34952000  1
  C  C41  1  0.94257500  0.35944500  0.34952000  1
  C  C42  1  0.14055500  0.44257500  0.15048000  1
  C  C43  1  0.35944500  0.65048000  0.05742500  1
  C  C44  1  0.35944500  0.34952000  0.94257500  1
  C  C45  1  0.65048000  0.05742500  0.35944500  1
