# generated using pymatgen
data_Cu7NiC6
_symmetry_space_group_name_H-M   'P 1'
_cell_length_a   10.51615132
_cell_length_b   10.51615132
_cell_length_c   7.78055500
_cell_angle_alpha   90.00000000
_cell_angle_beta   90.00000000
_cell_angle_gamma   119.99999574
_symmetry_Int_Tables_number   1
_chemical_formula_structural   Cu7NiC6
_chemical_formula_sum   'Cu21 Ni3 C18'
_cell_volume   745.16917428
_cell_formula_units_Z   3
loop_
 _symmetry_equiv_pos_site_id
 _symmetry_equiv_pos_as_xyz
  1  'x, y, z'
loop_
 _atom_site_type_symbol
 _atom_site_label
 _atom_site_symmetry_multiplicity
 _atom_site_fract_x
 _atom_site_fract_y
 _atom_site_fract_z
 _atom_site_occupancy
  C  C0  1  0.66666700  0.33333300  0.50120500  1
  C  C1  1  0.33333300  0.66666700  0.00120500  1
  C  C2  1  0.33333300  0.66666700  0.49879500  1
  C  C3  1  0.66666700  0.33333300  0.99879500  1
  C  C4  1  0.23250500  0.99042500  0.75000000  1
  C  C5  1  0.00957500  0.24207900  0.75000000  1
  C  C6  1  0.75792100  0.76749500  0.75000000  1
  C  C7  1  0.76749500  0.00957500  0.25000000  1
  C  C8  1  0.99042500  0.75792100  0.25000000  1
  C  C9  1  0.24207900  0.23250500  0.25000000  1
  C  C10  1  0.96830800  0.59614600  0.75000000  1
  C  C11  1  0.40385400  0.37216300  0.75000000  1
  C  C12  1  0.62783700  0.03169200  0.75000000  1
  C  C13  1  0.03169200  0.40385400  0.25000000  1
  C  C14  1  0.59614600  0.62783700  0.25000000  1
  C  C15  1  0.37216300  0.96830800  0.25000000  1
  Cu  Cu16  1  0.15711031  0.66781391  0.73574459  1
  Cu  Cu17  1  0.32147103  0.48906935  0.77076428  1
  Cu  Cu18  1  0.53413343  0.86896152  0.74701682  1
  Cu  Cu19  1  0.80512913  0.32201355  0.22438051  1
  Cu  Cu20  1  0.67396216  0.53524571  0.24730777  1
  Ni  Ni21  1  0.47774500  0.15629100  0.25000000  1
  Cu  Cu22  1  0.88461869  0.39387170  0.74663154  1
  Cu  Cu23  1  0.60281713  0.49016645  0.76201215  1
  Cu  Cu24  1  0.51642774  0.13276325  0.72796367  1
  Cu  Cu25  1  0.10104961  0.58126827  0.25122718  1
  Cu  Cu26  1  0.42587427  0.55489422  0.27683549  1
  Cu  Cu27  1  0.47756628  0.89170666  0.24846832  1
  Cu  Cu28  1  0.89702670  0.65755120  0.56565777  1
  Cu  Cu29  1  0.36543716  0.25920688  0.59349396  1
  Ni  Ni30  1  0.74252900  0.09387200  0.57496100  1
  Cu  Cu31  1  0.12186720  0.36520701  0.06394727  1
  Cu  Cu32  1  0.65153257  0.75583548  0.06118732  1
  Cu  Cu33  1  0.25960698  0.90888223  0.08535675  1
  Cu  Cu34  1  0.09915305  0.36227021  0.40705446  1
  Cu  Cu35  1  0.65464263  0.75783456  0.43770102  1
  Ni  Ni36  1  0.25747100  0.90612800  0.42503900  1
  Cu  Cu37  1  0.91774487  0.63832885  0.93269478  1
  Cu  Cu38  1  0.34664144  0.23619005  0.94146303  1
  Cu  Cu39  1  0.75186820  0.09081156  0.92040989  1
  C  C40  1  0.00000000  0.00000000  0.50000000  1
  C  C41  1  0.00000000  0.00000000  0.00000000  1
