# generated using pymatgen
data_Cu5Ni7C8
_symmetry_space_group_name_H-M   'P 1'
_cell_length_a   8.60626752
_cell_length_b   8.61359605
_cell_length_c   8.61436239
_cell_angle_alpha   90.00000000
_cell_angle_beta   90.00000000
_cell_angle_gamma   90.00000000
_symmetry_Int_Tables_number   1
_chemical_formula_structural   Cu5Ni7C8
_chemical_formula_sum   'Cu10 Ni14 C16'
_cell_volume   638.59053954
_cell_formula_units_Z   2
loop_
 _symmetry_equiv_pos_site_id
 _symmetry_equiv_pos_as_xyz
  1  'x, y, z'
loop_
 _atom_site_type_symbol
 _atom_site_label
 _atom_site_symmetry_multiplicity
 _atom_site_fract_x
 _atom_site_fract_y
 _atom_site_fract_z
 _atom_site_occupancy
  C  C0  1  -0.00000000  -0.00000000  0.00000000  1
  C  C1  1  0.50000000  0.50000000  0.50000000  1
  C  C2  1  0.50000000  -0.00000000  0.00000000  1
  C  C3  1  0.00000000  -0.00000000  0.50000000  1
  C  C4  1  -0.00000000  0.50000000  0.50000000  1
  C  C5  1  0.50000000  -0.00000000  0.50000000  1
  C  C6  1  0.50000000  0.50000000  0.00000000  1
  C  C7  1  0.00000000  0.50000000  0.00000000  1
  C  C8  1  0.25002446  0.25256352  0.25053025  1
  C  C9  1  0.74997554  0.74743648  0.25053025  1
  C  C10  1  0.74997554  0.25256352  0.74946975  1
  C  C11  1  0.25002446  0.74743648  0.74946975  1
  C  C12  1  0.74998520  0.74689057  0.74939888  1
  C  C13  1  0.25001480  0.25310943  0.74939888  1
  C  C14  1  0.25001480  0.74689057  0.25060112  1
  C  C15  1  0.74998520  0.25310943  0.25060112  1
  Ni  Ni16  1  0.99452802  0.22424287  0.27671687  1
  Ni  Ni17  1  0.00547198  0.77575713  0.27671687  1
  Cu  Cu18  1  0.01379283  0.20645601  0.73623551  1
  Ni  Ni19  1  0.99452802  0.77575713  0.72328313  1
  Cu  Cu20  1  0.25171822  0.97123698  0.21950919  1
  Cu  Cu21  1  0.27022087  0.01043546  0.78224137  1
  Cu  Cu22  1  0.74248391  0.01216149  0.23211823  1
  Ni  Ni23  1  0.72581413  0.99331925  0.77777820  1
  Cu  Cu24  1  0.21388679  0.27688549  0.02292077  1
  Cu  Cu25  1  0.77422158  0.28780905  0.00690787  1
  Ni  Ni26  1  0.21463183  0.71410424  0.00626736  1
  Cu  Cu27  1  0.81165809  0.70629940  0.98632007  1
  Ni  Ni28  1  0.50652701  0.29050109  0.21371366  1
  Cu  Cu29  1  0.49215941  0.71501300  0.17416150  1
  Ni  Ni30  1  0.49347299  0.29050109  0.78628634  1
  Cu  Cu31  1  0.51112161  0.72602957  0.77211799  1
  Ni  Ni32  1  0.21496341  0.50539663  0.29175673  1
  Ni  Ni33  1  0.21496341  0.49460337  0.70824327  1
  Cu  Cu34  1  0.76243398  0.50885390  0.29932710  1
  Ni  Ni35  1  0.78503659  0.50539663  0.70824327  1
  Ni  Ni36  1  0.29093336  0.21724827  0.50644209  1
  Ni  Ni37  1  0.70906664  0.21724827  0.49355791  1
  Ni  Ni38  1  0.29093336  0.78275173  0.49355791  1
  Ni  Ni39  1  0.70906664  0.78275173  0.50644209  1
