# generated using pymatgen
data_CuNi3C10
_symmetry_space_group_name_H-M   'P 1'
_cell_length_a   5.39185217
_cell_length_b   5.39185217
_cell_length_c   7.51218300
_cell_angle_alpha   90.00000000
_cell_angle_beta   90.00000000
_cell_angle_gamma   120.00000207
_symmetry_Int_Tables_number   1
_chemical_formula_structural   CuNi3C10
_chemical_formula_sum   'Cu1 Ni3 C10'
_cell_volume   189.13536174
_cell_formula_units_Z   1
loop_
 _symmetry_equiv_pos_site_id
 _symmetry_equiv_pos_as_xyz
  1  'x, y, z'
loop_
 _atom_site_type_symbol
 _atom_site_label
 _atom_site_symmetry_multiplicity
 _atom_site_fract_x
 _atom_site_fract_y
 _atom_site_fract_z
 _atom_site_occupancy
  C  C0  1  0.00000000  0.00000000  0.00000000  1
  C  C1  1  0.00000000  0.00000000  0.50000000  1
  Cu  Cu2  1  0.31148747  0.61339365  0.71022168  1
  Ni  Ni3  1  0.66666700  0.33333300  0.74809400  1
  Ni  Ni4  1  0.33333300  0.66666700  0.25190600  1
  Ni  Ni5  1  0.66666700  0.33333300  0.25190600  1
  C  C6  1  0.31490200  0.31490200  0.67410200  1
  C  C7  1  0.68509800  0.00000000  0.67410200  1
  C  C8  1  0.00000000  0.68509800  0.67410200  1
  C  C9  1  0.68509800  0.68509800  0.32589800  1
  C  C10  1  0.00000000  0.31490200  0.32589800  1
  C  C11  1  0.31490200  0.00000000  0.32589800  1
  C  C12  1  0.33333300  0.66666700  0.00000000  1
  C  C13  1  0.66666700  0.33333300  0.00000000  1
