# generated using pymatgen
data_Cu2C
_symmetry_space_group_name_H-M   'P 1'
_cell_length_a   9.37755400
_cell_length_b   9.30934200
_cell_length_c   12.90633629
_cell_angle_alpha   46.46679943
_cell_angle_beta   90.00000000
_cell_angle_gamma   90.00000000
_symmetry_Int_Tables_number   1
_chemical_formula_structural   Cu2C
_chemical_formula_sum   'Cu48 C24'
_cell_volume   816.83585290
_cell_formula_units_Z   24
loop_
 _symmetry_equiv_pos_site_id
 _symmetry_equiv_pos_as_xyz
  1  'x, y, z'
loop_
 _atom_site_type_symbol
 _atom_site_label
 _atom_site_symmetry_multiplicity
 _atom_site_fract_x
 _atom_site_fract_y
 _atom_site_fract_z
 _atom_site_occupancy
  C  C0  1  0.00949100  0.74165400  0.75167000  1
  C  C1  1  0.51351900  0.24353900  0.75365400  1
  C  C2  1  0.48648100  0.24353900  0.25365400  1
  C  C3  1  0.99050900  0.74165400  0.25167000  1
  C  C4  1  0.26941600  0.49670800  0.74895200  1
  C  C5  1  0.23170600  0.98385800  0.24982200  1
  C  C6  1  0.76829400  0.98385800  0.74982200  1
  C  C7  1  0.73058400  0.49670800  0.24895200  1
  C  C8  1  0.02054800  0.74806500  0.00061600  1
  C  C9  1  0.02780800  0.25282100  0.50097700  1
  C  C10  1  0.24914200  0.98081100  0.99906900  1
  C  C11  1  0.24756300  0.51961200  0.99767300  1
  C  C12  1  0.24850300  0.02917900  0.50160700  1
  C  C13  1  0.24536700  0.47204100  0.50189200  1
  C  C14  1  0.46814600  0.25027400  0.50231100  1
  C  C15  1  0.48140900  0.75282300  0.99707600  1
  C  C16  1  0.51859100  0.75282300  0.49707600  1
  C  C17  1  0.53185400  0.25027400  0.00231100  1
  C  C18  1  0.75149700  0.02917900  0.00160700  1
  C  C19  1  0.75085800  0.98081100  0.49906900  1
  C  C20  1  0.75463300  0.47204100  0.00189200  1
  C  C21  1  0.75243700  0.51961200  0.49767300  1
  C  C22  1  0.97219200  0.25282100  0.00097700  1
  C  C23  1  0.97945200  0.74806500  0.50061600  1
  Cu  Cu24  1  0.06060481  0.44625597  0.88958552  1
  Cu  Cu25  1  0.06318862  0.05262865  0.11142261  1
  Cu  Cu26  1  0.06956000  0.56889373  0.62802245  1
  Cu  Cu27  1  0.05320152  0.94609428  0.36746277  1
  Cu  Cu28  1  0.08765315  0.69856226  0.94088450  1
  Cu  Cu29  1  0.11052373  0.80725394  0.07870298  1
  Cu  Cu30  1  0.12880191  0.26352063  0.59940617  1
  Cu  Cu31  1  0.14601391  0.17273952  0.45377079  1
  Cu  Cu32  1  0.16181077  0.68520449  0.36972605  1
  Cu  Cu33  1  0.20682149  0.86526380  0.59389442  1
  Cu  Cu34  1  0.20248466  0.34544907  0.11054158  1
  Cu  Cu35  1  0.16273347  0.20415797  0.88545739  1
  Cu  Cu36  1  0.32827631  0.60495512  0.84539440  1
  Cu  Cu37  1  0.31235024  0.91730424  0.14341162  1
  Cu  Cu38  1  0.31815105  0.44457388  0.61450371  1
  Cu  Cu39  1  0.34681923  0.07909682  0.37002814  1
  Cu  Cu40  1  0.35262401  0.42093210  0.41680392  1
  Cu  Cu41  1  0.34635080  0.07134545  0.56455363  1
  Cu  Cu42  1  0.39059428  0.94780447  0.91211202  1
  Cu  Cu43  1  0.37403714  0.60296172  0.04397727  1
  Cu  Cu44  1  0.44372280  0.69886988  0.61864747  1
  Cu  Cu45  1  0.46535762  0.84938785  0.34868562  1
  Cu  Cu46  1  0.46004799  0.30594556  0.86353946  1
  Cu  Cu47  1  0.44880731  0.19861853  0.11257980  1
  Cu  Cu48  1  0.54975070  0.18270302  0.65769985  1
  Cu  Cu49  1  0.54887491  0.29114712  0.37164573  1
  Cu  Cu50  1  0.56639368  0.81924209  0.86337898  1
  Cu  Cu51  1  0.56667261  0.70637627  0.10597191  1
  Cu  Cu52  1  0.60792851  0.93117028  0.44922310  1
  Cu  Cu53  1  0.60331663  0.58488645  0.56449556  1
  Cu  Cu54  1  0.63880019  0.43386065  0.93906727  1
  Cu  Cu55  1  0.65445534  0.07118195  0.08255959  1
  Cu  Cu56  1  0.69113714  0.07438280  0.87836701  1
  Cu  Cu57  1  0.67926575  0.43946336  0.13108715  1
  Cu  Cu58  1  0.67749018  0.54736402  0.37719368  1
  Cu  Cu59  1  0.68848036  0.92050222  0.63591197  1
  Cu  Cu60  1  0.82096440  0.32058852  0.61162981  1
  Cu  Cu61  1  0.81402236  0.15899443  0.39981018  1
  Cu  Cu62  1  0.81875369  0.67898134  0.86913180  1
  Cu  Cu63  1  0.83324541  0.85537918  0.12592824  1
  Cu  Cu64  1  0.86140711  0.22767058  0.92109062  1
  Cu  Cu65  1  0.89189519  0.24784480  0.10815474  1
  Cu  Cu66  1  0.87755011  0.79368271  0.57123458  1
  Cu  Cu67  1  0.84934042  0.65826226  0.46125983  1
  Cu  Cu68  1  0.98269941  0.55581749  0.13896723  1
  Cu  Cu69  1  0.94690669  0.94876073  0.86321634  1
  Cu  Cu70  1  0.96232873  0.05408213  0.61778134  1
  Cu  Cu71  1  0.96374402  0.43850214  0.38631606  1
