# generated using pymatgen
data_Cu11C18
_symmetry_space_group_name_H-M   'P 1'
_cell_length_a   8.75832600
_cell_length_b   12.81091600
_cell_length_c   14.83406158
_cell_angle_alpha   77.62095934
_cell_angle_beta   90.00000000
_cell_angle_gamma   90.00000000
_symmetry_Int_Tables_number   1
_chemical_formula_structural   Cu11C18
_chemical_formula_sum   'Cu44 C72'
_cell_volume   1625.71767558
_cell_formula_units_Z   4
loop_
 _symmetry_equiv_pos_site_id
 _symmetry_equiv_pos_as_xyz
  1  'x, y, z'
loop_
 _atom_site_type_symbol
 _atom_site_label
 _atom_site_symmetry_multiplicity
 _atom_site_fract_x
 _atom_site_fract_y
 _atom_site_fract_z
 _atom_site_occupancy
  C  C0  1  0.85367700  0.59542300  0.99105800  1
  C  C1  1  0.59930500  0.40264000  0.94163000  1
  C  C2  1  0.31166400  0.24195900  0.84144600  1
  C  C3  1  0.90910400  0.42680800  0.79027900  1
  C  C4  1  0.40910400  0.07319200  0.70972100  1
  C  C5  1  0.35367700  0.90457700  0.50894200  1
  C  C6  1  0.81166400  0.25804100  0.65855400  1
  C  C7  1  0.90069500  0.90264000  0.44163000  1
  C  C8  1  0.09930500  0.09736000  0.55837000  1
  C  C9  1  0.18833600  0.74195900  0.34144600  1
  C  C10  1  0.64632300  0.09542300  0.49105800  1
  C  C11  1  0.59089600  0.92680800  0.29027900  1
  C  C12  1  0.09089600  0.57319200  0.20972100  1
  C  C13  1  0.68833600  0.75804100  0.15855400  1
  C  C14  1  0.40069500  0.59736000  0.05837000  1
  C  C15  1  0.14632300  0.40457700  0.00894200  1
  C  C16  1  0.59813700  0.79476400  0.92972500  1
  C  C17  1  0.07556500  0.96624100  0.81843100  1
  C  C18  1  0.17843700  0.64096200  0.84465200  1
  C  C19  1  0.68782500  0.13043000  0.91387800  1
  C  C20  1  0.67843700  0.85903800  0.65534800  1
  C  C21  1  0.57556500  0.53375900  0.68156900  1
  C  C22  1  0.09813700  0.70523600  0.57027500  1
  C  C23  1  0.18782500  0.36957000  0.58612200  1
  C  C24  1  0.81217500  0.63043000  0.41387800  1
  C  C25  1  0.90186300  0.29476400  0.42972500  1
  C  C26  1  0.42443500  0.46624100  0.31843100  1
  C  C27  1  0.32156300  0.14096200  0.34465200  1
  C  C28  1  0.31217500  0.86957000  0.08612200  1
  C  C29  1  0.82156300  0.35903800  0.15534800  1
  C  C30  1  0.92443500  0.03375900  0.18156900  1
  C  C31  1  0.40186300  0.20523600  0.07027500  1
  C  C32  1  0.86423300  0.34095100  0.97930400  1
  C  C33  1  0.59510000  0.60087500  0.88868400  1
  C  C34  1  0.12288600  0.17410600  0.02166000  1
  C  C35  1  0.76567000  0.57191700  0.81274800  1
  C  C36  1  0.91903500  0.68618500  0.76510000  1
  C  C37  1  0.29482600  0.03321000  0.90851800  1
  C  C38  1  0.94646600  0.22979800  0.88767400  1
  C  C39  1  0.41903500  0.81381500  0.73490000  1
  C  C40  1  0.29075100  0.45946300  0.81966900  1
  C  C41  1  0.26567000  0.92808300  0.68725200  1
  C  C42  1  0.14653000  0.38311300  0.75431400  1
  C  C43  1  0.02238700  0.16247300  0.74523600  1
  C  C44  1  0.09510000  0.89912500  0.61131600  1
  C  C45  1  0.52238700  0.33752700  0.75476400  1
  C  C46  1  0.64653000  0.11688700  0.74568600  1
  C  C47  1  0.79075100  0.04053700  0.68033100  1
  C  C48  1  0.44646600  0.27020200  0.61232600  1
  C  C49  1  0.79482600  0.46679000  0.59148200  1
  C  C50  1  0.63576700  0.84095100  0.47930400  1
  C  C51  1  0.37711400  0.67410600  0.52166000  1
  C  C52  1  0.62288600  0.32589400  0.47834000  1
  C  C53  1  0.36423300  0.15904900  0.52069600  1
  C  C54  1  0.20517400  0.53321000  0.40851800  1
  C  C55  1  0.55353400  0.72979800  0.38767400  1
  C  C56  1  0.20924900  0.95946300  0.31966900  1
  C  C57  1  0.35347000  0.88311300  0.25431400  1
  C  C58  1  0.47761300  0.66247300  0.24523600  1
  C  C59  1  0.90490000  0.10087500  0.38868400  1
  C  C60  1  0.97761300  0.83752700  0.25476400  1
  C  C61  1  0.85347000  0.61688700  0.24568600  1
  C  C62  1  0.73433000  0.07191700  0.31274800  1
  C  C63  1  0.70924900  0.54053700  0.18033100  1
  C  C64  1  0.58096500  0.18618500  0.26510000  1
  C  C65  1  0.05353400  0.77020200  0.11232600  1
  C  C66  1  0.70517400  0.96679000  0.09148200  1
  C  C67  1  0.08096500  0.31381500  0.23490000  1
  C  C68  1  0.23433000  0.42808300  0.18725200  1
  C  C69  1  0.87711400  0.82589400  0.97834000  1
  C  C70  1  0.40490000  0.39912500  0.11131600  1
  C  C71  1  0.13576700  0.65904900  0.02069600  1
  Cu  Cu72  1  0.83233111  0.75072987  0.00656500  1
  Cu  Cu73  1  0.14014682  0.61864762  0.98470380  1
  Cu  Cu74  1  0.60172172  0.62816184  0.94853825  1
  Cu  Cu75  1  0.55175434  0.22213537  0.93681657  1
  Cu  Cu76  1  0.92802730  0.62866903  0.82192988  1
  Cu  Cu77  1  0.83099352  0.25880477  0.89282228  1
  Cu  Cu78  1  0.18904902  0.48449618  0.84619113  1
  Cu  Cu79  1  0.67602355  0.51499164  0.81589911  1
  Cu  Cu80  1  0.14775783  0.97416684  0.68532945  1
  Cu  Cu81  1  0.29850385  0.06548766  0.85044487  1
  Cu  Cu82  1  0.45237700  0.86433682  0.68354593  1
  Cu  Cu83  1  0.44467953  0.38853824  0.75284989  1
  Cu  Cu84  1  0.62131237  0.17283564  0.77333461  1
  Cu  Cu85  1  0.11555128  0.33482973  0.72847204  1
  Cu  Cu86  1  0.95946596  0.11150440  0.76838458  1
  Cu  Cu87  1  0.77853802  0.46000877  0.64105508  1
  Cu  Cu88  1  0.09240348  0.88098381  0.54845091  1
  Cu  Cu89  1  0.63017165  0.90757508  0.50424187  1
  Cu  Cu90  1  0.31005570  0.73229754  0.49235988  1
  Cu  Cu91  1  0.69576647  0.03232639  0.65341527  1
  Cu  Cu92  1  0.33998064  0.24191031  0.61607838  1
  Cu  Cu93  1  0.99984342  0.72112926  0.45337088  1
  Cu  Cu94  1  0.04954476  0.26723170  0.54233147  1
  Cu  Cu95  1  0.63344923  0.76249008  0.40044421  1
  Cu  Cu96  1  0.30352011  0.97949662  0.32764467  1
  Cu  Cu97  1  0.69619270  0.26969519  0.51882131  1
  Cu  Cu98  1  0.36472093  0.08712661  0.49713337  1
  Cu  Cu99  1  0.89754295  0.13428197  0.44664586  1
  Cu  Cu100  1  0.25361259  0.56174885  0.34880584  1
  Cu  Cu101  1  0.02334721  0.89925777  0.24712403  1
  Cu  Cu102  1  0.87496939  0.68536372  0.28088087  1
  Cu  Cu103  1  0.39491187  0.81407416  0.23599593  1
  Cu  Cu104  1  0.54029787  0.59862738  0.25764153  1
  Cu  Cu105  1  0.55313012  0.14591803  0.31640986  1
  Cu  Cu106  1  0.73186515  0.94006059  0.15394588  1
  Cu  Cu107  1  0.81068482  0.02235894  0.31396708  1
  Cu  Cu108  1  0.35811065  0.47500469  0.20273199  1
  Cu  Cu109  1  0.81521405  0.52574436  0.16369929  1
  Cu  Cu110  1  0.15227960  0.75442912  0.07116067  1
  Cu  Cu111  1  0.06085051  0.36196360  0.18328953  1
  Cu  Cu112  1  0.50827239  0.76048598  0.04313120  1
  Cu  Cu113  1  0.38723555  0.37791290  0.05631087  1
  Cu  Cu114  1  0.84485806  0.39604394  0.01561937  1
  Cu  Cu115  1  0.19489700  0.24143377  0.98982078  1
