# generated using pymatgen
data_CuC7
_symmetry_space_group_name_H-M   'P 1'
_cell_length_a   5.65234000
_cell_length_b   7.28069300
_cell_length_c   8.38339400
_cell_angle_alpha   90.00000000
_cell_angle_beta   90.00000000
_cell_angle_gamma   90.00000000
_symmetry_Int_Tables_number   1
_chemical_formula_structural   CuC7
_chemical_formula_sum   'Cu4 C28'
_cell_volume   345.00141316
_cell_formula_units_Z   4
loop_
 _symmetry_equiv_pos_site_id
 _symmetry_equiv_pos_as_xyz
  1  'x, y, z'
loop_
 _atom_site_type_symbol
 _atom_site_label
 _atom_site_symmetry_multiplicity
 _atom_site_fract_x
 _atom_site_fract_y
 _atom_site_fract_z
 _atom_site_occupancy
  C  C0  1  0.50000000  0.35721700  0.32629700  1
  C  C1  1  0.50000000  0.64278300  0.67370300  1
  C  C2  1  0.50000000  0.14278300  0.82629700  1
  C  C3  1  0.50000000  0.85721700  0.17370300  1
  Cu  Cu4  1  0.28088673  0.00428020  0.50242801  1
  Cu  Cu5  1  0.74963859  0.98708974  0.51298565  1
  Cu  Cu6  1  0.74987089  0.50331739  0.99221360  1
  Cu  Cu7  1  0.25287015  0.53891722  0.00927379  1
  C  C8  1  0.00000000  0.12054800  0.14458700  1
  C  C9  1  0.00000000  0.87945200  0.85541300  1
  C  C10  1  0.00000000  0.37945200  0.64458700  1
  C  C11  1  0.00000000  0.62054800  0.35541300  1
  C  C12  1  0.24906000  0.10702300  0.28739200  1
  C  C13  1  0.75094000  0.89297700  0.71260800  1
  C  C14  1  0.24906000  0.89297700  0.71260800  1
  C  C15  1  0.75094000  0.39297700  0.78739200  1
  C  C16  1  0.75094000  0.10702300  0.28739200  1
  C  C17  1  0.24906000  0.60702300  0.21260800  1
  C  C18  1  0.75094000  0.60702300  0.21260800  1
  C  C19  1  0.24906000  0.39297700  0.78739200  1
  C  C20  1  0.50000000  0.33777500  0.05491400  1
  C  C21  1  0.50000000  0.66222500  0.94508600  1
  C  C22  1  0.50000000  0.16222500  0.55491400  1
  C  C23  1  0.50000000  0.83777500  0.44508600  1
  C  C24  1  0.21671800  0.00000000  0.00000000  1
  C  C25  1  0.78328200  0.00000000  0.00000000  1
  C  C26  1  0.78328200  0.50000000  0.50000000  1
  C  C27  1  0.21671800  0.50000000  0.50000000  1
  C  C28  1  0.00000000  0.34693000  0.06805600  1
  C  C29  1  0.00000000  0.65307000  0.93194400  1
  C  C30  1  0.00000000  0.15307000  0.56805600  1
  C  C31  1  0.00000000  0.84693000  0.43194400  1
