# generated using pymatgen
data_Cu7(NiC)2
_symmetry_space_group_name_H-M   'P 1'
_cell_length_a   22.46849054
_cell_length_b   22.46849054
_cell_length_c   22.46849054
_cell_angle_alpha   159.74204772
_cell_angle_beta   159.74204772
_cell_angle_gamma   28.80239090
_symmetry_Int_Tables_number   1
_chemical_formula_structural   Cu7(NiC)2
_chemical_formula_sum   'Cu56 Ni16 C16'
_cell_volume   1359.16788708
_cell_formula_units_Z   8
loop_
 _symmetry_equiv_pos_site_id
 _symmetry_equiv_pos_as_xyz
  1  'x, y, z'
loop_
 _atom_site_type_symbol
 _atom_site_label
 _atom_site_symmetry_multiplicity
 _atom_site_fract_x
 _atom_site_fract_y
 _atom_site_fract_z
 _atom_site_occupancy
  C  C0  1  0.87500000  0.12500000  0.75000000  1
  C  C1  1  0.37500000  0.12500000  0.25000000  1
  C  C2  1  0.87500000  0.62500000  0.75000000  1
  C  C3  1  0.37500000  0.62500000  0.25000000  1
  C  C4  1  0.87500000  0.62500000  0.25000000  1
  C  C5  1  0.37500000  0.62500000  0.75000000  1
  C  C6  1  0.37500000  0.12500000  0.75000000  1
  C  C7  1  0.87500000  0.12500000  0.25000000  1
  Ni  Ni8  1  0.17332600  0.42673700  0.24601000  1
  Ni  Ni9  1  0.67332600  0.42731500  0.74658800  1
  Ni  Ni10  1  0.07268500  0.82667400  0.25341200  1
  Ni  Ni11  1  0.17731500  0.93072700  0.25399000  1
  Ni  Ni12  1  0.57326300  0.81927300  0.74658800  1
  Ni  Ni13  1  0.67673700  0.92332600  0.74601000  1
  Ni  Ni14  1  0.56927300  0.32268500  0.74601000  1
  Ni  Ni15  1  0.68072700  0.92673700  0.25341200  1
  Ni  Ni16  1  0.06927300  0.32326300  0.24658800  1
  Ni  Ni17  1  0.18072700  0.92731500  0.75399000  1
  Ni  Ni18  1  0.17673700  0.43072700  0.75341200  1
  Ni  Ni19  1  0.07326300  0.32667400  0.75399000  1
  Ni  Ni20  1  0.57268500  0.31927300  0.24601000  1
  Ni  Ni21  1  0.67731500  0.42332600  0.24658800  1
  Ni  Ni22  1  0.07667400  0.82268500  0.75341200  1
  Ni  Ni23  1  0.57667400  0.82326300  0.25399000  1
  C  C24  1  0.00118200  0.49881800  0.00000000  1
  C  C25  1  0.50118200  0.50118200  0.50236300  1
  C  C26  1  0.99881800  0.99881800  0.49763700  1
  C  C27  1  0.25118200  0.24881800  0.50000000  1
  C  C28  1  0.49881800  0.00118200  0.00000000  1
  C  C29  1  0.75118200  0.25118200  0.00236300  1
  C  C30  1  0.24881800  0.74881800  0.99763700  1
  C  C31  1  0.74881800  0.75118200  0.50000000  1
  Cu  Cu32  1  0.41451900  0.41766000  0.49674500  1
  Cu  Cu33  1  0.08222600  0.58548100  0.00314200  1
  Cu  Cu34  1  0.21662000  0.46586100  0.24471600  1
  Cu  Cu35  1  0.11732900  0.37500000  0.24232900  1
  Cu  Cu36  1  0.61732900  0.37500000  0.74232900  1
  Cu  Cu37  1  0.71662000  0.47190500  0.75075900  1
  Cu  Cu38  1  0.58222600  0.57908500  0.49674500  1
  Cu  Cu39  1  0.91451900  0.41777400  0.99685800  1
  Cu  Cu40  1  0.62500000  0.86732900  0.74232900  1
  Cu  Cu41  1  0.53413900  0.77885400  0.75075900  1
  Cu  Cu42  1  0.71586100  0.96662000  0.74471600  1
  Cu  Cu43  1  0.16721900  0.66721900  0.50000000  1
  Cu  Cu44  1  0.58335400  0.08335400  0.50000000  1
  Cu  Cu45  1  0.91721900  0.91721900  0.00000000  1
  Cu  Cu46  1  0.33278100  0.83278100  0.50000000  1
  Cu  Cu47  1  0.41664600  0.91664600  0.50000000  1
  Cu  Cu48  1  0.08278100  0.08278100  0.00000000  1
  Cu  Cu49  1  0.83335400  0.83335400  0.00000000  1
  Cu  Cu50  1  0.66664600  0.66664600  0.00000000  1
  Cu  Cu51  1  0.02809500  0.78338000  0.24924100  1
  Cu  Cu52  1  0.22190500  0.97114600  0.25528400  1
  Cu  Cu53  1  0.12500000  0.88267100  0.25767100  1
  Cu  Cu54  1  0.42091500  0.91766000  0.00314200  1
  Cu  Cu55  1  0.82908500  0.33222600  0.99674500  1
  Cu  Cu56  1  0.08234000  0.08548100  0.50325500  1
  Cu  Cu57  1  0.16766000  0.17091500  0.50314200  1
  Cu  Cu58  1  0.52885400  0.27809500  0.74471600  1
  Cu  Cu59  1  0.72114600  0.96586100  0.24924100  1
  Cu  Cu60  1  0.13267100  0.87500000  0.75767100  1
  Cu  Cu61  1  0.63267100  0.87500000  0.25767100  1
  Cu  Cu62  1  0.02885400  0.28413900  0.25075900  1
  Cu  Cu63  1  0.22114600  0.97190500  0.75528400  1
  Cu  Cu64  1  0.66766000  0.16451900  0.99674500  1
  Cu  Cu65  1  0.58234000  0.07908500  0.99685800  1
  Cu  Cu66  1  0.92091500  0.91777400  0.50325500  1
  Cu  Cu67  1  0.32908500  0.33234000  0.49685800  1
  Cu  Cu68  1  0.62500000  0.36732900  0.24232900  1
  Cu  Cu69  1  0.52809500  0.27885400  0.24471600  1
  Cu  Cu70  1  0.72190500  0.46662000  0.25075900  1
  Cu  Cu71  1  0.91664600  0.41664600  0.50000000  1
  Cu  Cu72  1  0.08335400  0.58335400  0.50000000  1
  Cu  Cu73  1  0.16664600  0.16664600  0.00000000  1
  Cu  Cu74  1  0.66721900  0.16721900  0.50000000  1
  Cu  Cu75  1  0.33335400  0.33335400  0.00000000  1
  Cu  Cu76  1  0.83278100  0.33278100  0.50000000  1
  Cu  Cu77  1  0.41721900  0.41721900  0.00000000  1
  Cu  Cu78  1  0.58278100  0.58278100  0.00000000  1
  Cu  Cu79  1  0.21586100  0.47114600  0.74924100  1
  Cu  Cu80  1  0.03413900  0.28338000  0.75528400  1
  Cu  Cu81  1  0.12500000  0.38267100  0.75767100  1
  Cu  Cu82  1  0.83548100  0.83222600  0.50314200  1
  Cu  Cu83  1  0.16777400  0.67091500  0.00325500  1
  Cu  Cu84  1  0.03338000  0.77809500  0.74924100  1
  Cu  Cu85  1  0.53338000  0.78413900  0.25528400  1
  Cu  Cu86  1  0.66777400  0.66451900  0.49685800  1
  Cu  Cu87  1  0.33548100  0.83234000  0.00325500  1
