# generated using pymatgen
data_Cu13C21
_symmetry_space_group_name_H-M   'P 1'
_cell_length_a   6.46808300
_cell_length_b   12.10003377
_cell_length_c   14.39444739
_cell_angle_alpha   92.45839552
_cell_angle_beta   96.39665280
_cell_angle_gamma   99.67160955
_symmetry_Int_Tables_number   1
_chemical_formula_structural   Cu13C21
_chemical_formula_sum   'Cu26 C42'
_cell_volume   1101.45667001
_cell_formula_units_Z   2
loop_
 _symmetry_equiv_pos_site_id
 _symmetry_equiv_pos_as_xyz
  1  'x, y, z'
loop_
 _atom_site_type_symbol
 _atom_site_label
 _atom_site_symmetry_multiplicity
 _atom_site_fract_x
 _atom_site_fract_y
 _atom_site_fract_z
 _atom_site_occupancy
  C  C0  1  0.52088800  0.83501300  0.31076200  1
  C  C1  1  0.88777300  0.73495300  0.90988000  1
  C  C2  1  0.47911200  0.16498700  0.68923800  1
  C  C3  1  0.11222700  0.26504700  0.09012000  1
  Cu  Cu4  1  0.11710642  0.80828005  0.90298734  1
  Cu  Cu5  1  0.73403778  0.95871486  0.31528158  1
  Cu  Cu6  1  0.27239389  0.19938293  0.18952450  1
  Cu  Cu7  1  0.67746819  0.78588415  0.42598224  1
  Cu  Cu8  1  0.98928789  0.64797480  0.02479514  1
  Cu  Cu9  1  0.33454354  0.24448404  0.76605151  1
  Cu  Cu10  1  0.62832893  0.10948485  0.60924044  1
  Cu  Cu11  1  0.65802559  0.27806020  0.67885724  1
  Cu  Cu12  1  0.16752903  0.15084355  0.99563442  1
  Cu  Cu13  1  0.95596117  0.45423644  0.71756962  1
  Cu  Cu14  1  0.64120419  0.10065602  0.82048833  1
  Cu  Cu15  1  0.39602472  0.33893905  0.05414430  1
  Cu  Cu16  1  0.78227488  0.81463567  0.80956287  1
  Cu  Cu17  1  0.95997264  0.33192837  0.99208844  1
  Cu  Cu18  1  0.38798817  0.87593998  0.19184154  1
  Cu  Cu19  1  0.66815896  0.76237838  0.22571722  1
  Cu  Cu20  1  0.84405963  0.83190766  0.00207899  1
  Cu  Cu21  1  0.32378998  0.19276059  0.57710669  1
  Cu  Cu22  1  0.93061350  0.61540043  0.80756671  1
  Cu  Cu23  1  0.30820090  0.70519492  0.30626399  1
  Cu  Cu24  1  0.09973394  0.37790703  0.17684893  1
  Cu  Cu25  1  0.30950363  0.03080735  0.68761386  1
  Cu  Cu26  1  0.61143125  0.63919183  0.92025581  1
  Cu  Cu27  1  0.06458834  0.52214436  0.30827057  1
  Cu  Cu28  1  0.80307269  0.18482006  0.09093879  1
  Cu  Cu29  1  0.33250919  0.91734554  0.39913383  1
  C  C30  1  0.70543800  0.41384700  0.37434800  1
  C  C31  1  0.29456200  0.58615300  0.62565200  1
  C  C32  1  0.94080700  0.55522700  0.75832800  1
  C  C33  1  0.11041100  0.47296700  0.63877100  1
  C  C34  1  0.88958900  0.52703300  0.36122900  1
  C  C35  1  0.82600100  0.37667900  0.69521400  1
  C  C36  1  0.17399900  0.62332100  0.30478600  1
  C  C37  1  0.05919300  0.44477300  0.24167200  1
  C  C38  1  0.28650800  0.90238500  0.13074800  1
  C  C39  1  0.24788700  0.30321600  0.81315100  1
  C  C40  1  0.69863000  0.86367700  0.75054400  1
  C  C41  1  0.25648600  0.95346800  0.43481400  1
  C  C42  1  0.19159900  0.08471300  0.94733300  1
  C  C43  1  0.71349200  0.09761500  0.86925200  1
  C  C44  1  0.09465900  0.61447900  0.06940000  1
  C  C45  1  0.45631100  0.59521800  0.93375400  1
  C  C46  1  0.80840100  0.91528700  0.05266700  1
  C  C47  1  0.54368900  0.40478200  0.06624600  1
  C  C48  1  0.74351400  0.04653200  0.56518600  1
  C  C49  1  0.75211300  0.69678400  0.18684900  1
  C  C50  1  0.30137000  0.13632300  0.24945600  1
  C  C51  1  0.33365100  0.85963600  0.88899900  1
  C  C52  1  0.21536900  0.22979200  0.51462000  1
  C  C53  1  0.78463100  0.77020800  0.48538000  1
  C  C54  1  0.15502800  0.94747700  0.68922500  1
  C  C55  1  0.84497200  0.05252300  0.31077500  1
  C  C56  1  0.66634900  0.14036400  0.11100100  1
  C  C57  1  0.90534100  0.38552100  0.93060000  1
  C  C58  1  0.25610400  0.55897100  0.51405000  1
  C  C59  1  0.35039400  0.62315500  0.73753200  1
  C  C60  1  0.64960600  0.37684500  0.26246800  1
  C  C61  1  0.52568200  0.49298700  0.36457800  1
  C  C62  1  0.12661000  0.67210100  0.61658900  1
  C  C63  1  0.74389600  0.44102900  0.48595000  1
  C  C64  1  0.87339000  0.32789900  0.38341100  1
  C  C65  1  0.52196000  0.31051400  0.39200500  1
  C  C66  1  0.47431800  0.50701300  0.63542200  1
  C  C67  1  0.47804000  0.68948600  0.60799500  1
