# generated using pymatgen
data_Cu7(Ni3C32)3
_symmetry_space_group_name_H-M   'P 1'
_cell_length_a   10.14966076
_cell_length_b   10.14966076
_cell_length_c   17.62388565
_cell_angle_alpha   73.42121904
_cell_angle_beta   73.42121904
_cell_angle_gamma   59.62866305
_symmetry_Int_Tables_number   1
_chemical_formula_structural   Cu7(Ni3C32)3
_chemical_formula_sum   'Cu7 Ni9 C96'
_cell_volume   1479.25857385
_cell_formula_units_Z   1
loop_
 _symmetry_equiv_pos_site_id
 _symmetry_equiv_pos_as_xyz
  1  'x, y, z'
loop_
 _atom_site_type_symbol
 _atom_site_label
 _atom_site_symmetry_multiplicity
 _atom_site_fract_x
 _atom_site_fract_y
 _atom_site_fract_z
 _atom_site_occupancy
  C  C0  1  0.55254700  0.63107900  0.81515900  1
  C  C1  1  0.63273500  0.05712600  0.31286700  1
  C  C2  1  0.73978300  0.81504500  0.56136300  1
  C  C3  1  0.23902600  0.37473100  0.56267300  1
  C  C4  1  0.31779100  0.74007600  0.06188900  1
  C  C5  1  0.87780700  0.23555000  0.06232700  1
  C  C6  1  0.49536600  0.12587700  0.81263400  1
  C  C7  1  0.05712600  0.63273500  0.81286700  1
  C  C8  1  0.12763800  0.99695900  0.31441200  1
  C  C9  1  0.63107900  0.55254700  0.31515900  1
  C  C10  1  0.74007600  0.31779100  0.56188900  1
  C  C11  1  0.23555000  0.87780700  0.56232700  1
  C  C12  1  0.81504500  0.73978300  0.06136300  1
  C  C13  1  0.37473100  0.23902600  0.06267300  1
  C  C14  1  0.99695900  0.12763800  0.81441200  1
  C  C15  1  0.12587700  0.49536600  0.31263400  1
  C  C16  1  0.87368000  0.49823800  0.69173100  1
  C  C17  1  0.45713500  0.36614100  0.18328700  1
  C  C18  1  0.99939300  0.86706800  0.18835000  1
  C  C19  1  0.62925100  0.75615700  0.93776300  1
  C  C20  1  0.17565900  0.25782400  0.93843400  1
  C  C21  1  0.75708300  0.12706400  0.43996000  1
  C  C22  1  0.25924200  0.67433100  0.43652600  1
  C  C23  1  0.36614100  0.45713500  0.68328700  1
  C  C24  1  0.86706800  0.99939300  0.68835000  1
  C  C25  1  0.95304700  0.36213900  0.18400700  1
  C  C26  1  0.49823800  0.87368000  0.19173100  1
  C  C27  1  0.12706400  0.75708300  0.93996000  1
  C  C28  1  0.67433100  0.25924200  0.93652600  1
  C  C29  1  0.75615700  0.62925100  0.43776300  1
  C  C30  1  0.25782400  0.17565900  0.43843400  1
  C  C31  1  0.36213900  0.95304700  0.68400700  1
  Cu  Cu32  1  0.29212411  0.93952889  0.87741890  1
  Ni  Ni33  1  0.87023200  0.43378600  0.87563200  1
  Cu  Cu34  1  0.94133771  0.78582813  0.38170220  1
  Ni  Ni35  1  0.43994300  0.36985100  0.37447700  1
  Ni  Ni36  1  0.56113300  0.12603100  0.62860000  1
  Ni  Ni37  1  0.06057000  0.68227400  0.62661200  1
  Cu  Cu38  1  0.62722747  0.57083421  0.13123785  1
  Ni  Ni39  1  0.18355500  0.05792900  0.12744600  1
  Ni  Ni40  1  0.80836900  0.93672000  0.87517500  1
  Cu  Cu41  1  0.38115198  0.43870298  0.87954344  1
  Ni  Ni42  1  0.93801500  0.30950800  0.37631800  1
  Cu  Cu43  1  0.42277863  0.87564713  0.38710340  1
  Ni  Ni44  1  0.56211100  0.62915500  0.62729100  1
  Cu  Cu45  1  0.04109176  0.19220918  0.63194912  1
  Ni  Ni46  1  0.12603100  0.56113300  0.12860000  1
  Cu  Cu47  1  0.66799199  0.04467828  0.13220822  1
  C  C48  1  0.04896300  0.34344400  0.61612500  1
  C  C49  1  0.83141400  0.33144300  0.95325900  1
  C  C50  1  0.41416000  0.86494500  0.80081700  1
  C  C51  1  0.90564100  0.35547500  0.80283500  1
  C  C52  1  0.38132500  0.82939600  0.95148000  1
  C  C53  1  0.73028200  0.59826400  0.86291100  1
  C  C54  1  0.55432200  0.98277300  0.61724900  1
  C  C55  1  0.84765400  0.04762000  0.11518300  1
  C  C56  1  0.33518300  0.33258900  0.45174300  1
  C  C57  1  0.36470200  0.40673600  0.30102000  1
  C  C58  1  0.85988900  0.91006700  0.29991600  1
  C  C59  1  0.30018700  0.10013200  0.86463300  1
  C  C60  1  0.82945600  0.88093600  0.45009100  1
  C  C61  1  0.89885000  0.69703400  0.63143000  1
  C  C62  1  0.60407100  0.22748400  0.36365800  1
  C  C63  1  0.01042000  0.45270700  0.88031700  1
  C  C64  1  0.48203300  0.55850500  0.11879600  1
  C  C65  1  0.39666000  0.26540100  0.63478200  1
  C  C66  1  0.09890900  0.80087000  0.36195900  1
  C  C67  1  0.17738100  0.60252600  0.55451900  1
  C  C68  1  0.19835300  0.89634700  0.13182200  1
  C  C69  1  0.62798000  0.08892900  0.70577900  1
  C  C70  1  0.12530700  0.57457000  0.70461400  1
  C  C71  1  0.67318700  0.16545600  0.55606700  1
  C  C72  1  0.64043800  0.96154400  0.88472200  1
  C  C73  1  0.45883700  0.50972600  0.37984400  1
  C  C74  1  0.76568100  0.39595300  0.13263500  1
  C  C75  1  0.10186700  0.17551300  0.05628100  1
  C  C76  1  0.04762000  0.84765400  0.61518300  1
  C  C77  1  0.33258900  0.33518300  0.95174300  1
  C  C78  1  0.40673600  0.36470200  0.80102000  1
  C  C79  1  0.91006700  0.85988900  0.79991600  1
  C  C80  1  0.07811300  0.12086900  0.20613200  1
  C  C81  1  0.59935000  0.62972800  0.20304800  1
  C  C82  1  0.96450900  0.13940100  0.38685800  1
  C  C83  1  0.66803500  0.67157600  0.05325300  1
  C  C84  1  0.88093600  0.82945600  0.95009100  1
  C  C85  1  0.22748400  0.60407100  0.86365800  1
  C  C86  1  0.34344400  0.04896300  0.11612500  1
  C  C87  1  0.55850500  0.48203300  0.61879600  1
  C  C88  1  0.33144300  0.83141400  0.45325900  1
  C  C89  1  0.86494500  0.41416000  0.30081700  1
  C  C90  1  0.35547500  0.90564100  0.30283500  1
  C  C91  1  0.80087000  0.09890900  0.86195900  1
  C  C92  1  0.89634700  0.19835300  0.63182200  1
  C  C93  1  0.82939600  0.38132500  0.45148000  1
  C  C94  1  0.50972600  0.45883700  0.87984400  1
  C  C95  1  0.59826400  0.73028200  0.36291100  1
  C  C96  1  0.98277300  0.55432200  0.11724900  1
  C  C97  1  0.39595300  0.76568100  0.63263500  1
  C  C98  1  0.10013200  0.30018700  0.36463300  1
  C  C99  1  0.17551300  0.10186700  0.55628100  1
  C  C100  1  0.69703400  0.89885000  0.13143000  1
  C  C101  1  0.12086900  0.07811300  0.70613200  1
  C  C102  1  0.62972800  0.59935000  0.70304800  1
  C  C103  1  0.13940100  0.96450900  0.88685800  1
  C  C104  1  0.67157600  0.66803500  0.55325300  1
  C  C105  1  0.45270700  0.01042000  0.38031700  1
  C  C106  1  0.26540100  0.39666000  0.13478200  1
  C  C107  1  0.60252600  0.17738100  0.05451900  1
  C  C108  1  0.08892900  0.62798000  0.20577900  1
  C  C109  1  0.57457000  0.12530700  0.20461400  1
  C  C110  1  0.16545600  0.67318700  0.05606700  1
  C  C111  1  0.96154400  0.64043800  0.38472200  1
