# generated using pymatgen
data_CuC
_symmetry_space_group_name_H-M   'P 1'
_cell_length_a   3.56725900
_cell_length_b   5.68879100
_cell_length_c   6.28667300
_cell_angle_alpha   90.00000000
_cell_angle_beta   90.00000000
_cell_angle_gamma   90.00000000
_symmetry_Int_Tables_number   1
_chemical_formula_structural   CuC
_chemical_formula_sum   'Cu4 C4'
_cell_volume   127.57791261
_cell_formula_units_Z   4
loop_
 _symmetry_equiv_pos_site_id
 _symmetry_equiv_pos_as_xyz
  1  'x, y, z'
loop_
 _atom_site_type_symbol
 _atom_site_label
 _atom_site_symmetry_multiplicity
 _atom_site_fract_x
 _atom_site_fract_y
 _atom_site_fract_z
 _atom_site_occupancy
  C  C0  1  0.25000000  0.50172400  0.71670100  1
  C  C1  1  0.75000000  0.49827600  0.28329900  1
  C  C2  1  0.25000000  0.00172400  0.78329900  1
  C  C3  1  0.75000000  0.99827600  0.21670100  1
  Cu  Cu4  1  0.26322940  0.71758733  0.08033924  1
  Cu  Cu5  1  0.72741251  0.29145605  0.88036166  1
  Cu  Cu6  1  0.17994469  0.21607285  0.41550144  1
  Cu  Cu7  1  0.74367353  0.76323110  0.57917169  1
