# generated using pymatgen
data_Cu12Ni12C11
_symmetry_space_group_name_H-M   'P 1'
_cell_length_a   9.38707760
_cell_length_b   9.38707760
_cell_length_c   9.38707776
_cell_angle_alpha   56.29904110
_cell_angle_beta   56.29904110
_cell_angle_gamma   56.29903671
_symmetry_Int_Tables_number   1
_chemical_formula_structural   Cu12Ni12C11
_chemical_formula_sum   'Cu12 Ni12 C11'
_cell_volume   534.81245941
_cell_formula_units_Z   1
loop_
 _symmetry_equiv_pos_site_id
 _symmetry_equiv_pos_as_xyz
  1  'x, y, z'
loop_
 _atom_site_type_symbol
 _atom_site_label
 _atom_site_symmetry_multiplicity
 _atom_site_fract_x
 _atom_site_fract_y
 _atom_site_fract_z
 _atom_site_occupancy
  C  C0  1  0.50000000  0.50000000  0.50000000  1
  C  C1  1  0.85616600  0.85616600  0.85616600  1
  C  C2  1  0.14383400  0.14383400  0.14383400  1
  C  C3  1  0.35024900  0.35024900  0.35024900  1
  C  C4  1  0.64975100  0.64975100  0.64975100  1
  C  C5  1  0.04323400  0.74490700  0.46834800  1
  C  C6  1  0.74490700  0.46834800  0.04323400  1
  C  C7  1  0.46834800  0.04323400  0.74490700  1
  C  C8  1  0.53165200  0.95676600  0.25509300  1
  C  C9  1  0.95676600  0.25509300  0.53165200  1
  C  C10  1  0.25509300  0.53165200  0.95676600  1
  Cu  Cu11  1  0.30350475  0.05209099  0.91286410  1
  Ni  Ni12  1  0.29843400  0.49868500  0.11156800  1
  Cu  Cu13  1  0.74013718  0.61242505  0.04493243  1
  Ni  Ni14  1  0.49868500  0.11156800  0.29843400  1
  Cu  Cu15  1  0.21715209  0.58045336  0.41011161  1
  Cu  Cu16  1  0.52000338  0.87840570  0.66196505  1
  Ni  Ni17  1  0.68730400  0.95637300  0.06881200  1
  Ni  Ni18  1  0.01965300  0.74399600  0.64488000  1
  Cu  Cu19  1  0.41883795  0.23226168  0.59547650  1
  Cu  Cu20  1  0.40166281  0.58162964  0.78035459  1
  Cu  Cu21  1  0.98757671  0.22998807  0.35708408  1
  Ni  Ni22  1  0.76904900  0.40707200  0.58746400  1
  Cu  Cu23  1  0.90218220  0.69121552  0.48946132  1
  Cu  Cu24  1  0.71864470  0.49842438  0.89127980  1
  Cu  Cu25  1  0.09893693  0.31388914  0.51236207  1
  Ni  Ni26  1  0.95637300  0.06881200  0.68730400  1
  Ni  Ni27  1  0.59292800  0.41253600  0.23095100  1
  Ni  Ni28  1  0.35512000  0.98034700  0.25600400  1
  Ni  Ni29  1  0.06881200  0.68730400  0.95637300  1
  Ni  Ni30  1  0.04362700  0.93118800  0.31269600  1
  Cu  Cu31  1  0.56729796  0.77727257  0.41492692  1
  Ni  Ni32  1  0.25600400  0.35512000  0.98034700  1
  Ni  Ni33  1  0.93118800  0.31269600  0.04362700  1
  Cu  Cu34  1  0.64419711  0.03427696  0.73923776  1
