# generated using pymatgen
data_Cu12NiC6
_symmetry_space_group_name_H-M   'P 1'
_cell_length_a   7.09329700
_cell_length_b   14.23591800
_cell_length_c   21.89281600
_cell_angle_alpha   90.00000000
_cell_angle_beta   90.00000000
_cell_angle_gamma   90.00000000
_symmetry_Int_Tables_number   1
_chemical_formula_structural   Cu12NiC6
_chemical_formula_sum   'Cu96 Ni8 C48'
_cell_volume   2210.72768087
_cell_formula_units_Z   8
loop_
 _symmetry_equiv_pos_site_id
 _symmetry_equiv_pos_as_xyz
  1  'x, y, z'
loop_
 _atom_site_type_symbol
 _atom_site_label
 _atom_site_symmetry_multiplicity
 _atom_site_fract_x
 _atom_site_fract_y
 _atom_site_fract_z
 _atom_site_occupancy
  Ni  Ni0  1  0.78520600  0.49494900  0.16563200  1
  Ni  Ni1  1  0.28520600  0.50505100  0.33436800  1
  Ni  Ni2  1  0.21479400  0.00505100  0.66563200  1
  Ni  Ni3  1  0.71479400  0.99494900  0.83436800  1
  Ni  Ni4  1  0.21479400  0.50505100  0.83436800  1
  Ni  Ni5  1  0.71479400  0.49494900  0.66563200  1
  Ni  Ni6  1  0.78520600  0.99494900  0.33436800  1
  Ni  Ni7  1  0.28520600  0.00505100  0.16563200  1
  C  C8  1  0.96391500  0.37929000  0.08118500  1
  C  C9  1  0.46391500  0.62071000  0.41881500  1
  C  C10  1  0.03608500  0.12071000  0.58118500  1
  C  C11  1  0.53608500  0.87929000  0.91881500  1
  C  C12  1  0.03608500  0.62071000  0.91881500  1
  C  C13  1  0.53608500  0.37929000  0.58118500  1
  C  C14  1  0.96391500  0.87929000  0.41881500  1
  C  C15  1  0.46391500  0.12071000  0.08118500  1
  C  C16  1  0.61673500  0.13076900  0.40847200  1
  C  C17  1  0.11673500  0.86923100  0.09152800  1
  C  C18  1  0.38326500  0.36923100  0.90847200  1
  C  C19  1  0.88326500  0.63076900  0.59152800  1
  C  C20  1  0.38326500  0.86923100  0.59152800  1
  C  C21  1  0.88326500  0.13076900  0.90847200  1
  C  C22  1  0.61673500  0.63076900  0.09152800  1
  C  C23  1  0.11673500  0.36923100  0.40847200  1
  C  C24  1  0.01498400  0.58790200  0.25998600  1
  C  C25  1  0.51498400  0.41209800  0.24001400  1
  C  C26  1  0.98501600  0.91209800  0.75998600  1
  C  C27  1  0.48501600  0.08790200  0.74001400  1
  C  C28  1  0.98501600  0.41209800  0.74001400  1
  C  C29  1  0.48501600  0.58790200  0.75998600  1
  C  C30  1  0.01498400  0.08790200  0.24001400  1
  C  C31  1  0.51498400  0.91209800  0.25998600  1
  C  C32  1  0.65111500  0.37255800  0.42347000  1
  C  C33  1  0.15111500  0.62744200  0.07653000  1
  C  C34  1  0.34888500  0.12744200  0.92347000  1
  C  C35  1  0.84888500  0.87255800  0.57653000  1
  C  C36  1  0.34888500  0.62744200  0.57653000  1
  C  C37  1  0.84888500  0.37255800  0.92347000  1
  C  C38  1  0.65111500  0.87255800  0.07653000  1
  C  C39  1  0.15111500  0.12744200  0.42347000  1
  C  C40  1  0.42071900  0.36257200  0.05761600  1
  C  C41  1  0.92071900  0.63742800  0.44238400  1
  C  C42  1  0.57928100  0.13742800  0.55761600  1
  C  C43  1  0.07928100  0.86257200  0.94238400  1
  C  C44  1  0.57928100  0.63742800  0.94238400  1
  C  C45  1  0.07928100  0.36257200  0.55761600  1
  C  C46  1  0.42071900  0.86257200  0.44238400  1
  C  C47  1  0.92071900  0.13742800  0.05761600  1
  C  C48  1  0.00873500  0.31822500  0.24630500  1
  C  C49  1  0.50873500  0.68177500  0.25369500  1
  C  C50  1  0.99126500  0.18177500  0.74630500  1
  C  C51  1  0.49126500  0.81822500  0.75369500  1
  C  C52  1  0.99126500  0.68177500  0.75369500  1
  C  C53  1  0.49126500  0.31822500  0.74630500  1
  C  C54  1  0.00873500  0.81822500  0.25369500  1
  C  C55  1  0.50873500  0.18177500  0.24630500  1
  Cu  Cu56  1  0.11271600  0.45621100  0.06838600  1
  Cu  Cu57  1  0.61271600  0.54378900  0.43161400  1
  Cu  Cu58  1  0.88728400  0.04378900  0.56838600  1
  Cu  Cu59  1  0.38728400  0.95621100  0.93161400  1
  Cu  Cu60  1  0.88728400  0.54378900  0.93161400  1
  Cu  Cu61  1  0.38728400  0.45621100  0.56838600  1
  Cu  Cu62  1  0.11271600  0.95621100  0.43161400  1
  Cu  Cu63  1  0.61271600  0.04378900  0.06838600  1
  Cu  Cu64  1  0.81480900  0.36949700  0.03052600  1
  Cu  Cu65  1  0.31480900  0.63050300  0.46947400  1
  Cu  Cu66  1  0.18519100  0.13050300  0.53052600  1
  Cu  Cu67  1  0.68519100  0.86949700  0.96947400  1
  Cu  Cu68  1  0.18519100  0.63050300  0.96947400  1
  Cu  Cu69  1  0.68519100  0.36949700  0.53052600  1
  Cu  Cu70  1  0.81480900  0.86949700  0.46947400  1
  Cu  Cu71  1  0.31480900  0.13050300  0.03052600  1
  Cu  Cu72  1  0.06972400  0.28695800  0.09528600  1
  Cu  Cu73  1  0.56972400  0.71304200  0.40471400  1
  Cu  Cu74  1  0.93027600  0.21304200  0.59528600  1
  Cu  Cu75  1  0.43027600  0.78695800  0.90471400  1
  Cu  Cu76  1  0.93027600  0.71304200  0.90471400  1
  Cu  Cu77  1  0.43027600  0.28695800  0.59528600  1
  Cu  Cu78  1  0.06972400  0.78695800  0.40471400  1
  Cu  Cu79  1  0.56972400  0.21304200  0.09528600  1
  Cu  Cu80  1  0.84807100  0.40380500  0.14187500  1
  Cu  Cu81  1  0.34807100  0.59619500  0.35812500  1
  Cu  Cu82  1  0.15192900  0.09619500  0.64187500  1
  Cu  Cu83  1  0.65192900  0.90380500  0.85812500  1
  Cu  Cu84  1  0.15192900  0.59619500  0.85812500  1
  Cu  Cu85  1  0.65192900  0.40380500  0.64187500  1
  Cu  Cu86  1  0.84807100  0.90380500  0.35812500  1
  Cu  Cu87  1  0.34807100  0.09619500  0.14187500  1
  Cu  Cu88  1  0.52475200  0.19155900  0.35872400  1
  Cu  Cu89  1  0.02475200  0.80844100  0.14127600  1
  Cu  Cu90  1  0.47524800  0.30844100  0.85872400  1
  Cu  Cu91  1  0.97524800  0.69155900  0.64127600  1
  Cu  Cu92  1  0.47524800  0.80844100  0.64127600  1
  Cu  Cu93  1  0.97524800  0.19155900  0.85872400  1
  Cu  Cu94  1  0.52475200  0.69155900  0.14127600  1
  Cu  Cu95  1  0.02475200  0.30844100  0.35872400  1
  Cu  Cu96  1  0.78497900  0.06966300  0.38022200  1
  Cu  Cu97  1  0.28497900  0.93033700  0.11977800  1
  Cu  Cu98  1  0.21502100  0.43033700  0.88022200  1
  Cu  Cu99  1  0.71502100  0.56966300  0.61977800  1
  Cu  Cu100  1  0.21502100  0.93033700  0.61977800  1
  Cu  Cu101  1  0.71502100  0.06966300  0.88022200  1
  Cu  Cu102  1  0.78497900  0.56966300  0.11977800  1
  Cu  Cu103  1  0.28497900  0.43033700  0.38022200  1
  Cu  Cu104  1  0.71228100  0.19212000  0.45837800  1
  Cu  Cu105  1  0.21228100  0.80788000  0.04162200  1
  Cu  Cu106  1  0.28771900  0.30788000  0.95837800  1
  Cu  Cu107  1  0.78771900  0.69212000  0.54162200  1
  Cu  Cu108  1  0.28771900  0.80788000  0.54162200  1
  Cu  Cu109  1  0.78771900  0.19212000  0.95837800  1
  Cu  Cu110  1  0.71228100  0.69212000  0.04162200  1
  Cu  Cu111  1  0.21228100  0.30788000  0.45837800  1
  Cu  Cu112  1  0.47129500  0.06517200  0.43954800  1
  Cu  Cu113  1  0.97129500  0.93482800  0.06045200  1
  Cu  Cu114  1  0.52870500  0.43482800  0.93954800  1
  Cu  Cu115  1  0.02870500  0.56517200  0.56045200  1
  Cu  Cu116  1  0.52870500  0.93482800  0.56045200  1
  Cu  Cu117  1  0.02870500  0.06517200  0.93954800  1
  Cu  Cu118  1  0.47129500  0.56517200  0.06045200  1
  Cu  Cu119  1  0.97129500  0.43482800  0.43954800  1
  Cu  Cu120  1  0.17327400  0.64536000  0.23026300  1
  Cu  Cu121  1  0.67327400  0.35464000  0.26973700  1
  Cu  Cu122  1  0.82672600  0.85464000  0.73026300  1
  Cu  Cu123  1  0.32672600  0.14536000  0.76973700  1
  Cu  Cu124  1  0.82672600  0.35464000  0.76973700  1
  Cu  Cu125  1  0.32672600  0.64536000  0.73026300  1
  Cu  Cu126  1  0.17327400  0.14536000  0.26973700  1
  Cu  Cu127  1  0.67327400  0.85464000  0.23026300  1
  Cu  Cu128  1  0.09249200  0.51630200  0.30937300  1
  Cu  Cu129  1  0.59249200  0.48369800  0.19062700  1
  Cu  Cu130  1  0.90750800  0.98369800  0.80937300  1
  Cu  Cu131  1  0.40750800  0.01630200  0.69062700  1
  Cu  Cu132  1  0.90750800  0.48369800  0.69062700  1
  Cu  Cu133  1  0.40750800  0.51630200  0.80937300  1
  Cu  Cu134  1  0.09249200  0.01630200  0.19062700  1
  Cu  Cu135  1  0.59249200  0.98369800  0.30937300  1
  Cu  Cu136  1  0.86720800  0.65442400  0.28729300  1
  Cu  Cu137  1  0.36720800  0.34557600  0.21270700  1
  Cu  Cu138  1  0.13279200  0.84557600  0.78729300  1
  Cu  Cu139  1  0.63279200  0.15442400  0.71270700  1
  Cu  Cu140  1  0.13279200  0.34557600  0.71270700  1
  Cu  Cu141  1  0.63279200  0.65442400  0.78729300  1
  Cu  Cu142  1  0.86720800  0.15442400  0.21270700  1
  Cu  Cu143  1  0.36720800  0.84557600  0.28729300  1
  Cu  Cu144  1  0.92576800  0.51625200  0.21417500  1
  Cu  Cu145  1  0.42576800  0.48374800  0.28582500  1
  Cu  Cu146  1  0.07423200  0.98374800  0.71417500  1
  Cu  Cu147  1  0.57423200  0.01625200  0.78582500  1
  Cu  Cu148  1  0.07423200  0.48374800  0.78582500  1
  Cu  Cu149  1  0.57423200  0.51625200  0.71417500  1
  Cu  Cu150  1  0.92576800  0.01625200  0.28582500  1
  Cu  Cu151  1  0.42576800  0.98374800  0.21417500  1
