# generated using pymatgen
data_Cu6C13
_symmetry_space_group_name_H-M   'P 1'
_cell_length_a   4.86933835
_cell_length_b   4.93320667
_cell_length_c   9.49389062
_cell_angle_alpha   91.43448999
_cell_angle_beta   89.70629925
_cell_angle_gamma   89.59660682
_symmetry_Int_Tables_number   1
_chemical_formula_structural   Cu6C13
_chemical_formula_sum   'Cu6 C13'
_cell_volume   227.97671169
_cell_formula_units_Z   1
loop_
 _symmetry_equiv_pos_site_id
 _symmetry_equiv_pos_as_xyz
  1  'x, y, z'
loop_
 _atom_site_type_symbol
 _atom_site_label
 _atom_site_symmetry_multiplicity
 _atom_site_fract_x
 _atom_site_fract_y
 _atom_site_fract_z
 _atom_site_occupancy
  C  C0  1  0.55198266  0.02599698  0.49616453  1
  Cu  Cu1  1  0.00623402  0.93149656  0.00739483  1
  Cu  Cu2  1  0.05158573  0.00942296  0.28911678  1
  Cu  Cu3  1  0.07667863  0.99665081  0.69285394  1
  Cu  Cu4  1  0.47801518  0.49563430  0.81940999  1
  Cu  Cu5  1  0.48954772  0.42388527  0.18702609  1
  Cu  Cu6  1  0.25500080  0.50053648  0.49170846  1
  C  C7  1  0.17721817  0.88284343  0.48616298  1
  C  C8  1  0.18204025  0.75863131  0.83990299  1
  C  C9  1  0.35481743  0.27387563  0.32575344  1
  C  C10  1  0.34977793  0.29634335  0.66419166  1
  C  C11  1  0.67997231  0.66072858  0.00195666  1
  C  C12  1  0.84390988  0.17081524  0.15231003  1
  C  C13  1  0.21706310  0.72520080  0.16778031  1
  C  C14  1  0.30382064  0.22596168  0.99553094  1
  C  C15  1  0.71240232  0.78165702  0.34132910  1
  C  C16  1  0.69146647  0.79260984  0.64823902  1
  C  C17  1  0.83771519  0.29162546  0.48597479  1
  C  C18  1  0.80700545  0.21893691  0.83278722  1
