# generated using pymatgen
data_Cu15NiC12
_symmetry_space_group_name_H-M   'P 1'
_cell_length_a   5.94534197
_cell_length_b   5.94534197
_cell_length_c   9.69886555
_cell_angle_alpha   88.78518326
_cell_angle_beta   88.78518326
_cell_angle_gamma   59.19897349
_symmetry_Int_Tables_number   1
_chemical_formula_structural   Cu15NiC12
_chemical_formula_sum   'Cu15 Ni1 C12'
_cell_volume   294.38367952
_cell_formula_units_Z   1
loop_
 _symmetry_equiv_pos_site_id
 _symmetry_equiv_pos_as_xyz
  1  'x, y, z'
loop_
 _atom_site_type_symbol
 _atom_site_label
 _atom_site_symmetry_multiplicity
 _atom_site_fract_x
 _atom_site_fract_y
 _atom_site_fract_z
 _atom_site_occupancy
  C  C0  1  0.66146200  0.66146200  0.10167600  1
  C  C1  1  0.99794300  0.99794300  0.01004700  1
  C  C2  1  0.99939400  0.99939400  0.50836100  1
  C  C3  1  0.33666000  0.33666000  0.59453500  1
  C  C4  1  0.67047500  0.67047500  0.50400200  1
  C  C5  1  0.32766100  0.32766100  0.00704900  1
  C  C6  1  0.34233900  0.83286600  0.78122600  1
  C  C7  1  0.83286600  0.34233900  0.78122600  1
  C  C8  1  0.17070600  0.17070600  0.28211300  1
  C  C9  1  0.83043800  0.83043800  0.78782700  1
  C  C10  1  0.16650500  0.66083200  0.28574700  1
  C  C11  1  0.66083200  0.16650500  0.28574700  1
  Cu  Cu12  1  0.36343931  0.83306327  0.42554123  1
  Cu  Cu13  1  0.53479141  0.53203478  0.63258522  1
  Cu  Cu14  1  0.63972460  0.69035499  0.87751320  1
  Cu  Cu15  1  0.01661556  0.00506915  0.68362474  1
  Cu  Cu16  1  0.97042567  0.99933261  0.20075694  1
  Cu  Cu17  1  0.84252330  0.33125104  0.41601220  1
  Ni  Ni18  1  0.51620800  0.96738100  0.65432200  1
  Cu  Cu19  1  0.98060395  0.50201540  0.68399602  1
  Cu  Cu20  1  0.17038819  0.13879698  0.91232105  1
  Cu  Cu21  1  0.81487551  0.86402375  0.38882575  1
  Cu  Cu22  1  0.99242297  0.51925848  0.14716802  1
  Cu  Cu23  1  0.48973947  0.00175717  0.14991213  1
  Cu  Cu24  1  0.32188726  0.36205911  0.38237157  1
  Cu  Cu25  1  0.13017328  0.67939155  0.91753558  1
  Cu  Cu26  1  0.50109312  0.43788029  0.16366952  1
  Cu  Cu27  1  0.63003860  0.20579301  0.91088017  1
