# generated using pymatgen
data_Cu11NiC52
_symmetry_space_group_name_H-M   'P 1'
_cell_length_a   14.15646447
_cell_length_b   14.15646447
_cell_length_c   14.15646465
_cell_angle_alpha   34.51751705
_cell_angle_beta   34.51751705
_cell_angle_gamma   34.51751780
_symmetry_Int_Tables_number   1
_chemical_formula_structural   Cu11NiC52
_chemical_formula_sum   'Cu11 Ni1 C52'
_cell_volume   812.72640774
_cell_formula_units_Z   1
loop_
 _symmetry_equiv_pos_site_id
 _symmetry_equiv_pos_as_xyz
  1  'x, y, z'
loop_
 _atom_site_type_symbol
 _atom_site_label
 _atom_site_symmetry_multiplicity
 _atom_site_fract_x
 _atom_site_fract_y
 _atom_site_fract_z
 _atom_site_occupancy
  C  C0  1  0.03976400  0.03976400  0.03976400  1
  C  C1  1  0.53976400  0.53976400  0.53976400  1
  C  C2  1  0.46023600  0.46023600  0.46023600  1
  C  C3  1  0.96023600  0.96023600  0.96023600  1
  Cu  Cu4  1  0.48522345  0.81446176  0.07376088  1
  Cu  Cu5  1  0.42969608  0.66272207  0.03560669  1
  Cu  Cu6  1  0.92857918  0.51002901  0.19891125  1
  Ni  Ni7  1  0.50957500  0.21227700  0.91855500  1
  Cu  Cu8  1  0.22648378  0.92259990  0.50164811  1
  Cu  Cu9  1  0.57286543  0.27330236  0.00791113  1
  Cu  Cu10  1  0.28187920  0.00166619  0.57815672  1
  Cu  Cu11  1  0.06887894  0.48075320  0.80261104  1
  Cu  Cu12  1  0.70701785  0.01966381  0.41232243  1
  Cu  Cu13  1  0.79212889  0.10028438  0.47209848  1
  Cu  Cu14  1  0.98202691  0.60716413  0.26724591  1
  Cu  Cu15  1  0.03541692  0.39841175  0.69517966  1
  C  C16  1  0.34110700  0.34110700  0.34110700  1
  C  C17  1  0.15889300  0.15889300  0.15889300  1
  C  C18  1  0.84110700  0.84110700  0.84110700  1
  C  C19  1  0.65889300  0.65889300  0.65889300  1
  C  C20  1  0.54417100  0.48868600  0.84823500  1
  C  C21  1  0.78102000  0.82598900  0.46027000  1
  C  C22  1  0.21898000  0.17401100  0.53973000  1
  C  C23  1  0.03774500  0.46225500  0.25000000  1
  C  C24  1  0.59754800  0.35071300  0.71062900  1
  C  C25  1  0.48868600  0.84823500  0.54417100  1
  C  C26  1  0.46027000  0.78102000  0.82598900  1
  C  C27  1  0.32598900  0.28102000  0.96027000  1
  C  C28  1  0.21062900  0.85071300  0.09754800  1
  C  C29  1  0.51131400  0.15176500  0.45582900  1
  C  C30  1  0.75000000  0.96225500  0.53774500  1
  C  C31  1  0.17401100  0.53973000  0.21898000  1
  C  C32  1  0.95582900  0.65176500  0.01131400  1
  C  C33  1  0.82598900  0.46027000  0.78102000  1
  C  C34  1  0.34823500  0.98868600  0.04417100  1
  C  C35  1  0.64928700  0.28937100  0.40245200  1
  C  C36  1  0.14928700  0.90245200  0.78937100  1
  C  C37  1  0.25000000  0.03774500  0.46225500  1
  C  C38  1  0.46225500  0.25000000  0.03774500  1
  C  C39  1  0.96027000  0.32598900  0.28102000  1
  C  C40  1  0.96225500  0.53774500  0.75000000  1
  C  C41  1  0.04417100  0.34823500  0.98868600  1
  C  C42  1  0.01131400  0.95582900  0.65176500  1
  C  C43  1  0.35071300  0.71062900  0.59754800  1
  C  C44  1  0.53973000  0.21898000  0.17401100  1
  C  C45  1  0.15176500  0.45582900  0.51131400  1
  C  C46  1  0.50000000  0.50000000  0.50000000  1
  C  C47  1  0.90245200  0.78937100  0.14928700  1
  C  C48  1  0.71898000  0.03973000  0.67401100  1
  C  C49  1  0.78937100  0.14928700  0.90245200  1
  C  C50  1  0.45582900  0.51131400  0.15176500  1
  C  C51  1  0.03973000  0.67401100  0.71898000  1
  C  C52  1  0.71062900  0.59754800  0.35071300  1
  C  C53  1  0.09754800  0.21062900  0.85071300  1
  C  C54  1  0.28937100  0.40245200  0.64928700  1
  C  C55  1  0.65176500  0.01131400  0.95582900  1
  C  C56  1  0.53774500  0.75000000  0.96225500  1
  C  C57  1  0.67401100  0.71898000  0.03973000  1
  C  C58  1  0.28102000  0.96027000  0.32598900  1
  C  C59  1  0.85071300  0.09754800  0.21062900  1
  C  C60  1  0.84823500  0.54417100  0.48868600  1
  C  C61  1  0.40245200  0.64928700  0.28937100  1
  C  C62  1  0.98868600  0.04417100  0.34823500  1
  C  C63  1  0.00000000  0.00000000  0.00000000  1
