# generated using pymatgen
data_Cu4C3
_symmetry_space_group_name_H-M   'P 1'
_cell_length_a   6.19952476
_cell_length_b   6.19952476
_cell_length_c   6.19952476
_cell_angle_alpha   60.00000000
_cell_angle_beta   60.00000000
_cell_angle_gamma   60.00000000
_symmetry_Int_Tables_number   1
_chemical_formula_structural   Cu4C3
_chemical_formula_sum   'Cu8 C6'
_cell_volume   168.48459540
_cell_formula_units_Z   2
loop_
 _symmetry_equiv_pos_site_id
 _symmetry_equiv_pos_as_xyz
  1  'x, y, z'
loop_
 _atom_site_type_symbol
 _atom_site_label
 _atom_site_symmetry_multiplicity
 _atom_site_fract_x
 _atom_site_fract_y
 _atom_site_fract_z
 _atom_site_occupancy
  C  C0  1  0.62500000  0.62500000  0.12500000  1
  C  C1  1  0.62500000  0.62500000  0.62500000  1
  C  C2  1  0.62500000  0.12500000  0.62500000  1
  C  C3  1  0.12500000  0.62500000  0.62500000  1
  C  C4  1  0.00000000  0.00000000  0.00000000  1
  C  C5  1  0.25000000  0.25000000  0.25000000  1
  Cu  Cu6  1  0.82127035  0.37427956  0.43256840  1
  Cu  Cu7  1  0.87565364  0.39856851  0.86986543  1
  Cu  Cu8  1  0.87556992  0.81611036  0.45520803  1
  Cu  Cu9  1  0.41003699  0.78653520  0.42966580  1
  Cu  Cu10  1  0.42125042  0.41268017  0.37392238  1
  Cu  Cu11  1  0.44677807  0.86164253  0.82916847  1
  Cu  Cu12  1  0.84668389  0.85929816  0.82599739  1
  Cu  Cu13  1  0.40535307  0.40225344  0.80225583  1
