# generated using pymatgen
data_Cu4NiC4
_symmetry_space_group_name_H-M   'P 1'
_cell_length_a   2.86157800
_cell_length_b   5.04770100
_cell_length_c   24.26773246
_cell_angle_alpha   86.21119977
_cell_angle_beta   90.00000000
_cell_angle_gamma   90.00000000
_symmetry_Int_Tables_number   1
_chemical_formula_structural   Cu4NiC4
_chemical_formula_sum   'Cu16 Ni4 C16'
_cell_volume   349.76647262
_cell_formula_units_Z   4
loop_
 _symmetry_equiv_pos_site_id
 _symmetry_equiv_pos_as_xyz
  1  'x, y, z'
loop_
 _atom_site_type_symbol
 _atom_site_label
 _atom_site_symmetry_multiplicity
 _atom_site_fract_x
 _atom_site_fract_y
 _atom_site_fract_z
 _atom_site_occupancy
  C  C0  1  0.50000000  0.70286900  0.39844900  1
  C  C1  1  0.50000000  0.90002000  0.80098600  1
  C  C2  1  0.50000000  0.09998000  0.19901400  1
  C  C3  1  0.50000000  0.50000000  0.00000000  1
  C  C4  1  0.50000000  0.29713100  0.60155100  1
  C  C5  1  0.00000000  0.00000000  0.00000000  1
  C  C6  1  0.50000000  0.00000000  0.50000000  1
  C  C7  1  0.00000000  0.50000000  0.50000000  1
  C  C8  1  0.50000000  0.20389300  0.89841900  1
  C  C9  1  0.50000000  0.40039600  0.29922300  1
  C  C10  1  0.50000000  0.59960400  0.70077700  1
  C  C11  1  0.50000000  0.79610700  0.10158100  1
  C  C12  1  0.00000000  0.90048500  0.29899500  1
  C  C13  1  0.00000000  0.09951500  0.70100500  1
  C  C14  1  0.00000000  0.29839100  0.09750800  1
  C  C15  1  0.00000000  0.70160900  0.90249200  1
  Cu  Cu16  1  0.61691076  0.00294997  0.65900026  1
  Cu  Cu17  1  0.42184219  0.03352889  0.34363491  1
  Cu  Cu18  1  0.55970990  0.14458958  0.04473737  1
  Ni  Ni19  1  0.50000000  0.22440500  0.74291400  1
  Ni  Ni20  1  0.50000000  0.35618500  0.45564500  1
  Cu  Cu21  1  0.46542568  0.42400646  0.13848794  1
  Ni  Ni22  1  0.50000000  0.58064100  0.86038400  1
  Cu  Cu23  1  0.54514403  0.67583612  0.54127478  1
  Cu  Cu24  1  0.48016128  0.76876856  0.26439661  1
  Cu  Cu25  1  0.48882183  0.84474404  0.94098143  1
  Cu  Cu26  1  0.99189800  0.98907112  0.14076901  1
  Cu  Cu27  1  0.99959378  0.99061076  0.86316904  1
  Cu  Cu28  1  0.99849508  0.13709738  0.53900565  1
  Cu  Cu29  1  0.99316089  0.21493964  0.25703002  1
  Cu  Cu30  1  0.97175959  0.39917730  0.94448574  1
  Cu  Cu31  1  0.97868373  0.37728834  0.65923120  1
  Ni  Ni32  1  0.00000000  0.56959500  0.33910300  1
  Cu  Cu33  1  0.04443252  0.62820658  0.05871482  1
  Cu  Cu34  1  0.00624576  0.75862606  0.74288359  1
  Cu  Cu35  1  0.11287319  0.82394407  0.44847059  1
