# generated using pymatgen
data_Cu7C8
_symmetry_space_group_name_H-M   'P 1'
_cell_length_a   9.64442700
_cell_length_b   7.28968400
_cell_length_c   12.23294019
_cell_angle_alpha   53.43392512
_cell_angle_beta   90.00000000
_cell_angle_gamma   90.00000000
_symmetry_Int_Tables_number   1
_chemical_formula_structural   Cu7C8
_chemical_formula_sum   'Cu14 C16'
_cell_volume   690.75439865
_cell_formula_units_Z   2
loop_
 _symmetry_equiv_pos_site_id
 _symmetry_equiv_pos_as_xyz
  1  'x, y, z'
loop_
 _atom_site_type_symbol
 _atom_site_label
 _atom_site_symmetry_multiplicity
 _atom_site_fract_x
 _atom_site_fract_y
 _atom_site_fract_z
 _atom_site_occupancy
  C  C0  1  0.35585500  0.52091600  0.59690000  1
  C  C1  1  0.14414500  0.52091600  0.09690000  1
  C  C2  1  0.64414500  0.47908400  0.40310000  1
  C  C3  1  0.97277600  0.70581500  0.54483400  1
  C  C4  1  0.47277600  0.29418500  0.95516600  1
  C  C5  1  0.02722400  0.29418500  0.45516600  1
  C  C6  1  0.52722400  0.70581500  0.04483400  1
  C  C7  1  0.27599900  0.88878200  0.72721500  1
  C  C8  1  0.77599900  0.11121800  0.77278500  1
  C  C9  1  0.72400100  0.11121800  0.27278500  1
  C  C10  1  0.22400100  0.88878200  0.22721500  1
  C  C11  1  0.85585500  0.47908400  0.90310000  1
  C  C12  1  0.62847200  0.84148000  0.61781000  1
  C  C13  1  0.87152800  0.84148000  0.11781000  1
  C  C14  1  0.37152800  0.15852000  0.38219000  1
  C  C15  1  0.12847200  0.15852000  0.88219000  1
  Cu  Cu16  1  0.25741463  0.96457665  0.96752975  1
  Cu  Cu17  1  0.99919878  0.02573431  0.00236358  1
  Cu  Cu18  1  0.50120611  0.01651112  0.49224265  1
  Cu  Cu19  1  0.91694624  0.77391148  0.28048207  1
  Cu  Cu20  1  0.76485299  0.00932765  0.55636238  1
  Cu  Cu21  1  0.73426996  0.02680898  0.05720016  1
  Cu  Cu22  1  0.24482873  0.00679404  0.41590695  1
  Cu  Cu23  1  0.65458378  0.58639716  0.63018839  1
  Cu  Cu24  1  0.13934340  0.38706590  0.86525498  1
  Cu  Cu25  1  0.36251635  0.38327436  0.37125933  1
  Cu  Cu26  1  0.84598152  0.57687046  0.13925423  1
  Cu  Cu27  1  0.57203737  0.81904822  0.76364437  1
  Cu  Cu28  1  0.04302781  0.19258858  0.76762171  1
  Cu  Cu29  1  0.42105531  0.23773705  0.22675495  1
