# generated using pymatgen
data_Cu15NiC12
_symmetry_space_group_name_H-M   'P 1'
_cell_length_a   10.14966076
_cell_length_b   10.14966076
_cell_length_c   17.62388565
_cell_angle_alpha   73.42121904
_cell_angle_beta   73.42121904
_cell_angle_gamma   59.62866305
_symmetry_Int_Tables_number   1
_chemical_formula_structural   Cu15NiC12
_chemical_formula_sum   'Cu60 Ni4 C48'
_cell_volume   1479.25857385
_cell_formula_units_Z   4
loop_
 _symmetry_equiv_pos_site_id
 _symmetry_equiv_pos_as_xyz
  1  'x, y, z'
loop_
 _atom_site_type_symbol
 _atom_site_label
 _atom_site_symmetry_multiplicity
 _atom_site_fract_x
 _atom_site_fract_y
 _atom_site_fract_z
 _atom_site_occupancy
  C  C0  1  0.55254700  0.63107900  0.81515900  1
  C  C1  1  0.63273500  0.05712600  0.31286700  1
  C  C2  1  0.73978300  0.81504500  0.56136300  1
  C  C3  1  0.23902600  0.37473100  0.56267300  1
  C  C4  1  0.31779100  0.74007600  0.06188900  1
  C  C5  1  0.87780700  0.23555000  0.06232700  1
  C  C6  1  0.49536600  0.12587700  0.81263400  1
  C  C7  1  0.05712600  0.63273500  0.81286700  1
  C  C8  1  0.12763800  0.99695900  0.31441200  1
  C  C9  1  0.63107900  0.55254700  0.31515900  1
  C  C10  1  0.74007600  0.31779100  0.56188900  1
  C  C11  1  0.23555000  0.87780700  0.56232700  1
  C  C12  1  0.81504500  0.73978300  0.06136300  1
  C  C13  1  0.37473100  0.23902600  0.06267300  1
  C  C14  1  0.99695900  0.12763800  0.81441200  1
  C  C15  1  0.12587700  0.49536600  0.31263400  1
  C  C16  1  0.87368000  0.49823800  0.69173100  1
  C  C17  1  0.45713500  0.36614100  0.18328700  1
  C  C18  1  0.99939300  0.86706800  0.18835000  1
  C  C19  1  0.62925100  0.75615700  0.93776300  1
  C  C20  1  0.17565900  0.25782400  0.93843400  1
  C  C21  1  0.75708300  0.12706400  0.43996000  1
  C  C22  1  0.25924200  0.67433100  0.43652600  1
  C  C23  1  0.36614100  0.45713500  0.68328700  1
  C  C24  1  0.86706800  0.99939300  0.68835000  1
  C  C25  1  0.95304700  0.36213900  0.18400700  1
  C  C26  1  0.49823800  0.87368000  0.19173100  1
  C  C27  1  0.12706400  0.75708300  0.93996000  1
  C  C28  1  0.67433100  0.25924200  0.93652600  1
  C  C29  1  0.75615700  0.62925100  0.43776300  1
  C  C30  1  0.25782400  0.17565900  0.43843400  1
  C  C31  1  0.36213900  0.95304700  0.68400700  1
  C  C32  1  0.30950800  0.93801500  0.87631800  1
  C  C33  1  0.87023200  0.43378600  0.87563200  1
  C  C34  1  0.93672000  0.80836900  0.37517500  1
  C  C35  1  0.43994300  0.36985100  0.37447700  1
  C  C36  1  0.56113300  0.12603100  0.62860000  1
  C  C37  1  0.06057000  0.68227400  0.62661200  1
  C  C38  1  0.62915500  0.56211100  0.12729100  1
  C  C39  1  0.18355500  0.05792900  0.12744600  1
  C  C40  1  0.80836900  0.93672000  0.87517500  1
  C  C41  1  0.36985100  0.43994300  0.87447700  1
  C  C42  1  0.93801500  0.30950800  0.37631800  1
  C  C43  1  0.43378600  0.87023200  0.37563200  1
  C  C44  1  0.56211100  0.62915500  0.62729100  1
  C  C45  1  0.05792900  0.18355500  0.62744600  1
  C  C46  1  0.12603100  0.56113300  0.12860000  1
  C  C47  1  0.68227400  0.06057000  0.12661200  1
  Cu  Cu48  1  0.07588658  0.32292740  0.60958126  1
  Ni  Ni49  1  0.83141400  0.33144300  0.95325900  1
  Cu  Cu50  1  0.39580343  0.86824702  0.80872301  1
  Cu  Cu51  1  0.89702656  0.36027498  0.79673837  1
  Cu  Cu52  1  0.38238940  0.80017080  0.96133481  1
  Cu  Cu53  1  0.73502641  0.58971099  0.85754931  1
  Cu  Cu54  1  0.56042822  0.97280163  0.61673798  1
  Cu  Cu55  1  0.83626166  0.02620830  0.11992673  1
  Cu  Cu56  1  0.33349632  0.32866704  0.45035711  1
  Cu  Cu57  1  0.36160065  0.39394707  0.30311645  1
  Cu  Cu58  1  0.85837486  0.91440937  0.30201351  1
  Cu  Cu59  1  0.30470521  0.08965361  0.86345456  1
  Cu  Cu60  1  0.82476856  0.90078537  0.46799496  1
  Cu  Cu61  1  0.88972697  0.69388387  0.63511091  1
  Cu  Cu62  1  0.59406753  0.23992343  0.37212046  1
  Cu  Cu63  1  0.00360288  0.46297726  0.88319733  1
  Cu  Cu64  1  0.48124911  0.54438377  0.11918808  1
  Ni  Ni65  1  0.39666000  0.26540100  0.63478200  1
  Cu  Cu66  1  0.09344182  0.81565256  0.36632860  1
  Cu  Cu67  1  0.17814090  0.58463922  0.56455856  1
  Cu  Cu68  1  0.19142817  0.88382853  0.13052725  1
  Cu  Cu69  1  0.64389966  0.09520167  0.70563221  1
  Cu  Cu70  1  0.16138424  0.54315991  0.70072445  1
  Cu  Cu71  1  0.66608933  0.15550908  0.55441902  1
  Cu  Cu72  1  0.65416112  0.94288118  0.90573327  1
  Cu  Cu73  1  0.43890229  0.54214799  0.39150802  1
  Cu  Cu74  1  0.77855619  0.39364062  0.12975354  1
  Cu  Cu75  1  0.07087702  0.18275559  0.05650803  1
  Cu  Cu76  1  0.05567725  0.85934980  0.61934700  1
  Cu  Cu77  1  0.34501536  0.31152978  0.96939816  1
  Cu  Cu78  1  0.42444147  0.35453845  0.78999259  1
  Cu  Cu79  1  0.91202650  0.85602118  0.80091548  1
  Cu  Cu80  1  0.07190940  0.13818411  0.20610092  1
  Cu  Cu81  1  0.59768635  0.63530449  0.20842245  1
  Cu  Cu82  1  0.95114095  0.13343009  0.39222046  1
  Cu  Cu83  1  0.67292360  0.64357906  0.04801616  1
  Cu  Cu84  1  0.89469449  0.83312133  0.95192300  1
  Cu  Cu85  1  0.22612913  0.60691115  0.86426765  1
  Cu  Cu86  1  0.35417038  0.01810120  0.10767442  1
  Cu  Cu87  1  0.55573338  0.46480734  0.61876635  1
  Cu  Cu88  1  0.32112881  0.84619981  0.45994800  1
  Cu  Cu89  1  0.85521410  0.43153608  0.30538173  1
  Cu  Cu90  1  0.36053560  0.90331646  0.29803293  1
  Ni  Ni91  1  0.80087000  0.09890900  0.86195900  1
  Cu  Cu92  1  0.90952715  0.17957266  0.63730572  1
  Cu  Cu93  1  0.81641723  0.36293624  0.45970391  1
  Cu  Cu94  1  0.52035960  0.45747980  0.87628131  1
  Cu  Cu95  1  0.59522483  0.72623573  0.36681650  1
  Cu  Cu96  1  0.98090354  0.55796064  0.12142950  1
  Cu  Cu97  1  0.38373727  0.77069223  0.64165153  1
  Cu  Cu98  1  0.11736259  0.29874465  0.35355497  1
  Cu  Cu99  1  0.18153708  0.10647951  0.55829209  1
  Cu  Cu100  1  0.66735251  0.91072869  0.13801692  1
  Cu  Cu101  1  0.13086950  0.09156767  0.70773490  1
  Cu  Cu102  1  0.62146347  0.59803605  0.70510725  1
  Cu  Cu103  1  0.12999569  0.96635674  0.88598380  1
  Cu  Cu104  1  0.69725684  0.66194019  0.54023110  1
  Cu  Cu105  1  0.44745933  0.00729825  0.37875878  1
  Cu  Cu106  1  0.24933099  0.37728580  0.14561775  1
  Cu  Cu107  1  0.59607343  0.17425612  0.06022980  1
  Cu  Cu108  1  0.08887655  0.64420743  0.21571676  1
  Cu  Cu109  1  0.59703098  0.12833440  0.21355377  1
  Ni  Ni110  1  0.16545600  0.67318700  0.05606700  1
  Cu  Cu111  1  0.94517615  0.65288872  0.38385275  1
