# generated using pymatgen
data_Cu12NiC7
_symmetry_space_group_name_H-M   'P 1'
_cell_length_a   7.82341000
_cell_length_b   5.48592500
_cell_length_c   5.59864177
_cell_angle_alpha   89.93353099
_cell_angle_beta   90.00000000
_cell_angle_gamma   90.00000000
_symmetry_Int_Tables_number   1
_chemical_formula_structural   Cu12NiC7
_chemical_formula_sum   'Cu12 Ni1 C7'
_cell_volume   240.28593164
_cell_formula_units_Z   1
loop_
 _symmetry_equiv_pos_site_id
 _symmetry_equiv_pos_as_xyz
  1  'x, y, z'
loop_
 _atom_site_type_symbol
 _atom_site_label
 _atom_site_symmetry_multiplicity
 _atom_site_fract_x
 _atom_site_fract_y
 _atom_site_fract_z
 _atom_site_occupancy
  Ni  Ni0  1  0.50000000  0.49152900  0.53928600  1
  C  C1  1  0.50000000  0.01095800  0.04710500  1
  C  C2  1  0.00000000  0.51116600  0.45017200  1
  C  C3  1  0.00000000  0.98985300  0.95292500  1
  C  C4  1  0.24849800  0.00048900  0.50084900  1
  C  C5  1  0.75100800  0.49957700  0.99779700  1
  C  C6  1  0.75150200  0.00048900  0.50084900  1
  C  C7  1  0.24899200  0.49957700  0.99779700  1
  Cu  Cu8  1  0.50000000  0.58374100  0.98354900  1
  Cu  Cu9  1  0.50000000  0.92468800  0.47828500  1
  Cu  Cu10  1  0.00000000  0.41651900  0.02148600  1
  Cu  Cu11  1  0.00000000  0.08484000  0.52289300  1
  Cu  Cu12  1  0.29235600  0.20458700  0.79607100  1
  Cu  Cu13  1  0.70902500  0.28993200  0.29090400  1
  Cu  Cu14  1  0.79466400  0.79051900  0.20870600  1
  Cu  Cu15  1  0.20386100  0.70824800  0.70782300  1
  Cu  Cu16  1  0.20533600  0.79051900  0.20870600  1
  Cu  Cu17  1  0.79613900  0.70824800  0.70782300  1
  Cu  Cu18  1  0.70764400  0.20458700  0.79607100  1
  Cu  Cu19  1  0.29097500  0.28993200  0.29090400  1
