# generated using pymatgen
data_Cu19Ni5C16
_symmetry_space_group_name_H-M   'P 1'
_cell_length_a   9.42759238
_cell_length_b   9.42759238
_cell_length_c   9.42759238
_cell_angle_alpha   109.47122063
_cell_angle_beta   109.47122063
_cell_angle_gamma   109.47122063
_symmetry_Int_Tables_number   1
_chemical_formula_structural   Cu19Ni5C16
_chemical_formula_sum   'Cu19 Ni5 C16'
_cell_volume   645.03087011
_cell_formula_units_Z   1
loop_
 _symmetry_equiv_pos_site_id
 _symmetry_equiv_pos_as_xyz
  1  'x, y, z'
loop_
 _atom_site_type_symbol
 _atom_site_label
 _atom_site_symmetry_multiplicity
 _atom_site_fract_x
 _atom_site_fract_y
 _atom_site_fract_z
 _atom_site_occupancy
  C  C0  1  0.75000000  0.25000000  0.50000000  1
  C  C1  1  0.75000000  0.50000000  0.25000000  1
  C  C2  1  0.50000000  0.25000000  0.75000000  1
  C  C3  1  0.50000000  0.75000000  0.25000000  1
  C  C4  1  0.25000000  0.75000000  0.50000000  1
  C  C5  1  0.25000000  0.50000000  0.75000000  1
  C  C6  1  0.51556100  0.00000000  0.00000000  1
  C  C7  1  0.28399400  0.00000000  0.28399400  1
  C  C8  1  0.28399400  0.28399400  0.00000000  1
  C  C9  1  0.71600600  0.00000000  0.71600600  1
  C  C10  1  0.71600600  0.71600600  0.00000000  1
  C  C11  1  0.00000000  0.51556100  0.00000000  1
  C  C12  1  0.00000000  0.00000000  0.51556100  1
  C  C13  1  0.48443900  0.48443900  0.48443900  1
  C  C14  1  0.00000000  0.28399400  0.28399400  1
  C  C15  1  0.00000000  0.71600600  0.71600600  1
  Cu  Cu16  1  0.49658951  0.00667893  0.22350202  1
  Ni  Ni17  1  0.47991800  0.20184700  0.00000000  1
  Cu  Cu18  1  0.70302675  0.50867381  0.01159639  1
  Cu  Cu19  1  0.71035663  0.00346569  0.51375727  1
  Cu  Cu20  1  0.81232429  0.30711494  0.31466178  1
  Cu  Cu21  1  0.54013256  0.53514546  0.22805518  1
  Cu  Cu22  1  0.50711895  0.19732400  0.51349569  1
  Ni  Ni23  1  0.50087500  0.70287500  0.00000000  1
  Cu  Cu24  1  0.50249507  0.00473326  0.71668773  1
  Ni  Ni25  1  0.72192900  0.52008200  0.52008200  1
  Ni  Ni26  1  0.79815400  0.27807100  0.79815300  1
  Cu  Cu27  1  0.79049392  0.79731919  0.27783301  1
  Cu  Cu28  1  0.21716943  0.47526834  0.00907669  1
  Cu  Cu29  1  0.20101160  0.00552056  0.47995375  1
  Cu  Cu30  1  0.50304079  0.72092099  0.51732877  1
  Ni  Ni31  1  0.52008200  0.52008200  0.72192900  1
  Cu  Cu32  1  0.98680175  0.47641190  0.21032493  1
  Cu  Cu33  1  0.98755752  0.20667999  0.47420763  1
  Cu  Cu34  1  0.31376042  0.80458693  0.30664202  1
  Cu  Cu35  1  0.29584686  0.32410379  0.81121482  1
  Cu  Cu36  1  0.20999892  0.49008480  0.48495872  1
  Cu  Cu37  1  0.02201869  0.72439304  0.51416628  1
  Cu  Cu38  1  0.98582115  0.48354740  0.69526309  1
  Cu  Cu39  1  0.29039796  0.80283392  0.80101818  1
