# generated using pymatgen
data_Cu8Ni8C81
_symmetry_space_group_name_H-M   'P 1'
_cell_length_a   7.36798555
_cell_length_b   9.34321245
_cell_length_c   43.94046695
_cell_angle_alpha   90.00000000
_cell_angle_beta   91.34670533
_cell_angle_gamma   90.00000000
_symmetry_Int_Tables_number   1
_chemical_formula_structural   Cu8Ni8C81
_chemical_formula_sum   'Cu24 Ni24 C243'
_cell_volume   3024.05497148
_cell_formula_units_Z   3
loop_
 _symmetry_equiv_pos_site_id
 _symmetry_equiv_pos_as_xyz
  1  'x, y, z'
loop_
 _atom_site_type_symbol
 _atom_site_label
 _atom_site_symmetry_multiplicity
 _atom_site_fract_x
 _atom_site_fract_y
 _atom_site_fract_z
 _atom_site_occupancy
  Cu  Cu0  1  0.87991200  0.99842874  0.97377803  1
  Cu  Cu1  1  0.87397912  0.32606784  0.97145616  1
  Ni  Ni2  1  0.88225713  0.66547692  0.96987672  1
  Ni  Ni3  1  0.92441449  0.50000000  0.90664846  1
  Cu  Cu4  1  0.91994502  0.16106141  0.90529410  1
  Cu  Cu5  1  0.91256873  0.83152046  0.90669291  1
  Ni  Ni6  1  0.94570504  -0.00000000  0.84415090  1
  Ni  Ni7  1  0.94203372  0.33428704  0.84459924  1
  Cu  Cu8  1  0.94899567  0.66962145  0.84560778  1
  Cu  Cu9  1  0.96974910  0.51723204  0.77988138  1
  Ni  Ni10  1  0.95292685  0.16581073  0.78220869  1
  Cu  Cu11  1  0.94650703  0.85012241  0.77356512  1
  Cu  Cu12  1  0.98052713  0.01848936  0.71654003  1
  Cu  Cu13  1  0.95348499  0.32992995  0.72213136  1
  Ni  Ni14  1  0.95324394  0.66565590  0.71997440  1
  Ni  Ni15  1  0.94537320  0.50000000  0.65739817  1
  Ni  Ni16  1  0.94602676  0.16557566  0.65778540  1
  Ni  Ni17  1  0.94602676  0.83442434  0.65778540  1
  Cu  Cu18  1  0.92447163  0.98448606  0.59722509  1
  Cu  Cu19  1  0.91826534  0.33274185  0.59463216  1
  Ni  Ni20  1  0.92985919  0.66540608  0.59556195  1
  Cu  Cu21  1  0.90354414  0.48959426  0.53568129  1
  Cu  Cu22  1  0.91889286  0.15663215  0.53143813  1
  Cu  Cu23  1  0.88827850  0.83469978  0.53551416  1
  Ni  Ni24  1  0.86140521  -0.00000000  0.47041789  1
  Ni  Ni25  1  0.86214855  0.33574790  0.47038271  1
  Ni  Ni26  1  0.86214855  0.66425210  0.47038271  1
  Ni  Ni27  1  0.82476924  0.50000000  0.40805986  1
  Ni  Ni28  1  0.82426500  0.16614819  0.40748039  1
  Ni  Ni29  1  0.82426500  0.83385181  0.40748039  1
  Ni  Ni30  1  0.79621628  -0.00000000  0.34566067  1
  Ni  Ni31  1  0.79480866  0.33457283  0.34533833  1
  Ni  Ni32  1  0.79480866  0.66542717  0.34533833  1
  Cu  Cu33  1  0.79497919  0.49938652  0.28233838  1
  Ni  Ni34  1  0.78086185  0.16570110  0.28309933  1
  Ni  Ni35  1  0.78086185  0.83429890  0.28309933  1
  Cu  Cu36  1  0.79138710  0.00121564  0.22153704  1
  Cu  Cu37  1  0.76735203  0.33519706  0.22098992  1
  Ni  Ni38  1  0.77742149  0.66576109  0.22078080  1
  Cu  Cu39  1  0.77726952  0.49155836  0.15746776  1
  Cu  Cu40  1  0.77583472  0.18030827  0.15676543  1
  Ni  Ni41  1  0.78104180  0.83441790  0.15834228  1
  Cu  Cu42  1  0.79446113  0.00348283  0.09329497  1
  Cu  Cu43  1  0.79234640  0.32507648  0.09671926  1
  Cu  Cu44  1  0.81838453  0.62975558  0.09065301  1
  Ni  Ni45  1  0.83184770  0.50000000  0.03358238  1
  Cu  Cu46  1  0.83379435  0.16199060  0.03148697  1
  Cu  Cu47  1  0.83565323  0.83626944  0.02606557  1
  C  C48  1  0.48954344  0.16626294  0.97805258  1
  C  C49  1  0.48954344  0.83373706  0.97805258  1
  C  C50  1  0.53659051  0.33591674  0.91867356  1
  C  C51  1  0.53659051  0.66408326  0.91867356  1
  C  C52  1  0.55902759  0.16506155  0.85920593  1
  C  C53  1  0.55902759  0.83493845  0.85920593  1
  C  C54  1  0.57113655  0.33446971  0.79915851  1
  C  C55  1  0.57113655  0.66553029  0.79915851  1
  C  C56  1  0.57369409  0.16578816  0.73885375  1
  C  C57  1  0.57369409  0.83421184  0.73885375  1
  C  C58  1  0.56883402  0.33420813  0.67845109  1
  C  C59  1  0.56883402  0.66579187  0.67845109  1
  C  C60  1  0.55583365  0.16558116  0.61815277  1
  C  C61  1  0.55583365  0.83441884  0.61815277  1
  C  C62  1  0.53421268  0.33538712  0.55830425  1
  C  C63  1  0.53421268  0.66461288  0.55830425  1
  C  C64  1  0.49348844  0.16450138  0.49885665  1
  C  C65  1  0.49348844  0.83549862  0.49885665  1
  C  C66  1  0.23021803  0.16424548  0.44251176  1
  C  C67  1  0.23021803  0.83575452  0.44251176  1
  C  C68  1  0.19048567  0.33568587  0.38317434  1
  C  C69  1  0.19048567  0.66431413  0.38317434  1
  C  C70  1  0.16963805  0.16538450  0.32346513  1
  C  C71  1  0.16963805  0.83461550  0.32346513  1
  C  C72  1  0.15920030  0.33419157  0.26323369  1
  C  C73  1  0.15920030  0.66580843  0.26323369  1
  C  C74  1  0.15710796  0.16577545  0.20294253  1
  C  C75  1  0.15710796  0.83422455  0.20294253  1
  C  C76  1  0.16345284  0.33451390  0.14285150  1
  C  C77  1  0.16345284  0.66548610  0.14285150  1
  C  C78  1  0.18076151  0.16462566  0.08320637  1
  C  C79  1  0.18076151  0.83537434  0.08320637  1
  C  C80  1  0.22304536  0.33404151  0.02382022  1
  C  C81  1  0.22304536  0.66595849  0.02382022  1
  C  C82  1  0.60036428  0.50000000  0.98840153  1
  C  C83  1  0.62765984  -0.00000000  0.92362312  1
  C  C84  1  0.65373488  0.50000000  0.86199494  1
  C  C85  1  0.66892626  -0.00000000  0.80056644  1
  C  C86  1  0.67093690  0.50000000  0.73910505  1
  C  C87  1  0.66603988  -0.00000000  0.67808299  1
  C  C88  1  0.65235351  0.50000000  0.61710366  1
  C  C89  1  0.62945419  -0.00000000  0.55536212  1
  C  C90  1  0.59834297  0.50000000  0.49256278  1
  C  C91  1  0.12747983  0.50000000  0.44850218  1
  C  C92  1  0.09603381  -0.00000000  0.38553853  1
  C  C93  1  0.07304959  0.50000000  0.32413397  1
  C  C94  1  0.06197352  -0.00000000  0.26290132  1
  C  C95  1  0.06143762  0.50000000  0.20155857  1
  C  C96  1  0.06705753  -0.00000000  0.14054181  1
  C  C97  1  0.08820191  0.50000000  0.07977432  1
  C  C98  1  0.11044472  -0.00000000  0.01468866  1
  C  C99  1  0.16135682  0.50000000  0.95169076  1
  C  C100  1  0.15446321  0.17373420  0.95200625  1
  C  C101  1  0.15446321  0.82626580  0.95200625  1
  C  C102  1  0.19295490  -0.00000000  0.88790691  1
  C  C103  1  0.19251475  0.32648570  0.88762165  1
  C  C104  1  0.19251475  0.67351430  0.88762165  1
  C  C105  1  0.21066302  0.50000000  0.82407822  1
  C  C106  1  0.21141633  0.17351266  0.82478252  1
  C  C107  1  0.21141633  0.82648734  0.82478252  1
  C  C108  1  0.21748713  -0.00000000  0.76071350  1
  C  C109  1  0.21771680  0.32728465  0.76206764  1
  C  C110  1  0.21771680  0.67271535  0.76206764  1
  C  C111  1  0.21502836  0.50000000  0.69795311  1
  C  C112  1  0.21508000  0.17180249  0.69955445  1
  C  C113  1  0.21508000  0.82819751  0.69955445  1
  C  C114  1  0.20439780  -0.00000000  0.63493406  1
  C  C115  1  0.20441420  0.32886862  0.63677193  1
  C  C116  1  0.20441420  0.67113138  0.63677193  1
  C  C117  1  0.18356618  0.50000000  0.57176905  1
  C  C118  1  0.18375360  0.17006474  0.57356638  1
  C  C119  1  0.18375360  0.82993526  0.57356638  1
  C  C120  1  0.14821027  -0.00000000  0.50975211  1
  C  C121  1  0.14891273  0.32830330  0.51004583  1
  C  C122  1  0.14891273  0.67169670  0.51004583  1
  C  C123  1  0.57538287  -0.00000000  0.43094671  1
  C  C124  1  0.57521111  0.32870949  0.43056479  1
  C  C125  1  0.57521111  0.67129051  0.43056479  1
  C  C126  1  0.54067826  0.50000000  0.36907630  1
  C  C127  1  0.54042174  0.17087419  0.36707074  1
  C  C128  1  0.54042174  0.82912581  0.36707074  1
  C  C129  1  0.52132403  -0.00000000  0.30579050  1
  C  C130  1  0.52104287  0.32863131  0.30384821  1
  C  C131  1  0.52104287  0.67136869  0.30384821  1
  C  C132  1  0.51451787  0.50000000  0.24245155  1
  C  C133  1  0.51346729  0.17353990  0.24121336  1
  C  C134  1  0.51346729  0.82646010  0.24121336  1
  C  C135  1  0.51489893  -0.00000000  0.17944837  1
  C  C136  1  0.51522217  0.32682364  0.17862424  1
  C  C137  1  0.51522217  0.67317636  0.17862424  1
  C  C138  1  0.52700645  0.50000000  0.11580073  1
  C  C139  1  0.52684643  0.17356865  0.11558842  1
  C  C140  1  0.52684643  0.82643135  0.11558842  1
  C  C141  1  0.55259817  -0.00000000  0.05127567  1
  C  C142  1  0.55932578  0.32797660  0.05134488  1
  C  C143  1  0.55932578  0.67202340  0.05134488  1
  C  C144  1  0.70338948  0.17291894  0.98738464  1
  C  C145  1  0.70338948  0.82708106  0.98738464  1
  C  C146  1  0.75350512  0.33590169  0.92406493  1
  C  C147  1  0.75350512  0.66409831  0.92406493  1
  C  C148  1  0.77692328  0.16557426  0.86283758  1
  C  C149  1  0.77692328  0.83442574  0.86283758  1
  C  C150  1  0.78942009  0.33395260  0.80130593  1
  C  C151  1  0.78942009  0.66604740  0.80130593  1
  C  C152  1  0.79206391  0.16604793  0.73987293  1
  C  C153  1  0.79206391  0.83395207  0.73987293  1
  C  C154  1  0.78716850  0.33387825  0.67842884  1
  C  C155  1  0.78716850  0.66612175  0.67842884  1
  C  C156  1  0.77393895  0.16615177  0.61696611  1
  C  C157  1  0.77393895  0.83384823  0.61696611  1
  C  C158  1  0.75171411  0.33353770  0.55573073  1
  C  C159  1  0.75171411  0.66646230  0.55573073  1
  C  C160  1  0.70872280  0.16759939  0.49246138  1
  C  C161  1  0.70872280  0.83240061  0.49246138  1
  C  C162  1  0.01448613  0.16746254  0.44849913  1
  C  C163  1  0.01448613  0.83253746  0.44849913  1
  C  C164  1  0.97279286  0.33382565  0.38539228  1
  C  C165  1  0.97279286  0.66617435  0.38539228  1
  C  C166  1  0.95127165  0.16626921  0.32423001  1
  C  C167  1  0.95127165  0.83373079  0.32423001  1
  C  C168  1  0.94067506  0.33376499  0.26276432  1
  C  C169  1  0.94067506  0.66623501  0.26276432  1
  C  C170  1  0.93861674  0.16584379  0.20132937  1
  C  C171  1  0.93861674  0.83415621  0.20132937  1
  C  C172  1  0.94521813  0.33421631  0.13978515  1
  C  C173  1  0.94521813  0.66578369  0.13978515  1
  C  C174  1  0.96334431  0.16485410  0.07834674  1
  C  C175  1  0.96334431  0.83514590  0.07834674  1
  C  C176  1  0.00757323  0.32797898  0.01571541  1
  C  C177  1  0.00757323  0.67202102  0.01571541  1
  C  C178  1  0.41878183  -0.00000000  0.97527792  1
  C  C179  1  0.43812494  0.24224000  0.94515746  1
  C  C180  1  0.43812494  0.75776000  0.94515746  1
  C  C181  1  0.45218937  0.50000000  0.91891875  1
  C  C182  1  0.46650317  0.26042679  0.88648182  1
  C  C183  1  0.46650317  0.73957321  0.88648182  1
  C  C184  1  0.47539174  -0.00000000  0.86042049  1
  C  C185  1  0.48331674  0.23954641  0.82712887  1
  C  C186  1  0.48331674  0.76045359  0.82712887  1
  C  C187  1  0.48812622  0.50000000  0.80081614  1
  C  C188  1  0.48992969  0.25978611  0.76738428  1
  C  C189  1  0.48992969  0.74021389  0.76738428  1
  C  C190  1  0.49089549  -0.00000000  0.74073322  1
  C  C191  1  0.48859153  0.24086824  0.70738692  1
  C  C192  1  0.48859153  0.75913176  0.70738692  1
  C  C193  1  0.48656404  0.50000000  0.68068271  1
  C  C194  1  0.47943306  0.25930604  0.64729715  1
  C  C195  1  0.47943306  0.74069396  0.64729715  1
  C  C196  1  0.47406525  -0.00000000  0.62098484  1
  C  C197  1  0.46171662  0.23921937  0.58729813  1
  C  C198  1  0.46171662  0.76078063  0.58729813  1
  C  C199  1  0.45387745  0.50000000  0.56251331  1
  C  C200  1  0.43521056  0.26782818  0.52750366  1
  C  C201  1  0.43521056  0.73217182  0.52750366  1
  C  C202  1  0.42538434  -0.00000000  0.50716630  1
  C  C203  1  0.36132590  0.22228607  0.47072064  1
  C  C204  1  0.36132590  0.77771393  0.47072064  1
  C  C205  1  0.29924100  -0.00000000  0.43446708  1
  C  C206  1  0.28945854  0.26601536  0.41372419  1
  C  C207  1  0.28945854  0.73398464  0.41372419  1
  C  C208  1  0.27202571  0.50000000  0.37956274  1
  C  C209  1  0.26352514  0.24186368  0.35394736  1
  C  C210  1  0.26352514  0.75813632  0.35394736  1
  C  C211  1  0.25206312  -0.00000000  0.32165418  1
  C  C212  1  0.24738239  0.25576383  0.29401479  1
  C  C213  1  0.24738239  0.74423617  0.29401479  1
  C  C214  1  0.24206214  0.50000000  0.26188804  1
  C  C215  1  0.24120430  0.24291530  0.23420254  1
  C  C216  1  0.24120430  0.75708470  0.23420254  1
  C  C217  1  0.24022295  -0.00000000  0.20139338  1
  C  C218  1  0.24263450  0.25987940  0.17466371  1
  C  C219  1  0.24263450  0.74012060  0.17466371  1
  C  C220  1  0.24658254  0.50000000  0.14139000  1
  C  C221  1  0.25370556  0.23799733  0.11549620  1
  C  C222  1  0.25370556  0.76200267  0.11549620  1
  C  C223  1  0.26489417  -0.00000000  0.08205600  1
  C  C224  1  0.27734791  0.26223382  0.05706411  1
  C  C225  1  0.27734791  0.73776618  0.05706411  1
  C  C226  1  0.29766381  0.50000000  0.02452324  1
  C  C227  1  0.35337174  0.24698452  0.00094952  1
  C  C228  1  0.35337174  0.75301548  0.00094952  1
  C  C229  1  0.73212319  0.50000000  0.98848471  1
  C  C230  1  0.75886557  -0.00000000  0.92569789  1
  C  C231  1  0.78519981  0.50000000  0.86342143  1
  C  C232  1  0.80028274  -0.00000000  0.80174679  1
  C  C233  1  0.80219707  0.50000000  0.74004700  1
  C  C234  1  0.79731924  -0.00000000  0.67840369  1
  C  C235  1  0.78365919  0.50000000  0.61688090  1
  C  C236  1  0.76091855  -0.00000000  0.55495336  1
  C  C237  1  0.72970421  0.50000000  0.49315512  1
  C  C238  1  0.99594919  0.50000000  0.44763741  1
  C  C239  1  0.96451320  -0.00000000  0.38585876  1
  C  C240  1  0.94157068  0.50000000  0.32415263  1
  C  C241  1  0.93057321  -0.00000000  0.26266567  1
  C  C242  1  0.93000360  0.50000000  0.20086837  1
  C  C243  1  0.93557642  -0.00000000  0.13907127  1
  C  C244  1  0.95727127  0.50000000  0.07721157  1
  C  C245  1  0.97870770  -0.00000000  0.01421972  1
  C  C246  1  0.02970125  0.50000000  0.95179579  1
  C  C247  1  0.02284603  0.16861083  0.95160782  1
  C  C248  1  0.02284603  0.83138917  0.95160782  1
  C  C249  1  0.06121414  -0.00000000  0.88804118  1
  C  C250  1  0.06078990  0.33192544  0.88791287  1
  C  C251  1  0.06078990  0.66807456  0.88791287  1
  C  C252  1  0.07905906  0.50000000  0.82468963  1
  C  C253  1  0.07959785  0.16802328  0.82477490  1
  C  C254  1  0.07959785  0.83197672  0.82477490  1
  C  C255  1  0.08602550  -0.00000000  0.76164190  1
  C  C256  1  0.08603489  0.33249116  0.76180741  1
  C  C257  1  0.08603489  0.66750884  0.76180741  1
  C  C258  1  0.08346180  0.50000000  0.69887210  1
  C  C259  1  0.08336124  0.16730729  0.69911540  1
  C  C260  1  0.08336124  0.83269271  0.69911540  1
  C  C261  1  0.07273097  -0.00000000  0.63605949  1
  C  C262  1  0.07261270  0.33277065  0.63634256  1
  C  C263  1  0.07261270  0.66722935  0.63634256  1
  C  C264  1  0.05199758  0.50000000  0.57302650  1
  C  C265  1  0.05190400  0.16681883  0.57336769  1
  C  C266  1  0.05190400  0.83318117  0.57336769  1
  C  C267  1  0.01596002  -0.00000000  0.50982833  1
  C  C268  1  0.01722812  0.33174955  0.51037050  1
  C  C269  1  0.01722812  0.66825045  0.51037050  1
  C  C270  1  0.70767221  -0.00000000  0.43085608  1
  C  C271  1  0.70699727  0.33194589  0.43038033  1
  C  C272  1  0.70699727  0.66805411  0.43038033  1
  C  C273  1  0.67239508  0.50000000  0.36770819  1
  C  C274  1  0.67229561  0.16689718  0.36738617  1
  C  C275  1  0.67229561  0.83310282  0.36738617  1
  C  C276  1  0.65289916  -0.00000000  0.30455203  1
  C  C277  1  0.65287918  0.33285923  0.30428863  1
  C  C278  1  0.65287918  0.66714077  0.30428863  1
  C  C279  1  0.64603444  0.50000000  0.24153913  1
  C  C280  1  0.64517393  0.16775653  0.24146140  1
  C  C281  1  0.64517393  0.83224347  0.24146140  1
  C  C282  1  0.64641937  -0.00000000  0.17863156  1
  C  C283  1  0.64695973  0.33230519  0.17853809  1
  C  C284  1  0.64695973  0.66769481  0.17853809  1
  C  C285  1  0.65870458  0.50000000  0.11529795  1
  C  C286  1  0.65854032  0.16788319  0.11525830  1
  C  C287  1  0.65854032  0.83211681  0.11525830  1
  C  C288  1  0.68430097  -0.00000000  0.05112568  1
  C  C289  1  0.69102236  0.33266558  0.05164403  1
  C  C290  1  0.69102236  0.66733442  0.05164403  1
