# generated using pymatgen
data_Cu7C
_symmetry_space_group_name_H-M   'P 1'
_cell_length_a   6.29875743
_cell_length_b   6.29875693
_cell_length_c   10.36596452
_cell_angle_alpha   90.00000000
_cell_angle_beta   90.00000000
_cell_angle_gamma   120.00000258
_symmetry_Int_Tables_number   1
_chemical_formula_structural   Cu7C
_chemical_formula_sum   'Cu14 C2'
_cell_volume   356.16404181
_cell_formula_units_Z   2
loop_
 _symmetry_equiv_pos_site_id
 _symmetry_equiv_pos_as_xyz
  1  'x, y, z'
loop_
 _atom_site_type_symbol
 _atom_site_label
 _atom_site_symmetry_multiplicity
 _atom_site_fract_x
 _atom_site_fract_y
 _atom_site_fract_z
 _atom_site_occupancy
  C  C0  1  0.16666700  0.33333300  0.62500000  1
  Cu  Cu1  1  0.14476937  0.81495015  0.13600699  1
  Cu  Cu2  1  0.19110653  0.87072812  0.62177744  1
  Cu  Cu3  1  0.65112258  0.35512111  0.12641915  1
  Cu  Cu4  1  0.64301045  0.29828975  0.63261377  1
  Cu  Cu5  1  0.67979882  0.84635337  0.12223926  1
  Cu  Cu6  1  0.65597922  0.84014117  0.62206782  1
  Cu  Cu7  1  0.36058921  0.17685153  0.36008794  1
  Cu  Cu8  1  0.34172407  0.15117534  0.84115962  1
  Cu  Cu9  1  0.31528616  0.67950510  0.38785553  1
  Cu  Cu10  1  0.33565647  0.66121611  0.87682122  1
  Cu  Cu11  1  0.81022286  0.13469366  0.40316893  1
  Cu  Cu12  1  0.85747878  0.18606896  0.86727524  1
  Cu  Cu13  1  0.82317489  0.69734025  0.36601356  1
  Cu  Cu14  1  0.85341690  0.65144143  0.85495609  1
  C  C15  1  0.16666700  0.33333300  0.12500000  1
