# generated using pymatgen
data_Cu9Ni7C32
_symmetry_space_group_name_H-M   'P 1'
_cell_length_a   6.75977300
_cell_length_b   11.72622300
_cell_length_c   12.15412761
_cell_angle_alpha   89.68165044
_cell_angle_beta   90.00000000
_cell_angle_gamma   90.00000000
_symmetry_Int_Tables_number   1
_chemical_formula_structural   Cu9Ni7C32
_chemical_formula_sum   'Cu9 Ni7 C32'
_cell_volume   963.40156880
_cell_formula_units_Z   1
loop_
 _symmetry_equiv_pos_site_id
 _symmetry_equiv_pos_as_xyz
  1  'x, y, z'
loop_
 _atom_site_type_symbol
 _atom_site_label
 _atom_site_symmetry_multiplicity
 _atom_site_fract_x
 _atom_site_fract_y
 _atom_site_fract_z
 _atom_site_occupancy
  Cu  Cu0  1  0.02235325  0.83445668  0.09416994  1
  Ni  Ni1  1  0.85960100  0.84884600  0.47730100  1
  Ni  Ni2  1  0.35960100  0.15115400  0.02269900  1
  Ni  Ni3  1  0.46887300  0.28818100  0.61852600  1
  Ni  Ni4  1  0.14039900  0.15115400  0.52269900  1
  Cu  Cu5  1  0.54597313  0.71504833  0.38839744  1
  Cu  Cu6  1  0.02918212  0.28801590  0.10398087  1
  Cu  Cu7  1  0.25957454  0.38799671  0.91308464  1
  Ni  Ni8  1  0.64039900  0.84884600  0.97730100  1
  Cu  Cu9  1  0.25734811  0.37936427  0.42727988  1
  Ni  Ni10  1  0.48572600  0.82181200  0.59604700  1
  Cu  Cu11  1  0.50944658  0.17248487  0.41833078  1
  Cu  Cu12  1  0.77112049  0.62514237  0.06451071  1
  Cu  Cu13  1  0.96944540  0.69729000  0.87272088  1
  Cu  Cu14  1  0.74613058  0.61907921  0.56382248  1
  Ni  Ni15  1  0.98572600  0.17818800  0.90395300  1
  C  C16  1  0.30646400  0.89516400  0.69205300  1
  C  C17  1  0.65753200  0.49956800  0.15061800  1
  C  C18  1  0.80646400  0.10483600  0.80794700  1
  C  C19  1  0.84246800  0.49956800  0.65061800  1
  C  C20  1  0.34246800  0.50043200  0.84938200  1
  C  C21  1  0.19353600  0.89516400  0.19205300  1
  C  C22  1  0.69353600  0.10483600  0.30794700  1
  C  C23  1  0.15753200  0.50043200  0.34938200  1
  C  C24  1  0.67792200  0.89579700  0.56120500  1
  C  C25  1  0.39816300  0.77997700  0.47931200  1
  C  C26  1  0.58538000  0.70471700  0.64427300  1
  C  C27  1  0.22356500  0.20028400  0.12522700  1
  C  C28  1  0.91462000  0.70471700  0.14427300  1
  C  C29  1  0.41000200  0.27522000  0.95766700  1
  C  C30  1  0.86832500  0.60828000  0.96035700  1
  C  C31  1  0.13167500  0.39172000  0.03964300  1
  C  C32  1  0.89816300  0.22002300  0.02068800  1
  C  C33  1  0.36832500  0.39172000  0.53964300  1
  C  C34  1  0.60183700  0.22002300  0.52068800  1
  C  C35  1  0.27643500  0.20028400  0.62522700  1
  C  C36  1  0.58999800  0.72478000  0.04233300  1
  C  C37  1  0.32207800  0.10420300  0.43879500  1
  C  C38  1  0.91000200  0.72478000  0.54233300  1
  C  C39  1  0.72356500  0.79971600  0.37477300  1
  C  C40  1  0.41462000  0.29528300  0.35572700  1
  C  C41  1  0.08999800  0.27522000  0.45766700  1
  C  C42  1  0.82207800  0.89579700  0.06120500  1
  C  C43  1  0.77643500  0.79971600  0.87477300  1
  C  C44  1  0.17792200  0.10420300  0.93879500  1
  C  C45  1  0.08538000  0.29528300  0.85572700  1
  C  C46  1  0.63167500  0.60828000  0.46035700  1
  C  C47  1  0.10183700  0.77997700  0.97931200  1
