# generated using pymatgen
data_Cu6Ni2C11
_symmetry_space_group_name_H-M   'P 1'
_cell_length_a   9.25076180
_cell_length_b   5.00098366
_cell_length_c   7.14986721
_cell_angle_alpha   90.00000675
_cell_angle_beta   74.63756717
_cell_angle_gamma   74.31780162
_symmetry_Int_Tables_number   1
_chemical_formula_structural   Cu6Ni2C11
_chemical_formula_sum   'Cu6 Ni2 C11'
_cell_volume   306.16715336
_cell_formula_units_Z   1
loop_
 _symmetry_equiv_pos_site_id
 _symmetry_equiv_pos_as_xyz
  1  'x, y, z'
loop_
 _atom_site_type_symbol
 _atom_site_label
 _atom_site_symmetry_multiplicity
 _atom_site_fract_x
 _atom_site_fract_y
 _atom_site_fract_z
 _atom_site_occupancy
  Cu  Cu0  1  0.04917757  0.97850365  0.73818228  1
  Cu  Cu1  1  0.94420121  0.00509453  0.26426385  1
  Cu  Cu2  1  0.67693451  0.64924598  0.45845775  1
  Cu  Cu3  1  0.30617688  0.36183028  0.51610566  1
  Cu  Cu4  1  0.81109826  0.58436896  0.95271904  1
  Ni  Ni5  1  0.19571500  0.40214200  0.04237900  1
  Cu  Cu6  1  0.40721893  0.79252132  0.20001897  1
  Ni  Ni7  1  0.60225200  0.19887400  0.80484100  1
  C  C8  1  0.00000000  0.50000000  0.50000000  1
  C  C9  1  0.37346700  0.81326600  0.79461200  1
  C  C10  1  0.62653300  0.18673400  0.20538800  1
  C  C11  1  0.20422500  0.89788700  0.99716500  1
  C  C12  1  0.79577500  0.10211300  0.00283500  1
  C  C13  1  0.35239400  0.82380300  0.56091600  1
  C  C14  1  0.64760600  0.17619700  0.43908400  1
  C  C15  1  0.56109000  0.71945500  0.82885800  1
  C  C16  1  0.43891000  0.28054500  0.17114200  1
  C  C17  1  0.94716100  0.52641900  0.28407800  1
  C  C18  1  0.05283900  0.47358100  0.71592200  1
