# generated using pymatgen
data_Cu41Ni7C44
_symmetry_space_group_name_H-M   'P 1'
_cell_length_a   7.23924400
_cell_length_b   14.40459600
_cell_length_c   17.49547600
_cell_angle_alpha   90.00000000
_cell_angle_beta   90.00000000
_cell_angle_gamma   90.00000000
_symmetry_Int_Tables_number   1
_chemical_formula_structural   Cu41Ni7C44
_chemical_formula_sum   'Cu41 Ni7 C44'
_cell_volume   1824.39998498
_cell_formula_units_Z   1
loop_
 _symmetry_equiv_pos_site_id
 _symmetry_equiv_pos_as_xyz
  1  'x, y, z'
loop_
 _atom_site_type_symbol
 _atom_site_label
 _atom_site_symmetry_multiplicity
 _atom_site_fract_x
 _atom_site_fract_y
 _atom_site_fract_z
 _atom_site_occupancy
  C  C0  1  0.18288500  0.82203600  0.55673700  1
  C  C1  1  0.68288500  0.67796400  0.94326300  1
  C  C2  1  0.31711500  0.32203600  0.44326300  1
  C  C3  1  0.81711500  0.17796400  0.05673700  1
  C  C4  1  0.81711500  0.17796400  0.44326300  1
  C  C5  1  0.31711500  0.32203600  0.05673700  1
  C  C6  1  0.68288500  0.67796400  0.55673700  1
  C  C7  1  0.18288500  0.82203600  0.94326300  1
  C  C8  1  0.15620500  0.18228000  0.25000000  1
  C  C9  1  0.65620500  0.31772000  0.25000000  1
  C  C10  1  0.34379500  0.68228000  0.75000000  1
  C  C11  1  0.84379500  0.81772000  0.75000000  1
  C  C12  1  0.17263000  0.43650600  0.25000000  1
  C  C13  1  0.67263000  0.06349400  0.25000000  1
  C  C14  1  0.32737000  0.93650600  0.75000000  1
  C  C15  1  0.82737000  0.56349400  0.75000000  1
  C  C16  1  0.33124800  0.05121300  0.42063100  1
  C  C17  1  0.83124800  0.44878700  0.07936900  1
  C  C18  1  0.16875200  0.55121300  0.57936900  1
  C  C19  1  0.66875200  0.94878700  0.92063100  1
  C  C20  1  0.66875200  0.94878700  0.57936900  1
  C  C21  1  0.16875200  0.55121300  0.92063100  1
  C  C22  1  0.83124800  0.44878700  0.42063100  1
  C  C23  1  0.33124800  0.05121300  0.07936900  1
  C  C24  1  0.89213400  0.09951300  0.75000000  1
  C  C25  1  0.39213400  0.40048700  0.75000000  1
  C  C26  1  0.60786600  0.59951300  0.25000000  1
  C  C27  1  0.10786600  0.90048700  0.25000000  1
  C  C28  1  0.46795600  0.18689200  0.64197000  1
  C  C29  1  0.96795600  0.31310800  0.85803000  1
  C  C30  1  0.03204400  0.68689200  0.35803000  1
  C  C31  1  0.53204400  0.81310800  0.14197000  1
  C  C32  1  0.53204400  0.81310800  0.35803000  1
  C  C33  1  0.03204400  0.68689200  0.14197000  1
  C  C34  1  0.96795600  0.31310800  0.64197000  1
  C  C35  1  0.46795600  0.18689200  0.85803000  1
  C  C36  1  0.08059000  0.06416400  0.58380100  1
  C  C37  1  0.58059000  0.43583600  0.91619900  1
  C  C38  1  0.41941000  0.56416400  0.41619900  1
  C  C39  1  0.91941000  0.93583600  0.08380100  1
  C  C40  1  0.91941000  0.93583600  0.41619900  1
  C  C41  1  0.41941000  0.56416400  0.08380100  1
  C  C42  1  0.58059000  0.43583600  0.58380100  1
  C  C43  1  0.08059000  0.06416400  0.91619900  1
  Ni  Ni44  1  0.99615600  0.04800500  0.34745100  1
  Cu  Cu45  1  0.50651976  0.44698554  0.15776227  1
  Cu  Cu46  1  0.52849609  0.56700822  0.65857714  1
  Ni  Ni47  1  0.00384400  0.95199500  0.84745100  1
  Ni  Ni48  1  0.00384400  0.95199500  0.65254900  1
  Cu  Cu49  1  0.49572017  0.55538861  0.84697230  1
  Cu  Cu50  1  0.48650816  0.44864440  0.34572379  1
  Cu  Cu51  1  0.99801840  0.05409679  0.14516927  1
  Cu  Cu52  1  0.29878137  0.73283391  0.24630588  1
  Cu  Cu53  1  0.78349179  0.76792290  0.25456187  1
  Cu  Cu54  1  0.19656567  0.21133877  0.74700193  1
  Cu  Cu55  1  0.69654706  0.28534198  0.74459913  1
  Cu  Cu56  1  0.33018803  0.68368647  0.47861619  1
  Cu  Cu57  1  0.83064462  0.83067838  0.01687863  1
  Cu  Cu58  1  0.16473339  0.19089231  0.52391838  1
  Cu  Cu59  1  0.68789801  0.32407071  0.97832233  1
  Cu  Cu60  1  0.65222044  0.32793707  0.51555601  1
  Cu  Cu61  1  0.17277229  0.17337483  0.97381658  1
  Cu  Cu62  1  0.82440131  0.82758012  0.45922628  1
  Cu  Cu63  1  0.35802789  0.67515775  0.00702707  1
  Ni  Ni64  1  0.17742000  0.87684400  0.40524900  1
  Cu  Cu65  1  0.68241210  0.61592937  0.10516453  1
  Cu  Cu66  1  0.31636708  0.40021031  0.59640426  1
  Ni  Ni67  1  0.82258000  0.12315600  0.90524900  1
  Ni  Ni68  1  0.82258000  0.12315600  0.59475100  1
  Cu  Cu69  1  0.32607814  0.37301816  0.90254583  1
  Cu  Cu70  1  0.64135095  0.61272982  0.39273230  1
  Cu  Cu71  1  0.19065705  0.88460713  0.09423317  1
  Cu  Cu72  1  0.99819178  0.30018607  0.15255267  1
  Cu  Cu73  1  0.48711316  0.19741311  0.35510491  1
  Cu  Cu74  1  0.47864796  0.79809280  0.85080443  1
  Cu  Cu75  1  0.02664413  0.70397889  0.66280176  1
  Cu  Cu76  1  0.02153792  0.68545216  0.85188537  1
  Cu  Cu77  1  0.50103355  0.79320539  0.65666676  1
  Cu  Cu78  1  0.48612991  0.21083974  0.15358648  1
  Cu  Cu79  1  0.98861601  0.30838816  0.34218969  1
  Cu  Cu80  1  0.63391603  0.97205369  0.42113387  1
  Cu  Cu81  1  0.16597905  0.50637860  0.06559182  1
  Cu  Cu82  1  0.86821692  0.48440478  0.57205849  1
  Cu  Cu83  1  0.33979669  0.99646874  0.92192084  1
  Cu  Cu84  1  0.32698014  0.00559711  0.58596663  1
  Cu  Cu85  1  0.84384557  0.50036349  0.92173497  1
  Cu  Cu86  1  0.17637207  0.51541421  0.42218572  1
  Cu  Cu87  1  0.65437337  0.99619460  0.06772687  1
  Cu  Cu88  1  0.46325038  0.94771996  0.24422893  1
  Cu  Cu89  1  0.94061775  0.56287843  0.24941440  1
  Cu  Cu90  1  0.05637088  0.44720936  0.74839892  1
  Ni  Ni91  1  0.55692600  0.05380600  0.75000000  1
