# generated using pymatgen
data_Cu5NiC4
_symmetry_space_group_name_H-M   'P 1'
_cell_length_a   5.94796728
_cell_length_b   5.94796728
_cell_length_c   5.94796728
_cell_angle_alpha   60.00000000
_cell_angle_beta   60.00000000
_cell_angle_gamma   60.00000000
_symmetry_Int_Tables_number   1
_chemical_formula_structural   Cu5NiC4
_chemical_formula_sum   'Cu5 Ni1 C4'
_cell_volume   148.79581454
_cell_formula_units_Z   1
loop_
 _symmetry_equiv_pos_site_id
 _symmetry_equiv_pos_as_xyz
  1  'x, y, z'
loop_
 _atom_site_type_symbol
 _atom_site_label
 _atom_site_symmetry_multiplicity
 _atom_site_fract_x
 _atom_site_fract_y
 _atom_site_fract_z
 _atom_site_occupancy
  C  C0  1  0.75000000  0.75000000  0.75000000  1
  C  C1  1  0.25000000  0.25000000  0.25000000  1
  C  C2  1  0.50000000  0.50000000  0.50000000  1
  C  C3  1  0.00000000  0.00000000  0.00000000  1
  Cu  Cu4  1  0.77258742  0.70775360  0.21134969  1
  Cu  Cu5  1  0.79091347  0.19184223  0.74191684  1
  Ni  Ni6  1  0.23697600  0.76302400  0.23697600  1
  Cu  Cu7  1  0.76998848  0.31940943  0.13775730  1
  Cu  Cu8  1  0.20886532  0.24986230  0.76331446  1
  Cu  Cu9  1  0.28070786  0.71580945  0.75016180  1
