# generated using pymatgen
data_Cu3Ni3C16
_symmetry_space_group_name_H-M   'P 1'
_cell_length_a   4.67487927
_cell_length_b   4.67487927
_cell_length_c   10.27122900
_cell_angle_alpha   90.00000000
_cell_angle_beta   90.00000000
_cell_angle_gamma   119.99998971
_symmetry_Int_Tables_number   1
_chemical_formula_structural   Cu3Ni3C16
_chemical_formula_sum   'Cu3 Ni3 C16'
_cell_volume   194.39893819
_cell_formula_units_Z   1
loop_
 _symmetry_equiv_pos_site_id
 _symmetry_equiv_pos_as_xyz
  1  'x, y, z'
loop_
 _atom_site_type_symbol
 _atom_site_label
 _atom_site_symmetry_multiplicity
 _atom_site_fract_x
 _atom_site_fract_y
 _atom_site_fract_z
 _atom_site_occupancy
  Cu  Cu0  1  0.01218351  0.96088079  0.25614618  1
  Ni  Ni1  1  0.00000000  0.00000000  0.75000000  1
  Cu  Cu2  1  0.29986151  0.67417678  0.45963265  1
  Ni  Ni3  1  0.66666700  0.33333300  0.56620500  1
  Cu  Cu4  1  0.67820798  0.34126035  0.94082037  1
  Ni  Ni5  1  0.33333300  0.66666700  0.06620500  1
  C  C6  1  0.00000000  0.00000000  0.50000000  1
  C  C7  1  0.00000000  0.00000000  0.00000000  1
  C  C8  1  0.16305400  0.83694600  0.90693600  1
  C  C9  1  0.16305400  0.32610800  0.90693600  1
  C  C10  1  0.67389200  0.83694600  0.90693600  1
  C  C11  1  0.83694600  0.16305400  0.09306400  1
  C  C12  1  0.83694600  0.67389200  0.09306400  1
  C  C13  1  0.32610800  0.16305400  0.09306400  1
  C  C14  1  0.83694600  0.16305400  0.40693600  1
  C  C15  1  0.83694600  0.67389200  0.40693600  1
  C  C16  1  0.32610800  0.16305400  0.40693600  1
  C  C17  1  0.16305400  0.83694600  0.59306400  1
  C  C18  1  0.16305400  0.32610800  0.59306400  1
  C  C19  1  0.67389200  0.83694600  0.59306400  1
  C  C20  1  0.33333300  0.66666700  0.25000000  1
  C  C21  1  0.66666700  0.33333300  0.75000000  1
