# generated using pymatgen
data_Cu33Ni15C28
_symmetry_space_group_name_H-M   'P 1'
_cell_length_a   5.63516800
_cell_length_b   9.47688600
_cell_length_c   18.20809700
_cell_angle_alpha   90.00000000
_cell_angle_beta   90.00000000
_cell_angle_gamma   90.00000000
_symmetry_Int_Tables_number   1
_chemical_formula_structural   Cu33Ni15C28
_chemical_formula_sum   'Cu33 Ni15 C28'
_cell_volume   972.38238496
_cell_formula_units_Z   1
loop_
 _symmetry_equiv_pos_site_id
 _symmetry_equiv_pos_as_xyz
  1  'x, y, z'
loop_
 _atom_site_type_symbol
 _atom_site_label
 _atom_site_symmetry_multiplicity
 _atom_site_fract_x
 _atom_site_fract_y
 _atom_site_fract_z
 _atom_site_occupancy
  C  C0  1  0.50000000  0.50000000  0.00000000  1
  C  C1  1  0.00000000  0.00000000  0.50000000  1
  C  C2  1  0.50000000  0.50000000  0.50000000  1
  C  C3  1  0.00000000  0.00000000  0.00000000  1
  C  C4  1  0.98911600  0.16576000  0.20630600  1
  C  C5  1  0.51088400  0.66576000  0.29369400  1
  C  C6  1  0.01088400  0.83424000  0.70630600  1
  C  C7  1  0.48911600  0.33424000  0.79369400  1
  C  C8  1  0.01088400  0.83424000  0.79369400  1
  C  C9  1  0.48911600  0.33424000  0.70630600  1
  C  C10  1  0.98911600  0.16576000  0.29369400  1
  C  C11  1  0.51088400  0.66576000  0.20630600  1
  C  C12  1  0.58241700  0.35833300  0.20627000  1
  C  C13  1  0.91758300  0.85833300  0.29373000  1
  C  C14  1  0.41758300  0.64166700  0.70627000  1
  C  C15  1  0.08241700  0.14166700  0.79373000  1
  C  C16  1  0.41758300  0.64166700  0.79373000  1
  C  C17  1  0.08241700  0.14166700  0.70627000  1
  C  C18  1  0.58241700  0.35833300  0.29373000  1
  C  C19  1  0.91758300  0.85833300  0.20627000  1
  C  C20  1  0.20479800  0.73544300  0.08688900  1
  C  C21  1  0.29520200  0.23544300  0.41311100  1
  C  C22  1  0.79520200  0.26455700  0.58688900  1
  C  C23  1  0.70479800  0.76455700  0.91311100  1
  C  C24  1  0.79520200  0.26455700  0.91311100  1
  C  C25  1  0.70479800  0.76455700  0.58688900  1
  C  C26  1  0.20479800  0.73544300  0.41311100  1
  C  C27  1  0.29520200  0.23544300  0.08688900  1
  Cu  Cu28  1  0.98638065  0.73725995  0.37628831  1
  Cu  Cu29  1  0.53390390  0.22821341  0.12848131  1
  Cu  Cu30  1  0.02923732  0.25540670  0.87476411  1
  Cu  Cu31  1  0.46845774  0.76383025  0.63269233  1
  Cu  Cu32  1  0.00952609  0.24555699  0.63336916  1
  Cu  Cu33  1  0.48085863  0.76625168  0.86661431  1
  Ni  Ni34  1  0.98600800  0.73427300  0.13044800  1
  Cu  Cu35  1  0.51576861  0.20846816  0.36094470  1
  Cu  Cu36  1  0.42509438  0.77836941  0.12783751  1
  Cu  Cu37  1  0.08602998  0.27922364  0.37549102  1
  Cu  Cu38  1  0.61746248  0.23540653  0.61828902  1
  Cu  Cu39  1  0.91365264  0.71444582  0.87458170  1
  Ni  Ni40  1  0.58583900  0.22142300  0.87246600  1
  Ni  Ni41  1  0.91416100  0.72142300  0.62753400  1
  Cu  Cu42  1  0.40328804  0.77541563  0.37420336  1
  Ni  Ni43  1  0.08583900  0.27857700  0.12753400  1
  Ni  Ni44  1  0.23373700  0.58761000  0.05585500  1
  Cu  Cu45  1  0.24484618  0.08244761  0.44491963  1
  Cu  Cu46  1  0.79744285  0.41076480  0.56507471  1
  Ni  Ni47  1  0.73373700  0.91239000  0.94414500  1
  Cu  Cu48  1  0.73783184  0.40717790  0.94935995  1
  Cu  Cu49  1  0.72903066  0.91620360  0.55086996  1
  Ni  Ni50  1  0.23373700  0.58761000  0.44414500  1
  Ni  Ni51  1  0.26626300  0.08761000  0.05585500  1
  Ni  Ni52  1  0.33391800  0.51583100  0.58358100  1
  Cu  Cu53  1  0.17680761  0.02212200  0.92393442  1
  Ni  Ni54  1  0.66608200  0.48416900  0.08358100  1
  Cu  Cu55  1  0.82188103  0.99336769  0.42216190  1
  Cu  Cu56  1  0.64859097  0.48235423  0.41041772  1
  Cu  Cu57  1  0.85438917  0.98115284  0.07698808  1
  Cu  Cu58  1  0.32080451  0.51793338  0.92004089  1
  Cu  Cu59  1  0.15596350  0.00918531  0.58554128  1
  Ni  Ni60  1  0.16680600  0.82349000  0.01763700  1
  Cu  Cu61  1  0.36541437  0.32750713  0.48356569  1
  Ni  Ni62  1  0.83319400  0.17651000  0.51763700  1
  Cu  Cu63  1  0.66991197  0.69979250  0.98688340  1
  Ni  Ni64  1  0.83319400  0.17651000  0.98236300  1
  Cu  Cu65  1  0.68113013  0.67457764  0.51507074  1
  Cu  Cu66  1  0.19635892  0.82219816  0.47526048  1
  Cu  Cu67  1  0.30740876  0.31371344  0.00854850  1
  Cu  Cu68  1  0.58377128  0.62293707  0.24226587  1
  Cu  Cu69  1  0.88372352  0.11883118  0.25127957  1
  Cu  Cu70  1  0.38489377  0.36084843  0.75353896  1
  Cu  Cu71  1  0.08472399  0.86983011  0.75278904  1
  Cu  Cu72  1  0.96401713  0.90223695  0.24585643  1
  Ni  Ni73  1  0.50522500  0.40048500  0.25000000  1
  Cu  Cu74  1  0.01043372  0.10064585  0.74300122  1
  Ni  Ni75  1  0.49477500  0.59951500  0.75000000  1
