# generated using pymatgen
data_Cu7NiC16
_symmetry_space_group_name_H-M   'P 1'
_cell_length_a   4.67787200
_cell_length_b   5.62455400
_cell_length_c   11.70829335
_cell_angle_alpha   61.85066730
_cell_angle_beta   90.00000000
_cell_angle_gamma   90.00000000
_symmetry_Int_Tables_number   1
_chemical_formula_structural   Cu7NiC16
_chemical_formula_sum   'Cu7 Ni1 C16'
_cell_volume   271.61965880
_cell_formula_units_Z   1
loop_
 _symmetry_equiv_pos_site_id
 _symmetry_equiv_pos_as_xyz
  1  'x, y, z'
loop_
 _atom_site_type_symbol
 _atom_site_label
 _atom_site_symmetry_multiplicity
 _atom_site_fract_x
 _atom_site_fract_y
 _atom_site_fract_z
 _atom_site_occupancy
  Cu  Cu0  1  0.56826858  0.50171429  0.12713896  1
  Cu  Cu1  1  0.45317376  0.48764116  0.86987817  1
  Ni  Ni2  1  0.46267900  0.02400600  0.62628100  1
  Cu  Cu3  1  0.56617845  0.95416150  0.36274850  1
  Cu  Cu4  1  0.06015551  0.46809052  0.37941469  1
  Cu  Cu5  1  0.94244205  0.00627081  0.86740812  1
  Cu  Cu6  1  0.94239922  0.49402783  0.63487721  1
  Cu  Cu7  1  0.02718545  0.00510358  0.12336423  1
  C  C8  1  0.28557900  0.15852800  0.45599800  1
  C  C9  1  0.33868400  0.18052500  0.20699400  1
  C  C10  1  0.16131600  0.18052500  0.70699400  1
  C  C11  1  0.21442100  0.15852800  0.95599800  1
  C  C12  1  0.78557900  0.84147200  0.04400200  1
  C  C13  1  0.83868400  0.81947500  0.29300600  1
  C  C14  1  0.66131600  0.81947500  0.79300600  1
  C  C15  1  0.71442100  0.84147200  0.54400200  1
  C  C16  1  0.24518100  0.63772800  0.96786500  1
  C  C17  1  0.19066400  0.67292600  0.71153900  1
  C  C18  1  0.30933600  0.67292600  0.21153900  1
  C  C19  1  0.25481900  0.63772800  0.46786500  1
  C  C20  1  0.74518100  0.36227200  0.53213500  1
  C  C21  1  0.69066400  0.32707400  0.78846100  1
  C  C22  1  0.80933600  0.32707400  0.28846100  1
  C  C23  1  0.75481900  0.36227200  0.03213500  1
