# generated using pymatgen
data_Cu19Ni12C
_symmetry_space_group_name_H-M   'P 1'
_cell_length_a   7.05849167
_cell_length_b   7.05849167
_cell_length_c   27.51730700
_cell_angle_alpha   90.00000000
_cell_angle_beta   90.00000000
_cell_angle_gamma   119.99999688
_symmetry_Int_Tables_number   1
_chemical_formula_structural   Cu19Ni12C
_chemical_formula_sum   'Cu38 Ni24 C2'
_cell_volume   1187.29977952
_cell_formula_units_Z   2
loop_
 _symmetry_equiv_pos_site_id
 _symmetry_equiv_pos_as_xyz
  1  'x, y, z'
loop_
 _atom_site_type_symbol
 _atom_site_label
 _atom_site_symmetry_multiplicity
 _atom_site_fract_x
 _atom_site_fract_y
 _atom_site_fract_z
 _atom_site_occupancy
  Ni  Ni0  1  0.16814200  0.83185800  0.61044500  1
  Ni  Ni1  1  0.16814200  0.33628400  0.61044500  1
  Ni  Ni2  1  0.66371600  0.83185800  0.61044500  1
  Ni  Ni3  1  0.83185800  0.16814200  0.38955500  1
  Ni  Ni4  1  0.83185800  0.66371600  0.38955500  1
  Ni  Ni5  1  0.33628400  0.16814200  0.38955500  1
  Ni  Ni6  1  0.83185800  0.16814200  0.11044500  1
  Ni  Ni7  1  0.83185800  0.66371600  0.11044500  1
  Ni  Ni8  1  0.33628400  0.16814200  0.11044500  1
  Ni  Ni9  1  0.16814200  0.83185800  0.88955500  1
  Ni  Ni10  1  0.16814200  0.33628400  0.88955500  1
  Ni  Ni11  1  0.66371600  0.83185800  0.88955500  1
  Ni  Ni12  1  0.33333300  0.66666700  0.47351300  1
  Ni  Ni13  1  0.66666700  0.33333300  0.52648700  1
  Ni  Ni14  1  0.66666700  0.33333300  0.97351300  1
  Ni  Ni15  1  0.33333300  0.66666700  0.02648700  1
  Ni  Ni16  1  0.33333300  0.66666700  0.30974600  1
  Ni  Ni17  1  0.66666700  0.33333300  0.69025400  1
  Ni  Ni18  1  0.66666700  0.33333300  0.80974600  1
  Ni  Ni19  1  0.33333300  0.66666700  0.19025400  1
  Ni  Ni20  1  0.00000000  0.00000000  0.50000000  1
  Ni  Ni21  1  0.00000000  0.00000000  0.00000000  1
  Ni  Ni22  1  0.00000000  0.00000000  0.25000000  1
  Ni  Ni23  1  0.00000000  0.00000000  0.75000000  1
  C  C24  1  0.33333300  0.66666700  0.75000000  1
  C  C25  1  0.66666700  0.33333300  0.25000000  1
  Cu  Cu26  1  0.15524300  0.84475700  0.44554000  1
  Cu  Cu27  1  0.15524300  0.31048600  0.44554000  1
  Cu  Cu28  1  0.68951400  0.84475700  0.44554000  1
  Cu  Cu29  1  0.84475700  0.15524300  0.55446000  1
  Cu  Cu30  1  0.84475700  0.68951400  0.55446000  1
  Cu  Cu31  1  0.31048600  0.15524300  0.55446000  1
  Cu  Cu32  1  0.84475700  0.15524300  0.94554000  1
  Cu  Cu33  1  0.84475700  0.68951400  0.94554000  1
  Cu  Cu34  1  0.31048600  0.15524300  0.94554000  1
  Cu  Cu35  1  0.15524300  0.84475700  0.05446000  1
  Cu  Cu36  1  0.15524300  0.31048600  0.05446000  1
  Cu  Cu37  1  0.68951400  0.84475700  0.05446000  1
  Cu  Cu38  1  0.51066200  0.48933800  0.34428300  1
  Cu  Cu39  1  0.51066200  0.02132500  0.34428300  1
  Cu  Cu40  1  0.97867500  0.48933800  0.34428300  1
  Cu  Cu41  1  0.48933800  0.51066200  0.65571700  1
  Cu  Cu42  1  0.48933800  0.97867500  0.65571700  1
  Cu  Cu43  1  0.02132500  0.51066200  0.65571700  1
  Cu  Cu44  1  0.48933800  0.51066200  0.84428300  1
  Cu  Cu45  1  0.48933800  0.97867500  0.84428300  1
  Cu  Cu46  1  0.02132500  0.51066200  0.84428300  1
  Cu  Cu47  1  0.51066200  0.48933800  0.15571700  1
  Cu  Cu48  1  0.51066200  0.02132500  0.15571700  1
  Cu  Cu49  1  0.97867500  0.48933800  0.15571700  1
  Cu  Cu50  1  0.33333300  0.66666700  0.55622600  1
  Cu  Cu51  1  0.66666700  0.33333300  0.44377400  1
  Cu  Cu52  1  0.66666700  0.33333300  0.05622600  1
  Cu  Cu53  1  0.33333300  0.66666700  0.94377400  1
  Cu  Cu54  1  0.00000000  0.00000000  0.34614200  1
  Cu  Cu55  1  0.00000000  0.00000000  0.65385800  1
  Cu  Cu56  1  0.00000000  0.00000000  0.84614200  1
  Cu  Cu57  1  0.00000000  0.00000000  0.15385800  1
  Cu  Cu58  1  0.18373100  0.81626900  0.25000000  1
  Cu  Cu59  1  0.18373100  0.36746200  0.25000000  1
  Cu  Cu60  1  0.63253800  0.81626900  0.25000000  1
  Cu  Cu61  1  0.81626900  0.18373100  0.75000000  1
  Cu  Cu62  1  0.81626900  0.63253800  0.75000000  1
  Cu  Cu63  1  0.36746200  0.18373100  0.75000000  1
