# generated using pymatgen
data_Cu7Ni5C7
_symmetry_space_group_name_H-M   'P 1'
_cell_length_a   3.72450554
_cell_length_b   8.86468428
_cell_length_c   9.81342266
_cell_angle_alpha   104.80982428
_cell_angle_beta   89.96980381
_cell_angle_gamma   102.08428212
_symmetry_Int_Tables_number   1
_chemical_formula_structural   Cu7Ni5C7
_chemical_formula_sum   'Cu7 Ni5 C7'
_cell_volume   305.81921130
_cell_formula_units_Z   1
loop_
 _symmetry_equiv_pos_site_id
 _symmetry_equiv_pos_as_xyz
  1  'x, y, z'
loop_
 _atom_site_type_symbol
 _atom_site_label
 _atom_site_symmetry_multiplicity
 _atom_site_fract_x
 _atom_site_fract_y
 _atom_site_fract_z
 _atom_site_occupancy
  C  C0  1  0.24334000  0.48534900  0.44530000  1
  C  C1  1  0.58732200  0.17478200  0.83539200  1
  C  C2  1  0.40651100  0.81200900  0.16167300  1
  C  C3  1  0.85216900  0.70320500  0.36473800  1
  C  C4  1  0.16652700  0.33318000  0.65767200  1
  C  C5  1  0.86667100  0.73524200  0.75888400  1
  C  C6  1  0.09759800  0.19776400  0.17991200  1
  Cu  Cu7  1  0.64298831  0.35102393  0.70462881  1
  Ni  Ni8  1  0.34092300  0.68051500  0.29959100  1
  Cu  Cu9  1  0.88059362  0.81300055  0.19950570  1
  Ni  Ni10  1  0.09756800  0.19526800  0.79106700  1
  Cu  Cu11  1  0.63429294  0.26269322  0.02109020  1
  Cu  Cu12  1  0.34535419  0.73746896  0.00525745  1
  Cu  Cu13  1  0.08174736  0.23524388  0.46716053  1
  Ni  Ni14  1  0.90279100  0.80500100  0.53675800  1
  Cu  Cu15  1  0.51754647  0.98260273  0.78986829  1
  Ni  Ni16  1  0.74341700  0.48523300  0.36728100  1
  Cu  Cu17  1  0.25134388  0.54418263  0.64981660  1
  Ni  Ni18  1  0.50942800  0.01866400  0.17003400  1
