# generated using pymatgen
data_Cu5NiC26
_symmetry_space_group_name_H-M   'P 1'
_cell_length_a   9.18144402
_cell_length_b   9.18144402
_cell_length_c   9.18144359
_cell_angle_alpha   51.99120450
_cell_angle_beta   51.99120450
_cell_angle_gamma   51.99120822
_symmetry_Int_Tables_number   1
_chemical_formula_structural   Cu5NiC26
_chemical_formula_sum   'Cu5 Ni1 C26'
_cell_volume   444.23721723
_cell_formula_units_Z   1
loop_
 _symmetry_equiv_pos_site_id
 _symmetry_equiv_pos_as_xyz
  1  'x, y, z'
loop_
 _atom_site_type_symbol
 _atom_site_label
 _atom_site_symmetry_multiplicity
 _atom_site_fract_x
 _atom_site_fract_y
 _atom_site_fract_z
 _atom_site_occupancy
  C  C0  1  0.94270200  0.94270200  0.94270200  1
  C  C1  1  0.44270200  0.44270200  0.44270200  1
  Cu  Cu2  1  0.05779043  0.31344818  0.63585153  1
  Cu  Cu3  1  0.15797882  0.82907628  0.52908459  1
  Ni  Ni4  1  0.53554300  0.15564000  0.80826700  1
  Cu  Cu5  1  0.31933849  0.64932524  0.03509695  1
  Cu  Cu6  1  0.67723659  0.98377748  0.31097929  1
  Cu  Cu7  1  0.79247966  0.54263192  0.16708450  1
  C  C8  1  0.24050500  0.87577400  0.92243100  1
  C  C9  1  0.11376300  0.79666500  0.72434400  1
  C  C10  1  0.42305300  0.05136700  0.00304400  1
  C  C11  1  0.08387200  0.15193400  0.60858600  1
  C  C12  1  0.10858600  0.65193400  0.58387200  1
  C  C13  1  0.50304400  0.55136700  0.92305300  1
  C  C14  1  0.22434400  0.29666500  0.61376300  1
  C  C15  1  0.05136700  0.00304400  0.42305300  1
  C  C16  1  0.42243100  0.37577400  0.74050500  1
  C  C17  1  0.72434400  0.11376300  0.79666500  1
  C  C18  1  0.58387200  0.10858600  0.65193400  1
  C  C19  1  0.37577400  0.74050500  0.42243100  1
  C  C20  1  0.55136700  0.92305300  0.50304400  1
  C  C21  1  0.92243100  0.24050500  0.87577400  1
  C  C22  1  0.15193400  0.60858600  0.08387200  1
  C  C23  1  0.29666500  0.61376300  0.22434400  1
  C  C24  1  0.61376300  0.22434400  0.29666500  1
  C  C25  1  0.92305300  0.50304400  0.55136700  1
  C  C26  1  0.74050500  0.42243100  0.37577400  1
  C  C27  1  0.60858600  0.08387200  0.15193400  1
  C  C28  1  0.65193400  0.58387200  0.10858600  1
  C  C29  1  0.87577400  0.92243100  0.24050500  1
  C  C30  1  0.79666500  0.72434400  0.11376300  1
  C  C31  1  0.00304400  0.42305300  0.05136700  1
