# generated using pymatgen
data_Cu2C5
_symmetry_space_group_name_H-M   'P 1'
_cell_length_a   6.84896699
_cell_length_b   6.84896699
_cell_length_c   6.84896699
_cell_angle_alpha   60.00000000
_cell_angle_beta   60.00000000
_cell_angle_gamma   60.00000000
_symmetry_Int_Tables_number   1
_chemical_formula_structural   Cu2C5
_chemical_formula_sum   'Cu4 C10'
_cell_volume   227.17483462
_cell_formula_units_Z   2
loop_
 _symmetry_equiv_pos_site_id
 _symmetry_equiv_pos_as_xyz
  1  'x, y, z'
loop_
 _atom_site_type_symbol
 _atom_site_label
 _atom_site_symmetry_multiplicity
 _atom_site_fract_x
 _atom_site_fract_y
 _atom_site_fract_z
 _atom_site_occupancy
  C  C0  1  0.25000000  0.25000000  0.25000000  1
  C  C1  1  0.00000000  0.00000000  0.00000000  1
  Cu  Cu2  1  0.60082782  0.60729759  0.63788907  1
  Cu  Cu3  1  0.61086518  0.13783626  0.64639529  1
  Cu  Cu4  1  0.10708656  0.65655717  0.59296830  1
  Cu  Cu5  1  0.65101939  0.62614218  0.12746421  1
  C  C6  1  0.38765800  0.38765800  0.83702500  1
  C  C7  1  0.86234200  0.41297500  0.86234200  1
  C  C8  1  0.38765800  0.83702500  0.38765800  1
  C  C9  1  0.83702500  0.38765800  0.38765800  1
  C  C10  1  0.38765800  0.38765800  0.38765800  1
  C  C11  1  0.86234200  0.86234200  0.86234200  1
  C  C12  1  0.86234200  0.86234200  0.41297500  1
  C  C13  1  0.41297500  0.86234200  0.86234200  1
