# generated using pymatgen
data_Cu19NiC10
_symmetry_space_group_name_H-M   'P 1'
_cell_length_a   7.40353103
_cell_length_b   7.36038084
_cell_length_c   7.41453845
_cell_angle_alpha   119.98065625
_cell_angle_beta   89.99034485
_cell_angle_gamma   90.00756966
_symmetry_Int_Tables_number   1
_chemical_formula_structural   Cu19NiC10
_chemical_formula_sum   'Cu19 Ni1 C10'
_cell_volume   349.97623387
_cell_formula_units_Z   1
loop_
 _symmetry_equiv_pos_site_id
 _symmetry_equiv_pos_as_xyz
  1  'x, y, z'
loop_
 _atom_site_type_symbol
 _atom_site_label
 _atom_site_symmetry_multiplicity
 _atom_site_fract_x
 _atom_site_fract_y
 _atom_site_fract_z
 _atom_site_occupancy
  C  C0  1  0.27505900  0.29629600  0.03597100  1
  C  C1  1  0.77504100  0.20387200  0.46422800  1
  C  C2  1  0.72491900  0.70375900  0.96420300  1
  C  C3  1  0.22492700  0.79643000  0.53628300  1
  C  C4  1  0.50020800  0.50020500  0.49990300  1
  C  C5  1  0.99957100  0.99986400  0.00017900  1
  C  C6  1  0.62271300  0.00133200  0.74977900  1
  C  C7  1  0.87737000  0.50128300  0.24979100  1
  C  C8  1  0.12283700  0.49874600  0.75017500  1
  C  C9  1  0.37716200  0.99875700  0.25017500  1
  Cu  Cu10  1  0.23865712  0.59299107  0.67175969  1
  Cu  Cu11  1  0.75335898  0.94266668  0.84434795  1
  Cu  Cu12  1  0.76150475  0.42748552  0.31123461  1
  Cu  Cu13  1  0.22980776  0.09412250  0.16583070  1
  Cu  Cu14  1  0.97029185  0.70771203  0.90180742  1
  Cu  Cu15  1  0.51868616  0.16717011  0.38694470  1
  Cu  Cu16  1  0.48776165  0.81770142  0.56382283  1
  Cu  Cu17  1  0.01415335  0.27554035  0.06884603  1
  Cu  Cu18  1  0.47375860  0.79838755  0.08444385  1
  Cu  Cu19  1  0.02411786  0.69753174  0.41458517  1
  Cu  Cu20  1  0.48975502  0.16608508  0.91537108  1
  Cu  Cu21  1  0.00984497  0.32823835  0.61021263  1
  Cu  Cu22  1  0.76370788  0.56322325  0.12868909  1
  Cu  Cu23  1  0.74611643  0.07682348  0.62473670  1
  Ni  Ni24  1  0.24674800  0.42434200  0.86555800  1
  Cu  Cu25  1  0.23253756  0.90365028  0.36600327  1
  Cu  Cu26  1  0.35340713  0.47220203  0.24779560  1
  Cu  Cu27  1  0.63662542  0.50049254  0.72536332  1
  Cu  Cu28  1  0.15483535  0.99940124  0.77220133  1
  Cu  Cu29  1  0.84236425  0.98728827  0.21555613  1
