# generated using pymatgen
data_Cu29Ni4C11
_symmetry_space_group_name_H-M   'P 1'
_cell_length_a   9.77924900
_cell_length_b   9.79398043
_cell_length_c   14.23851213
_cell_angle_alpha   89.95442337
_cell_angle_beta   90.72042774
_cell_angle_gamma   119.85566548
_symmetry_Int_Tables_number   1
_chemical_formula_structural   Cu29Ni4C11
_chemical_formula_sum   'Cu58 Ni8 C22'
_cell_volume   1182.62439194
_cell_formula_units_Z   2
loop_
 _symmetry_equiv_pos_site_id
 _symmetry_equiv_pos_as_xyz
  1  'x, y, z'
loop_
 _atom_site_type_symbol
 _atom_site_label
 _atom_site_symmetry_multiplicity
 _atom_site_fract_x
 _atom_site_fract_y
 _atom_site_fract_z
 _atom_site_occupancy
  Ni  Ni0  1  0.77321700  0.08997400  0.06082500  1
  Ni  Ni1  1  0.32041200  0.22723900  0.06561200  1
  Ni  Ni2  1  0.67133100  0.90476900  0.44084900  1
  Ni  Ni3  1  0.32638800  0.09450600  0.55660100  1
  Ni  Ni4  1  0.69112900  0.77345100  0.93749600  1
  Ni  Ni5  1  0.22291100  0.90778500  0.94668300  1
  Ni  Ni6  1  0.09402800  0.32355000  0.94187000  1
  Ni  Ni7  1  0.00190000  0.00614100  0.49270900  1
  C  C8  1  0.56758000  0.00056300  0.25056500  1
  C  C9  1  0.43124600  0.99804700  0.75141100  1
  C  C10  1  0.56784800  0.56257600  0.74526200  1
  C  C11  1  0.43404000  0.44109700  0.25580600  1
  C  C12  1  0.99968000  0.56513600  0.25522600  1
  C  C13  1  0.99854900  0.43861900  0.74120100  1
  C  C14  1  0.91617900  0.68644000  0.83956300  1
  C  C15  1  0.78072800  0.69669300  0.33570200  1
  C  C16  1  0.91971500  0.22180800  0.34206200  1
  C  C17  1  0.66548000  0.33338600  0.13345900  1
  C  C18  1  0.66153100  0.33057800  0.62950200  1
  C  C19  1  0.77340600  0.09305600  0.83762500  1
  C  C20  1  0.68406900  0.91091700  0.65830700  1
  C  C21  1  0.32143500  0.23394600  0.84622200  1
  C  C22  1  0.67887200  0.76709900  0.15328500  1
  C  C23  1  0.31553500  0.09076800  0.34170800  1
  C  C24  1  0.22539100  0.90661700  0.16407200  1
  C  C25  1  0.33529800  0.66879800  0.37144200  1
  C  C26  1  0.33317700  0.66243600  0.86619000  1
  C  C27  1  0.08040300  0.77903400  0.65506900  1
  C  C28  1  0.22129700  0.30564400  0.66340200  1
  C  C29  1  0.08628500  0.31814700  0.15896100  1
  Cu  Cu30  1  0.00414400  0.79513700  0.56939400  1
  Cu  Cu31  1  0.91501200  0.65649200  0.33536700  1
  Cu  Cu32  1  0.74228600  0.75431700  0.06168000  1
  Cu  Cu33  1  0.74530000  0.65918000  0.83799700  1
  Cu  Cu34  1  0.91114100  0.52763500  0.81939700  1
  Cu  Cu35  1  0.81516900  0.47413600  0.18369900  1
  Cu  Cu36  1  0.92512400  0.38276000  0.33190000  1
  Cu  Cu37  1  0.00175300  0.24309300  0.06786300  1
  Cu  Cu38  1  0.91977000  0.25988900  0.83720200  1
  Cu  Cu39  1  0.66873600  0.48151100  0.67786700  1
  Cu  Cu40  1  0.61938600  0.53889700  0.32841700  1
  Cu  Cu41  1  0.81092600  0.32960500  0.67517400  1
  Cu  Cu42  1  0.66805200  0.33770100  0.02891600  1
  Cu  Cu43  1  0.66793700  0.34274200  0.52591500  1
  Cu  Cu44  1  0.66804600  0.18192000  0.16903300  1
  Cu  Cu45  1  0.47983000  0.38158000  0.82317400  1
  Cu  Cu46  1  0.51751400  0.33620000  0.17342100  1
  Cu  Cu47  1  0.74382400  0.08618100  0.33571600  1
  Cu  Cu48  1  0.79566400  0.00549400  0.74815100  1
  Cu  Cu49  1  0.76771900  0.97553500  0.56868800  1
  Cu  Cu50  1  0.76200700  0.00467700  0.92636800  1
  Cu  Cu51  1  0.62074300  0.10104600  0.81953000  1
  Cu  Cu52  1  0.50957400  0.18592800  0.66643100  1
  Cu  Cu53  1  0.66297900  0.91676500  0.16051100  1
  Cu  Cu54  1  0.46971100  0.08936800  0.33101100  1
  Cu  Cu55  1  0.34638800  0.26223300  0.32690600  1
  Cu  Cu56  1  0.79866600  0.78502000  0.23744700  1
  Cu  Cu57  1  0.79346300  0.80175000  0.41485500  1
  Cu  Cu58  1  0.20830700  0.20165800  0.58382600  1
  Cu  Cu59  1  0.65602600  0.74006800  0.67312000  1
  Cu  Cu60  1  0.52858400  0.90990100  0.67114600  1
  Cu  Cu61  1  0.33618200  0.08392500  0.84372800  1
  Cu  Cu62  1  0.48896000  0.81310200  0.33523000  1
  Cu  Cu63  1  0.37907500  0.90041100  0.18124000  1
  Cu  Cu64  1  0.23640000  0.99443800  0.07505400  1
  Cu  Cu65  1  0.22905400  0.02660200  0.43098900  1
  Cu  Cu66  1  0.20416300  0.99777000  0.25196300  1
  Cu  Cu67  1  0.25517700  0.91503300  0.66586000  1
  Cu  Cu68  1  0.48166300  0.66253100  0.82381800  1
  Cu  Cu69  1  0.52032300  0.61888400  0.17896700  1
  Cu  Cu70  1  0.33105600  0.81408300  0.83152700  1
  Cu  Cu71  1  0.33263200  0.65242000  0.97068800  1
  Cu  Cu72  1  0.33137100  0.65581400  0.47522200  1
  Cu  Cu73  1  0.18841000  0.66937100  0.32519400  1
  Cu  Cu74  1  0.38210100  0.46245100  0.67195600  1
  Cu  Cu75  1  0.33067100  0.51755700  0.32330900  1
  Cu  Cu76  1  0.08219200  0.73946900  0.16833700  1
  Cu  Cu77  1  0.99650500  0.79300600  0.74825300  1
  Cu  Cu78  1  0.00661100  0.76982700  0.92522000  1
  Cu  Cu79  1  0.08038500  0.61860900  0.66906300  1
  Cu  Cu80  1  0.18274600  0.51587800  0.82127500  1
  Cu  Cu81  1  0.09315500  0.47607100  0.17858600  1
  Cu  Cu82  1  0.25438700  0.33942200  0.16111500  1
  Cu  Cu83  1  0.25088700  0.24939500  0.93617100  1
  Cu  Cu84  1  0.20234800  0.21439700  0.76130000  1
  Cu  Cu85  1  0.08597900  0.34484700  0.66564700  1
  Cu  Cu86  1  0.00024700  0.19812400  0.42370800  1
  Cu  Cu87  1  0.99340500  0.20292300  0.24387700  1
