# generated using pymatgen
data_Cu79(Ni5C6)13
_symmetry_space_group_name_H-M   'P 1'
_cell_length_a   17.79411458
_cell_length_b   8.89926451
_cell_length_c   22.74786882
_cell_angle_alpha   89.90614327
_cell_angle_beta   90.10217963
_cell_angle_gamma   120.09034649
_symmetry_Int_Tables_number   1
_chemical_formula_structural   Cu79(Ni5C6)13
_chemical_formula_sum   'Cu79 Ni65 C78'
_cell_volume   3116.77100998
_cell_formula_units_Z   1
loop_
 _symmetry_equiv_pos_site_id
 _symmetry_equiv_pos_as_xyz
  1  'x, y, z'
loop_
 _atom_site_type_symbol
 _atom_site_label
 _atom_site_symmetry_multiplicity
 _atom_site_fract_x
 _atom_site_fract_y
 _atom_site_fract_z
 _atom_site_occupancy
  C  C0  1  0.31894785  0.01469261  0.24179483  1
  C  C1  1  0.81618919  0.01280608  0.24269214  1
  C  C2  1  0.99764988  0.63748610  0.24304448  1
  C  C3  1  0.32462518  0.62261316  0.74580601  1
  C  C4  1  0.81671450  0.61993009  0.74363907  1
  C  C5  1  0.49525054  0.36144415  0.74208729  1
  C  C6  1  0.99075764  0.98494932  0.49142696  1
  C  C7  1  0.49126671  0.98903146  0.49360212  1
  C  C8  1  0.99117785  0.99456479  0.98859078  1
  C  C9  1  0.49168234  0.99682990  0.98904078  1
  C  C10  1  0.32900737  0.33941495  0.82632185  1
  C  C11  1  0.82585310  0.32327126  0.82839498  1
  C  C12  1  0.32875012  0.33093446  0.33066561  1
  C  C13  1  0.81854635  0.31539222  0.33310912  1
  C  C14  1  0.16807761  0.67324378  0.16071308  1
  C  C15  1  0.65803220  0.66815605  0.16238160  1
  C  C16  1  0.16108475  0.65077309  0.66433148  1
  C  C17  1  0.66281743  0.66220692  0.66442950  1
  C  C18  1  0.00173271  0.99661528  0.35820236  1
  C  C19  1  0.50230005  0.99630439  0.35764294  1
  C  C20  1  0.00054541  0.00712267  0.85708067  1
  C  C21  1  0.50005481  0.99721809  0.85516988  1
  C  C22  1  0.33639300  0.34973833  0.68546215  1
  C  C23  1  0.83313340  0.33869801  0.68354413  1
  C  C24  1  0.33382896  0.32719325  0.18327149  1
  C  C25  1  0.82854189  0.32171717  0.18168187  1
  C  C26  1  0.00035607  0.01126056  0.64339170  1
  C  C27  1  0.50252965  0.99948837  0.64570253  1
  C  C28  1  0.00154658  0.99164331  0.14134295  1
  C  C29  1  0.50108542  0.99007976  0.14257956  1
  C  C30  1  0.34436850  0.34463745  0.97736349  1
  C  C31  1  0.84277379  0.34349427  0.97777696  1
  C  C32  1  0.34405255  0.34227181  0.47995004  1
  C  C33  1  0.84313767  0.34120569  0.47878344  1
  C  C34  1  0.16867470  0.66944401  0.01959818  1
  C  C35  1  0.66887674  0.66831763  0.01926892  1
  C  C36  1  0.16914968  0.67260277  0.52138685  1
  C  C37  1  0.66852739  0.67001967  0.52134698  1
  C  C38  1  0.16611317  0.67893427  0.31549349  1
  C  C39  1  0.66050958  0.67689824  0.31455827  1
  C  C40  1  0.16260098  0.64553982  0.81335118  1
  C  C41  1  0.66193293  0.65078445  0.81179352  1
  C  C42  1  0.14783096  0.01704009  0.25342362  1
  C  C43  1  0.64675270  0.01562125  0.25345712  1
  C  C44  1  0.14552511  0.27592141  0.75363525  1
  C  C45  1  0.64789184  0.27669900  0.75322817  1
  C  C46  1  0.50022619  0.71298839  0.75405485  1
  C  C47  1  0.48012131  0.33201028  0.58776964  1
  C  C48  1  0.97851307  0.34042642  0.58671996  1
  C  C49  1  0.33439302  0.62322297  0.58592431  1
  C  C50  1  0.83390472  0.62063027  0.58654161  1
  C  C51  1  0.47869567  0.61486883  0.08627845  1
  C  C52  1  0.97869477  0.61413161  0.08762200  1
  C  C53  1  0.33307778  0.04643233  0.08666030  1
  C  C54  1  0.83249819  0.04463093  0.08611516  1
  C  C55  1  0.31471061  0.66705258  0.91724512  1
  C  C56  1  0.81451245  0.66838277  0.91566889  1
  C  C57  1  0.02246390  0.36894438  0.91825586  1
  C  C58  1  0.52349307  0.36733838  0.91701522  1
  C  C59  1  0.31601886  0.96652223  0.41796961  1
  C  C60  1  0.81421691  0.96216421  0.41691078  1
  C  C61  1  0.02180054  0.67404919  0.41795497  1
  C  C62  1  0.52127523  0.67605527  0.41920892  1
  C  C63  1  0.35590260  0.70820212  0.25055328  1
  C  C64  1  0.85446732  0.70986112  0.25003330  1
  C  C65  1  0.00277454  0.28798700  0.25134421  1
  C  C66  1  0.50260678  0.28847567  0.25136809  1
  C  C67  1  0.00256698  0.71663691  0.75150928  1
  C  C68  1  0.35330904  0.99780421  0.75021725  1
  C  C69  1  0.85715944  0.00440551  0.75044425  1
  C  C70  1  0.18928527  0.04671011  0.58416456  1
  C  C71  1  0.68979200  0.04652106  0.58327869  1
  C  C72  1  0.18937306  0.33402589  0.08398250  1
  C  C73  1  0.68861305  0.33330596  0.08367882  1
  C  C74  1  0.16758917  0.95518168  0.91636655  1
  C  C75  1  0.66816752  0.95592054  0.91720675  1
  C  C76  1  0.16737526  0.38090753  0.41714960  1
  C  C77  1  0.66723375  0.38147882  0.41670674  1
  Ni  Ni78  1  0.09473297  0.01853606  0.30793745  1
  Ni  Ni79  1  0.59805847  0.02657514  0.30901755  1
  Cu  Cu80  1  0.39663380  0.76359903  0.30420904  1
  Ni  Ni81  1  0.90681445  0.79172156  0.30163102  1
  Cu  Cu82  1  0.48600358  0.16836256  0.30112757  1
  Cu  Cu83  1  0.98530165  0.16522167  0.30168584  1
  Ni  Ni84  1  0.09592264  0.16889198  0.80924861  1
  Cu  Cu85  1  0.60226600  0.18792098  0.80508139  1
  Cu  Cu86  1  0.47410065  0.77212295  0.81316924  1
  Cu  Cu87  1  0.98720328  0.79492323  0.80368569  1
  Cu  Cu88  1  0.41129530  0.04155135  0.79530559  1
  Ni  Ni89  1  0.90757326  0.02239573  0.80252367  1
  Cu  Cu90  1  0.40249518  0.98032949  0.69244380  1
  Cu  Cu91  1  0.90772343  0.96599976  0.70009159  1
  Ni  Ni92  1  0.08291774  0.18778310  0.69292187  1
  Ni  Ni93  1  0.58386408  0.19647803  0.69280070  1
  Cu  Cu94  1  0.01559458  0.83327660  0.69857041  1
  Ni  Ni95  1  0.51306881  0.83408400  0.69292308  1
  Ni  Ni96  1  0.39552403  0.82474218  0.19632566  1
  Cu  Cu97  1  0.90232523  0.82639398  0.18267306  1
  Ni  Ni98  1  0.01283925  0.20609744  0.19686205  1
  Ni  Ni99  1  0.51378848  0.20670050  0.19699471  1
  Ni  Ni100  1  0.08299907  0.97403937  0.19318491  1
  Ni  Ni101  1  0.58487802  0.98153402  0.19281294  1
  Cu  Cu102  1  0.43971015  0.35542363  0.64909134  1
  Cu  Cu103  1  0.93599770  0.34461562  0.63514137  1
  Cu  Cu104  1  0.24646494  0.12902283  0.64074262  1
  Ni  Ni105  1  0.74017197  0.11752215  0.63629613  1
  Ni  Ni106  1  0.31268118  0.51630617  0.64495523  1
  Cu  Cu107  1  0.81083045  0.50534624  0.63921621  1
  Cu  Cu108  1  0.43793655  0.51581605  0.14767416  1
  Cu  Cu109  1  0.94221352  0.52018439  0.15447645  1
  Cu  Cu110  1  0.32392018  0.10189412  0.16320044  1
  Cu  Cu111  1  0.82266244  0.12383232  0.15430997  1
  Cu  Cu112  1  0.22511470  0.37714639  0.14420336  1
  Ni  Ni113  1  0.73965863  0.36301084  0.13668543  1
  Cu  Cu114  1  0.22575473  0.29957500  0.02502106  1
  Ni  Ni115  1  0.72577422  0.30250174  0.03046474  1
  Ni  Ni116  1  0.41784018  0.53253088  0.02614472  1
  Cu  Cu117  1  0.91406663  0.51636790  0.02870752  1
  Cu  Cu118  1  0.34689771  0.16961409  0.02561695  1
  Cu  Cu119  1  0.84855266  0.19774352  0.02747566  1
  Ni  Ni120  1  0.22632029  0.14937842  0.52993152  1
  Cu  Cu121  1  0.73437337  0.15555786  0.53374978  1
  Cu  Cu122  1  0.35881799  0.53985685  0.52239458  1
  Cu  Cu123  1  0.84000091  0.51886810  0.52433649  1
  Cu  Cu124  1  0.39659537  0.27546615  0.52774652  1
  Cu  Cu125  1  0.91626778  0.30217888  0.52054187  1
  Ni  Ni126  1  0.25855660  0.68156270  0.97267416  1
  Ni  Ni127  1  0.76119242  0.68700921  0.97217410  1
  Ni  Ni128  1  0.08055612  0.48426131  0.97400462  1
  Ni  Ni129  1  0.58230195  0.48452405  0.97260038  1
  Cu  Cu130  1  0.15296994  0.84867119  0.97589589  1
  Cu  Cu131  1  0.66661043  0.87208070  0.96858692  1
  Cu  Cu132  1  0.28420337  0.84298974  0.48520643  1
  Ni  Ni133  1  0.76089046  0.83529710  0.47211698  1
  Cu  Cu134  1  0.15385857  0.45903828  0.46361853  1
  Cu  Cu135  1  0.65642167  0.47384352  0.47311296  1
  Cu  Cu136  1  0.07831642  0.65298398  0.47671677  1
  Cu  Cu137  1  0.58292099  0.68599008  0.46452770  1
  Cu  Cu138  1  0.06017728  0.63738441  0.34945685  1
  Ni  Ni139  1  0.56625217  0.63628214  0.35977329  1
  Ni  Ni140  1  0.25117977  0.86318174  0.35835498  1
  Cu  Cu141  1  0.74883565  0.86256638  0.35510227  1
  Cu  Cu142  1  0.18112825  0.51965436  0.36286729  1
  Ni  Ni143  1  0.68167936  0.49301542  0.36327882  1
  Cu  Cu144  1  0.07864937  0.52152372  0.86157145  1
  Cu  Cu145  1  0.55976432  0.49612233  0.85448611  1
  Ni  Ni146  1  0.18206847  0.87282506  0.86382886  1
  Ni  Ni147  1  0.68333526  0.87532728  0.86484579  1
  Ni  Ni148  1  0.25030152  0.64069344  0.85856728  1
  Ni  Ni149  1  0.75249037  0.64451426  0.85739764  1
  Ni  Ni150  1  0.01280074  0.83994648  0.41479110  1
  Ni  Ni151  1  0.51258037  0.84205533  0.41590056  1
  Ni  Ni152  1  0.40893934  0.99102308  0.40929832  1
  Ni  Ni153  1  0.90816286  0.98967007  0.40904251  1
  Cu  Cu154  1  0.09508750  0.20454611  0.40665821  1
  Ni  Ni155  1  0.58951952  0.21399632  0.41211489  1
  Cu  Cu156  1  0.00804211  0.18656791  0.91805042  1
  Ni  Ni157  1  0.51326905  0.18278970  0.91444799  1
  Ni  Ni158  1  0.08969146  0.96629202  0.91278509  1
  Cu  Cu159  1  0.58038942  0.98151862  0.91549264  1
  Ni  Ni160  1  0.40713883  0.83208277  0.91405833  1
  Ni  Ni161  1  0.90954772  0.82767797  0.91055354  1
  Ni  Ni162  1  0.49093350  0.15947877  0.58989182  1
  Ni  Ni163  1  0.98922704  0.16329947  0.59070437  1
  Cu  Cu164  1  0.09536745  0.01536084  0.59555484  1
  Ni  Ni165  1  0.60097740  0.02560160  0.58731117  1
  Cu  Cu166  1  0.42462730  0.82713841  0.59482454  1
  Cu  Cu167  1  0.92034467  0.80749904  0.59688609  1
  Cu  Cu168  1  0.48506353  0.80934695  0.09073631  1
  Cu  Cu169  1  0.98911766  0.81685239  0.09058732  1
  Cu  Cu170  1  0.41574869  0.01921385  0.09638648  1
  Cu  Cu171  1  0.91718079  0.01543851  0.08839655  1
  Ni  Ni172  1  0.09846473  0.17724595  0.09087109  1
  Cu  Cu173  1  0.59752671  0.20016669  0.08332329  1
  Cu  Cu174  1  0.33895153  0.14538805  0.74022954  1
  Ni  Ni175  1  0.84501564  0.15266679  0.74124051  1
  Cu  Cu176  1  0.25715316  0.35143087  0.73906884  1
  Ni  Ni177  1  0.74688886  0.32083550  0.74628563  1
  Cu  Cu178  1  0.42260675  0.49664924  0.74232792  1
  Cu  Cu179  1  0.94161732  0.58517611  0.75377466  1
  Ni  Ni180  1  0.34297814  0.53540367  0.24171372  1
  Cu  Cu181  1  0.85628303  0.55052957  0.24243493  1
  Cu  Cu182  1  0.42083214  0.31198290  0.23978507  1
  Cu  Cu183  1  0.92374427  0.30630190  0.24343524  1
  Cu  Cu184  1  0.24402886  0.15636234  0.25331970  1
  Ni  Ni185  1  0.74649238  0.16924176  0.24643276  1
  Cu  Cu186  1  0.31695677  0.48832623  0.91692387  1
  Ni  Ni187  1  0.81173147  0.48022240  0.92698722  1
  Cu  Cu188  1  0.42755944  0.34034329  0.92095468  1
  Ni  Ni189  1  0.92703443  0.36262630  0.92340411  1
  Cu  Cu190  1  0.23678410  0.10049795  0.92663544  1
  Cu  Cu191  1  0.74945556  0.12820755  0.92573338  1
  Cu  Cu192  1  0.31084390  0.11572482  0.42701761  1
  Ni  Ni193  1  0.81057727  0.14341025  0.42492163  1
  Ni  Ni194  1  0.24675513  0.36687024  0.42228080  1
  Ni  Ni195  1  0.74695406  0.36686365  0.42264317  1
  Ni  Ni196  1  0.42633023  0.49134261  0.42319365  1
  Ni  Ni197  1  0.92636178  0.49043579  0.42219986  1
  Cu  Cu198  1  0.15148115  0.46580112  0.08574467  1
  Ni  Ni199  1  0.67587205  0.48664480  0.07620485  1
  Cu  Cu200  1  0.08010012  0.67398861  0.07147465  1
  Cu  Cu201  1  0.57126798  0.65755733  0.07421231  1
  Ni  Ni202  1  0.25185231  0.84789362  0.07258589  1
  Cu  Cu203  1  0.76062229  0.86766927  0.07171125  1
  Ni  Ni204  1  0.17601291  0.86585006  0.57614611  1
  Ni  Ni205  1  0.67677569  0.86618126  0.57576848  1
  Cu  Cu206  1  0.25280838  0.67516133  0.56762068  1
  Ni  Ni207  1  0.75257905  0.65505251  0.57161037  1
  Cu  Cu208  1  0.08055613  0.47897653  0.57597538  1
  Cu  Cu209  1  0.57368208  0.50973926  0.56881523  1
  Cu  Cu210  1  0.15679581  0.80568493  0.25590329  1
  Cu  Cu211  1  0.65290241  0.83126699  0.25851877  1
  Cu  Cu212  1  0.26572836  0.68313434  0.25250280  1
  Cu  Cu213  1  0.76365667  0.69403834  0.24791167  1
  Cu  Cu214  1  0.07973329  0.46781238  0.26142540  1
  Ni  Ni215  1  0.58590780  0.46412625  0.25641486  1
  Cu  Cu216  1  0.15079151  0.48988529  0.75964865  1
  Ni  Ni217  1  0.65549770  0.48343247  0.75583051  1
  Ni  Ni218  1  0.08587453  0.70835917  0.75652533  1
  Cu  Cu219  1  0.58994252  0.70208521  0.76830225  1
  Ni  Ni220  1  0.26494802  0.83287213  0.75493504  1
  Ni  Ni221  1  0.76998240  0.83816732  0.75307069  1
