# generated using pymatgen
data_Cu6NiC
_symmetry_space_group_name_H-M   'P 1'
_cell_length_a   7.13979240
_cell_length_b   7.13979240
_cell_length_c   12.83957859
_cell_angle_alpha   79.45837843
_cell_angle_beta   79.45837843
_cell_angle_gamma   55.51626791
_symmetry_Int_Tables_number   1
_chemical_formula_structural   Cu6NiC
_chemical_formula_sum   'Cu12 Ni2 C2'
_cell_volume   527.85530922
_cell_formula_units_Z   2
loop_
 _symmetry_equiv_pos_site_id
 _symmetry_equiv_pos_as_xyz
  1  'x, y, z'
loop_
 _atom_site_type_symbol
 _atom_site_label
 _atom_site_symmetry_multiplicity
 _atom_site_fract_x
 _atom_site_fract_y
 _atom_site_fract_z
 _atom_site_occupancy
  C  C0  1  0.88193500  0.11806500  0.75000000  1
  C  C1  1  0.11806500  0.88193500  0.25000000  1
  Ni  Ni2  1  0.50000000  0.00000000  0.50000000  1
  Ni  Ni3  1  0.00000000  0.50000000  0.00000000  1
  Cu  Cu4  1  0.46302500  0.70685700  0.60181400  1
  Cu  Cu5  1  0.53697500  0.29314300  0.39818600  1
  Cu  Cu6  1  0.29314300  0.53697500  0.89818600  1
  Cu  Cu7  1  0.70685700  0.46302500  0.10181400  1
  Cu  Cu8  1  0.37331800  0.19486400  0.65486800  1
  Cu  Cu9  1  0.62668200  0.80513600  0.34513200  1
  Cu  Cu10  1  0.80513600  0.62668200  0.84513200  1
  Cu  Cu11  1  0.19486400  0.37331800  0.15486800  1
  Cu  Cu12  1  0.80134400  0.88441900  0.03892200  1
  Cu  Cu13  1  0.19865600  0.11558100  0.96107800  1
  Cu  Cu14  1  0.11558100  0.19865600  0.46107800  1
  Cu  Cu15  1  0.88441900  0.80134400  0.53892200  1
