# generated using pymatgen
data_Cu9Ni15C13
_symmetry_space_group_name_H-M   'P 1'
_cell_length_a   27.60157100
_cell_length_b   6.09606900
_cell_length_c   7.22140697
_cell_angle_alpha   69.43952525
_cell_angle_beta   90.00000000
_cell_angle_gamma   90.00000000
_symmetry_Int_Tables_number   1
_chemical_formula_structural   Cu9Ni15C13
_chemical_formula_sum   'Cu18 Ni30 C26'
_cell_volume   1137.68350397
_cell_formula_units_Z   2
loop_
 _symmetry_equiv_pos_site_id
 _symmetry_equiv_pos_as_xyz
  1  'x, y, z'
loop_
 _atom_site_type_symbol
 _atom_site_label
 _atom_site_symmetry_multiplicity
 _atom_site_fract_x
 _atom_site_fract_y
 _atom_site_fract_z
 _atom_site_occupancy
  C  C0  1  0.68523100  0.14388900  0.69614000  1
  C  C1  1  0.39778000  0.22261000  0.91340700  1
  C  C2  1  0.60222000  0.77739000  0.08659300  1
  C  C3  1  0.45437000  0.82361900  0.69037700  1
  C  C4  1  0.04563000  0.82361900  0.69037700  1
  C  C5  1  0.89778000  0.77739000  0.08659300  1
  C  C6  1  0.31476900  0.85611100  0.30386000  1
  C  C7  1  0.95437000  0.17638100  0.30962300  1
  C  C8  1  0.18523100  0.85611100  0.30386000  1
  C  C9  1  0.10222000  0.22261000  0.91340700  1
  C  C10  1  0.54563000  0.17638100  0.30962300  1
  C  C11  1  0.81476900  0.14388900  0.69614000  1
  C  C12  1  0.10517800  0.33201900  0.38273400  1
  C  C13  1  0.47345200  0.70564100  0.19310600  1
  C  C14  1  0.66972400  0.23778600  0.18376600  1
  C  C15  1  0.52654800  0.29435900  0.80689400  1
  C  C16  1  0.75000000  0.52589600  0.91830200  1
  C  C17  1  0.02654800  0.70564100  0.19310600  1
  C  C18  1  0.39482200  0.33201900  0.38273400  1
  C  C19  1  0.25000000  0.47410400  0.08169800  1
  C  C20  1  0.16972400  0.76221400  0.81623400  1
  C  C21  1  0.97345200  0.29435900  0.80689400  1
  C  C22  1  0.60517800  0.66798100  0.61726600  1
  C  C23  1  0.33027600  0.76221400  0.81623400  1
  C  C24  1  0.83027600  0.23778600  0.18376600  1
  C  C25  1  0.89482200  0.66798100  0.61726600  1
  Ni  Ni26  1  0.16381500  0.90767000  0.95083400  1
  Ni  Ni27  1  0.75000000  0.36645100  0.79631600  1
  Ni  Ni28  1  0.52666100  0.17075100  0.65783800  1
  Cu  Cu29  1  0.20024425  0.53562787  0.93541935  1
  Cu  Cu30  1  0.47036056  0.79408526  0.36759713  1
  Ni  Ni31  1  0.61936500  0.81766700  0.74200700  1
  Ni  Ni32  1  0.88063500  0.81766700  0.74200700  1
  Cu  Cu33  1  0.09029410  0.18570374  0.59195688  1
  Ni  Ni34  1  0.69343900  0.11290100  0.38157000  1
  Ni  Ni35  1  0.35912200  0.51551000  0.39136300  1
  Cu  Cu36  1  0.55641729  0.52652641  0.71165872  1
  Ni  Ni37  1  0.12067900  0.64463700  0.79240200  1
  Cu  Cu38  1  0.41092589  0.15444291  0.58109128  1
  Ni  Ni39  1  0.25000000  0.21342200  0.18799700  1
  Cu  Cu40  1  0.12188200  0.19468094  0.23865582  1
  Cu  Cu41  1  0.59114231  0.83636792  0.40035626  1
  Ni  Ni42  1  0.85912200  0.48449000  0.60863700  1
  Ni  Ni43  1  0.94523800  0.54365100  0.71963500  1
  Ni  Ni44  1  0.25000000  0.63354900  0.20368400  1
  Cu  Cu45  1  0.52013708  0.62259656  0.16871889  1
  Cu  Cu46  1  0.80694327  0.08578697  0.38717920  1
  Ni  Ni47  1  0.87932100  0.35536300  0.20759800  1
  Ni  Ni48  1  0.02666100  0.82924900  0.34216200  1
  Ni  Ni49  1  0.66381500  0.09233000  0.04916600  1
  Ni  Ni50  1  0.94741100  0.14332900  0.00118800  1
  Cu  Cu51  1  0.02424634  0.38618243  0.88203044  1
  Cu  Cu52  1  0.91308889  0.83972495  0.36964973  1
  Cu  Cu53  1  0.37677810  0.20508179  0.26787892  1
  Ni  Ni54  1  0.29675700  0.53346400  0.93809700  1
  Ni  Ni55  1  0.83618500  0.09233000  0.04916600  1
  Ni  Ni56  1  0.37932100  0.64463700  0.79240200  1
  Cu  Cu57  1  0.05420270  0.86227393  0.96528600  1
  Ni  Ni58  1  0.33618500  0.90767000  0.95083400  1
  Cu  Cu59  1  0.13588627  0.52406526  0.38903117  1
  Cu  Cu60  1  0.64431973  0.46134921  0.62213350  1
  Ni  Ni61  1  0.55258900  0.14332900  0.00118800  1
  Ni  Ni62  1  0.05476200  0.45634900  0.28036500  1
  Ni  Ni63  1  0.30656100  0.88709900  0.61843000  1
  Cu  Cu64  1  0.44812595  0.45053388  0.27211839  1
  Cu  Cu65  1  0.19451026  0.87711313  0.63088915  1
  Ni  Ni66  1  0.97632500  0.62294400  0.14788400  1
  Cu  Cu67  1  0.96828724  0.17583958  0.66949747  1
  Ni  Ni68  1  0.70324300  0.46653600  0.06190300  1
  Ni  Ni69  1  0.62067900  0.35536300  0.20759800  1
  Ni  Ni70  1  0.44741100  0.85667100  0.99881200  1
  Ni  Ni71  1  0.79675700  0.46653600  0.06190300  1
  Ni  Ni72  1  0.75000000  0.78657800  0.81200300  1
  Ni  Ni73  1  0.47632500  0.37705600  0.85211600  1
