# generated using pymatgen
data_Cu2NiC
_symmetry_space_group_name_H-M   'P 1'
_cell_length_a   6.55082492
_cell_length_b   6.55082492
_cell_length_c   4.90342100
_cell_angle_alpha   90.00000000
_cell_angle_beta   90.00000000
_cell_angle_gamma   113.71629469
_symmetry_Int_Tables_number   1
_chemical_formula_structural   Cu2NiC
_chemical_formula_sum   'Cu4 Ni2 C2'
_cell_volume   192.65150327
_cell_formula_units_Z   2
loop_
 _symmetry_equiv_pos_site_id
 _symmetry_equiv_pos_as_xyz
  1  'x, y, z'
loop_
 _atom_site_type_symbol
 _atom_site_label
 _atom_site_symmetry_multiplicity
 _atom_site_fract_x
 _atom_site_fract_y
 _atom_site_fract_z
 _atom_site_occupancy
  C  C0  1  0.36378700  0.63621300  0.75000000  1
  C  C1  1  0.63621300  0.36378700  0.25000000  1
  Cu  Cu2  1  0.10418317  0.29402237  0.23668005  1
  Cu  Cu3  1  0.89762275  0.68046703  0.72522403  1
  Ni  Ni4  1  0.30974400  0.12148200  0.75000000  1
  Cu  Cu5  1  0.70410686  0.88678770  0.29438722  1
  Cu  Cu6  1  0.82974219  0.19863090  0.71893613  1
  Ni  Ni7  1  0.17537700  0.82462300  0.25000000  1
