# generated using pymatgen
data_Cu9Ni29C19
_symmetry_space_group_name_H-M   'P 1'
_cell_length_a   13.18310507
_cell_length_b   13.18310507
_cell_length_c   15.15897032
_cell_angle_alpha   90.00000000
_cell_angle_beta   90.00000000
_cell_angle_gamma   119.99999976
_symmetry_Int_Tables_number   1
_chemical_formula_structural   Cu9Ni29C19
_chemical_formula_sum   'Cu18 Ni58 C38'
_cell_volume   2281.58032158
_cell_formula_units_Z   2
loop_
 _symmetry_equiv_pos_site_id
 _symmetry_equiv_pos_as_xyz
  1  'x, y, z'
loop_
 _atom_site_type_symbol
 _atom_site_label
 _atom_site_symmetry_multiplicity
 _atom_site_fract_x
 _atom_site_fract_y
 _atom_site_fract_z
 _atom_site_occupancy
  C  C0  1  0.00000000  0.00000000  0.75000000  1
  C  C1  1  0.00000000  0.00000000  0.25000000  1
  C  C2  1  0.57441282  0.66753829  0.75000000  1
  C  C3  1  0.42558718  0.33246171  0.25000000  1
  C  C4  1  0.09312547  0.42558718  0.75000000  1
  C  C5  1  0.90687453  0.33246171  0.25000000  1
  C  C6  1  0.90687453  0.57441282  0.25000000  1
  C  C7  1  0.09312547  0.66753829  0.75000000  1
  C  C8  1  0.33246171  0.90687453  0.75000000  1
  C  C9  1  0.66753829  0.57441282  0.25000000  1
  C  C10  1  0.66753829  0.09312547  0.25000000  1
  C  C11  1  0.33246171  0.42558718  0.75000000  1
  C  C12  1  0.42558718  0.09312547  0.25000000  1
  C  C13  1  0.57441282  0.90687453  0.75000000  1
  C  C14  1  0.99970895  0.23606117  0.89614230  1
  C  C15  1  0.00029105  0.76393883  0.10385770  1
  C  C16  1  0.23635222  0.00029105  0.89614230  1
  C  C17  1  0.00029105  0.76393883  0.39614230  1
  C  C18  1  0.76364778  0.76393883  0.10385770  1
  C  C19  1  0.76364778  0.99970895  0.10385770  1
  C  C20  1  0.99970895  0.23606117  0.60385770  1
  C  C21  1  0.23635222  0.23606117  0.89614230  1
  C  C22  1  0.76393883  0.76364778  0.89614230  1
  C  C23  1  0.76364778  0.99970895  0.39614230  1
  C  C24  1  0.23606117  0.99970895  0.10385770  1
  C  C25  1  0.23606117  0.23635222  0.10385770  1
  C  C26  1  0.23635222  0.00029105  0.60385770  1
  C  C27  1  0.76393883  0.00029105  0.89614230  1
  C  C28  1  0.23635222  0.23606117  0.60385770  1
  C  C29  1  0.76364778  0.76393883  0.39614230  1
  C  C30  1  0.23606117  0.23635222  0.39614230  1
  C  C31  1  0.76393883  0.00029105  0.60385770  1
  C  C32  1  0.76393883  0.76364778  0.60385770  1
  C  C33  1  0.23606117  0.99970895  0.39614230  1
  C  C34  1  0.00029105  0.23635222  0.10385770  1
  C  C35  1  0.99970895  0.76364778  0.89614230  1
  C  C36  1  0.99970895  0.76364778  0.60385770  1
  C  C37  1  0.00029105  0.23635222  0.39614230  1
  Ni  Ni38  1  0.73550290  0.73550290  -0.00000000  1
  Ni  Ni39  1  0.26449710  0.26449710  -0.00000000  1
  Ni  Ni40  1  1.00000000  0.26449710  -0.00000000  1
  Ni  Ni41  1  0.26449710  0.26449710  0.50000000  1
  Ni  Ni42  1  0.00000000  0.73550290  -0.00000000  1
  Cu  Cu43  1  0.73670408  0.72548678  0.48551486  1
  Cu  Cu44  1  0.25946967  0.00265252  0.00474085  1
  Ni  Ni45  1  0.00000000  0.73550290  0.50000000  1
  Ni  Ni46  1  0.73550290  0.00000000  -0.00000000  1
  Cu  Cu47  1  0.00285330  0.26233573  0.50653340  1
  Ni  Ni48  1  0.73550290  0.00000000  0.50000000  1
  Ni  Ni49  1  0.26449710  1.00000000  0.50000000  1
  Ni  Ni50  1  0.90435268  0.09564732  0.37496808  1
  Ni  Ni51  1  0.09564732  0.90435268  0.62503192  1
  Cu  Cu52  1  0.18724794  0.08507031  0.38314795  1
  Ni  Ni53  1  0.09564732  0.90435268  0.87496808  1
  Cu  Cu54  1  0.81731810  0.91451771  0.63283894  1
  Ni  Ni55  1  0.90435268  0.09564732  0.12503192  1
  Ni  Ni56  1  0.90435268  0.80870536  0.37496808  1
  Ni  Ni57  1  0.80870536  0.90435268  0.87496808  1
  Cu  Cu58  1  0.09111835  0.18339393  0.62290274  1
  Ni  Ni59  1  0.19129464  0.09564732  0.12503192  1
  Ni  Ni60  1  0.09564732  0.19129464  0.87496808  1
  Ni  Ni61  1  0.90435268  0.80870536  0.12503192  1
  Ni  Ni62  1  0.65074283  0.67889752  0.83791020  1
  Cu  Cu63  1  0.35265517  0.32894086  0.16351223  1
  Ni  Ni64  1  0.02815470  0.34925717  0.83791020  1
  Cu  Cu65  1  0.35692875  0.32524638  0.34487381  1
  Cu  Cu66  1  0.95750182  0.31550516  0.17528527  1
  Ni  Ni67  1  0.97184530  0.65074283  0.16208980  1
  Ni  Ni68  1  0.65074283  0.67889752  0.66208980  1
  Cu  Cu69  1  0.02829795  0.67486591  0.83091689  1
  Ni  Ni70  1  0.32110248  0.97184530  0.83791020  1
  Ni  Ni71  1  0.97184530  0.65074283  0.33791020  1
  Ni  Ni72  1  0.67889752  0.65074283  0.16208980  1
  Ni  Ni73  1  0.67889752  0.02815470  0.16208980  1
  Ni  Ni74  1  0.02815470  0.34925717  0.66208980  1
  Cu  Cu75  1  0.32519702  0.34948707  0.84533350  1
  Ni  Ni76  1  0.02815470  0.67889752  0.66208980  1
  Ni  Ni77  1  0.97184530  0.32110248  0.33791020  1
  Ni  Ni78  1  0.67889752  0.02815470  0.33791020  1
  Ni  Ni79  1  0.32110248  0.34925717  0.66208980  1
  Ni  Ni80  1  0.32110248  0.97184530  0.66208980  1
  Ni  Ni81  1  0.67889752  0.65074283  0.33791020  1
  Ni  Ni82  1  0.34925717  0.02815470  0.16208980  1
  Cu  Cu83  1  0.66642341  0.99503260  0.83289103  1
  Ni  Ni84  1  0.65074283  0.97184530  0.66208980  1
  Cu  Cu85  1  0.34115264  0.03565516  0.34560697  1
  Ni  Ni86  1  0.45767622  0.54232378  0.75000000  1
  Ni  Ni87  1  0.54232378  0.45767622  0.25000000  1
  Ni  Ni88  1  0.08464757  0.54232378  0.75000000  1
  Ni  Ni89  1  0.91535243  0.45767622  0.25000000  1
  Cu  Cu90  1  0.46986279  0.92617657  0.73817468  1
  Cu  Cu91  1  0.55851430  0.09247569  0.24335606  1
  Ni  Ni92  1  0.22960585  0.77039415  0.75000000  1
  Ni  Ni93  1  0.77039415  0.22960585  0.25000000  1
  Ni  Ni94  1  0.54078829  0.77039415  0.75000000  1
  Ni  Ni95  1  0.45921171  0.22960585  0.25000000  1
  Cu  Cu96  1  0.23794061  0.46050223  0.75170779  1
  Ni  Ni97  1  0.77039415  0.54078829  0.25000000  1
  Ni  Ni98  1  0.66666700  0.33333300  0.93095717  1
  Ni  Ni99  1  0.33333300  0.66666700  0.06904283  1
  Ni  Ni100  1  0.33333300  0.66666700  0.43095717  1
  Cu  Cu101  1  0.65562278  0.31568563  0.57620042  1
  Cu  Cu102  1  0.88318524  0.12635063  0.86321603  1
  Ni  Ni103  1  0.12396496  0.87603504  0.13532476  1
  Ni  Ni104  1  0.24792991  0.12396496  0.86467524  1
  Ni  Ni105  1  0.12396496  0.87603504  0.36467524  1
  Ni  Ni106  1  0.75207009  0.87603504  0.13532476  1
  Ni  Ni107  1  0.87603504  0.12396496  0.63532476  1
  Ni  Ni108  1  0.87603504  0.75207009  0.86467524  1
  Ni  Ni109  1  0.75207009  0.87603504  0.36467524  1
  Ni  Ni110  1  0.12396496  0.24792991  0.13532476  1
  Ni  Ni111  1  0.24792991  0.12396496  0.63532476  1
  Ni  Ni112  1  0.12396496  0.24792991  0.36467524  1
  Ni  Ni113  1  0.87603504  0.75207009  0.63532476  1
