# generated using pymatgen
data_Cu3(NiC2)2
_symmetry_space_group_name_H-M   'P 1'
_cell_length_a   5.91683266
_cell_length_b   5.91683266
_cell_length_c   13.68466500
_cell_angle_alpha   90.00000000
_cell_angle_beta   90.00000000
_cell_angle_gamma   146.58710169
_symmetry_Int_Tables_number   1
_chemical_formula_structural   Cu3(NiC2)2
_chemical_formula_sum   'Cu6 Ni4 C8'
_cell_volume   263.81720070
_cell_formula_units_Z   2
loop_
 _symmetry_equiv_pos_site_id
 _symmetry_equiv_pos_as_xyz
  1  'x, y, z'
loop_
 _atom_site_type_symbol
 _atom_site_label
 _atom_site_symmetry_multiplicity
 _atom_site_fract_x
 _atom_site_fract_y
 _atom_site_fract_z
 _atom_site_occupancy
  C  C0  1  0.97062400  0.02937600  0.25801700  1
  C  C1  1  0.02937600  0.97062400  0.75801700  1
  C  C2  1  0.22266200  0.77733800  0.11224300  1
  C  C3  1  0.77733800  0.22266200  0.61224300  1
  C  C4  1  0.49450700  0.50549300  0.00335700  1
  C  C5  1  0.50549300  0.49450700  0.50335700  1
  C  C6  1  0.76588800  0.23411200  0.88602100  1
  C  C7  1  0.23411200  0.76588800  0.38602100  1
  Cu  Cu8  1  0.30858189  0.64106251  0.24651086  1
  Ni  Ni9  1  0.66937000  0.33063000  0.75127100  1
  Ni  Ni10  1  0.58612600  0.41387400  0.35757200  1
  Ni  Ni11  1  0.42228800  0.57771200  0.64583800  1
  Ni  Ni12  1  0.57771200  0.42228800  0.14583800  1
  Cu  Cu13  1  0.36541206  0.51103075  0.86268218  1
  Cu  Cu14  1  0.91921523  0.14851552  0.45414303  1
  Cu  Cu15  1  0.09107108  0.79765744  0.53658418  1
  Cu  Cu16  1  0.86508268  0.19166971  0.03342686  1
  Cu  Cu17  1  0.21478809  0.93394382  0.94084440  1
