# generated using pymatgen
data_CuC7
_symmetry_space_group_name_H-M   'P 1'
_cell_length_a   6.35903676
_cell_length_b   6.35903676
_cell_length_c   4.59009300
_cell_angle_alpha   90.00000000
_cell_angle_beta   90.00000000
_cell_angle_gamma   104.64210369
_symmetry_Int_Tables_number   1
_chemical_formula_structural   CuC7
_chemical_formula_sum   'Cu1 C7'
_cell_volume   179.58322116
_cell_formula_units_Z   1
loop_
 _symmetry_equiv_pos_site_id
 _symmetry_equiv_pos_as_xyz
  1  'x, y, z'
loop_
 _atom_site_type_symbol
 _atom_site_label
 _atom_site_symmetry_multiplicity
 _atom_site_fract_x
 _atom_site_fract_y
 _atom_site_fract_z
 _atom_site_occupancy
  C  C0  1  0.78434700  0.60738000  0.00000000  1
  C  C1  1  0.39262000  0.21565300  0.00000000  1
  C  C2  1  0.29656900  0.70343100  0.00000000  1
  C  C3  1  0.57417600  0.87890400  0.50000000  1
  C  C4  1  0.12109600  0.42582400  0.50000000  1
  C  C5  1  0.08961200  0.91038800  0.50000000  1
  Cu  Cu6  1  0.85530624  0.12808487  0.02927680  1
  C  C7  1  0.87692500  0.12307500  0.50000000  1
