# generated using pymatgen
data_Cu9C7
_symmetry_space_group_name_H-M   'P 1'
_cell_length_a   5.75930800
_cell_length_b   8.12849569
_cell_length_c   9.19497326
_cell_angle_alpha   109.99838272
_cell_angle_beta   105.19312661
_cell_angle_gamma   100.65121503
_symmetry_Int_Tables_number   1
_chemical_formula_structural   Cu9C7
_chemical_formula_sum   'Cu18 C14'
_cell_volume   372.05736127
_cell_formula_units_Z   2
loop_
 _symmetry_equiv_pos_site_id
 _symmetry_equiv_pos_as_xyz
  1  'x, y, z'
loop_
 _atom_site_type_symbol
 _atom_site_label
 _atom_site_symmetry_multiplicity
 _atom_site_fract_x
 _atom_site_fract_y
 _atom_site_fract_z
 _atom_site_occupancy
  C  C0  1  0.83387400  0.15337600  0.26828800  1
  C  C1  1  0.16612600  0.84662400  0.73171200  1
  C  C2  1  0.25523500  0.50295000  0.62895400  1
  C  C3  1  0.43876600  0.17734500  0.67854700  1
  C  C4  1  0.74476500  0.49705000  0.37104600  1
  C  C5  1  0.56123400  0.82265500  0.32145300  1
  C  C6  1  0.89398500  0.15399900  0.94570000  1
  C  C7  1  0.10601500  0.84600100  0.05430000  1
  C  C8  1  0.09923400  0.85286500  0.39661500  1
  C  C9  1  0.56579200  0.82816500  0.96890700  1
  C  C10  1  0.43420800  0.17183500  0.03109300  1
  C  C11  1  0.90076600  0.14713500  0.60338500  1
  C  C12  1  0.79931100  0.53734600  0.72678400  1
  C  C13  1  0.20068900  0.46265400  0.27321600  1
  Cu  Cu14  1  0.47452856  0.78463728  0.80825079  1
  Cu  Cu15  1  0.02369452  0.37963268  0.32899342  1
  Cu  Cu16  1  0.81187182  0.94689544  0.06195637  1
  Cu  Cu17  1  0.19633336  0.92298416  0.55748601  1
  Cu  Cu18  1  0.87254056  0.72775823  0.33227958  1
  Cu  Cu19  1  0.56310304  0.19988050  0.92242903  1
  Cu  Cu20  1  0.97078882  0.58447314  0.66500597  1
  Cu  Cu21  1  0.14633479  0.24823687  0.69228438  1
  Cu  Cu22  1  0.56007475  0.21082682  0.18790541  1
  Cu  Cu23  1  0.83115829  0.04254512  0.42765405  1
  Cu  Cu24  1  0.21952022  0.05115996  0.95097691  1
  Cu  Cu25  1  0.43697792  0.80682985  0.05782606  1
  Cu  Cu26  1  0.73807228  0.10311619  0.68935962  1
  Cu  Cu27  1  0.44955130  0.62178982  0.37601459  1
  Cu  Cu28  1  0.09890169  0.40541959  0.13260147  1
  Cu  Cu29  1  0.57131045  0.39384778  0.64544360  1
  Cu  Cu30  1  0.23985284  0.86378733  0.28121904  1
  Cu  Cu31  1  0.86851238  0.60795797  0.88164407  1
