# generated using pymatgen
data_Cu2NiC3
_symmetry_space_group_name_H-M   'P 1'
_cell_length_a   3.95126400
_cell_length_b   3.95126400
_cell_length_c   17.50148300
_cell_angle_alpha   90.00000000
_cell_angle_beta   90.00000000
_cell_angle_gamma   119.99999998
_symmetry_Int_Tables_number   1
_chemical_formula_structural   Cu2NiC3
_chemical_formula_sum   'Cu4 Ni2 C6'
_cell_volume   236.63423555
_cell_formula_units_Z   2
loop_
 _symmetry_equiv_pos_site_id
 _symmetry_equiv_pos_as_xyz
  1  'x, y, z'
loop_
 _atom_site_type_symbol
 _atom_site_label
 _atom_site_symmetry_multiplicity
 _atom_site_fract_x
 _atom_site_fract_y
 _atom_site_fract_z
 _atom_site_occupancy
  Cu  Cu0  1  0.71455394  0.37766429  0.53526153  1
  Ni  Ni1  1  0.33333300  0.66666700  0.03772200  1
  Cu  Cu2  1  0.68215289  0.32990656  0.95736030  1
  Cu  Cu3  1  0.65814600  0.36090937  0.24880626  1
  Cu  Cu4  1  0.30806810  0.62296233  0.75271871  1
  Ni  Ni5  1  0.33333300  0.66666700  0.46227800  1
  C  C6  1  0.00000000  0.00000000  0.41310400  1
  C  C7  1  0.00000000  0.00000000  0.91310400  1
  C  C8  1  0.00000000  0.00000000  0.08689600  1
  C  C9  1  0.33333300  0.66666700  0.25000000  1
  C  C10  1  0.66666700  0.33333300  0.75000000  1
  C  C11  1  0.00000000  0.00000000  0.58689600  1
