# generated using pymatgen
data_Cu7C4
_symmetry_space_group_name_H-M   'P 1'
_cell_length_a   8.78608700
_cell_length_b   7.41144000
_cell_length_c   9.77448213
_cell_angle_alpha   65.51327380
_cell_angle_beta   90.00000000
_cell_angle_gamma   90.00000000
_symmetry_Int_Tables_number   1
_chemical_formula_structural   Cu7C4
_chemical_formula_sum   'Cu28 C16'
_cell_volume   579.24274112
_cell_formula_units_Z   4
loop_
 _symmetry_equiv_pos_site_id
 _symmetry_equiv_pos_as_xyz
  1  'x, y, z'
loop_
 _atom_site_type_symbol
 _atom_site_label
 _atom_site_symmetry_multiplicity
 _atom_site_fract_x
 _atom_site_fract_y
 _atom_site_fract_z
 _atom_site_occupancy
  C  C0  1  0.07693100  0.72458400  0.89571000  1
  C  C1  1  0.57693100  0.27541600  0.60429000  1
  C  C2  1  0.92306900  0.27541600  0.10429000  1
  C  C3  1  0.42306900  0.72458400  0.39571000  1
  C  C4  1  0.94718800  0.18974800  0.67636700  1
  C  C5  1  0.44718800  0.81025200  0.82363300  1
  C  C6  1  0.05281200  0.81025200  0.32363300  1
  C  C7  1  0.55281200  0.18974800  0.17636700  1
  C  C8  1  0.77815900  0.56409500  0.74914600  1
  C  C9  1  0.27815900  0.43590500  0.75085400  1
  C  C10  1  0.22184100  0.43590500  0.25085400  1
  C  C11  1  0.72184100  0.56409500  0.24914600  1
  C  C12  1  0.72727100  0.98025900  0.95720500  1
  C  C13  1  0.22727100  0.01974100  0.54279500  1
  C  C14  1  0.27272900  0.01974100  0.04279500  1
  C  C15  1  0.77272900  0.98025900  0.45720500  1
  Cu  Cu16  1  0.72770864  0.14555027  0.04510097  1
  Cu  Cu17  1  0.25446076  0.85996098  0.45846187  1
  Cu  Cu18  1  0.25801912  0.85156967  0.97692093  1
  Cu  Cu19  1  0.74650020  0.11425473  0.56386930  1
  Cu  Cu20  1  0.59059370  0.65303797  0.78849228  1
  Cu  Cu21  1  0.10467880  0.33565213  0.72128750  1
  Cu  Cu22  1  0.36424859  0.34543349  0.22103659  1
  Cu  Cu23  1  0.89300494  0.65136175  0.27777776  1
  Cu  Cu24  1  0.92962128  0.50397802  0.91020788  1
  Cu  Cu25  1  0.40360949  0.44474933  0.61338443  1
  Cu  Cu26  1  0.09072441  0.44010632  0.14627291  1
  Cu  Cu27  1  0.58947170  0.52564544  0.38333235  1
  Cu  Cu28  1  0.86039808  0.78957903  0.58209866  1
  Cu  Cu29  1  0.33926759  0.21425857  0.94280345  1
  Cu  Cu30  1  0.12149283  0.25618787  0.39944641  1
  Cu  Cu31  1  0.63655546  0.72828293  0.09295995  1
  Cu  Cu32  1  0.90152006  0.03948003  0.33243749  1
  Cu  Cu33  1  0.44525550  0.99841518  0.16956677  1
  Cu  Cu34  1  0.08740671  0.95039817  0.67669838  1
  Cu  Cu35  1  0.58935531  0.05130913  0.79946297  1
  Cu  Cu36  1  0.73828536  0.36650961  0.21237725  1
  Cu  Cu37  1  0.21501777  0.63786446  0.28871040  1
  Cu  Cu38  1  0.28801417  0.61894491  0.79838782  1
  Cu  Cu39  1  0.77249601  0.38812910  0.70451940  1
  Cu  Cu40  1  0.59414439  0.90909992  0.41531241  1
  Cu  Cu41  1  0.11083624  0.05018720  0.11139371  1
  Cu  Cu42  1  0.40755902  0.07911897  0.59634305  1
  Cu  Cu43  1  0.89300474  0.92005570  0.92464555  1
