# generated using pymatgen
data_Cu2Ni3
_symmetry_space_group_name_H-M   'P 1'
_cell_length_a   7.45569215
_cell_length_b   7.45569215
_cell_length_c   7.45569201
_cell_angle_alpha   71.64448293
_cell_angle_beta   71.64448293
_cell_angle_gamma   71.64447533
_symmetry_Int_Tables_number   1
_chemical_formula_structural   Cu2Ni3
_chemical_formula_sum   'Cu6 Ni9'
_cell_volume   362.47703672
_cell_formula_units_Z   3
loop_
 _symmetry_equiv_pos_site_id
 _symmetry_equiv_pos_as_xyz
  1  'x, y, z'
loop_
 _atom_site_type_symbol
 _atom_site_label
 _atom_site_symmetry_multiplicity
 _atom_site_fract_x
 _atom_site_fract_y
 _atom_site_fract_z
 _atom_site_occupancy
  Ni  Ni0  1  0.00000000  0.00000000  0.00000000  1
  Ni  Ni1  1  0.79517800  0.79517800  0.79517800  1
  Ni  Ni2  1  0.20482200  0.20482200  0.20482200  1
  Ni  Ni3  1  0.16598100  0.39037400  0.66332200  1
  Ni  Ni4  1  0.66332200  0.16598100  0.39037400  1
  Ni  Ni5  1  0.39037400  0.66332200  0.16598100  1
  Ni  Ni6  1  0.83401900  0.60962600  0.33667800  1
  Ni  Ni7  1  0.33667800  0.83401900  0.60962600  1
  Ni  Ni8  1  0.60962600  0.33667800  0.83401900  1
  Cu  Cu9  1  0.95359100  0.16638700  0.59090600  1
  Cu  Cu10  1  0.59090600  0.95359100  0.16638700  1
  Cu  Cu11  1  0.16638700  0.59090600  0.95359100  1
  Cu  Cu12  1  0.04640900  0.83361300  0.40909400  1
  Cu  Cu13  1  0.40909400  0.04640900  0.83361300  1
  Cu  Cu14  1  0.83361300  0.40909400  0.04640900  1
