# generated using pymatgen
data_Cu6NiC4
_symmetry_space_group_name_H-M   'P 1'
_cell_length_a   5.83659014
_cell_length_b   5.83659014
_cell_length_c   6.17777392
_cell_angle_alpha   61.81069902
_cell_angle_beta   61.81069902
_cell_angle_gamma   60.00000000
_symmetry_Int_Tables_number   1
_chemical_formula_structural   Cu6NiC4
_chemical_formula_sum   'Cu6 Ni1 C4'
_cell_volume   152.75464647
_cell_formula_units_Z   1
loop_
 _symmetry_equiv_pos_site_id
 _symmetry_equiv_pos_as_xyz
  1  'x, y, z'
loop_
 _atom_site_type_symbol
 _atom_site_label
 _atom_site_symmetry_multiplicity
 _atom_site_fract_x
 _atom_site_fract_y
 _atom_site_fract_z
 _atom_site_occupancy
  C  C0  1  0.30039319  0.30039319  0.09882043  1
  C  C1  1  0.72697911  0.72697911  0.81906267  1
  Ni  Ni2  1  0.07290424  0.07290424  0.78128629  1
  C  C3  1  0.91250279  0.91250279  0.26249164  1
  C  C4  1  0.51387213  0.51387213  0.45838362  1
  Cu  Cu5  1  0.75578685  0.28777443  0.20065188  1
  Cu  Cu6  1  0.74089326  0.28202958  0.69504757  1
  Cu  Cu7  1  0.75578685  0.75578685  0.20065188  1
  Cu  Cu8  1  0.28202958  0.74089326  0.69504757  1
  Cu  Cu9  1  0.28777443  0.75578685  0.20065188  1
  Cu  Cu10  1  0.28202958  0.28202958  0.69504757  1
