# generated using pymatgen
data_Cu9(NiC2)2
_symmetry_space_group_name_H-M   'P 1'
_cell_length_a   6.18562600
_cell_length_b   6.44568217
_cell_length_c   7.48688203
_cell_angle_alpha   102.51358905
_cell_angle_beta   97.13334251
_cell_angle_gamma   102.41791505
_symmetry_Int_Tables_number   1
_chemical_formula_structural   Cu9(NiC2)2
_chemical_formula_sum   'Cu18 Ni4 C8'
_cell_volume   279.99494231
_cell_formula_units_Z   2
loop_
 _symmetry_equiv_pos_site_id
 _symmetry_equiv_pos_as_xyz
  1  'x, y, z'
loop_
 _atom_site_type_symbol
 _atom_site_label
 _atom_site_symmetry_multiplicity
 _atom_site_fract_x
 _atom_site_fract_y
 _atom_site_fract_z
 _atom_site_occupancy
  Ni  Ni0  1  0.11275900  0.32286400  0.64045800  1
  Ni  Ni1  1  0.45056800  0.90902200  0.71269200  1
  Ni  Ni2  1  0.54943200  0.09097800  0.28730800  1
  Ni  Ni3  1  0.88724100  0.67713600  0.35954200  1
  C  C4  1  0.00562800  0.85436300  0.81038600  1
  C  C5  1  0.26891200  0.66624100  0.01861500  1
  C  C6  1  0.37364100  0.64329300  0.34905900  1
  C  C7  1  0.33846400  0.31792300  0.07283300  1
  C  C8  1  0.66153600  0.68207700  0.92716700  1
  C  C9  1  0.62635900  0.35670700  0.65094100  1
  C  C10  1  0.73108800  0.33375900  0.98138500  1
  C  C11  1  0.99437200  0.14563700  0.18961400  1
  Cu  Cu12  1  0.06948900  0.95568700  0.67488800  1
  Cu  Cu13  1  0.13972200  0.71759600  0.85642300  1
  Cu  Cu14  1  0.22613300  0.42822100  0.95756000  1
  Cu  Cu15  1  0.21917100  0.59489800  0.47804200  1
  Cu  Cu16  1  0.23613700  0.73687100  0.21143000  1
  Cu  Cu17  1  0.18762600  0.13173300  0.12076100  1
  Cu  Cu18  1  0.42015700  0.18213700  0.55469800  1
  Cu  Cu19  1  0.49520200  0.20903300  0.97944600  1
  Cu  Cu20  1  0.53954600  0.53767600  0.74769000  1
  Cu  Cu21  1  0.46045400  0.46232400  0.25231000  1
  Cu  Cu22  1  0.50479800  0.79096700  0.02055400  1
  Cu  Cu23  1  0.57984300  0.81786300  0.44530200  1
  Cu  Cu24  1  0.81237400  0.86826700  0.87923900  1
  Cu  Cu25  1  0.76386300  0.26312900  0.78857000  1
  Cu  Cu26  1  0.78082900  0.40510200  0.52195800  1
  Cu  Cu27  1  0.77386700  0.57177900  0.04244000  1
  Cu  Cu28  1  0.86027800  0.28240400  0.14357700  1
  Cu  Cu29  1  0.93051100  0.04431300  0.32511200  1
