# generated using pymatgen
data_Cu3Ni3C4
_symmetry_space_group_name_H-M   'P 1'
_cell_length_a   5.34137200
_cell_length_b   5.34138171
_cell_length_c   5.34136541
_cell_angle_alpha   54.97786474
_cell_angle_beta   54.97772178
_cell_angle_gamma   54.97726950
_symmetry_Int_Tables_number   1
_chemical_formula_structural   Cu3Ni3C4
_chemical_formula_sum   'Cu3 Ni3 C4'
_cell_volume   95.16344244
_cell_formula_units_Z   1
loop_
 _symmetry_equiv_pos_site_id
 _symmetry_equiv_pos_as_xyz
  1  'x, y, z'
loop_
 _atom_site_type_symbol
 _atom_site_label
 _atom_site_symmetry_multiplicity
 _atom_site_fract_x
 _atom_site_fract_y
 _atom_site_fract_z
 _atom_site_occupancy
  C  C0  1  0.15771300  0.15771500  0.15771800  1
  C  C1  1  0.84228800  0.84228500  0.84228300  1
  C  C2  1  0.35590400  0.35590200  0.35590300  1
  C  C3  1  0.64409700  0.64409700  0.64409700  1
  Cu  Cu4  1  0.08781336  0.71224834  0.43134115  1
  Cu  Cu5  1  0.60872225  0.95112731  0.22069925  1
  Cu  Cu6  1  0.23685427  0.57177734  0.94213967  1
  Ni  Ni7  1  0.77326300  0.44071300  0.05378300  1
  Ni  Ni8  1  0.44071700  0.05378100  0.77326100  1
  Ni  Ni9  1  0.94621800  0.22673500  0.55928700  1
