# generated using pymatgen
data_Cu29Ni7C24
_symmetry_space_group_name_H-M   'P 1'
_cell_length_a   8.77188300
_cell_length_b   10.07480729
_cell_length_c   11.31029443
_cell_angle_alpha   106.09496291
_cell_angle_beta   89.91154083
_cell_angle_gamma   102.09578543
_symmetry_Int_Tables_number   1
_chemical_formula_structural   Cu29Ni7C24
_chemical_formula_sum   'Cu29 Ni7 C24'
_cell_volume   937.34473242
_cell_formula_units_Z   1
loop_
 _symmetry_equiv_pos_site_id
 _symmetry_equiv_pos_as_xyz
  1  'x, y, z'
loop_
 _atom_site_type_symbol
 _atom_site_label
 _atom_site_symmetry_multiplicity
 _atom_site_fract_x
 _atom_site_fract_y
 _atom_site_fract_z
 _atom_site_occupancy
  C  C0  1  0.40157100  0.64980500  0.48568000  1
  C  C1  1  0.25120600  0.00243100  0.49203900  1
  C  C2  1  0.08324700  0.35046200  0.66405800  1
  C  C3  1  0.07769600  0.34202700  0.01296400  1
  C  C4  1  0.43092900  0.64939800  0.84266600  1
  C  C5  1  0.59842900  0.35019500  0.51432000  1
  C  C6  1  0.74810500  0.00222500  0.01001000  1
  C  C7  1  0.56907100  0.35060200  0.15733400  1
  C  C8  1  0.74879400  0.99756900  0.50796100  1
  C  C9  1  0.91675300  0.64953800  0.33594200  1
  C  C10  1  0.25189500  0.99777500  0.98999000  1
  C  C11  1  0.92230400  0.65797300  0.98703600  1
  C  C12  1  0.75556000  0.70524000  0.71091800  1
  C  C13  1  0.10071200  0.70401900  0.64035400  1
  C  C14  1  0.25994400  0.70383000  0.13874200  1
  C  C15  1  0.24444000  0.29476000  0.28908200  1
  C  C16  1  0.89928800  0.29598100  0.35964600  1
  C  C17  1  0.39450700  0.29082400  0.78321300  1
  C  C18  1  0.49684600  0.99522800  0.24939000  1
  C  C19  1  0.60549300  0.70917600  0.21678700  1
  C  C20  1  0.74005600  0.29617000  0.86125800  1
  C  C21  1  0.99715300  0.99358000  0.74848900  1
  C  C22  1  0.00284700  0.00642000  0.25151100  1
  C  C23  1  0.50315400  0.00477200  0.75061000  1
  Cu  Cu24  1  0.58381524  0.38417008  0.83006784  1
  Cu  Cu25  1  0.75571600  0.73256207  0.86380249  1
  Ni  Ni26  1  0.26952600  0.39664100  0.85887600  1
  Cu  Cu27  1  0.79344415  0.38118245  0.31100935  1
  Cu  Cu28  1  0.70764112  0.60381855  0.13796830  1
  Cu  Cu29  1  0.19451394  0.13063221  0.32156562  1
  Ni  Ni30  1  0.95472900  0.91333800  0.35908400  1
  Cu  Cu31  1  0.31093177  0.88525498  0.26411623  1
  Cu  Cu32  1  0.89667621  0.60798463  0.63657740  1
  Cu  Cu33  1  0.98654551  0.07802676  0.91113167  1
  Ni  Ni34  1  0.00530000  0.91579700  0.09714800  1
  Ni  Ni35  1  0.54239000  0.08540600  0.40354500  1
  Cu  Cu36  1  0.41928555  0.40104616  0.35371468  1
  Cu  Cu37  1  0.68483287  0.12649971  0.74984850  1
  Cu  Cu38  1  0.22152879  0.71505346  0.97897860  1
  Cu  Cu39  1  0.81642375  0.88324002  0.67515322  1
  Cu  Cu40  1  0.92700561  0.41299705  0.84398708  1
  Cu  Cu41  1  0.62235438  0.88859969  0.17426196  1
  Cu  Cu42  1  0.39395833  0.27486496  0.62334094  1
  Ni  Ni43  1  0.04527100  0.08666200  0.64091600  1
  Cu  Cu44  1  0.06930542  0.58861743  0.13908105  1
  Cu  Cu45  1  0.73626071  0.24599672  0.99699184  1
  Cu  Cu46  1  0.84462032  0.12491629  0.22148669  1
  Cu  Cu47  1  0.17217407  0.78083844  0.50067436  1
  Cu  Cu48  1  0.40100175  0.14192282  0.81179887  1
  Cu  Cu49  1  0.50047757  0.91855026  0.86484814  1
  Cu  Cu50  1  0.08773640  0.39035941  0.36184023  1
  Cu  Cu51  1  0.23309631  0.63066514  0.68082960  1
  Cu  Cu52  1  0.85317401  0.26892381  0.49973495  1
  Ni  Ni53  1  0.63161400  0.73656500  0.37577700  1
  Cu  Cu54  1  0.58161257  0.60515864  0.63584849  1
  Cu  Cu55  1  0.46875760  0.92133923  0.59251104  1
  Ni  Ni56  1  0.40964800  0.60924500  0.15694700  1
  Cu  Cu57  1  0.24376220  0.28159172  0.13752012  1
  Cu  Cu58  1  0.49985384  0.08971403  0.13396834  1
  Cu  Cu59  1  0.14284040  0.87133189  0.76936769  1
