# generated using pymatgen
data_Cu28Ni44C51
_symmetry_space_group_name_H-M   'P 1'
_cell_length_a   9.09235488
_cell_length_b   9.06594609
_cell_length_c   22.08267752
_cell_angle_alpha   89.25351451
_cell_angle_beta   90.43626066
_cell_angle_gamma   119.89554777
_symmetry_Int_Tables_number   1
_chemical_formula_structural   Cu28Ni44C51
_chemical_formula_sum   'Cu28 Ni44 C51'
_cell_volume   1577.94112644
_cell_formula_units_Z   1
loop_
 _symmetry_equiv_pos_site_id
 _symmetry_equiv_pos_as_xyz
  1  'x, y, z'
loop_
 _atom_site_type_symbol
 _atom_site_label
 _atom_site_symmetry_multiplicity
 _atom_site_fract_x
 _atom_site_fract_y
 _atom_site_fract_z
 _atom_site_occupancy
  C  C0  1  0.62325529  0.99725424  0.25068470  1
  C  C1  1  0.36826635  0.36223723  0.25242658  1
  C  C2  1  0.00801041  0.63901724  0.24905458  1
  C  C3  1  0.64694284  0.63434607  0.74452111  1
  C  C4  1  0.99016970  0.35428731  0.74598109  1
  C  C5  1  0.29509166  0.33958506  0.58742175  1
  C  C6  1  0.03170873  0.70137426  0.58818810  1
  C  C7  1  0.67459638  0.95962082  0.58511125  1
  C  C8  1  0.29286139  0.95673615  0.08213061  1
  C  C9  1  0.66331219  0.70289866  0.07936808  1
  C  C10  1  0.04080724  0.33635301  0.07978139  1
  C  C11  1  0.97494676  0.68117091  0.90813602  1
  C  C12  1  0.32030649  0.29295599  0.90787336  1
  C  C13  1  0.32239004  0.02026873  0.40959455  1
  C  C14  1  0.69818694  0.67870941  0.41471291  1
  C  C15  1  0.99413685  0.01536420  0.49738870  1
  C  C16  1  0.98497210  -0.00000752  0.99414577  1
  C  C17  1  0.65026516  0.30206642  0.82399230  1
  C  C18  1  0.67116863  0.32472484  0.32937886  1
  C  C19  1  0.33249352  0.67213291  0.16343664  1
  C  C20  1  0.33413536  0.67131113  0.66315220  1
  C  C21  1  0.66749387  0.32814777  0.98080005  1
  C  C22  1  0.67749680  0.33747977  0.48044146  1
  C  C23  1  0.33558346  0.67578205  0.81521524  1
  C  C24  1  0.01021011  0.01039572  0.35201320  1
  C  C25  1  0.99669113  0.00241801  0.84524464  1
  C  C26  1  0.99559689  0.00281191  0.66095030  1
  C  C27  1  0.00893415  0.99782512  0.14749113  1
  C  C28  1  0.66967096  0.33715876  0.68465935  1
  C  C29  1  0.65590127  0.32194718  0.17466419  1
  C  C30  1  0.33739664  0.66787990  0.01292320  1
  C  C31  1  0.33042859  0.65453189  0.50858138  1
  C  C32  1  0.32855474  0.67241174  0.32803314  1
  C  C33  1  0.29819059  0.99857665  0.25001014  1
  C  C34  1  0.30015121  0.29872175  0.75110701  1
  C  C35  1  0.00136948  0.70479113  0.74993437  1
  C  C36  1  0.70282802  0.00193167  0.74784127  1
  C  C37  1  0.96718796  0.33576807  0.58724267  1
  C  C38  1  0.66470142  0.62958686  0.58423008  1
  C  C39  1  0.96024491  0.62672119  0.08649790  1
  C  C40  1  0.66759487  0.03278554  0.08800853  1
  C  C41  1  0.36962997  0.33552629  0.08513510  1
  C  C42  1  0.63250671  0.66979852  0.91964108  1
  C  C43  1  0.03772482  0.36963181  0.91946719  1
  C  C44  1  0.33149229  0.96247243  0.92069288  1
  C  C45  1  0.63295813  0.96443089  0.41649977  1
  C  C46  1  0.33277050  0.36709801  0.41668079  1
  C  C47  1  0.03679645  0.66963334  0.41595788  1
  C  C48  1  0.70311353  0.70332811  0.25008282  1
  C  C49  1  0.00008697  0.29533085  0.24844796  1
  C  C50  1  0.37425715  0.03988278  0.58334496  1
  Cu  Cu51  1  0.20093473  0.05345479  0.30947730  1
  Cu  Cu52  1  0.79255133  0.79569613  0.30148919  1
  Ni  Ni53  1  0.97695799  0.18430362  0.30168103  1
  Ni  Ni54  1  0.21585065  0.19763196  0.80927804  1
  Ni  Ni55  1  0.98125519  0.78992702  0.80644090  1
  Ni  Ni56  1  0.82139042  0.03060740  0.80133492  1
  Ni  Ni57  1  0.76748224  0.96108946  0.68869937  1
  Cu  Cu58  1  0.20742944  0.24042346  0.69766943  1
  Ni  Ni59  1  0.02394544  0.80648837  0.69052922  1
  Ni  Ni60  1  0.78547588  0.80562981  0.19452860  1
  Ni  Ni61  1  0.01618193  0.21807030  0.19155145  1
  Ni  Ni62  1  0.19100397  0.97469073  0.19187191  1
  Ni  Ni63  1  0.88720986  0.35777581  0.64479119  1
  Ni  Ni64  1  0.47977079  0.12572683  0.63589133  1
  Ni  Ni65  1  0.64166418  0.52172203  0.64154915  1
  Ni  Ni66  1  0.87524070  0.52056345  0.14431640  1
  Cu  Cu67  1  0.65994557  0.12684459  0.14189764  1
  Cu  Cu68  1  0.48972310  0.37847282  0.14480217  1
  Ni  Ni69  1  0.46995344  0.31773561  0.03026187  1
  Ni  Ni70  1  0.84777575  0.52967873  0.02971081  1
  Cu  Cu71  1  0.69008260  0.14389828  0.03448944  1
  Cu  Cu72  1  0.43467862  0.12228408  0.51984871  1
  Cu  Cu73  1  0.67601669  0.52172514  0.52717691  1
  Ni  Ni74  1  0.84554719  0.31640176  0.53244229  1
  Ni  Ni75  1  0.55234000  0.68594870  0.97810511  1
  Cu  Cu76  1  0.12218900  0.43124752  0.97663531  1
  Cu  Cu77  1  0.31089149  0.86926757  0.97900529  1
  Ni  Ni78  1  0.54755433  0.85502166  0.47359114  1
  Ni  Ni79  1  0.31680219  0.44684084  0.47558168  1
  Ni  Ni80  1  0.14661398  0.69379241  0.47238068  1
  Ni  Ni81  1  0.10847866  0.64141343  0.35714255  1
  Ni  Ni82  1  0.52279654  0.89168812  0.35877296  1
  Cu  Cu83  1  0.39116343  0.49863301  0.35421170  1
  Cu  Cu84  1  0.13466083  0.49077157  0.86116409  1
  Ni  Ni85  1  0.35048981  0.86543208  0.86631442  1
  Ni  Ni86  1  0.51402385  0.64351644  0.86402761  1
  Ni  Ni87  1  0.00926816  0.82515751  0.41284894  1
  Cu  Cu88  1  0.81543305  0.97516035  0.40950969  1
  Ni  Ni89  1  0.18314770  0.18363978  0.41251967  1
  Cu  Cu90  1  0.01732907  0.19592790  0.91417468  1
  Cu  Cu91  1  0.19196736  0.98764506  0.92543402  1
  Cu  Cu92  1  0.80820759  0.79789192  0.92199915  1
  Cu  Cu93  1  0.97917756  0.16587968  0.58219849  1
  Ni  Ni94  1  0.20546514  0.02900737  0.58381705  1
  Ni  Ni95  1  0.83107290  0.80372240  0.58252381  1
  Cu  Cu96  1  0.94706537  0.80527792  0.08881957  1
  Ni  Ni97  1  0.83270351  0.02272914  0.08708238  1
  Cu  Cu98  1  0.18613629  0.18250195  0.07841220  1
  Cu  Cu99  1  0.67832152  0.15537494  0.74592283  1
  Ni  Ni100  1  0.48303590  0.33192680  0.74655114  1
  Ni  Ni101  1  0.84408188  0.52295552  0.74844547  1
  Ni  Ni102  1  0.68919860  0.53179433  0.24863522  1
  Cu  Cu103  1  0.84324029  0.31408183  0.24950764  1
  Ni  Ni104  1  0.47939102  0.16205314  0.24716294  1
  Cu  Cu105  1  0.63085718  0.49194361  0.92309668  1
  Ni  Ni106  1  0.86088056  0.36309481  0.92165182  1
  Cu  Cu107  1  0.47777366  0.13077157  0.91672174  1
  Cu  Cu108  1  0.63490954  0.14850160  0.42701813  1
  Cu  Cu109  1  0.50784727  0.36076085  0.42431196  1
  Ni  Ni110  1  0.85217171  0.50935177  0.42234317  1
  Ni  Ni111  1  0.34942510  0.49449189  0.07889719  1
  Ni  Ni112  1  0.13899287  0.64686399  0.08202490  1
  Cu  Cu113  1  0.49917195  0.84297338  0.07504258  1
  Ni  Ni114  1  0.35290040  0.86642537  0.57971392  1
  Ni  Ni115  1  0.50603608  0.65170268  0.57915694  1
  Ni  Ni116  1  0.14327522  0.49804096  0.57951789  1
  Ni  Ni117  1  0.31691396  0.83560905  0.25420152  1
  Ni  Ni118  1  0.52919845  0.68167433  0.25214629  1
  Cu  Cu119  1  0.14912796  0.45501167  0.24470075  1
  Ni  Ni120  1  0.31536513  0.48272108  0.75607796  1
  Cu  Cu121  1  0.16725713  0.67914910  0.75131239  1
  Ni  Ni122  1  0.52428879  0.83611144  0.75745510  1
