# generated using pymatgen
data_CuC
_symmetry_space_group_name_H-M   'P 1'
_cell_length_a   4.56773679
_cell_length_b   4.56773679
_cell_length_c   4.60374019
_cell_angle_alpha   81.44973386
_cell_angle_beta   81.44973386
_cell_angle_gamma   81.66451265
_symmetry_Int_Tables_number   1
_chemical_formula_structural   CuC
_chemical_formula_sum   'Cu3 C3'
_cell_volume   93.18586749
_cell_formula_units_Z   3
loop_
 _symmetry_equiv_pos_site_id
 _symmetry_equiv_pos_as_xyz
  1  'x, y, z'
loop_
 _atom_site_type_symbol
 _atom_site_label
 _atom_site_symmetry_multiplicity
 _atom_site_fract_x
 _atom_site_fract_y
 _atom_site_fract_z
 _atom_site_occupancy
  C  C0  1  0.89997634  0.89997634  0.90193192  1
  C  C1  1  0.25803438  0.25803438  0.26311223  1
  C  C2  1  0.54133799  0.54133799  0.54512906  1
  Cu  Cu3  1  0.47684650  0.99412446  0.57964395  1
  Cu  Cu4  1  0.08530760  0.54417253  0.45665025  1
  Cu  Cu5  1  0.53332992  0.51158825  0.02187482  1
