# generated using pymatgen
data_Cu2Ni3C82
_symmetry_space_group_name_H-M   'P 1'
_cell_length_a   17.70827324
_cell_length_b   17.70827324
_cell_length_c   6.18963173
_cell_angle_alpha   88.81701221
_cell_angle_beta   88.81701221
_cell_angle_gamma   22.96805340
_symmetry_Int_Tables_number   1
_chemical_formula_structural   Cu2Ni3C82
_chemical_formula_sum   'Cu2 Ni3 C82'
_cell_volume   757.23022114
_cell_formula_units_Z   1
loop_
 _symmetry_equiv_pos_site_id
 _symmetry_equiv_pos_as_xyz
  1  'x, y, z'
loop_
 _atom_site_type_symbol
 _atom_site_label
 _atom_site_symmetry_multiplicity
 _atom_site_fract_x
 _atom_site_fract_y
 _atom_site_fract_z
 _atom_site_occupancy
  Ni  Ni0  1  0.50000000  0.50000000  0.00000000  1
  Ni  Ni1  1  0.16685100  0.16685100  0.24759400  1
  Ni  Ni2  1  0.83314900  0.83314900  0.75240600  1
  C  C3  1  0.70449000  0.70449000  0.62500800  1
  C  C4  1  0.29551000  0.29551000  0.37499200  1
  C  C5  1  0.04827900  0.04827900  0.65126500  1
  C  C6  1  0.95172100  0.95172100  0.34873500  1
  C  C7  1  0.58776800  0.58776800  0.94670700  1
  C  C8  1  0.41223200  0.41223200  0.05329300  1
  C  C9  1  0.49646000  0.25971100  0.91730700  1
  C  C10  1  0.74028900  0.50354000  0.08269300  1
  C  C11  1  0.50354000  0.74028900  0.08269300  1
  C  C12  1  0.25971100  0.49646000  0.91730700  1
  C  C13  1  0.63390700  0.63390700  0.84553700  1
  C  C14  1  0.36609300  0.36609300  0.15446300  1
  C  C15  1  0.33931200  0.57019100  0.35105700  1
  C  C16  1  0.42980900  0.66068800  0.64894300  1
  C  C17  1  0.66068800  0.42980900  0.64894300  1
  C  C18  1  0.57019100  0.33931200  0.35105700  1
  C  C19  1  0.78888900  0.29388000  0.27947500  1
  C  C20  1  0.70612000  0.21111000  0.72052500  1
  C  C21  1  0.21111000  0.70612000  0.72052500  1
  C  C22  1  0.29388000  0.78888900  0.27947500  1
  C  C23  1  0.22731400  0.86356300  0.03670500  1
  C  C24  1  0.13643700  0.77268600  0.96329500  1
  C  C25  1  0.77268600  0.13643700  0.96329500  1
  C  C26  1  0.86356300  0.22731400  0.03670500  1
  C  C27  1  0.09953500  0.69359600  0.58574700  1
  C  C28  1  0.90046500  0.30640400  0.41425300  1
  C  C29  1  0.96638600  0.56781600  0.79758900  1
  C  C30  1  0.69359600  0.09953500  0.58574700  1
  C  C31  1  0.18021400  0.53558600  0.56036100  1
  C  C32  1  0.46441400  0.81978600  0.43963900  1
  C  C33  1  0.81978600  0.46441400  0.43963900  1
  C  C34  1  0.53558600  0.18021400  0.56036100  1
  C  C35  1  0.11282800  0.11282800  0.91446600  1
  C  C36  1  0.88717200  0.88717200  0.08553400  1
  C  C37  1  0.15524900  0.15524900  0.80347600  1
  C  C38  1  0.84475100  0.84475100  0.19652400  1
  C  C39  1  0.53545000  0.04890800  0.99786100  1
  C  C40  1  0.95109200  0.46455000  0.00213900  1
  C  C41  1  0.46455000  0.95109200  0.00213900  1
  C  C42  1  0.04890800  0.53545000  0.99786100  1
  C  C43  1  0.56781600  0.96638600  0.79758900  1
  C  C44  1  0.03361400  0.43218400  0.20241100  1
  C  C45  1  0.43218400  0.03361400  0.20241100  1
  C  C46  1  0.99204400  0.99204400  0.31929800  1
  C  C47  1  0.00795600  0.00795600  0.68070200  1
  C  C48  1  0.27907300  0.27907300  0.58458600  1
  C  C49  1  0.72092700  0.72092700  0.41541400  1
  C  C50  1  0.91304200  0.68110000  0.37511400  1
  C  C51  1  0.31890000  0.08695800  0.62488600  1
  C  C52  1  0.08695800  0.31890000  0.62488600  1
  C  C53  1  0.68110000  0.91304200  0.37511400  1
  C  C54  1  0.30640400  0.90046500  0.41425300  1
  Cu  Cu55  1  0.61653100  0.61653100  0.98763500  1
  Cu  Cu56  1  0.38346900  0.38346900  0.01236500  1
  C  C57  1  0.53844400  0.53844400  0.73573500  1
  C  C58  1  0.46155600  0.46155600  0.26426500  1
  C  C59  1  0.32365400  0.74725400  0.12835400  1
  C  C60  1  0.25274600  0.67634600  0.87164600  1
  C  C61  1  0.67634600  0.25274600  0.87164600  1
  C  C62  1  0.74725400  0.32365400  0.12835400  1
  C  C63  1  0.09642700  0.64472500  0.65514800  1
  C  C64  1  0.35527500  0.90357300  0.34485200  1
  C  C65  1  0.90357300  0.35527500  0.34485200  1
  C  C66  1  0.64472500  0.09642700  0.65514800  1
  C  C67  1  0.14108800  0.14108800  0.94402500  1
  C  C68  1  0.85891200  0.85891200  0.05597500  1
  C  C69  1  0.58283000  0.00571600  0.84534100  1
  C  C70  1  0.99428400  0.41717000  0.15465900  1
  C  C71  1  0.41717000  0.99428400  0.15465900  1
  C  C72  1  0.00571600  0.58283000  0.84534100  1
  C  C73  1  0.18926600  0.18926600  0.56979000  1
  C  C74  1  0.81073400  0.81073400  0.43021000  1
  C  C75  1  0.09898900  0.46402300  0.26248400  1
  C  C76  1  0.53597700  0.90101100  0.73751600  1
  C  C77  1  0.90101100  0.53597700  0.73751600  1
  C  C78  1  0.46402300  0.09898900  0.26248400  1
  C  C79  1  0.66011500  0.66011500  0.59784900  1
  C  C80  1  0.33988500  0.33988500  0.40215100  1
  C  C81  1  0.06469100  0.06469100  0.88142900  1
  C  C82  1  0.93530900  0.93530900  0.11857100  1
  C  C83  1  0.12312700  0.75899800  0.47545100  1
  C  C84  1  0.24100200  0.87687300  0.52454900  1
  C  C85  1  0.87687300  0.24100200  0.52454900  1
  C  C86  1  0.75899800  0.12312700  0.47545100  1
