# generated using pymatgen
data_Cu137Ni7C78
_symmetry_space_group_name_H-M   'P 1'
_cell_length_a   17.78739324
_cell_length_b   8.88609139
_cell_length_c   22.77786343
_cell_angle_alpha   89.84878072
_cell_angle_beta   89.51441675
_cell_angle_gamma   120.03489229
_symmetry_Int_Tables_number   1
_chemical_formula_structural   Cu137Ni7C78
_chemical_formula_sum   'Cu137 Ni7 C78'
_cell_volume   3116.62519125
_cell_formula_units_Z   1
loop_
 _symmetry_equiv_pos_site_id
 _symmetry_equiv_pos_as_xyz
  1  'x, y, z'
loop_
 _atom_site_type_symbol
 _atom_site_label
 _atom_site_symmetry_multiplicity
 _atom_site_fract_x
 _atom_site_fract_y
 _atom_site_fract_z
 _atom_site_occupancy
  C  C0  1  0.99759333  0.62700638  0.24855067  1
  C  C1  1  0.50218548  0.61171460  0.24154941  1
  C  C2  1  0.00386464  0.38749198  0.73980699  1
  C  C3  1  0.49833866  0.37331292  0.74769411  1
  C  C4  1  0.67627360  0.33507019  0.91415847  1
  C  C5  1  0.17309923  0.02142390  0.41865549  1
  C  C6  1  0.99298028  -0.00194743  0.50488265  1
  C  C7  1  0.50237498  0.00181257  0.50275373  1
  C  C8  1  0.00233580  0.00241314  0.99809599  1
  C  C9  1  0.49214507  0.98550375  0.00171128  1
  C  C10  1  0.30081418  0.29051021  0.83866340  1
  C  C11  1  0.84232619  0.37053840  0.83821191  1
  C  C12  1  0.33718062  0.31085826  0.34149878  1
  C  C13  1  0.81351262  0.32857310  0.34630739  1
  C  C14  1  0.18192716  0.65464713  0.15774295  1
  C  C15  1  0.66281694  0.65663667  0.15820375  1
  C  C16  1  0.16146020  0.64661701  0.66598998  1
  C  C17  1  0.68481662  0.71687254  0.66068037  1
  C  C18  1  0.99350769  0.00079974  0.35744603  1
  C  C19  1  0.49336354  0.98566808  0.85621385  1
  C  C20  1  0.31302348  0.32421726  0.68403724  1
  C  C21  1  0.83058651  0.31632572  0.67404158  1
  C  C22  1  0.33067447  0.34688433  0.17390451  1
  C  C23  1  0.82450116  0.31808564  0.17795881  1
  C  C24  1  0.84140060  0.34411961  0.98921731  1
  C  C25  1  0.34076247  0.34065850  0.49060042  1
  C  C26  1  0.16899846  0.66498991  0.31256651  1
  C  C27  1  0.67886660  0.65977968  0.31714838  1
  C  C28  1  0.17743736  0.69028167  0.81243521  1
  C  C29  1  0.67084737  0.67594609  0.81165567  1
  C  C30  1  0.13778844  0.27560559  0.75636617  1
  C  C31  1  0.98634256  0.34460954  0.58094431  1
  C  C32  1  0.67738450  0.00655837  0.58466518  1
  C  C33  1  0.48833425  0.62841632  0.08183653  1
  C  C34  1  0.17847645  0.35025325  0.08496783  1
  C  C35  1  0.81851771  0.67914346  0.91495369  1
  C  C36  1  0.17806120  0.97042207  0.92259567  1
  C  C37  1  0.31361319  0.95787690  0.41659367  1
  C  C38  1  0.67721391  0.37999095  0.42187277  1
  C  C39  1  0.50540837  0.02764833  0.36692456  1
  C  C40  1  0.01470565  0.98295792  0.86216085  1
  C  C41  1  0.00418785  0.04108615  0.64721554  1
  C  C42  1  0.50772506  -0.00186838  0.64466915  1
  C  C43  1  0.00764104  0.01742085  0.14394397  1
  C  C44  1  0.49501940  0.97800837  0.14155754  1
  C  C45  1  0.32006511  0.33742722  0.99249185  1
  C  C46  1  0.81936462  0.30755141  0.49469562  1
  C  C47  1  0.16003907  0.65367342  0.01189243  1
  C  C48  1  0.67038791  0.68055042  0.01135058  1
  C  C49  1  0.17018927  0.66405575  0.51555002  1
  C  C50  1  0.66687754  0.65800870  0.51852278  1
  C  C51  1  0.14306118  0.00124145  0.24602121  1
  C  C52  1  0.63404745  0.00169855  0.25091639  1
  C  C53  1  0.36631510  0.72870465  0.24987766  1
  C  C54  1  0.85800790  0.72154932  0.24020422  1
  C  C55  1  0.99946955  0.28994428  0.24235856  1
  C  C56  1  0.49790251  0.26880033  0.25174775  1
  C  C57  1  0.64339479  0.28607934  0.74624315  1
  C  C58  1  0.99566812  0.72128667  0.75002829  1
  C  C59  1  0.50100636  0.70988748  0.74198738  1
  C  C60  1  0.36097098  -0.00362089  0.73898608  1
  C  C61  1  0.86066595  -0.00134535  0.74649939  1
  C  C62  1  0.49553906  0.33265007  0.58877598  1
  C  C63  1  0.16722828  0.00581127  0.58018288  1
  C  C64  1  0.33438123  0.66295276  0.58378371  1
  C  C65  1  0.83238636  0.63778753  0.58045239  1
  C  C66  1  0.99548621  0.66011811  0.08985732  1
  C  C67  1  0.33409620  0.02524716  0.08376462  1
  C  C68  1  0.83387617  0.00597402  0.08512759  1
  C  C69  1  0.66859700  0.32717832  0.08232367  1
  C  C70  1  0.31233612  0.65406766  0.92492892  1
  C  C71  1  0.02228163  0.36531336  0.91582668  1
  C  C72  1  0.51581890  0.37827982  0.92035387  1
  C  C73  1  0.66710846  0.96902627  0.92088175  1
  C  C74  1  0.81120548  0.97090821  0.42477483  1
  C  C75  1  0.16748452  0.36817543  0.42116042  1
  C  C76  1  0.01467986  0.65202897  0.41978573  1
  C  C77  1  0.52161053  0.68101058  0.41164322  1
  Cu  Cu78  1  0.10408948  0.99504903  0.29725518  1
  Cu  Cu79  1  0.59911112  0.01730022  0.31186235  1
  Cu  Cu80  1  0.41466505  0.82532665  0.29405018  1
  Cu  Cu81  1  0.89526292  0.79102923  0.29726672  1
  Cu  Cu82  1  0.50051068  0.18156171  0.31429091  1
  Cu  Cu83  1  0.99731367  0.20789407  0.28630417  1
  Cu  Cu84  1  0.07974948  0.15234659  0.81271491  1
  Cu  Cu85  1  0.60344348  0.17093193  0.81067900  1
  Cu  Cu86  1  0.50035463  0.81399290  0.79028459  1
  Cu  Cu87  1  0.98558148  0.79614386  0.80580755  1
  Cu  Cu88  1  0.39979628  0.01193147  0.79638891  1
  Cu  Cu89  1  0.89543035  0.97547489  0.79798810  1
  Cu  Cu90  1  0.40657088  0.97544762  0.68723510  1
  Cu  Cu91  1  0.89860774  0.99244907  0.68844287  1
  Cu  Cu92  1  0.09117398  0.18832701  0.68700413  1
  Ni  Ni93  1  0.58656842  0.18093665  0.69505294  1
  Cu  Cu94  1  0.00889966  0.84005730  0.70007678  1
  Cu  Cu95  1  0.49701784  0.81973685  0.69304273  1
  Cu  Cu96  1  0.39445073  0.80832197  0.19634785  1
  Cu  Cu97  1  0.90474534  0.82329239  0.17777589  1
  Cu  Cu98  1  0.02052202  0.20309388  0.19452654  1
  Cu  Cu99  1  0.50820475  0.18411398  0.20496932  1
  Cu  Cu100  1  0.09571131  0.97967862  0.18239299  1
  Cu  Cu101  1  0.57108670  0.96597109  0.18508922  1
  Cu  Cu102  1  0.45987932  0.34579128  0.63917123  1
  Cu  Cu103  1  0.94536986  0.36373003  0.64710988  1
  Ni  Ni104  1  0.22255618  0.08694302  0.63087970  1
  Cu  Cu105  1  0.72379128  0.05132517  0.64540193  1
  Cu  Cu106  1  0.31507837  0.54633533  0.63256315  1
  Cu  Cu107  1  0.80239047  0.51309870  0.63349163  1
  Ni  Ni108  1  0.46816745  0.54033907  0.14568145  1
  Cu  Cu109  1  0.96278950  0.57437365  0.14762483  1
  Cu  Cu110  1  0.32800367  0.08185555  0.14273404  1
  Cu  Cu111  1  0.81604892  0.08977995  0.13447175  1
  Cu  Cu112  1  0.22354068  0.39558399  0.14654172  1
  Cu  Cu113  1  0.72624738  0.37470868  0.13784518  1
  Cu  Cu114  1  0.22338860  0.30636472  0.02384554  1
  Cu  Cu115  1  0.70996542  0.29222321  0.03368153  1
  Ni  Ni116  1  0.41063477  0.51219728  0.03261375  1
  Cu  Cu117  1  0.94996818  0.58517515  0.03917044  1
  Ni  Ni118  1  0.35226311  0.14183880  0.03271336  1
  Cu  Cu119  1  0.85239696  0.13867869  0.04048271  1
  Cu  Cu120  1  0.21355995  0.12968458  0.52019129  1
  Cu  Cu121  1  0.71597433  0.15105650  0.53336977  1
  Cu  Cu122  1  0.34779500  0.59411598  0.52729859  1
  Cu  Cu123  1  0.85059028  0.53039439  0.53639726  1
  Cu  Cu124  1  0.44826787  0.28981774  0.53428668  1
  Cu  Cu125  1  0.90783512  0.29465437  0.52240337  1
  Cu  Cu126  1  0.27075821  0.67006846  0.96990941  1
  Cu  Cu127  1  0.75779307  0.70594570  0.97297203  1
  Cu  Cu128  1  0.06368360  0.44038016  0.96971115  1
  Cu  Cu129  1  0.60618768  0.48856823  0.95951954  1
  Cu  Cu130  1  0.15754642  0.85206647  0.98069197  1
  Cu  Cu131  1  0.65509328  0.85376308  0.98155212  1
  Cu  Cu132  1  0.25512411  0.86026318  0.47724999  1
  Cu  Cu133  1  0.76449616  0.85434805  0.47498122  1
  Cu  Cu134  1  0.16917790  0.46298737  0.47226567  1
  Cu  Cu135  1  0.65625737  0.46766693  0.47624730  1
  Cu  Cu136  1  0.07359617  0.68395604  0.46441556  1
  Cu  Cu137  1  0.58842318  0.69890526  0.45382512  1
  Cu  Cu138  1  0.04603429  0.63685082  0.36593794  1
  Cu  Cu139  1  0.56014110  0.66657772  0.35659223  1
  Cu  Cu140  1  0.24651223  0.86876310  0.37189846  1
  Cu  Cu141  1  0.77041526  0.89365829  0.37235274  1
  Cu  Cu142  1  0.14529749  0.41174926  0.36787959  1
  Cu  Cu143  1  0.70720018  0.47416451  0.35595890  1
  Cu  Cu144  1  0.05740776  0.48637833  0.86629372  1
  Cu  Cu145  1  0.56071693  0.47212787  0.86751269  1
  Cu  Cu146  1  0.19651668  0.90158759  0.85636163  1
  Cu  Cu147  1  0.65586745  0.84880436  0.86815411  1
  Cu  Cu148  1  0.26675874  0.62604435  0.85888653  1
  Cu  Cu149  1  0.75805294  0.62607780  0.85007284  1
  Cu  Cu150  1  0.02624788  0.83684478  0.42029728  1
  Cu  Cu151  1  0.53837816  0.86763923  0.39957379  1
  Cu  Cu152  1  0.41646971  0.98321064  0.41009815  1
  Cu  Cu153  1  0.91043528  0.02313279  0.42891949  1
  Ni  Ni154  1  0.09035071  0.18908942  0.42574381  1
  Cu  Cu155  1  0.57428727  0.17465360  0.41505423  1
  Cu  Cu156  1  0.01484409  0.17506862  0.92846019  1
  Cu  Cu157  1  0.52260477  0.21461751  0.92367566  1
  Cu  Cu158  1  0.09649717  0.00263965  0.92676431  1
  Cu  Cu159  1  0.58588833  0.99328544  0.92516125  1
  Cu  Cu160  1  0.39576606  0.80156908  0.93591597  1
  Cu  Cu161  1  0.92412444  0.84381536  0.90132831  1
  Cu  Cu162  1  0.50008757  0.14953524  0.59464076  1
  Cu  Cu163  1  0.98914721  0.13195204  0.58402304  1
  Cu  Cu164  1  0.07905095  0.99757006  0.59799624  1
  Cu  Cu165  1  0.58200013  0.99112883  0.59526274  1
  Cu  Cu166  1  0.40743135  0.86485507  0.59001154  1
  Cu  Cu167  1  0.89683611  0.82118758  0.57956400  1
  Cu  Cu168  1  0.48698031  0.82057675  0.09249715  1
  Cu  Cu169  1  0.00636305  0.85928809  0.09990638  1
  Cu  Cu170  1  0.42811877  0.02845586  0.10074246  1
  Cu  Cu171  1  0.92326058  0.00383368  0.09033789  1
  Cu  Cu172  1  0.08991923  0.19622189  0.08915881  1
  Cu  Cu173  1  0.58446630  0.17687991  0.08559920  1
  Cu  Cu174  1  0.36434718  0.16819558  0.73405519  1
  Cu  Cu175  1  0.85860258  0.17747150  0.74664803  1
  Cu  Cu176  1  0.24053707  0.29657005  0.75624593  1
  Cu  Cu177  1  0.72551113  0.29274328  0.74869414  1
  Cu  Cu178  1  0.41853460  0.54878493  0.73059170  1
  Cu  Cu179  1  0.92788542  0.52246897  0.76090352  1
  Cu  Cu180  1  0.36396896  0.56102161  0.24990357  1
  Cu  Cu181  1  0.85096794  0.54793334  0.24576743  1
  Cu  Cu182  1  0.43506453  0.29629926  0.25184648  1
  Cu  Cu183  1  0.91190343  0.32446427  0.24516628  1
  Cu  Cu184  1  0.20958590  0.13603705  0.23132206  1
  Cu  Cu185  1  0.71577397  0.17332113  0.25811839  1
  Cu  Cu186  1  0.33277146  0.52113935  0.94380937  1
  Cu  Cu187  1  0.82807058  0.52462042  0.93043732  1
  Cu  Cu188  1  0.43584329  0.35059586  0.92575564  1
  Cu  Cu189  1  0.92814117  0.33096361  0.92375752  1
  Cu  Cu190  1  0.27050498  0.18181106  0.94075026  1
  Cu  Cu191  1  0.75090764  0.13228280  0.92573994  1
  Cu  Cu192  1  0.33674609  0.17877878  0.42296885  1
  Cu  Cu193  1  0.82556937  0.16762108  0.43395821  1
  Cu  Cu194  1  0.24876285  0.35429950  0.41639275  1
  Cu  Cu195  1  0.75502757  0.34578882  0.44375154  1
  Cu  Cu196  1  0.43322251  0.53846616  0.41784086  1
  Cu  Cu197  1  0.93809597  0.49541928  0.42888848  1
  Cu  Cu198  1  0.15138170  0.50751787  0.06071311  1
  Cu  Cu199  1  0.66322117  0.47807929  0.07012571  1
  Cu  Cu200  1  0.07721154  0.66638619  0.08249586  1
  Cu  Cu201  1  0.56820807  0.67846375  0.06220424  1
  Cu  Cu202  1  0.25812546  0.84060687  0.08129742  1
  Cu  Cu203  1  0.73478133  0.81372022  0.07324803  1
  Cu  Cu204  1  0.16176530  0.83524090  0.56866388  1
  Cu  Cu205  1  0.64516844  0.79350992  0.56470233  1
  Cu  Cu206  1  0.25116345  0.69770012  0.57975998  1
  Ni  Ni207  1  0.75509698  0.66496719  0.57013730  1
  Cu  Cu208  1  0.08480397  0.50422060  0.55846403  1
  Cu  Cu209  1  0.57244999  0.50435144  0.58134309  1
  Cu  Cu210  1  0.13812757  0.83817310  0.24300705  1
  Cu  Cu211  1  0.64900919  0.83964748  0.23824572  1
  Cu  Cu212  1  0.27869428  0.70282210  0.25209108  1
  Cu  Cu213  1  0.77038124  0.70731645  0.22722676  1
  Cu  Cu214  1  0.05479355  0.42111051  0.23857633  1
  Cu  Cu215  1  0.59208243  0.43278295  0.24885504  1
  Cu  Cu216  1  0.14219928  0.45873960  0.75504529  1
  Cu  Cu217  1  0.65059489  0.46712637  0.74705477  1
  Cu  Cu218  1  0.07214803  0.71775345  0.75685124  1
  Cu  Cu219  1  0.57319074  0.66838266  0.73820366  1
  Cu  Cu220  1  0.27231991  0.85115359  0.74005184  1
  Cu  Cu221  1  0.76896983  0.87769298  0.75159364  1
