# generated using pymatgen
data_Cu24Ni3C10
_symmetry_space_group_name_H-M   'P 1'
_cell_length_a   17.78739324
_cell_length_b   8.88609139
_cell_length_c   22.77786343
_cell_angle_alpha   89.84878072
_cell_angle_beta   89.51441675
_cell_angle_gamma   120.03489229
_symmetry_Int_Tables_number   1
_chemical_formula_structural   Cu24Ni3C10
_chemical_formula_sum   'Cu144 Ni18 C60'
_cell_volume   3116.62519125
_cell_formula_units_Z   6
loop_
 _symmetry_equiv_pos_site_id
 _symmetry_equiv_pos_as_xyz
  1  'x, y, z'
loop_
 _atom_site_type_symbol
 _atom_site_label
 _atom_site_symmetry_multiplicity
 _atom_site_fract_x
 _atom_site_fract_y
 _atom_site_fract_z
 _atom_site_occupancy
  Ni  Ni0  1  0.99759333  0.62700638  0.24855067  1
  Ni  Ni1  1  0.50218548  0.61171460  0.24154941  1
  Ni  Ni2  1  0.00386464  0.38749198  0.73980699  1
  Ni  Ni3  1  0.49833866  0.37331292  0.74769411  1
  Ni  Ni4  1  0.67627360  0.33507019  0.91415847  1
  Ni  Ni5  1  0.17309923  0.02142390  0.41865549  1
  Ni  Ni6  1  0.99298028  -0.00194743  0.50488265  1
  Ni  Ni7  1  0.50237498  0.00181257  0.50275373  1
  Ni  Ni8  1  0.00233580  0.00241314  0.99809599  1
  Ni  Ni9  1  0.49214507  0.98550375  0.00171128  1
  Ni  Ni10  1  0.30081418  0.29051021  0.83866340  1
  Ni  Ni11  1  0.84232619  0.37053840  0.83821191  1
  Ni  Ni12  1  0.33718062  0.31085826  0.34149878  1
  Ni  Ni13  1  0.81351262  0.32857310  0.34630739  1
  Ni  Ni14  1  0.18192716  0.65464713  0.15774295  1
  Ni  Ni15  1  0.66281694  0.65663667  0.15820375  1
  Ni  Ni16  1  0.16146020  0.64661701  0.66598998  1
  Ni  Ni17  1  0.68481662  0.71687254  0.66068037  1
  C  C18  1  0.99350769  0.00079974  0.35744603  1
  C  C19  1  0.49336354  0.98566808  0.85621385  1
  C  C20  1  0.31302348  0.32421726  0.68403724  1
  C  C21  1  0.83058651  0.31632572  0.67404158  1
  C  C22  1  0.33067447  0.34688433  0.17390451  1
  C  C23  1  0.82450116  0.31808564  0.17795881  1
  C  C24  1  0.84140060  0.34411961  0.98921731  1
  C  C25  1  0.34076247  0.34065850  0.49060042  1
  C  C26  1  0.16899846  0.66498991  0.31256651  1
  C  C27  1  0.67886660  0.65977968  0.31714838  1
  C  C28  1  0.17743736  0.69028167  0.81243521  1
  C  C29  1  0.67084737  0.67594609  0.81165567  1
  C  C30  1  0.13778844  0.27560559  0.75636617  1
  C  C31  1  0.98634256  0.34460954  0.58094431  1
  C  C32  1  0.67738450  0.00655837  0.58466518  1
  C  C33  1  0.48833425  0.62841632  0.08183653  1
  C  C34  1  0.17847645  0.35025325  0.08496783  1
  C  C35  1  0.81851771  0.67914346  0.91495369  1
  C  C36  1  0.17806120  0.97042207  0.92259567  1
  C  C37  1  0.31361319  0.95787690  0.41659367  1
  C  C38  1  0.67721391  0.37999095  0.42187277  1
  C  C39  1  0.50540837  0.02764833  0.36692456  1
  C  C40  1  0.01470565  0.98295792  0.86216085  1
  C  C41  1  0.00418785  0.04108615  0.64721554  1
  C  C42  1  0.50772506  -0.00186838  0.64466915  1
  C  C43  1  0.00764104  0.01742085  0.14394397  1
  C  C44  1  0.49501940  0.97800837  0.14155754  1
  C  C45  1  0.32006511  0.33742722  0.99249185  1
  C  C46  1  0.81936462  0.30755141  0.49469562  1
  C  C47  1  0.16003907  0.65367342  0.01189243  1
  C  C48  1  0.67038791  0.68055042  0.01135058  1
  C  C49  1  0.17018927  0.66405575  0.51555002  1
  C  C50  1  0.66687754  0.65800870  0.51852278  1
  C  C51  1  0.14306118  0.00124145  0.24602121  1
  C  C52  1  0.63404745  0.00169855  0.25091639  1
  C  C53  1  0.36631510  0.72870465  0.24987766  1
  C  C54  1  0.85800790  0.72154932  0.24020422  1
  C  C55  1  0.99946955  0.28994428  0.24235856  1
  C  C56  1  0.49790251  0.26880033  0.25174775  1
  C  C57  1  0.64339479  0.28607934  0.74624315  1
  C  C58  1  0.99566812  0.72128667  0.75002829  1
  C  C59  1  0.50100636  0.70988748  0.74198738  1
  C  C60  1  0.36097098  -0.00362089  0.73898608  1
  C  C61  1  0.86066595  -0.00134535  0.74649939  1
  C  C62  1  0.49553906  0.33265007  0.58877598  1
  C  C63  1  0.16722828  0.00581127  0.58018288  1
  C  C64  1  0.33438123  0.66295276  0.58378371  1
  C  C65  1  0.83238636  0.63778753  0.58045239  1
  C  C66  1  0.99548621  0.66011811  0.08985732  1
  C  C67  1  0.33409620  0.02524716  0.08376462  1
  C  C68  1  0.83387617  0.00597402  0.08512759  1
  C  C69  1  0.66859700  0.32717832  0.08232367  1
  C  C70  1  0.31233612  0.65406766  0.92492892  1
  C  C71  1  0.02228163  0.36531336  0.91582668  1
  C  C72  1  0.51581890  0.37827982  0.92035387  1
  C  C73  1  0.66710846  0.96902627  0.92088175  1
  C  C74  1  0.81120548  0.97090821  0.42477483  1
  C  C75  1  0.16748452  0.36817543  0.42116042  1
  C  C76  1  0.01467986  0.65202897  0.41978573  1
  C  C77  1  0.52161053  0.68101058  0.41164322  1
  Cu  Cu78  1  0.10188127  0.00389119  0.30214072  1
  Cu  Cu79  1  0.58973201  0.01410471  0.30509146  1
  Cu  Cu80  1  0.41914986  0.82658841  0.30006881  1
  Cu  Cu81  1  0.90322418  0.80064252  0.29491615  1
  Cu  Cu82  1  0.49444190  0.18057178  0.31003959  1
  Cu  Cu83  1  0.99827928  0.19946742  0.29593910  1
  Cu  Cu84  1  0.08213204  0.15460844  0.81449967  1
  Cu  Cu85  1  0.60307931  0.20097735  0.80289344  1
  Cu  Cu86  1  0.49891649  0.79757217  0.79558138  1
  Cu  Cu87  1  0.98760544  0.79160187  0.80937809  1
  Cu  Cu88  1  0.40599622  0.00703740  0.79376310  1
  Cu  Cu89  1  0.90993111  -0.00415415  0.79649280  1
  Cu  Cu90  1  0.41139895  0.98652404  0.68640880  1
  Cu  Cu91  1  0.89902728  0.98510532  0.68613326  1
  Cu  Cu92  1  0.08513150  0.19006421  0.69214509  1
  Cu  Cu93  1  0.58656842  0.18093665  0.69505294  1
  Cu  Cu94  1  -0.00308286  0.82432258  0.69877001  1
  Cu  Cu95  1  0.50296126  0.80927040  0.68740008  1
  Cu  Cu96  1  0.40528691  0.81795910  0.19003291  1
  Cu  Cu97  1  0.90982342  0.82698144  0.18737651  1
  Cu  Cu98  1  0.00028642  0.19392436  0.18792456  1
  Cu  Cu99  1  0.50341601  0.17659527  0.19954145  1
  Cu  Cu100  1  0.08614471  0.99218766  0.19450044  1
  Cu  Cu101  1  0.58490794  0.98438314  0.19450440  1
  Cu  Cu102  1  0.45712250  0.35766455  0.64227565  1
  Cu  Cu103  1  0.96545888  0.39272222  0.64396896  1
  Cu  Cu104  1  0.22255618  0.08694302  0.63087970  1
  Cu  Cu105  1  0.73064845  0.05635522  0.64339131  1
  Cu  Cu106  1  0.32292078  0.56063383  0.63698993  1
  Cu  Cu107  1  0.81196799  0.53688222  0.63488560  1
  Cu  Cu108  1  0.46816745  0.54033907  0.14568145  1
  Cu  Cu109  1  0.95674837  0.56046933  0.14442298  1
  Cu  Cu110  1  0.31897041  0.09081903  0.13850949  1
  Cu  Cu111  1  0.82134902  0.08152891  0.13881204  1
  Cu  Cu112  1  0.23151485  0.40689505  0.14402893  1
  Cu  Cu113  1  0.72134088  0.35290585  0.13418592  1
  Cu  Cu114  1  0.22526520  0.30169761  0.03116245  1
  Cu  Cu115  1  0.70338572  0.29132372  0.02864218  1
  Cu  Cu116  1  0.41063477  0.51219728  0.03261375  1
  Cu  Cu117  1  0.94022849  0.57917410  0.03911638  1
  Cu  Cu118  1  0.35226311  0.14183880  0.03271336  1
  Cu  Cu119  1  0.84907323  0.11345701  0.03294317  1
  Cu  Cu120  1  0.20246408  0.10955660  0.52588131  1
  Cu  Cu121  1  0.72308168  0.14918360  0.53056362  1
  Cu  Cu122  1  0.34915370  0.58981061  0.53073096  1
  Cu  Cu123  1  0.84543305  0.54773088  0.52937818  1
  Cu  Cu124  1  0.44327681  0.30539355  0.53665094  1
  Cu  Cu125  1  0.90983077  0.30692886  0.53087162  1
  Cu  Cu126  1  0.26235616  0.66644986  0.97587968  1
  Cu  Cu127  1  0.76634469  0.70581453  0.97590562  1
  Cu  Cu128  1  0.07433270  0.45945065  0.97067797  1
  Cu  Cu129  1  0.58395453  0.48162857  0.96636847  1
  Cu  Cu130  1  0.15626333  0.82758324  0.97797928  1
  Cu  Cu131  1  0.66147446  0.86530937  0.97505623  1
  Cu  Cu132  1  0.26226820  0.82845099  0.47622331  1
  Cu  Cu133  1  0.76076566  0.85327849  0.47437326  1
  Cu  Cu134  1  0.16329029  0.46335899  0.47392467  1
  Cu  Cu135  1  0.65289748  0.48141341  0.47433150  1
  Cu  Cu136  1  0.08156750  0.68051148  0.46508371  1
  Cu  Cu137  1  0.57488994  0.69835969  0.46365758  1
  Cu  Cu138  1  0.04399229  0.63309299  0.36030159  1
  Cu  Cu139  1  0.55887109  0.66280701  0.35615534  1
  Cu  Cu140  1  0.25262614  0.88467722  0.36072634  1
  Cu  Cu141  1  0.77046884  0.90634085  0.36773680  1
  Cu  Cu142  1  0.16635005  0.45116507  0.36600007  1
  Cu  Cu143  1  0.70366384  0.47584669  0.35972885  1
  Cu  Cu144  1  0.06317920  0.46595538  0.86240251  1
  Cu  Cu145  1  0.54626145  0.45863366  0.86156632  1
  Cu  Cu146  1  0.20393862  0.92181080  0.86190346  1
  Cu  Cu147  1  0.66584990  0.87983024  0.86695855  1
  Cu  Cu148  1  0.27095404  0.63867984  0.86856262  1
  Cu  Cu149  1  0.75168106  0.62148473  0.86203635  1
  Cu  Cu150  1  0.01113206  0.81695940  0.42186161  1
  Cu  Cu151  1  0.51940112  0.85185705  0.41071239  1
  Cu  Cu152  1  0.41092420  0.96648292  0.41126043  1
  Cu  Cu153  1  0.89883443  0.99133187  0.42725112  1
  Cu  Cu154  1  0.09035071  0.18908942  0.42574381  1
  Cu  Cu155  1  0.58514977  0.18479358  0.41598328  1
  Cu  Cu156  1  0.01948066  0.19691637  0.91847347  1
  Cu  Cu157  1  0.51209008  0.20632460  0.92254658  1
  Cu  Cu158  1  0.08573907  0.97894367  0.91847508  1
  Cu  Cu159  1  0.59011513  0.99288649  0.92539122  1
  Cu  Cu160  1  0.39959405  0.80773753  0.92812422  1
  Cu  Cu161  1  0.91565717  0.86308927  0.90674740  1
  Cu  Cu162  1  0.50726116  0.17513065  0.59325436  1
  Cu  Cu163  1  0.99348895  0.16028271  0.58558746  1
  Cu  Cu164  1  0.07691023  0.97939329  0.59012250  1
  Cu  Cu165  1  0.57930810  -0.00933428  0.59030081  1
  Cu  Cu166  1  0.41135561  0.84457247  0.58941321  1
  Cu  Cu167  1  0.91023450  0.81178168  0.58437691  1
  Cu  Cu168  1  0.49688033  0.82851944  0.08751267  1
  Cu  Cu169  1  0.00583856  0.84028195  0.09355886  1
  Cu  Cu170  1  0.41706684  0.00983467  0.08933485  1
  Cu  Cu171  1  0.91187103  -0.01905417  0.09067150  1
  Cu  Cu172  1  0.08020674  0.17028919  0.09057069  1
  Cu  Cu173  1  0.57822460  0.16895066  0.09189064  1
  Cu  Cu174  1  0.35765157  0.15847638  0.73456503  1
  Cu  Cu175  1  0.85952733  0.16483351  0.74726799  1
  Cu  Cu176  1  0.22903805  0.28089361  0.75716623  1
  Cu  Cu177  1  0.72954392  0.30669939  0.74182477  1
  Cu  Cu178  1  0.42355654  0.53462169  0.74078014  1
  Cu  Cu179  1  0.91901884  0.54280505  0.74945639  1
  Cu  Cu180  1  0.36257699  0.55861945  0.24989813  1
  Cu  Cu181  1  0.85091929  0.54765098  0.23766976  1
  Cu  Cu182  1  0.41896318  0.28569594  0.25203883  1
  Cu  Cu183  1  0.92094102  0.30854454  0.24189231  1
  Cu  Cu184  1  0.22905178  0.15327931  0.24150597  1
  Cu  Cu185  1  0.72050062  0.15875847  0.24857918  1
  Cu  Cu186  1  0.31965290  0.49230402  0.93076988  1
  Cu  Cu187  1  0.83099751  0.51421291  0.92739425  1
  Cu  Cu188  1  0.43181227  0.36330510  0.93280099  1
  Cu  Cu189  1  0.93487430  0.34219361  0.92171223  1
  Cu  Cu190  1  0.26273951  0.16603520  0.93946858  1
  Cu  Cu191  1  0.74577751  0.14135214  0.92252824  1
  Cu  Cu192  1  0.32843370  0.15007640  0.42704825  1
  Cu  Cu193  1  0.81822545  0.14572016  0.43129520  1
  Cu  Cu194  1  0.24612838  0.35164763  0.42261478  1
  Cu  Cu195  1  0.76085352  0.35423243  0.43864288  1
  Cu  Cu196  1  0.43234639  0.53549615  0.41824289  1
  Cu  Cu197  1  0.92948886  0.49908645  0.43109499  1
  Cu  Cu198  1  0.15884857  0.51022121  0.06701127  1
  Cu  Cu199  1  0.65815111  0.48179728  0.07458859  1
  Cu  Cu200  1  0.08331303  0.68212670  0.08185151  1
  Cu  Cu201  1  0.58700413  0.66548564  0.06218282  1
  Cu  Cu202  1  0.26111138  0.84695270  0.07332809  1
  Cu  Cu203  1  0.75411157  0.82921728  0.07911340  1
  Cu  Cu204  1  0.15781934  0.82877160  0.57311390  1
  Cu  Cu205  1  0.65737570  0.80764928  0.56549785  1
  Cu  Cu206  1  0.25322738  0.67757654  0.57903045  1
  Cu  Cu207  1  0.75509698  0.66496719  0.57013730  1
  Cu  Cu208  1  0.08559768  0.50161890  0.56159431  1
  Cu  Cu209  1  0.58511524  0.48735454  0.58093383  1
  Cu  Cu210  1  0.14394153  0.83500163  0.24080753  1
  Cu  Cu211  1  0.64093208  0.84266193  0.25199056  1
  Cu  Cu212  1  0.27957614  0.70996733  0.24875748  1
  Cu  Cu213  1  0.77239561  0.70780508  0.23661876  1
  Cu  Cu214  1  0.07712079  0.46595537  0.23816337  1
  Cu  Cu215  1  0.57619018  0.44606909  0.25114132  1
  Cu  Cu216  1  0.14062445  0.45985786  0.75338271  1
  Cu  Cu217  1  0.64384355  0.45331340  0.74111111  1
  Cu  Cu218  1  0.07613432  0.70971080  0.74906997  1
  Cu  Cu219  1  0.57948511  0.69259889  0.73864009  1
  Cu  Cu220  1  0.27504061  0.84161917  0.73561116  1
  Cu  Cu221  1  0.77222174  0.84892209  0.74415174  1
