# generated using pymatgen
data_Cu7NiC32
_symmetry_space_group_name_H-M   'P 1'
_cell_length_a   12.92582600
_cell_length_b   12.92582600
_cell_length_c   12.92582600
_cell_angle_alpha   90.00000000
_cell_angle_beta   90.00000000
_cell_angle_gamma   90.00000000
_symmetry_Int_Tables_number   1
_chemical_formula_structural   Cu7NiC32
_chemical_formula_sum   'Cu7 Ni1 C32'
_cell_volume   2159.60794342
_cell_formula_units_Z   1
loop_
 _symmetry_equiv_pos_site_id
 _symmetry_equiv_pos_as_xyz
  1  'x, y, z'
loop_
 _atom_site_type_symbol
 _atom_site_label
 _atom_site_symmetry_multiplicity
 _atom_site_fract_x
 _atom_site_fract_y
 _atom_site_fract_z
 _atom_site_occupancy
  Cu  Cu0  1  0.13298304  0.12751741  0.14009129  1
  Cu  Cu1  1  0.36085850  0.86553779  0.62941706  1
  Cu  Cu2  1  0.63659903  0.36041891  0.86631471  1
  Cu  Cu3  1  0.88050631  0.64363384  0.36949734  1
  Cu  Cu4  1  0.88451357  0.86552625  0.88487794  1
  Cu  Cu5  1  0.62118147  0.13599006  0.36185612  1
  Cu  Cu6  1  0.37152111  0.64048163  0.14338300  1
  Ni  Ni7  1  0.13074300  0.36925700  0.63074300  1
  C  C8  1  0.24413900  0.24413900  0.24413900  1
  C  C9  1  0.25586100  0.75586100  0.74413900  1
  C  C10  1  0.74413900  0.25586100  0.75586100  1
  C  C11  1  0.75586100  0.74413900  0.25586100  1
  C  C12  1  0.75586100  0.75586100  0.75586100  1
  C  C13  1  0.74413900  0.24413900  0.25586100  1
  C  C14  1  0.25586100  0.74413900  0.24413900  1
  C  C15  1  0.24413900  0.25586100  0.74413900  1
  C  C16  1  0.02420300  0.01055200  0.24471900  1
  C  C17  1  0.24471900  0.02420300  0.01055200  1
  C  C18  1  0.01055200  0.24471900  0.02420300  1
  C  C19  1  0.48944800  0.75528100  0.52420300  1
  C  C20  1  0.74471900  0.47579700  0.98944800  1
  C  C21  1  0.98944800  0.74471900  0.47579700  1
  C  C22  1  0.25528100  0.97579700  0.51055200  1
  C  C23  1  0.75528100  0.52420300  0.48944800  1
  C  C24  1  0.51055200  0.25528100  0.97579700  1
  C  C25  1  0.52420300  0.48944800  0.75528100  1
  C  C26  1  0.97579700  0.51055200  0.25528100  1
  C  C27  1  0.47579700  0.98944800  0.74471900  1
  C  C28  1  0.97579700  0.98944800  0.75528100  1
  C  C29  1  0.75528100  0.97579700  0.98944800  1
  C  C30  1  0.98944800  0.75528100  0.97579700  1
  C  C31  1  0.51055200  0.24471900  0.47579700  1
  C  C32  1  0.25528100  0.52420300  0.01055200  1
  C  C33  1  0.01055200  0.25528100  0.52420300  1
  C  C34  1  0.74471900  0.02420300  0.48944800  1
  C  C35  1  0.24471900  0.47579700  0.51055200  1
  C  C36  1  0.48944800  0.74471900  0.02420300  1
  C  C37  1  0.47579700  0.51055200  0.24471900  1
  C  C38  1  0.02420300  0.48944800  0.74471900  1
  C  C39  1  0.52420300  0.01055200  0.25528100  1
