# generated using pymatgen
data_Cu38NiC18
_symmetry_space_group_name_H-M   'P 1'
_cell_length_a   13.18310507
_cell_length_b   13.18310507
_cell_length_c   15.15897032
_cell_angle_alpha   90.00000000
_cell_angle_beta   90.00000000
_cell_angle_gamma   119.99999976
_symmetry_Int_Tables_number   1
_chemical_formula_structural   Cu38NiC18
_chemical_formula_sum   'Cu76 Ni2 C36'
_cell_volume   2281.58032158
_cell_formula_units_Z   2
loop_
 _symmetry_equiv_pos_site_id
 _symmetry_equiv_pos_as_xyz
  1  'x, y, z'
loop_
 _atom_site_type_symbol
 _atom_site_label
 _atom_site_symmetry_multiplicity
 _atom_site_fract_x
 _atom_site_fract_y
 _atom_site_fract_z
 _atom_site_occupancy
  Ni  Ni0  1  0.00000000  0.00000000  0.75000000  1
  Ni  Ni1  1  0.00000000  0.00000000  0.25000000  1
  C  C2  1  0.57441282  0.66753829  0.75000000  1
  C  C3  1  0.42558718  0.33246171  0.25000000  1
  C  C4  1  0.09312547  0.42558718  0.75000000  1
  C  C5  1  0.90687453  0.33246171  0.25000000  1
  C  C6  1  0.90687453  0.57441282  0.25000000  1
  C  C7  1  0.09312547  0.66753829  0.75000000  1
  C  C8  1  0.33246171  0.90687453  0.75000000  1
  C  C9  1  0.66753829  0.57441282  0.25000000  1
  C  C10  1  0.66753829  0.09312547  0.25000000  1
  C  C11  1  0.33246171  0.42558718  0.75000000  1
  C  C12  1  0.42558718  0.09312547  0.25000000  1
  C  C13  1  0.57441282  0.90687453  0.75000000  1
  C  C14  1  0.99970895  0.23606117  0.89614230  1
  C  C15  1  0.00029105  0.76393883  0.10385770  1
  C  C16  1  0.23635222  0.00029105  0.89614230  1
  C  C17  1  0.00029105  0.76393883  0.39614230  1
  C  C18  1  0.76364778  0.76393883  0.10385770  1
  C  C19  1  0.76364778  0.99970895  0.10385770  1
  C  C20  1  0.99970895  0.23606117  0.60385770  1
  C  C21  1  0.23635222  0.23606117  0.89614230  1
  C  C22  1  0.76393883  0.76364778  0.89614230  1
  C  C23  1  0.76364778  0.99970895  0.39614230  1
  C  C24  1  0.23606117  0.99970895  0.10385770  1
  C  C25  1  0.23606117  0.23635222  0.10385770  1
  C  C26  1  0.23635222  0.00029105  0.60385770  1
  C  C27  1  0.76393883  0.00029105  0.89614230  1
  C  C28  1  0.23635222  0.23606117  0.60385770  1
  C  C29  1  0.76364778  0.76393883  0.39614230  1
  C  C30  1  0.23606117  0.23635222  0.39614230  1
  C  C31  1  0.76393883  0.00029105  0.60385770  1
  C  C32  1  0.76393883  0.76364778  0.60385770  1
  C  C33  1  0.23606117  0.99970895  0.39614230  1
  C  C34  1  0.00029105  0.23635222  0.10385770  1
  C  C35  1  0.99970895  0.76364778  0.89614230  1
  C  C36  1  0.99970895  0.76364778  0.60385770  1
  C  C37  1  0.00029105  0.23635222  0.39614230  1
  Cu  Cu38  1  0.73550290  0.73550290  -0.00000000  1
  Cu  Cu39  1  0.26449710  0.26449710  -0.00000000  1
  Cu  Cu40  1  1.00000000  0.26449710  -0.00000000  1
  Cu  Cu41  1  0.26449710  0.26449710  0.50000000  1
  Cu  Cu42  1  0.00000000  0.73550290  -0.00000000  1
  Cu  Cu43  1  0.73550290  0.73550290  0.50000000  1
  Cu  Cu44  1  0.26449710  1.00000000  -0.00000000  1
  Cu  Cu45  1  0.00000000  0.73550290  0.50000000  1
  Cu  Cu46  1  0.73550290  0.00000000  -0.00000000  1
  Cu  Cu47  1  1.00000000  0.26449710  0.50000000  1
  Cu  Cu48  1  0.73550290  0.00000000  0.50000000  1
  Cu  Cu49  1  0.26449710  1.00000000  0.50000000  1
  Cu  Cu50  1  0.90435268  0.09564732  0.37496808  1
  Cu  Cu51  1  0.09564732  0.90435268  0.62503192  1
  Cu  Cu52  1  0.19129464  0.09564732  0.37496808  1
  Cu  Cu53  1  0.09564732  0.90435268  0.87496808  1
  Cu  Cu54  1  0.80870536  0.90435268  0.62503192  1
  Cu  Cu55  1  0.90435268  0.09564732  0.12503192  1
  Cu  Cu56  1  0.90435268  0.80870536  0.37496808  1
  Cu  Cu57  1  0.80870536  0.90435268  0.87496808  1
  Cu  Cu58  1  0.09564732  0.19129464  0.62503192  1
  Cu  Cu59  1  0.19129464  0.09564732  0.12503192  1
  Cu  Cu60  1  0.09564732  0.19129464  0.87496808  1
  Cu  Cu61  1  0.90435268  0.80870536  0.12503192  1
  Cu  Cu62  1  0.65074283  0.67889752  0.83791020  1
  Cu  Cu63  1  0.34925717  0.32110248  0.16208980  1
  Cu  Cu64  1  0.02815470  0.34925717  0.83791020  1
  Cu  Cu65  1  0.34925717  0.32110248  0.33791020  1
  Cu  Cu66  1  0.97184530  0.32110248  0.16208980  1
  Cu  Cu67  1  0.97184530  0.65074283  0.16208980  1
  Cu  Cu68  1  0.65074283  0.67889752  0.66208980  1
  Cu  Cu69  1  0.02815470  0.67889752  0.83791020  1
  Cu  Cu70  1  0.32110248  0.97184530  0.83791020  1
  Cu  Cu71  1  0.97184530  0.65074283  0.33791020  1
  Cu  Cu72  1  0.67889752  0.65074283  0.16208980  1
  Cu  Cu73  1  0.67889752  0.02815470  0.16208980  1
  Cu  Cu74  1  0.02815470  0.34925717  0.66208980  1
  Cu  Cu75  1  0.32110248  0.34925717  0.83791020  1
  Cu  Cu76  1  0.02815470  0.67889752  0.66208980  1
  Cu  Cu77  1  0.97184530  0.32110248  0.33791020  1
  Cu  Cu78  1  0.67889752  0.02815470  0.33791020  1
  Cu  Cu79  1  0.32110248  0.34925717  0.66208980  1
  Cu  Cu80  1  0.32110248  0.97184530  0.66208980  1
  Cu  Cu81  1  0.67889752  0.65074283  0.33791020  1
  Cu  Cu82  1  0.34925717  0.02815470  0.16208980  1
  Cu  Cu83  1  0.65074283  0.97184530  0.83791020  1
  Cu  Cu84  1  0.65074283  0.97184530  0.66208980  1
  Cu  Cu85  1  0.34925717  0.02815470  0.33791020  1
  Cu  Cu86  1  0.45767622  0.54232378  0.75000000  1
  Cu  Cu87  1  0.54232378  0.45767622  0.25000000  1
  Cu  Cu88  1  0.08464757  0.54232378  0.75000000  1
  Cu  Cu89  1  0.91535243  0.45767622  0.25000000  1
  Cu  Cu90  1  0.45767622  0.91535243  0.75000000  1
  Cu  Cu91  1  0.54232378  0.08464757  0.25000000  1
  Cu  Cu92  1  0.22960585  0.77039415  0.75000000  1
  Cu  Cu93  1  0.77039415  0.22960585  0.25000000  1
  Cu  Cu94  1  0.54078829  0.77039415  0.75000000  1
  Cu  Cu95  1  0.45921171  0.22960585  0.25000000  1
  Cu  Cu96  1  0.22960585  0.45921171  0.75000000  1
  Cu  Cu97  1  0.77039415  0.54078829  0.25000000  1
  Cu  Cu98  1  0.66666700  0.33333300  0.93095717  1
  Cu  Cu99  1  0.33333300  0.66666700  0.06904283  1
  Cu  Cu100  1  0.33333300  0.66666700  0.43095717  1
  Cu  Cu101  1  0.66666700  0.33333300  0.56904283  1
  Cu  Cu102  1  0.87603504  0.12396496  0.86467524  1
  Cu  Cu103  1  0.12396496  0.87603504  0.13532476  1
  Cu  Cu104  1  0.24792991  0.12396496  0.86467524  1
  Cu  Cu105  1  0.12396496  0.87603504  0.36467524  1
  Cu  Cu106  1  0.75207009  0.87603504  0.13532476  1
  Cu  Cu107  1  0.87603504  0.12396496  0.63532476  1
  Cu  Cu108  1  0.87603504  0.75207009  0.86467524  1
  Cu  Cu109  1  0.75207009  0.87603504  0.36467524  1
  Cu  Cu110  1  0.12396496  0.24792991  0.13532476  1
  Cu  Cu111  1  0.24792991  0.12396496  0.63532476  1
  Cu  Cu112  1  0.12396496  0.24792991  0.36467524  1
  Cu  Cu113  1  0.87603504  0.75207009  0.63532476  1
