# generated using pymatgen
data_Cu4NiC4
_symmetry_space_group_name_H-M   'P 1'
_cell_length_a   9.47037669
_cell_length_b   9.47037669
_cell_length_c   6.26120700
_cell_angle_alpha   90.00000000
_cell_angle_beta   90.00000000
_cell_angle_gamma   120.00000484
_symmetry_Int_Tables_number   1
_chemical_formula_structural   Cu4NiC4
_chemical_formula_sum   'Cu8 Ni2 C8'
_cell_volume   486.32117566
_cell_formula_units_Z   2
loop_
 _symmetry_equiv_pos_site_id
 _symmetry_equiv_pos_as_xyz
  1  'x, y, z'
loop_
 _atom_site_type_symbol
 _atom_site_label
 _atom_site_symmetry_multiplicity
 _atom_site_fract_x
 _atom_site_fract_y
 _atom_site_fract_z
 _atom_site_occupancy
  C  C0  1  0.62021100  0.00000000  0.75000000  1
  C  C1  1  0.37978900  0.00000000  0.25000000  1
  C  C2  1  0.00000000  0.62021100  0.75000000  1
  C  C3  1  0.00000000  0.37978900  0.25000000  1
  C  C4  1  0.37978900  0.37978900  0.75000000  1
  C  C5  1  0.62021100  0.62021100  0.25000000  1
  C  C6  1  0.00000000  0.00000000  0.50000000  1
  C  C7  1  0.00000000  0.00000000  0.00000000  1
  Cu  Cu8  1  0.25376250  0.99367946  0.77931175  1
  Cu  Cu9  1  0.74781770  0.99572031  0.24244196  1
  Cu  Cu10  1  0.98584370  0.26877604  0.75833323  1
  Cu  Cu11  1  0.97502616  0.73456026  0.26423878  1
  Cu  Cu12  1  0.72155673  0.74536833  0.74772805  1
  Ni  Ni13  1  0.26116400  0.26116400  0.25000000  1
  Ni  Ni14  1  0.33333300  0.66666700  0.50000000  1
  Cu  Cu15  1  0.66209401  0.33828658  0.51137086  1
  Cu  Cu16  1  0.65832755  0.31392041  0.00232015  1
  Cu  Cu17  1  0.33723489  0.67249064  0.00132196  1
