# generated using pymatgen
data_Cu15NiC4
_symmetry_space_group_name_H-M   'P 1'
_cell_length_a   12.92582600
_cell_length_b   12.92582600
_cell_length_c   12.92582600
_cell_angle_alpha   90.00000000
_cell_angle_beta   90.00000000
_cell_angle_gamma   90.00000000
_symmetry_Int_Tables_number   1
_chemical_formula_structural   Cu15NiC4
_chemical_formula_sum   'Cu30 Ni2 C8'
_cell_volume   2159.60794342
_cell_formula_units_Z   2
loop_
 _symmetry_equiv_pos_site_id
 _symmetry_equiv_pos_as_xyz
  1  'x, y, z'
loop_
 _atom_site_type_symbol
 _atom_site_label
 _atom_site_symmetry_multiplicity
 _atom_site_fract_x
 _atom_site_fract_y
 _atom_site_fract_z
 _atom_site_occupancy
  C  C0  1  0.13074300  0.13074300  0.13074300  1
  C  C1  1  0.36925700  0.86925700  0.63074300  1
  C  C2  1  0.63074300  0.36925700  0.86925700  1
  C  C3  1  0.86925700  0.63074300  0.36925700  1
  C  C4  1  0.86925700  0.86925700  0.86925700  1
  C  C5  1  0.63074300  0.13074300  0.36925700  1
  C  C6  1  0.36925700  0.63074300  0.13074300  1
  C  C7  1  0.13074300  0.36925700  0.63074300  1
  Cu  Cu8  1  0.24277751  0.25578132  0.24866707  1
  Cu  Cu9  1  0.25111527  0.75146722  0.73780215  1
  Cu  Cu10  1  0.74230918  0.25599499  0.77770327  1
  Cu  Cu11  1  0.72661329  0.73017162  0.24758614  1
  Cu  Cu12  1  0.75857188  0.74530161  0.75979808  1
  Cu  Cu13  1  0.76697293  0.24683729  0.25661964  1
  Cu  Cu14  1  0.25122929  0.75403411  0.23953649  1
  Cu  Cu15  1  0.23573466  0.24698308  0.75019918  1
  Cu  Cu16  1  0.02710080  0.00577100  0.22946535  1
  Cu  Cu17  1  0.23824724  0.02394912  0.00529113  1
  Cu  Cu18  1  0.00163971  0.23432993  0.02320007  1
  Cu  Cu19  1  0.47946148  0.75035693  0.52110572  1
  Cu  Cu20  1  0.73031912  0.47050597  0.99068378  1
  Cu  Cu21  1  0.98687928  0.74513614  0.47435442  1
  Cu  Cu22  1  0.24385426  0.01163327  0.50417782  1
  Ni  Ni23  1  0.75528100  0.52420300  0.48944800  1
  Ni  Ni24  1  0.51055200  0.25528100  0.97579700  1
  Cu  Cu25  1  0.51528436  0.48722987  0.75280215  1
  Cu  Cu26  1  0.96781191  0.51784605  0.25729383  1
  Cu  Cu27  1  0.47605198  0.99020750  0.74723539  1
  Cu  Cu28  1  0.97862862  0.98981614  0.75287635  1
  Cu  Cu29  1  0.77595120  0.98412642  0.99477509  1
  Cu  Cu30  1  0.99544106  0.76687853  0.96250723  1
  Cu  Cu31  1  0.52201307  0.23542486  0.47190065  1
  Cu  Cu32  1  0.25115311  0.51349852  0.00266871  1
  Cu  Cu33  1  0.01513510  0.24066164  0.51735494  1
  Cu  Cu34  1  0.73288769  0.03394987  0.49876138  1
  Cu  Cu35  1  0.24594926  0.45808760  0.51005912  1
  Cu  Cu36  1  0.48429135  0.73185119  0.03167463  1
  Cu  Cu37  1  0.47181692  0.52107358  0.21680715  1
  Cu  Cu38  1  0.02764587  0.49199920  0.75363384  1
  Cu  Cu39  1  0.53065832  0.01332763  0.24628300  1
