# generated using pymatgen
data_Cu3NiC8
_symmetry_space_group_name_H-M   'P 1'
_cell_length_a   11.16430670
_cell_length_b   11.16430670
_cell_length_c   11.16430670
_cell_angle_alpha   101.64037774
_cell_angle_beta   101.64037774
_cell_angle_gamma   126.61703903
_symmetry_Int_Tables_number   1
_chemical_formula_structural   Cu3NiC8
_chemical_formula_sum   'Cu12 Ni4 C32'
_cell_volume   997.88537486
_cell_formula_units_Z   4
loop_
 _symmetry_equiv_pos_site_id
 _symmetry_equiv_pos_as_xyz
  1  'x, y, z'
loop_
 _atom_site_type_symbol
 _atom_site_label
 _atom_site_symmetry_multiplicity
 _atom_site_fract_x
 _atom_site_fract_y
 _atom_site_fract_z
 _atom_site_occupancy
  Cu  Cu0  1  0.27237230  0.42264644  0.37961591  1
  Cu  Cu1  1  0.89400941  0.27767095  0.85566077  1
  Cu  Cu2  1  0.43259209  0.04714629  0.14421875  1
  Cu  Cu3  1  0.95938366  0.59122811  0.84694631  1
  Ni  Ni4  1  0.73427200  0.11187800  0.15670300  1
  Ni  Ni5  1  0.04482500  0.88812200  0.62239500  1
  Cu  Cu6  1  0.10023982  0.95740702  0.37166518  1
  Cu  Cu7  1  0.57392639  0.72780697  0.62300770  1
  Cu  Cu8  1  0.73330995  0.56536544  0.62478040  1
  Cu  Cu9  1  0.08385876  0.71261195  0.14312985  1
  Cu  Cu10  1  0.57216826  0.97080904  0.83094140  1
  Ni  Ni11  1  0.04482500  0.42243000  0.15670300  1
  Cu  Cu12  1  0.26861273  0.88570265  0.85891786  1
  Ni  Ni13  1  0.95517500  0.11187800  0.37760500  1
  Cu  Cu14  1  0.89338814  0.04358056  0.61267573  1
  Cu  Cu15  1  0.42554287  0.26558482  0.38562751  1
  C  C16  1  0.35639500  0.35639500  0.34269700  1
  C  C17  1  0.01369800  0.35639500  0.00000000  1
  C  C18  1  0.35639500  0.01369800  0.00000000  1
  C  C19  1  0.98630200  0.64360500  0.00000000  1
  C  C20  1  0.64360500  0.98630200  0.00000000  1
  C  C21  1  0.01369800  0.01369800  0.65730300  1
  C  C22  1  0.98630200  0.98630200  0.34269700  1
  C  C23  1  0.64360500  0.64360500  0.65730300  1
  C  C24  1  0.12286800  0.29914200  0.42201000  1
  C  C25  1  0.70085800  0.12286800  0.82372600  1
  C  C26  1  0.29914200  0.87713200  0.17627400  1
  C  C27  1  0.12286800  0.70085800  0.82372600  1
  C  C28  1  0.87713200  0.29914200  0.17627400  1
  C  C29  1  0.87713200  0.70085800  0.57799000  1
  C  C30  1  0.29914200  0.12286800  0.42201000  1
  C  C31  1  0.70085800  0.87713200  0.57799000  1
  C  C32  1  0.18785700  0.43269500  0.24483700  1
  C  C33  1  0.94302000  0.18785700  0.75516300  1
  C  C34  1  0.43269500  0.18785700  0.24483700  1
  C  C35  1  0.81214300  0.56730500  0.75516300  1
  C  C36  1  0.81214300  0.05698000  0.24483700  1
  C  C37  1  0.18785700  0.94302000  0.75516300  1
  C  C38  1  0.05698000  0.81214300  0.24483700  1
  C  C39  1  0.56730500  0.81214300  0.75516300  1
  C  C40  1  0.39681500  0.60318500  0.50000000  1
  C  C41  1  0.89681500  0.39681500  0.79362900  1
  C  C42  1  0.60318500  0.10318500  0.20637100  1
  C  C43  1  0.10318500  0.89681500  0.50000000  1
  C  C44  1  0.60318500  0.39681500  0.50000000  1
  C  C45  1  0.10318500  0.60318500  0.20637100  1
  C  C46  1  0.39681500  0.89681500  0.79362900  1
  C  C47  1  0.89681500  0.10318500  0.50000000  1
