# generated using pymatgen
data_Cu12Ni3C5
_symmetry_space_group_name_H-M   'P 1'
_cell_length_a   8.76627300
_cell_length_b   8.79223268
_cell_length_c   14.45516939
_cell_angle_alpha   73.65206640
_cell_angle_beta   74.58257417
_cell_angle_gamma   61.03002979
_symmetry_Int_Tables_number   1
_chemical_formula_structural   Cu12Ni3C5
_chemical_formula_sum   'Cu48 Ni12 C20'
_cell_volume   924.11976422
_cell_formula_units_Z   4
loop_
 _symmetry_equiv_pos_site_id
 _symmetry_equiv_pos_as_xyz
  1  'x, y, z'
loop_
 _atom_site_type_symbol
 _atom_site_label
 _atom_site_symmetry_multiplicity
 _atom_site_fract_x
 _atom_site_fract_y
 _atom_site_fract_z
 _atom_site_occupancy
  Ni  Ni0  1  0.14040500  0.01312000  0.11163500  1
  Ni  Ni1  1  0.49885500  0.00035300  0.00004800  1
  Ni  Ni2  1  0.23482100  0.10969200  0.63818700  1
  Ni  Ni3  1  0.74570100  0.25304700  0.24865200  1
  Ni  Ni4  1  0.35765200  0.48737400  0.38624600  1
  Ni  Ni5  1  0.26686500  0.39183600  0.86306700  1
  Ni  Ni6  1  0.73342100  0.60833200  0.13714800  1
  Ni  Ni7  1  0.64104100  0.51458700  0.61180100  1
  Ni  Ni8  1  0.25052900  0.75059600  0.74976800  1
  Ni  Ni9  1  0.99631900  0.50347700  0.50159900  1
  Ni  Ni10  1  0.76438900  0.89182900  0.36438100  1
  Ni  Ni11  1  0.85893400  0.98591700  0.88796200  1
  C  C12  1  0.82183700  0.32740300  0.03469900  1
  C  C13  1  0.17963000  0.67093600  0.96506100  1
  C  C14  1  0.92459300  0.42661200  0.71532900  1
  C  C15  1  0.32135900  0.82907800  0.53514100  1
  C  C16  1  0.57660200  0.06698700  0.78690200  1
  C  C17  1  0.68183100  0.17517400  0.46274800  1
  C  C18  1  0.07533400  0.57079500  0.28667000  1
  C  C19  1  0.42161700  0.93190900  0.21318800  1
  C  C20  1  0.13257700  0.33239300  0.11659800  1
  C  C21  1  0.36577400  0.16964900  0.38172400  1
  C  C22  1  0.18174000  0.06574100  0.87706700  1
  C  C23  1  0.91809100  0.11821400  0.63492200  1
  C  C24  1  0.32436400  0.42557000  0.62443100  1
  C  C25  1  0.41565900  0.61917900  0.13241200  1
  C  C26  1  0.58556100  0.38084400  0.86735900  1
  C  C27  1  0.67649700  0.57382700  0.37505600  1
  C  C28  1  0.08225500  0.88244700  0.36959300  1
  C  C29  1  0.82177100  0.92980100  0.12385000  1
  C  C30  1  0.63156100  0.83235800  0.61552900  1
  C  C31  1  0.86909000  0.66548900  0.88149600  1
  Cu  Cu32  1  0.27979700  0.14232600  0.11331500  1
  Cu  Cu33  1  0.38100400  0.08882200  0.29776600  1
  Cu  Cu34  1  0.32849100  0.06029900  0.48154200  1
  Cu  Cu35  1  0.17058700  0.44246100  0.01725700  1
  Cu  Cu36  1  0.11267200  0.41249200  0.20168200  1
  Cu  Cu37  1  0.81179200  0.11048000  0.12834900  1
  Cu  Cu38  1  0.11325700  0.18361600  0.78177500  1
  Cu  Cu39  1  0.54456700  0.18160800  0.36514300  1
  Cu  Cu40  1  0.06396300  0.13658800  0.96980100  1
  Cu  Cu41  1  0.89156400  0.03247200  0.36495200  1
  Cu  Cu42  1  0.21716100  0.36018800  0.38518400  1
  Cu  Cu43  1  0.36588800  0.05030900  0.88010800  1
  Cu  Cu44  1  0.14116400  0.43770600  0.62181600  1
  Cu  Cu45  1  0.84175200  0.13601300  0.54716100  1
  Cu  Cu46  1  0.33921900  0.63050600  0.04597100  1
  Cu  Cu47  1  0.44310800  0.35455200  0.53097200  1
  Cu  Cu48  1  0.80125200  0.08692600  0.73135300  1
  Cu  Cu49  1  0.60392900  0.47099600  0.14104200  1
  Cu  Cu50  1  0.39682100  0.30366200  0.71891200  1
  Cu  Cu51  1  0.29965200  0.58935600  0.23022300  1
  Cu  Cu52  1  0.95184000  0.32203100  0.13084900  1
  Cu  Cu53  1  0.57767800  0.19961300  0.88477700  1
  Cu  Cu54  1  0.69150800  0.39162300  0.37010800  1
  Cu  Cu55  1  0.07101100  0.70354900  0.38610100  1
  Cu  Cu56  1  0.92658700  0.30061000  0.61812900  1
  Cu  Cu57  1  0.31219500  0.60724500  0.62737200  1
  Cu  Cu58  1  0.42365100  0.80046200  0.11491100  1
  Cu  Cu59  1  0.04832500  0.67797900  0.86755200  1
  Cu  Cu60  1  0.69892100  0.41668300  0.76911200  1
  Cu  Cu61  1  0.60260200  0.69712100  0.28142300  1
  Cu  Cu62  1  0.39714700  0.52812400  0.85861300  1
  Cu  Cu63  1  0.19259400  0.91711700  0.27094300  1
  Cu  Cu64  1  0.56092800  0.63938300  0.46931800  1
  Cu  Cu65  1  0.66280800  0.36833300  0.95370200  1
  Cu  Cu66  1  0.16195900  0.86731600  0.45547600  1
  Cu  Cu67  1  0.86087000  0.55771300  0.37734700  1
  Cu  Cu68  1  0.63668800  0.94657100  0.12252700  1
  Cu  Cu69  1  0.77917400  0.64504400  0.60902400  1
  Cu  Cu70  1  0.10575900  0.97011500  0.64293400  1
  Cu  Cu71  1  0.93674400  0.86137000  0.03006600  1
  Cu  Cu72  1  0.44996000  0.82166500  0.63150500  1
  Cu  Cu73  1  0.89568800  0.80663800  0.21796800  1
  Cu  Cu74  1  0.19315000  0.88323600  0.87414100  1
  Cu  Cu75  1  0.89049800  0.58418900  0.79605200  1
  Cu  Cu76  1  0.83089100  0.55651400  0.98093700  1
  Cu  Cu77  1  0.66227000  0.94946000  0.51804800  1
  Cu  Cu78  1  0.61330800  0.90869300  0.70235300  1
  Cu  Cu79  1  0.72093100  0.85566000  0.88411600  1
