# generated using pymatgen
data_Cu5Ni9C4
_symmetry_space_group_name_H-M   'P 1'
_cell_length_a   7.52950782
_cell_length_b   7.52950782
_cell_length_c   5.52367100
_cell_angle_alpha   90.00000000
_cell_angle_beta   90.00000000
_cell_angle_gamma   119.99999843
_symmetry_Int_Tables_number   1
_chemical_formula_structural   Cu5Ni9C4
_chemical_formula_sum   'Cu5 Ni9 C4'
_cell_volume   271.20120784
_cell_formula_units_Z   1
loop_
 _symmetry_equiv_pos_site_id
 _symmetry_equiv_pos_as_xyz
  1  'x, y, z'
loop_
 _atom_site_type_symbol
 _atom_site_label
 _atom_site_symmetry_multiplicity
 _atom_site_fract_x
 _atom_site_fract_y
 _atom_site_fract_z
 _atom_site_occupancy
  C  C0  1  0.00000000  0.00000000  0.74788800  1
  C  C1  1  0.00000000  0.00000000  0.24788800  1
  C  C2  1  0.66666700  0.33333300  0.50333100  1
  C  C3  1  0.33333300  0.66666700  0.00333100  1
  Cu  Cu4  1  0.66119694  0.33026544  0.77521580  1
  Cu  Cu5  1  0.34312734  0.69856402  0.29436961  1
  Cu  Cu6  1  0.57052845  0.13573916  0.38948989  1
  Ni  Ni7  1  0.87740100  0.43870000  0.41445100  1
  Ni  Ni8  1  0.56130000  0.43870000  0.41445100  1
  Cu  Cu9  1  0.43459551  0.84576014  0.92574119  1
  Cu  Cu10  1  0.14064143  0.57348826  0.93607304  1
  Ni  Ni11  1  0.43870000  0.56130000  0.91445100  1
  Ni  Ni12  1  0.89385100  0.78770200  0.99759700  1
  Ni  Ni13  1  0.21229800  0.10614900  0.99759700  1
  Ni  Ni14  1  0.89385100  0.10614900  0.99759700  1
  Ni  Ni15  1  0.10614900  0.21229800  0.49759700  1
  Ni  Ni16  1  0.78770200  0.89385100  0.49759700  1
  Ni  Ni17  1  0.10614900  0.89385100  0.49759700  1
