# generated using pymatgen
data_Cu3Ni12C17
_symmetry_space_group_name_H-M   'P 1'
_cell_length_a   8.74536000
_cell_length_b   8.74536000
_cell_length_c   8.72954400
_cell_angle_alpha   90.00000000
_cell_angle_beta   90.00000000
_cell_angle_gamma   90.00000000
_symmetry_Int_Tables_number   1
_chemical_formula_structural   Cu3Ni12C17
_chemical_formula_sum   'Cu6 Ni24 C34'
_cell_volume   667.64706147
_cell_formula_units_Z   2
loop_
 _symmetry_equiv_pos_site_id
 _symmetry_equiv_pos_as_xyz
  1  'x, y, z'
loop_
 _atom_site_type_symbol
 _atom_site_label
 _atom_site_symmetry_multiplicity
 _atom_site_fract_x
 _atom_site_fract_y
 _atom_site_fract_z
 _atom_site_occupancy
  C  C0  1  0.00000000  0.00000000  0.00000000  1
  Ni  Ni1  1  0.50000000  0.00000000  0.00000000  1
  Cu  Cu2  1  0.99092108  0.48922379  0.98997959  1
  Ni  Ni3  1  0.00000000  0.00000000  0.50000000  1
  Ni  Ni4  1  0.50000000  0.00000000  0.50000000  1
  Ni  Ni5  1  0.00000000  0.50000000  0.50000000  1
  Ni  Ni6  1  0.50000000  0.50000000  0.50000000  1
  Cu  Cu7  1  0.25298651  0.25774586  0.99315396  1
  Ni  Ni8  1  0.75380000  0.24620000  0.00000000  1
  Ni  Ni9  1  0.24620000  0.75380000  0.00000000  1
  Ni  Ni10  1  0.75380000  0.75380000  0.00000000  1
  Ni  Ni11  1  0.24881600  0.24881600  0.50000000  1
  Ni  Ni12  1  0.75118400  0.24881600  0.50000000  1
  Ni  Ni13  1  0.24881600  0.75118400  0.50000000  1
  Ni  Ni14  1  0.75118400  0.75118400  0.50000000  1
  Ni  Ni15  1  0.25363900  0.00000000  0.25548600  1
  Ni  Ni16  1  0.74636100  0.00000000  0.25548600  1
  Ni  Ni17  1  0.24173100  0.50000000  0.25739100  1
  Ni  Ni18  1  0.75826900  0.50000000  0.25739100  1
  Ni  Ni19  1  0.25363900  0.00000000  0.74451400  1
  Ni  Ni20  1  0.74636100  0.00000000  0.74451400  1
  Ni  Ni21  1  0.24173100  0.50000000  0.74260900  1
  Ni  Ni22  1  0.75826900  0.50000000  0.74260900  1
  Ni  Ni23  1  0.00000000  0.25363900  0.25548600  1
  Cu  Cu24  1  0.50514962  0.25120333  0.24350412  1
  Cu  Cu25  1  0.02503910  0.71381672  0.26485549  1
  Ni  Ni26  1  0.50000000  0.75826900  0.25739100  1
  Cu  Cu27  1  0.00175324  0.24491835  0.74240397  1
  Ni  Ni28  1  0.50000000  0.24173100  0.74260900  1
  Cu  Cu29  1  0.00219234  0.74480922  0.74874326  1
  Ni  Ni30  1  0.50000000  0.75826900  0.74260900  1
  C  C31  1  0.50000000  0.50000000  0.00000000  1
  C  C32  1  0.00000000  0.00000000  0.28506800  1
  C  C33  1  0.50000000  0.00000000  0.25972500  1
  C  C34  1  0.00000000  0.50000000  0.25972500  1
  C  C35  1  0.50000000  0.50000000  0.26657800  1
  C  C36  1  0.00000000  0.00000000  0.71493200  1
  C  C37  1  0.50000000  0.00000000  0.74027500  1
  C  C38  1  0.00000000  0.50000000  0.74027500  1
  C  C39  1  0.50000000  0.50000000  0.73342200  1
  C  C40  1  0.25058200  0.25058200  0.24882800  1
  C  C41  1  0.74941800  0.25058200  0.24882800  1
  C  C42  1  0.25058200  0.74941800  0.24882800  1
  C  C43  1  0.74941800  0.74941800  0.24882800  1
  C  C44  1  0.25058200  0.25058200  0.75117200  1
  C  C45  1  0.74941800  0.25058200  0.75117200  1
  C  C46  1  0.25058200  0.74941800  0.75117200  1
  C  C47  1  0.74941800  0.74941800  0.75117200  1
  C  C48  1  0.28393200  0.00000000  0.00000000  1
  C  C49  1  0.71606800  0.00000000  0.00000000  1
  C  C50  1  0.23832800  0.50000000  0.00000000  1
  C  C51  1  0.76167200  0.50000000  0.00000000  1
  C  C52  1  0.25738400  0.00000000  0.50000000  1
  C  C53  1  0.74261600  0.00000000  0.50000000  1
  C  C54  1  0.24991000  0.50000000  0.50000000  1
  C  C55  1  0.75009000  0.50000000  0.50000000  1
  C  C56  1  0.00000000  0.28393200  0.00000000  1
  C  C57  1  0.50000000  0.23832800  0.00000000  1
  C  C58  1  0.00000000  0.71606800  0.00000000  1
  C  C59  1  0.50000000  0.76167200  0.00000000  1
  C  C60  1  0.00000000  0.25738400  0.50000000  1
  C  C61  1  0.50000000  0.24991000  0.50000000  1
  C  C62  1  0.00000000  0.74261600  0.50000000  1
  C  C63  1  0.50000000  0.75009000  0.50000000  1
