# generated using pymatgen
data_CuC7
_symmetry_space_group_name_H-M   'P 1'
_cell_length_a   7.13979240
_cell_length_b   7.13979240
_cell_length_c   12.83957859
_cell_angle_alpha   79.45837843
_cell_angle_beta   79.45837843
_cell_angle_gamma   55.51626791
_symmetry_Int_Tables_number   1
_chemical_formula_structural   CuC7
_chemical_formula_sum   'Cu2 C14'
_cell_volume   527.85530922
_cell_formula_units_Z   2
loop_
 _symmetry_equiv_pos_site_id
 _symmetry_equiv_pos_as_xyz
  1  'x, y, z'
loop_
 _atom_site_type_symbol
 _atom_site_label
 _atom_site_symmetry_multiplicity
 _atom_site_fract_x
 _atom_site_fract_y
 _atom_site_fract_z
 _atom_site_occupancy
  C  C0  1  0.88193500  0.11806500  0.75000000  1
  C  C1  1  0.11806500  0.88193500  0.25000000  1
  Cu  Cu2  1  0.49779111  0.97165357  0.49734843  1
  Cu  Cu3  1  0.01599967  0.49301607  0.99802298  1
  C  C4  1  0.46302500  0.70685700  0.60181400  1
  C  C5  1  0.53697500  0.29314300  0.39818600  1
  C  C6  1  0.29314300  0.53697500  0.89818600  1
  C  C7  1  0.70685700  0.46302500  0.10181400  1
  C  C8  1  0.37331800  0.19486400  0.65486800  1
  C  C9  1  0.62668200  0.80513600  0.34513200  1
  C  C10  1  0.80513600  0.62668200  0.84513200  1
  C  C11  1  0.19486400  0.37331800  0.15486800  1
  C  C12  1  0.80134400  0.88441900  0.03892200  1
  C  C13  1  0.19865600  0.11558100  0.96107800  1
  C  C14  1  0.11558100  0.19865600  0.46107800  1
  C  C15  1  0.88441900  0.80134400  0.53892200  1
