# generated using pymatgen
data_Cu3C5
_symmetry_space_group_name_H-M   'P 1'
_cell_length_a   7.05849167
_cell_length_b   7.05849167
_cell_length_c   27.51730700
_cell_angle_alpha   90.00000000
_cell_angle_beta   90.00000000
_cell_angle_gamma   119.99999688
_symmetry_Int_Tables_number   1
_chemical_formula_structural   Cu3C5
_chemical_formula_sum   'Cu24 C40'
_cell_volume   1187.29977952
_cell_formula_units_Z   8
loop_
 _symmetry_equiv_pos_site_id
 _symmetry_equiv_pos_as_xyz
  1  'x, y, z'
loop_
 _atom_site_type_symbol
 _atom_site_label
 _atom_site_symmetry_multiplicity
 _atom_site_fract_x
 _atom_site_fract_y
 _atom_site_fract_z
 _atom_site_occupancy
  Cu  Cu0  1  0.16314012  0.84478395  0.61052503  1
  Cu  Cu1  1  0.20570095  0.37827878  0.60830565  1
  Cu  Cu2  1  0.68618757  0.81357061  0.62432727  1
  Cu  Cu3  1  0.82661860  0.16885576  0.38451939  1
  Cu  Cu4  1  0.80486678  0.65366582  0.39626139  1
  Cu  Cu5  1  0.36808078  0.18083597  0.38541412  1
  Cu  Cu6  1  0.86140491  0.19688552  0.11698037  1
  Cu  Cu7  1  0.82895830  0.66554213  0.12368333  1
  Cu  Cu8  1  0.32959188  0.17528557  0.11609127  1
  Cu  Cu9  1  0.19841766  0.83448549  0.87751350  1
  Cu  Cu10  1  0.17914750  0.33660316  0.88947907  1
  Cu  Cu11  1  0.67958471  0.84782153  0.88401580  1
  Cu  Cu12  1  0.35390359  0.70147154  0.48947851  1
  Cu  Cu13  1  0.67413355  0.33635214  0.53123811  1
  Cu  Cu14  1  0.68457453  0.33625063  0.97777349  1
  Cu  Cu15  1  0.33336985  0.66557545  0.02327340  1
  Cu  Cu16  1  0.30151801  0.64067832  0.30786342  1
  Cu  Cu17  1  0.71449988  0.36154399  0.69110083  1
  Cu  Cu18  1  0.64991134  0.30342313  0.80344683  1
  Cu  Cu19  1  0.32066770  0.67357966  0.19481572  1
  Cu  Cu20  1  0.97843382  0.97869060  0.49541159  1
  Cu  Cu21  1  0.02260305  0.98909007  0.00246865  1
  Cu  Cu22  1  0.00449965  0.03460670  0.24298102  1
  Cu  Cu23  1  0.98489478  0.98946926  0.74765671  1
  C  C24  1  0.33333300  0.66666700  0.75000000  1
  C  C25  1  0.66666700  0.33333300  0.25000000  1
  C  C26  1  0.15524300  0.84475700  0.44554000  1
  C  C27  1  0.15524300  0.31048600  0.44554000  1
  C  C28  1  0.68951400  0.84475700  0.44554000  1
  C  C29  1  0.84475700  0.15524300  0.55446000  1
  C  C30  1  0.84475700  0.68951400  0.55446000  1
  C  C31  1  0.31048600  0.15524300  0.55446000  1
  C  C32  1  0.84475700  0.15524300  0.94554000  1
  C  C33  1  0.84475700  0.68951400  0.94554000  1
  C  C34  1  0.31048600  0.15524300  0.94554000  1
  C  C35  1  0.15524300  0.84475700  0.05446000  1
  C  C36  1  0.15524300  0.31048600  0.05446000  1
  C  C37  1  0.68951400  0.84475700  0.05446000  1
  C  C38  1  0.51066200  0.48933800  0.34428300  1
  C  C39  1  0.51066200  0.02132500  0.34428300  1
  C  C40  1  0.97867500  0.48933800  0.34428300  1
  C  C41  1  0.48933800  0.51066200  0.65571700  1
  C  C42  1  0.48933800  0.97867500  0.65571700  1
  C  C43  1  0.02132500  0.51066200  0.65571700  1
  C  C44  1  0.48933800  0.51066200  0.84428300  1
  C  C45  1  0.48933800  0.97867500  0.84428300  1
  C  C46  1  0.02132500  0.51066200  0.84428300  1
  C  C47  1  0.51066200  0.48933800  0.15571700  1
  C  C48  1  0.51066200  0.02132500  0.15571700  1
  C  C49  1  0.97867500  0.48933800  0.15571700  1
  C  C50  1  0.33333300  0.66666700  0.55622600  1
  C  C51  1  0.66666700  0.33333300  0.44377400  1
  C  C52  1  0.66666700  0.33333300  0.05622600  1
  C  C53  1  0.33333300  0.66666700  0.94377400  1
  C  C54  1  0.00000000  0.00000000  0.34614200  1
  C  C55  1  0.00000000  0.00000000  0.65385800  1
  C  C56  1  0.00000000  0.00000000  0.84614200  1
  C  C57  1  0.00000000  0.00000000  0.15385800  1
  C  C58  1  0.18373100  0.81626900  0.25000000  1
  C  C59  1  0.18373100  0.36746200  0.25000000  1
  C  C60  1  0.63253800  0.81626900  0.25000000  1
  C  C61  1  0.81626900  0.18373100  0.75000000  1
  C  C62  1  0.81626900  0.63253800  0.75000000  1
  C  C63  1  0.36746200  0.18373100  0.75000000  1
