# generated using pymatgen
data_CuC2
_symmetry_space_group_name_H-M   'P 1'
_cell_length_a   5.06305700
_cell_length_b   9.80866811
_cell_length_c   13.42998063
_cell_angle_alpha   80.65960644
_cell_angle_beta   79.35058173
_cell_angle_gamma   85.37195615
_symmetry_Int_Tables_number   1
_chemical_formula_structural   CuC2
_chemical_formula_sum   'Cu24 C48'
_cell_volume   645.89529748
_cell_formula_units_Z   24
loop_
 _symmetry_equiv_pos_site_id
 _symmetry_equiv_pos_as_xyz
  1  'x, y, z'
loop_
 _atom_site_type_symbol
 _atom_site_label
 _atom_site_symmetry_multiplicity
 _atom_site_fract_x
 _atom_site_fract_y
 _atom_site_fract_z
 _atom_site_occupancy
  Cu  Cu0  1  0.68053479  0.97910201  0.17546022  1
  Cu  Cu1  1  0.58799986  0.98439648  0.38989869  1
  Cu  Cu2  1  0.26722641  0.75644454  0.75042631  1
  Cu  Cu3  1  0.58242760  0.75663211  0.08511631  1
  Cu  Cu4  1  0.05675918  0.52770022  0.88574998  1
  Cu  Cu5  1  0.40444082  0.50702254  0.20650558  1
  Cu  Cu6  1  0.14099258  0.53514065  0.66622382  1
  Cu  Cu7  1  0.49635714  0.51961985  0.99895510  1
  Cu  Cu8  1  0.29049532  0.48285936  0.43563103  1
  Cu  Cu9  1  0.09429602  0.24140009  0.58128058  1
  Cu  Cu10  1  0.02671106  0.03776563  0.49832712  1
  Cu  Cu11  1  0.76203211  0.99937237  0.94744793  1
  Cu  Cu12  1  0.10626651  0.01528014  0.26283101  1
  Cu  Cu13  1  0.87926207  0.99753760  0.71422643  1
  Cu  Cu14  1  0.24640502  0.98973558  0.06830263  1
  Cu  Cu15  1  0.90024233  0.74558646  0.42988373  1
  Cu  Cu16  1  0.71859754  0.51826975  0.52175856  1
  Cu  Cu17  1  0.87740474  0.49538859  0.33455343  1
  Cu  Cu18  1  0.61301234  0.49340032  0.77897945  1
  Cu  Cu19  1  0.94836794  0.50772323  0.11783777  1
  Cu  Cu20  1  0.41088988  0.26702834  0.91119179  1
  Cu  Cu21  1  0.32811211  0.00057535  0.83429214  1
  Cu  Cu22  1  0.73318683  0.25063969  0.24986203  1
  Cu  Cu23  1  0.44961747  0.00468999  0.62475157  1
  C  C24  1  0.46730500  0.75435200  0.30688100  1
  C  C25  1  0.19831900  0.24584500  0.36128800  1
  C  C26  1  0.30145600  0.25329900  0.13861800  1
  C  C27  1  0.69867600  0.75213900  0.85931600  1
  C  C28  1  0.80881100  0.75020700  0.63534700  1
  C  C29  1  0.52657000  0.25087300  0.69344300  1
  C  C30  1  0.14214700  0.74552400  0.97427700  1
  C  C31  1  0.85590900  0.25087400  0.02581400  1
  C  C32  1  0.36282600  0.74852400  0.52866600  1
  C  C33  1  0.97523200  0.24802300  0.80733600  1
  C  C34  1  0.02280500  0.74950100  0.19436700  1
  C  C35  1  0.64289800  0.25100200  0.47305000  1
  C  C36  1  0.92732200  0.86151900  0.07449700  1
  C  C37  1  0.72110500  0.63599200  0.21557000  1
  C  C38  1  0.42553500  0.36389800  0.57199300  1
  C  C39  1  0.50219100  0.36225900  0.35815900  1
  C  C40  1  0.61562200  0.36584300  0.11877200  1
  C  C41  1  0.26032100  0.86248000  0.40646200  1
  C  C42  1  0.21770500  0.13321200  0.71464300  1
  C  C43  1  0.33636700  0.13852700  0.47823700  1
  C  C44  1  0.55619900  0.13511000  0.04729400  1
  C  C45  1  0.99993500  0.86402200  0.85653400  1
  C  C46  1  0.12682800  0.86382100  0.61570000  1
  C  C47  1  0.32959000  0.86246200  0.18967500  1
  C  C48  1  0.40254500  0.13516100  0.26262600  1
  C  C49  1  0.83260500  0.63640200  0.97769100  1
  C  C50  1  0.04352200  0.63321100  0.54783200  1
  C  C51  1  0.16445700  0.63786600  0.30869400  1
  C  C52  1  0.90459000  0.63649100  0.76229000  1
  C  C53  1  0.24383900  0.63620800  0.09579100  1
  C  C54  1  0.75871700  0.36074300  0.90786000  1
  C  C55  1  0.09604700  0.36410000  0.23757400  1
  C  C56  1  0.83421000  0.36232300  0.69208200  1
  C  C57  1  0.94340700  0.36443300  0.45282800  1
  C  C58  1  0.16397300  0.36180600  0.02149600  1
  C  C59  1  0.59568700  0.86382100  0.73638100  1
  C  C60  1  0.67087100  0.13812300  0.81070700  1
  C  C61  1  0.88366700  0.13460700  0.38075600  1
  C  C62  1  0.99837800  0.13805900  0.14098100  1
  C  C63  1  0.45132700  0.86609800  0.95175300  1
  C  C64  1  0.67120200  0.86385500  0.52217400  1
  C  C65  1  0.78351500  0.86599200  0.28552000  1
  C  C66  1  0.73998900  0.13792200  0.59256700  1
  C  C67  1  0.38046200  0.63383900  0.88192600  1
  C  C68  1  0.49326200  0.63750200  0.64145800  1
  C  C69  1  0.56803400  0.63860600  0.43120500  1
  C  C70  1  0.27772200  0.36497900  0.78553900  1
  C  C71  1  0.07441700  0.13913000  0.92526900  1
