# generated using pymatgen
data_Cu2Ni
_symmetry_space_group_name_H-M   'P 1'
_cell_length_a   11.16430670
_cell_length_b   11.16430670
_cell_length_c   11.16430670
_cell_angle_alpha   101.64037774
_cell_angle_beta   101.64037774
_cell_angle_gamma   126.61703903
_symmetry_Int_Tables_number   1
_chemical_formula_structural   Cu2Ni
_chemical_formula_sum   'Cu32 Ni16'
_cell_volume   997.88537486
_cell_formula_units_Z   16
loop_
 _symmetry_equiv_pos_site_id
 _symmetry_equiv_pos_as_xyz
  1  'x, y, z'
loop_
 _atom_site_type_symbol
 _atom_site_label
 _atom_site_symmetry_multiplicity
 _atom_site_fract_x
 _atom_site_fract_y
 _atom_site_fract_z
 _atom_site_occupancy
  Ni  Ni0  1  0.26572800  0.42243000  0.37760500  1
  Ni  Ni1  1  0.88812200  0.26572800  0.84329700  1
  Ni  Ni2  1  0.42243000  0.04482500  0.15670300  1
  Ni  Ni3  1  0.95517500  0.57757000  0.84329700  1
  Ni  Ni4  1  0.73427200  0.11187800  0.15670300  1
  Ni  Ni5  1  0.04482500  0.88812200  0.62239500  1
  Ni  Ni6  1  0.11187800  0.95517500  0.37760500  1
  Ni  Ni7  1  0.57757000  0.73427200  0.62239500  1
  Ni  Ni8  1  0.73427200  0.57757000  0.62239500  1
  Ni  Ni9  1  0.11187800  0.73427200  0.15670300  1
  Ni  Ni10  1  0.57757000  0.95517500  0.84329700  1
  Ni  Ni11  1  0.04482500  0.42243000  0.15670300  1
  Ni  Ni12  1  0.26572800  0.88812200  0.84329700  1
  Ni  Ni13  1  0.95517500  0.11187800  0.37760500  1
  Ni  Ni14  1  0.88812200  0.04482500  0.62239500  1
  Ni  Ni15  1  0.42243000  0.26572800  0.37760500  1
  Cu  Cu16  1  0.35639500  0.35639500  0.34269700  1
  Cu  Cu17  1  0.01369800  0.35639500  0.00000000  1
  Cu  Cu18  1  0.35639500  0.01369800  0.00000000  1
  Cu  Cu19  1  0.98630200  0.64360500  0.00000000  1
  Cu  Cu20  1  0.64360500  0.98630200  0.00000000  1
  Cu  Cu21  1  0.01369800  0.01369800  0.65730300  1
  Cu  Cu22  1  0.98630200  0.98630200  0.34269700  1
  Cu  Cu23  1  0.64360500  0.64360500  0.65730300  1
  Cu  Cu24  1  0.12286800  0.29914200  0.42201000  1
  Cu  Cu25  1  0.70085800  0.12286800  0.82372600  1
  Cu  Cu26  1  0.29914200  0.87713200  0.17627400  1
  Cu  Cu27  1  0.12286800  0.70085800  0.82372600  1
  Cu  Cu28  1  0.87713200  0.29914200  0.17627400  1
  Cu  Cu29  1  0.87713200  0.70085800  0.57799000  1
  Cu  Cu30  1  0.29914200  0.12286800  0.42201000  1
  Cu  Cu31  1  0.70085800  0.87713200  0.57799000  1
  Cu  Cu32  1  0.18785700  0.43269500  0.24483700  1
  Cu  Cu33  1  0.94302000  0.18785700  0.75516300  1
  Cu  Cu34  1  0.43269500  0.18785700  0.24483700  1
  Cu  Cu35  1  0.81214300  0.56730500  0.75516300  1
  Cu  Cu36  1  0.81214300  0.05698000  0.24483700  1
  Cu  Cu37  1  0.18785700  0.94302000  0.75516300  1
  Cu  Cu38  1  0.05698000  0.81214300  0.24483700  1
  Cu  Cu39  1  0.56730500  0.81214300  0.75516300  1
  Cu  Cu40  1  0.39681500  0.60318500  0.50000000  1
  Cu  Cu41  1  0.89681500  0.39681500  0.79362900  1
  Cu  Cu42  1  0.60318500  0.10318500  0.20637100  1
  Cu  Cu43  1  0.10318500  0.89681500  0.50000000  1
  Cu  Cu44  1  0.60318500  0.39681500  0.50000000  1
  Cu  Cu45  1  0.10318500  0.60318500  0.20637100  1
  Cu  Cu46  1  0.39681500  0.89681500  0.79362900  1
  Cu  Cu47  1  0.89681500  0.10318500  0.50000000  1
