# generated using pymatgen
data_CuC2
_symmetry_space_group_name_H-M   'P 1'
_cell_length_a   8.74524180
_cell_length_b   8.74524180
_cell_length_c   11.70145307
_cell_angle_alpha   60.50756613
_cell_angle_beta   60.50756613
_cell_angle_gamma   59.76709967
_symmetry_Int_Tables_number   1
_chemical_formula_structural   CuC2
_chemical_formula_sum   'Cu24 C48'
_cell_volume   636.46765022
_cell_formula_units_Z   24
loop_
 _symmetry_equiv_pos_site_id
 _symmetry_equiv_pos_as_xyz
  1  'x, y, z'
loop_
 _atom_site_type_symbol
 _atom_site_label
 _atom_site_symmetry_multiplicity
 _atom_site_fract_x
 _atom_site_fract_y
 _atom_site_fract_z
 _atom_site_occupancy
  Cu  Cu0  1  0.01757692  0.00686243  0.23686645  1
  Cu  Cu1  1  0.99974066  0.31936022  0.99803081  1
  Cu  Cu2  1  0.65895699  0.98395927  0.76511203  1
  Cu  Cu3  1  0.64645995  0.70370191  0.76082111  1
  Cu  Cu4  1  0.64083287  0.02308598  0.47756467  1
  Cu  Cu5  1  0.33002498  0.32563766  0.25215320  1
  Cu  Cu6  1  0.67235313  0.30027275  0.26650073  1
  Cu  Cu7  1  0.67277012  0.99884340  0.24264562  1
  Cu  Cu8  1  0.32587372  0.68136086  0.98740219  1
  Cu  Cu9  1  0.34355972  0.94239471  0.78842759  1
  Cu  Cu10  1  0.32800534  0.65661619  0.75349015  1
  Cu  Cu11  1  0.30826161  0.33425188  0.77314252  1
  Cu  Cu12  1  0.36279548  0.64887726  0.25924824  1
  Cu  Cu13  1  0.00331692  0.66417062  0.75647412  1
  Cu  Cu14  1  0.98645658  0.32111004  0.75609068  1
  Cu  Cu15  1  0.98769113  0.96688194  0.77350397  1
  Cu  Cu16  1  0.00298398  0.32306260  0.49512090  1
  Cu  Cu17  1  0.66086254  0.67470075  0.23470944  1
  Cu  Cu18  1  0.01466056  0.66705933  0.23959441  1
  Cu  Cu19  1  0.00691833  0.32001133  0.25204901  1
  Cu  Cu20  1  0.67825058  0.01293825  0.99313008  1
  Cu  Cu21  1  0.69895489  0.31344469  0.73367884  1
  Cu  Cu22  1  0.33709809  0.65187906  0.50599746  1
  Cu  Cu23  1  0.34353220  0.95140203  0.24781640  1
  C  C24  1  0.66795200  0.33204800  0.50000000  1
  C  C25  1  0.65957700  0.66807800  0.00087900  1
  C  C26  1  0.67298700  0.32701300  0.00000000  1
  C  C27  1  0.33136100  0.00855500  0.00111000  1
  C  C28  1  0.33192200  0.34042300  0.99912100  1
  C  C29  1  0.32917400  0.33556500  0.50153900  1
  C  C30  1  0.33817700  0.00437100  0.49884500  1
  C  C31  1  0.00729200  0.99270800  0.00000000  1
  C  C32  1  0.99144500  0.66863900  0.99889000  1
  C  C33  1  0.99562900  0.66182300  0.50115500  1
  C  C34  1  0.00485400  0.99514600  0.50000000  1
  C  C35  1  0.66443500  0.67082600  0.49846100  1
  C  C36  1  0.83083600  0.16221600  0.11488900  1
  C  C37  1  0.80949900  0.49782400  0.88878700  1
  C  C38  1  0.85554900  0.82501300  0.61465200  1
  C  C39  1  0.52494900  0.50127100  0.11385200  1
  C  C40  1  0.83466500  0.17024200  0.38774100  1
  C  C41  1  0.50217600  0.19050100  0.11121300  1
  C  C42  1  0.50664300  0.83538400  0.88619200  1
  C  C43  1  0.49872900  0.47505100  0.88614800  1
  C  C44  1  0.50038400  0.18993000  0.61168500  1
  C  C45  1  0.49105900  0.83196800  0.61575000  1
  C  C46  1  0.18894200  0.16750300  0.11244000  1
  C  C47  1  0.50225900  0.47821200  0.38898200  1
  C  C48  1  0.16098100  0.85777600  0.11328900  1
  C  C49  1  0.16461600  0.49335700  0.11380800  1
  C  C50  1  0.48044800  0.16467100  0.38784600  1
  C  C51  1  0.17552200  0.14161000  0.88760700  1
  C  C52  1  0.16724700  0.51146300  0.88555400  1
  C  C53  1  0.14222400  0.83901900  0.88671100  1
  C  C54  1  0.19356100  0.16855300  0.61257700  1
  C  C55  1  0.16130100  0.50073500  0.61553700  1
  C  C56  1  0.16000000  0.86000500  0.61352500  1
  C  C57  1  0.85839000  0.82447800  0.11239300  1
  C  C58  1  0.16803200  0.50894100  0.38425000  1
  C  C59  1  0.17498700  0.14445100  0.38534800  1
  C  C60  1  0.83039400  0.52590700  0.11152000  1
  C  C61  1  0.13999500  0.84000000  0.38647500  1
  C  C62  1  0.83778400  0.16916400  0.88511100  1
  C  C63  1  0.83249700  0.81105800  0.88756000  1
  C  C64  1  0.83532900  0.51955200  0.61215400  1
  C  C65  1  0.82975800  0.16533500  0.61225900  1
  C  C66  1  0.83144700  0.80643900  0.38742300  1
  C  C67  1  0.48853700  0.83275300  0.11444600  1
  C  C68  1  0.81007000  0.49961600  0.38831500  1
  C  C69  1  0.47409300  0.16960600  0.88848000  1
  C  C70  1  0.52178800  0.49774100  0.61101800  1
  C  C71  1  0.49926500  0.83869900  0.38446300  1
