# generated using pymatgen
data_Cu11Ni17C12
_symmetry_space_group_name_H-M   'P 1'
_cell_length_a   5.38013100
_cell_length_b   7.48108100
_cell_length_c   42.16759800
_cell_angle_alpha   90.00000000
_cell_angle_beta   90.00000000
_cell_angle_gamma   90.00000000
_symmetry_Int_Tables_number   1
_chemical_formula_structural   Cu11Ni17C12
_chemical_formula_sum   'Cu33 Ni51 C36'
_cell_volume   1697.21190839
_cell_formula_units_Z   3
loop_
 _symmetry_equiv_pos_site_id
 _symmetry_equiv_pos_as_xyz
  1  'x, y, z'
loop_
 _atom_site_type_symbol
 _atom_site_label
 _atom_site_symmetry_multiplicity
 _atom_site_fract_x
 _atom_site_fract_y
 _atom_site_fract_z
 _atom_site_occupancy
  C  C0  1  0.74783500  0.98709100  0.35121800  1
  C  C1  1  0.67467700  0.99633700  0.51137500  1
  C  C2  1  0.25216500  0.48709100  0.14878200  1
  C  C3  1  0.76432700  0.01744900  0.11989600  1
  C  C4  1  0.74804100  0.21793700  0.23580700  1
  C  C5  1  0.23567300  0.51744900  0.38010400  1
  C  C6  1  0.75195900  0.78206300  0.73580700  1
  C  C7  1  0.75216500  0.01290900  0.85121800  1
  C  C8  1  0.24783500  0.51290900  0.64878200  1
  C  C9  1  0.24804100  0.28206300  0.76419300  1
  C  C10  1  0.26432700  0.48255100  0.88010400  1
  C  C11  1  0.73567300  0.98255100  0.61989600  1
  C  C12  1  0.32532300  0.49633700  0.98862500  1
  C  C13  1  0.17467700  0.50366300  0.48862500  1
  C  C14  1  0.25195900  0.71793700  0.26419300  1
  C  C15  1  0.82532300  0.00366300  0.01137500  1
  C  C16  1  0.23584800  0.98963400  0.68030500  1
  C  C17  1  0.76073400  0.68860600  0.19981900  1
  C  C18  1  0.23926600  0.18860600  0.30018100  1
  C  C19  1  0.33350100  0.20853000  0.06049500  1
  C  C20  1  0.26415200  0.01036600  0.18030500  1
  C  C21  1  0.26073400  0.81139400  0.80018100  1
  C  C22  1  0.73926600  0.31139400  0.69981900  1
  C  C23  1  0.66649900  0.70853000  0.43950500  1
  C  C24  1  0.83350100  0.29147000  0.93950500  1
  C  C25  1  0.16649900  0.79147000  0.56049500  1
  C  C26  1  0.76415200  0.48963400  0.81969500  1
  C  C27  1  0.73584800  0.51036600  0.31969500  1
  C  C28  1  0.18051900  0.27490800  0.56634600  1
  C  C29  1  0.68051900  0.22509200  0.43365400  1
  C  C30  1  0.29961000  0.99065700  0.92527100  1
  C  C31  1  0.31948100  0.72509200  0.06634600  1
  C  C32  1  0.81948100  0.77490800  0.93365400  1
  C  C33  1  0.70039000  0.49065700  0.57472900  1
  C  C34  1  0.20039000  0.00934300  0.42527100  1
  C  C35  1  0.79961000  0.50934300  0.07472900  1
  Cu  Cu36  1  0.98141484  0.99738732  0.56609482  1
  Cu  Cu37  1  0.86791523  0.67555061  0.54982422  1
  Ni  Ni38  1  0.46151400  0.18234700  0.68315100  1
  Ni  Ni39  1  0.49372900  0.68188600  0.10470100  1
  Ni  Ni40  1  0.10868000  0.86467400  0.38989900  1
  Cu  Cu41  1  0.25193405  0.92494684  0.83765476  1
  Ni  Ni42  1  0.89132000  0.36467400  0.11010100  1
  Ni  Ni43  1  0.44677300  0.91515600  0.56778300  1
  Ni  Ni44  1  0.46056100  0.35145100  0.31985100  1
  Ni  Ni45  1  0.53943900  0.85145100  0.18014900  1
  Cu  Cu46  1  0.55823950  0.70089337  0.31961178  1
  Cu  Cu47  1  0.20381003  0.83906904  0.52070544  1
  Cu  Cu48  1  0.65688112  0.73885232  0.97274836  1
  Ni  Ni49  1  0.55322700  0.41515600  0.93221700  1
  Ni  Ni50  1  0.39195600  0.26273500  0.10147800  1
  Ni  Ni51  1  0.64052900  0.66622800  0.04353800  1
  Ni  Ni52  1  0.50047800  0.55905100  0.21373300  1
  Cu  Cu53  1  0.24050084  0.01394768  0.72218896  1
  Ni  Ni54  1  0.13909000  0.18331900  0.94954900  1
  Ni  Ni55  1  0.72075900  0.51802200  0.27746200  1
  Cu  Cu56  1  0.94659383  0.30851715  0.31855662  1
  Ni  Ni57  1  0.51720200  0.00144900  0.06489400  1
  Cu  Cu58  1  0.48400218  0.30044370  0.81880648  1
  Ni  Ni59  1  0.03943900  0.64854900  0.81985100  1
  Ni  Ni60  1  0.33034400  0.23628100  0.52628600  1
  Cu  Cu61  1  0.00194440  0.00984282  0.28199963  1
  Cu  Cu62  1  0.51347256  0.45980448  0.71217553  1
  Ni  Ni63  1  0.25221700  0.97174200  0.13843600  1
  Cu  Cu64  1  0.10863380  0.72301786  0.59786656  1
  Ni  Ni65  1  0.48494400  0.19223900  0.17587100  1
  Cu  Cu66  1  0.50922398  0.29072709  0.59289226  1
  Ni  Ni67  1  0.74778300  0.47174200  0.36156400  1
  Ni  Ni68  1  0.26747800  0.66800600  0.76609900  1
  Cu  Cu69  1  0.37636183  0.18557868  0.46044308  1
  Ni  Ni70  1  0.81973700  0.91885400  0.44804700  1
  Cu  Cu71  1  0.68368446  0.30931323  0.05020743  1
  Ni  Ni72  1  0.99952200  0.44094900  0.71373300  1
  Ni  Ni73  1  0.89195600  0.23726500  0.89852200  1
  Ni  Ni74  1  0.23898900  0.07275200  0.33734700  1
  Ni  Ni75  1  0.50627100  0.18188600  0.39529900  1
  Ni  Ni76  1  0.73898900  0.42724800  0.66265300  1
  Ni  Ni77  1  0.01720200  0.49855100  0.93510600  1
  Ni  Ni78  1  0.01505600  0.80776100  0.67587100  1
  Cu  Cu79  1  0.04812656  0.07957247  0.06958234  1
  Ni  Ni80  1  0.27924100  0.01802200  0.22253800  1
  Cu  Cu81  1  0.84315680  0.35432901  0.98443536  1
  Ni  Ni82  1  0.73252200  0.16800600  0.73390100  1
  Ni  Ni83  1  0.18026300  0.41885400  0.05195300  1
  Ni  Ni84  1  0.75221700  0.52825800  0.86156400  1
  Cu  Cu85  1  0.76272268  0.83371522  0.23682426  1
  Cu  Cu86  1  0.70761309  0.66163662  0.48241457  1
  Cu  Cu87  1  0.01471779  0.94112966  0.78763435  1
  Ni  Ni88  1  0.99396400  0.20911600  0.40891700  1
  Cu  Cu89  1  0.40549293  0.12488359  0.88814250  1
  Ni  Ni90  1  0.68026300  0.08114600  0.94804700  1
  Cu  Cu91  1  0.00125701  0.71651920  0.08909583  1
  Ni  Ni92  1  0.00781700  0.16643500  0.17800200  1
  Ni  Ni93  1  0.96056100  0.14854900  0.68014900  1
  Ni  Ni94  1  0.85947100  0.33377200  0.54353800  1
  Ni  Ni95  1  0.76101100  0.57275200  0.16265300  1
  Ni  Ni96  1  0.49952200  0.05905100  0.28626700  1
  Cu  Cu97  1  0.13834189  0.84203718  0.95471763  1
  Cu  Cu98  1  0.38882629  0.83977295  0.45180860  1
  Ni  Ni99  1  0.60804400  0.76273500  0.39852200  1
  Cu  Cu100  1  0.04525157  0.82056764  0.18173579  1
  Ni  Ni101  1  0.99218300  0.66643500  0.32199800  1
  Ni  Ni102  1  0.99372900  0.81811400  0.89529900  1
  Cu  Cu103  1  0.44297675  0.50638251  0.43517580  1
  Ni  Ni104  1  0.00627100  0.31811400  0.60470100  1
  Cu  Cu105  1  0.29869239  0.59365815  0.55030994  1
  Ni  Ni106  1  0.49218300  0.83356500  0.67800200  1
  Cu  Cu107  1  0.80708933  0.48401065  0.77549703  1
  Ni  Ni108  1  0.83034400  0.26371900  0.47371400  1
  Cu  Cu109  1  0.23728149  0.02539953  0.63433446  1
  Cu  Cu110  1  0.95535605  0.29926207  0.82413240  1
  Ni  Ni111  1  0.98171500  0.53363100  0.21642900  1
  Ni  Ni112  1  0.31296600  0.15873900  0.01749400  1
  Ni  Ni113  1  0.94677300  0.58484400  0.43221700  1
  Cu  Cu114  1  0.16103049  0.77210979  0.02912398  1
  Cu  Cu115  1  0.50552528  0.69509655  0.81379397  1
  Cu  Cu116  1  0.49495218  0.98796335  0.78400003  1
  Ni  Ni117  1  0.60868000  0.63532600  0.61010100  1
  Ni  Ni118  1  0.50603600  0.79088400  0.90891700  1
  Ni  Ni119  1  0.23252200  0.33199400  0.26609900  1
