# generated using pymatgen
data_Cu5C3
_symmetry_space_group_name_H-M   'P 1'
_cell_length_a   10.06509600
_cell_length_b   5.26818900
_cell_length_c   7.55524128
_cell_angle_alpha   70.62909037
_cell_angle_beta   90.00000000
_cell_angle_gamma   90.00000000
_symmetry_Int_Tables_number   1
_chemical_formula_structural   Cu5C3
_chemical_formula_sum   'Cu20 C12'
_cell_volume   377.93700698
_cell_formula_units_Z   4
loop_
 _symmetry_equiv_pos_site_id
 _symmetry_equiv_pos_as_xyz
  1  'x, y, z'
loop_
 _atom_site_type_symbol
 _atom_site_label
 _atom_site_symmetry_multiplicity
 _atom_site_fract_x
 _atom_site_fract_y
 _atom_site_fract_z
 _atom_site_occupancy
  C  C0  1  0.75000000  0.95851400  0.65296500  1
  C  C1  1  0.25000000  0.04148600  0.34703500  1
  C  C2  1  0.43883600  0.04505000  0.67890600  1
  C  C3  1  0.06116400  0.04505000  0.67890600  1
  C  C4  1  0.93883600  0.95495000  0.32109400  1
  C  C5  1  0.56116400  0.95495000  0.32109400  1
  C  C6  1  0.43600800  0.54606200  0.18362600  1
  C  C7  1  0.06399200  0.54606200  0.18362600  1
  C  C8  1  0.75000000  0.45582100  0.15383700  1
  C  C9  1  0.25000000  0.54417900  0.84616300  1
  C  C10  1  0.56399200  0.45393800  0.81637400  1
  C  C11  1  0.93600800  0.45393800  0.81637400  1
  Cu  Cu12  1  0.60680103  0.20443187  0.70255987  1
  Cu  Cu13  1  0.89425950  0.18348912  0.71417150  1
  Cu  Cu14  1  0.07802211  0.19159285  0.43158512  1
  Cu  Cu15  1  0.43602684  0.24276204  0.40543615  1
  Cu  Cu16  1  0.22790663  0.93001404  0.63083403  1
  Cu  Cu17  1  0.73375675  0.10237623  0.35335514  1
  Cu  Cu18  1  0.58008193  0.74210954  0.61046433  1
  Cu  Cu19  1  0.91825314  0.78760923  0.61030288  1
  Cu  Cu20  1  0.40813981  0.80465570  0.25268999  1
  Cu  Cu21  1  0.08137020  0.87118510  0.25922063  1
  Cu  Cu22  1  0.62673561  0.66048671  0.22964252  1
  Cu  Cu23  1  0.88045189  0.65118089  0.25007640  1
  Cu  Cu24  1  0.07118401  0.71843684  0.86864439  1
  Cu  Cu25  1  0.42073375  0.72493536  0.85357105  1
  Cu  Cu26  1  0.27154871  0.40022717  0.12912193  1
  Cu  Cu27  1  0.73741128  0.58276888  0.87531153  1
  Cu  Cu28  1  0.92005374  0.27115575  0.07454609  1
  Cu  Cu29  1  0.55434643  0.34046044  0.11515137  1
  Cu  Cu30  1  0.39599247  0.34273346  0.77350500  1
  Cu  Cu31  1  0.13471838  0.30045045  0.80362433  1
