# generated using pymatgen
data_Cu3C2
_symmetry_space_group_name_H-M   'P 1'
_cell_length_a   3.96469600
_cell_length_b   3.96469600
_cell_length_c   7.93105200
_cell_angle_alpha   90.00000000
_cell_angle_beta   90.00000000
_cell_angle_gamma   90.00000000
_symmetry_Int_Tables_number   1
_chemical_formula_structural   Cu3C2
_chemical_formula_sum   'Cu6 C4'
_cell_volume   124.66673417
_cell_formula_units_Z   2
loop_
 _symmetry_equiv_pos_site_id
 _symmetry_equiv_pos_as_xyz
  1  'x, y, z'
loop_
 _atom_site_type_symbol
 _atom_site_label
 _atom_site_symmetry_multiplicity
 _atom_site_fract_x
 _atom_site_fract_y
 _atom_site_fract_z
 _atom_site_occupancy
  C  C0  1  0.00000000  0.00000000  0.00000000  1
  C  C1  1  0.00000000  0.00000000  0.50000000  1
  C  C2  1  0.50000100  0.50000100  0.74785100  1
  C  C3  1  0.50000100  0.50000100  0.25214900  1
  Cu  Cu4  1  0.98025935  0.50298488  0.70779965  1
  Cu  Cu5  1  0.49770318  0.01108067  0.74447036  1
  Cu  Cu6  1  0.03779066  0.48761966  0.29114776  1
  Cu  Cu7  1  0.56052483  0.99146967  0.25561316  1
  Cu  Cu8  1  0.52754874  0.50472488  0.03939271  1
  Cu  Cu9  1  0.50365739  0.48371003  0.49036884  1
