# generated using pymatgen
data_Cu42Ni29
_symmetry_space_group_name_H-M   'P 1'
_cell_length_a   6.37649868
_cell_length_b   6.37649868
_cell_length_c   66.51574723
_cell_angle_alpha   84.98143575
_cell_angle_beta   84.98143575
_cell_angle_gamma   33.83932880
_symmetry_Int_Tables_number   1
_chemical_formula_structural   Cu42Ni29
_chemical_formula_sum   'Cu42 Ni29'
_cell_volume   1499.74187307
_cell_formula_units_Z   1
loop_
 _symmetry_equiv_pos_site_id
 _symmetry_equiv_pos_as_xyz
  1  'x, y, z'
loop_
 _atom_site_type_symbol
 _atom_site_label
 _atom_site_symmetry_multiplicity
 _atom_site_fract_x
 _atom_site_fract_y
 _atom_site_fract_z
 _atom_site_occupancy
  Ni  Ni0  1  0.00155600  0.00155600  0.00065300  1
  Ni  Ni1  1  0.42796500  0.42796500  0.04685100  1
  Ni  Ni2  1  0.14611100  0.14611100  0.07208400  1
  Ni  Ni3  1  0.85531700  0.85531700  0.09824700  1
  Ni  Ni4  1  0.28493800  0.28493800  0.14464500  1
  Ni  Ni5  1  0.71413400  0.71413400  0.19016500  1
  Ni  Ni6  1  0.14300400  0.14300400  0.23818700  1
  Ni  Ni7  1  0.57136200  0.57136200  0.28575100  1
  Ni  Ni8  1  0.00001400  0.00001400  0.33332400  1
  Ni  Ni9  1  0.42869600  0.42869600  0.38091800  1
  Ni  Ni10  1  0.85696700  0.85696700  0.42850900  1
  Ni  Ni11  1  0.71492400  0.71492400  0.52201700  1
  Ni  Ni12  1  0.28582300  0.28582300  0.47652300  1
  Ni  Ni13  1  0.57202500  0.57202500  0.61978400  1
  Ni  Ni14  1  0.14469100  0.14469100  0.56840700  1
  Ni  Ni15  1  0.85402300  0.85402300  0.59454300  1
  Ni  Ni16  1  0.99839300  0.99839300  0.66606900  1
  Ni  Ni17  1  0.71444400  0.71444400  0.68999600  1
  Ni  Ni18  1  0.42828500  0.42828500  0.71436200  1
  Ni  Ni19  1  0.14282200  0.14282200  0.73878800  1
  Ni  Ni20  1  0.85863000  0.85863000  0.76266600  1
  Ni  Ni21  1  0.28442000  0.28442000  0.80873000  1
  Ni  Ni22  1  0.99907000  0.99907000  0.83270000  1
  Ni  Ni23  1  0.71578400  0.71578400  0.85700900  1
  Ni  Ni24  1  0.42694800  0.42694800  0.88091400  1
  Ni  Ni25  1  0.14270700  0.14270700  0.90473500  1
  Ni  Ni26  1  0.85865800  0.85865800  0.92857900  1
  Ni  Ni27  1  0.57052000  0.57052000  0.95245900  1
  Ni  Ni28  1  0.28632500  0.28632500  0.97669500  1
  Cu  Cu29  1  0.36249200  0.36249200  0.01109500  1
  Cu  Cu30  1  0.78546600  0.78546600  0.05923000  1
  Cu  Cu31  1  0.06519800  0.06519800  0.03598700  1
  Cu  Cu32  1  0.21560700  0.21560700  0.10550400  1
  Cu  Cu33  1  0.50125000  0.50125000  0.08188000  1
  Cu  Cu34  1  0.65133200  0.65133200  0.15470700  1
  Cu  Cu35  1  0.92107500  0.92107500  0.13017800  1
  Cu  Cu36  1  0.08099200  0.08099200  0.20266300  1
  Cu  Cu37  1  0.34935200  0.34935200  0.17897700  1
  Cu  Cu38  1  0.50921200  0.50921200  0.24996100  1
  Cu  Cu39  1  0.77559700  0.77559700  0.22621100  1
  Cu  Cu40  1  0.93757300  0.93757300  0.29766800  1
  Cu  Cu41  1  0.20505000  0.20505000  0.27378100  1
  Cu  Cu42  1  0.36599900  0.36599900  0.34532900  1
  Cu  Cu43  1  0.63403400  0.63403400  0.32135700  1
  Cu  Cu44  1  0.79501200  0.79501200  0.39290400  1
  Cu  Cu45  1  0.06243500  0.06243500  0.36899600  1
  Cu  Cu46  1  0.22440100  0.22440100  0.44046200  1
  Cu  Cu47  1  0.49071200  0.49071200  0.41671600  1
  Cu  Cu48  1  0.65062600  0.65062600  0.48766700  1
  Cu  Cu49  1  0.91904700  0.91904700  0.46400000  1
  Cu  Cu50  1  0.07886500  0.07886500  0.53648100  1
  Cu  Cu51  1  0.34858600  0.34858600  0.51195200  1
  Cu  Cu52  1  0.49879400  0.49879400  0.58473200  1
  Cu  Cu53  1  0.78439900  0.78439900  0.56112600  1
  Cu  Cu54  1  0.93484900  0.93484900  0.63062700  1
  Cu  Cu55  1  0.21456000  0.21456000  0.60739900  1
  Cu  Cu56  1  0.35561400  0.35561400  0.67843900  1
  Cu  Cu57  1  0.63723800  0.63723800  0.65559700  1
  Cu  Cu58  1  0.78561700  0.78561700  0.72636500  1
  Cu  Cu59  1  0.07153000  0.07153000  0.70242400  1
  Cu  Cu60  1  0.21927800  0.21927800  0.77336500  1
  Cu  Cu61  1  0.50123100  0.50123100  0.75022600  1
  Cu  Cu62  1  0.64156400  0.64156400  0.82140500  1
  Cu  Cu63  1  0.92377600  0.92377600  0.79809700  1
  Cu  Cu64  1  0.07098200  0.07098200  0.86886000  1
  Cu  Cu65  1  0.35651700  0.35651700  0.84493500  1
  Cu  Cu66  1  0.50016100  0.50016100  0.91652700  1
  Cu  Cu67  1  0.78553300  0.78553300  0.89299500  1
  Cu  Cu68  1  0.92931300  0.92931300  0.96447400  1
  Cu  Cu69  1  0.21467600  0.21467600  0.94058700  1
  Cu  Cu70  1  0.64445500  0.64445500  0.98809200  1
