# generated using pymatgen
data_Cu3NiC10
_symmetry_space_group_name_H-M   'P 1'
_cell_length_a   5.98232231
_cell_length_b   5.98232231
_cell_length_c   5.98232231
_cell_angle_alpha   120.97042860
_cell_angle_beta   120.58759418
_cell_angle_gamma   88.65625409
_symmetry_Int_Tables_number   1
_chemical_formula_structural   Cu3NiC10
_chemical_formula_sum   'Cu3 Ni1 C10'
_cell_volume   149.55969547
_cell_formula_units_Z   1
loop_
 _symmetry_equiv_pos_site_id
 _symmetry_equiv_pos_as_xyz
  1  'x, y, z'
loop_
 _atom_site_type_symbol
 _atom_site_label
 _atom_site_symmetry_multiplicity
 _atom_site_fract_x
 _atom_site_fract_y
 _atom_site_fract_z
 _atom_site_occupancy
  C  C0  1  0.50000000  0.50000000  0.00000000  1
  C  C1  1  0.00000000  0.50000000  0.50000000  1
  Cu  Cu2  1  0.63308269  0.89363781  0.76739940  1
  Cu  Cu3  1  0.38419196  0.09473491  0.26228136  1
  Cu  Cu4  1  0.02050578  0.01793273  0.52385494  1
  Ni  Ni5  1  0.00000000  0.50000000  0.00000000  1
  C  C6  1  0.23348100  0.23708200  0.50360100  1
  C  C7  1  0.23892500  0.25029500  0.98863000  1
  C  C8  1  0.23348100  0.72988000  0.99639900  1
  C  C9  1  0.76166600  0.25029500  0.51137000  1
  C  C10  1  0.23833400  0.74970500  0.48863000  1
  C  C11  1  0.76107500  0.74970500  0.01137000  1
  C  C12  1  0.76651900  0.27012000  0.00360100  1
  C  C13  1  0.76651900  0.76291800  0.49639900  1
