# generated using pymatgen
data_CuC5
_symmetry_space_group_name_H-M   'P 1'
_cell_length_a   9.10381470
_cell_length_b   9.10381470
_cell_length_c   4.09494900
_cell_angle_alpha   90.00000000
_cell_angle_beta   90.00000000
_cell_angle_gamma   120.00000506
_symmetry_Int_Tables_number   1
_chemical_formula_structural   CuC5
_chemical_formula_sum   'Cu3 C15'
_cell_volume   293.91782517
_cell_formula_units_Z   3
loop_
 _symmetry_equiv_pos_site_id
 _symmetry_equiv_pos_as_xyz
  1  'x, y, z'
loop_
 _atom_site_type_symbol
 _atom_site_label
 _atom_site_symmetry_multiplicity
 _atom_site_fract_x
 _atom_site_fract_y
 _atom_site_fract_z
 _atom_site_occupancy
  Cu  Cu0  1  0.02039162  0.42856668  0.02628560  1
  Cu  Cu1  1  0.59396036  0.58139409  0.97128984  1
  Cu  Cu2  1  0.41372043  0.00751358  0.00364361  1
  C  C3  1  0.00000000  0.74155700  0.00000000  1
  C  C4  1  0.25844300  0.25844300  0.00000000  1
  C  C5  1  0.74155700  0.00000000  0.00000000  1
  C  C6  1  0.00000000  0.16942600  0.50000000  1
  C  C7  1  0.83057400  0.83057400  0.50000000  1
  C  C8  1  0.16942600  0.00000000  0.50000000  1
  C  C9  1  0.29700200  0.48009300  0.50000000  1
  C  C10  1  0.18309100  0.70299800  0.50000000  1
  C  C11  1  0.51990700  0.81690900  0.50000000  1
  C  C12  1  0.81690900  0.51990700  0.50000000  1
  C  C13  1  0.70299800  0.18309100  0.50000000  1
  C  C14  1  0.48009300  0.29700200  0.50000000  1
  C  C15  1  0.66666700  0.33333300  0.00000000  1
  C  C16  1  0.33333300  0.66666700  0.00000000  1
  C  C17  1  0.00000000  0.00000000  0.00000000  1
