# generated using pymatgen
data_Cu3C
_symmetry_space_group_name_H-M   'P 1'
_cell_length_a   4.66129300
_cell_length_b   4.88003251
_cell_length_c   7.59715774
_cell_angle_alpha   107.75589212
_cell_angle_beta   91.50697545
_cell_angle_gamma   116.69352999
_symmetry_Int_Tables_number   1
_chemical_formula_structural   Cu3C
_chemical_formula_sum   'Cu6 C2'
_cell_volume   144.30830531
_cell_formula_units_Z   2
loop_
 _symmetry_equiv_pos_site_id
 _symmetry_equiv_pos_as_xyz
  1  'x, y, z'
loop_
 _atom_site_type_symbol
 _atom_site_label
 _atom_site_symmetry_multiplicity
 _atom_site_fract_x
 _atom_site_fract_y
 _atom_site_fract_z
 _atom_site_occupancy
  C  C0  1  0.11749300  0.75525500  0.26292900  1
  C  C1  1  0.88250700  0.24474500  0.73707100  1
  Cu  Cu2  1  0.25826002  0.66633924  0.02336144  1
  Cu  Cu3  1  0.69528460  0.60057585  0.61297252  1
  Cu  Cu4  1  0.50951059  0.79127696  0.32883104  1
  Cu  Cu5  1  0.29710438  0.41406630  0.39819663  1
  Cu  Cu6  1  0.61332654  0.29640449  0.96220927  1
  Cu  Cu7  1  0.42853469  0.17159949  0.64358077  1
