# generated using pymatgen
data_Cu12NiC3
_symmetry_space_group_name_H-M   'P 1'
_cell_length_a   9.18144402
_cell_length_b   9.18144402
_cell_length_c   9.18144359
_cell_angle_alpha   51.99120450
_cell_angle_beta   51.99120450
_cell_angle_gamma   51.99120822
_symmetry_Int_Tables_number   1
_chemical_formula_structural   Cu12NiC3
_chemical_formula_sum   'Cu24 Ni2 C6'
_cell_volume   444.23721723
_cell_formula_units_Z   2
loop_
 _symmetry_equiv_pos_site_id
 _symmetry_equiv_pos_as_xyz
  1  'x, y, z'
loop_
 _atom_site_type_symbol
 _atom_site_label
 _atom_site_symmetry_multiplicity
 _atom_site_fract_x
 _atom_site_fract_y
 _atom_site_fract_z
 _atom_site_occupancy
  Ni  Ni0  1  0.94270200  0.94270200  0.94270200  1
  Ni  Ni1  1  0.44270200  0.44270200  0.44270200  1
  C  C2  1  0.03554300  0.30826700  0.65564000  1
  C  C3  1  0.15564000  0.80826700  0.53554300  1
  C  C4  1  0.53554300  0.15564000  0.80826700  1
  C  C5  1  0.30826700  0.65564000  0.03554300  1
  C  C6  1  0.65564000  0.03554300  0.30826700  1
  C  C7  1  0.80826700  0.53554300  0.15564000  1
  Cu  Cu8  1  0.24050500  0.87577400  0.92243100  1
  Cu  Cu9  1  0.11376300  0.79666500  0.72434400  1
  Cu  Cu10  1  0.42305300  0.05136700  0.00304400  1
  Cu  Cu11  1  0.08387200  0.15193400  0.60858600  1
  Cu  Cu12  1  0.10858600  0.65193400  0.58387200  1
  Cu  Cu13  1  0.50304400  0.55136700  0.92305300  1
  Cu  Cu14  1  0.22434400  0.29666500  0.61376300  1
  Cu  Cu15  1  0.05136700  0.00304400  0.42305300  1
  Cu  Cu16  1  0.42243100  0.37577400  0.74050500  1
  Cu  Cu17  1  0.72434400  0.11376300  0.79666500  1
  Cu  Cu18  1  0.58387200  0.10858600  0.65193400  1
  Cu  Cu19  1  0.37577400  0.74050500  0.42243100  1
  Cu  Cu20  1  0.55136700  0.92305300  0.50304400  1
  Cu  Cu21  1  0.92243100  0.24050500  0.87577400  1
  Cu  Cu22  1  0.15193400  0.60858600  0.08387200  1
  Cu  Cu23  1  0.29666500  0.61376300  0.22434400  1
  Cu  Cu24  1  0.61376300  0.22434400  0.29666500  1
  Cu  Cu25  1  0.92305300  0.50304400  0.55136700  1
  Cu  Cu26  1  0.74050500  0.42243100  0.37577400  1
  Cu  Cu27  1  0.60858600  0.08387200  0.15193400  1
  Cu  Cu28  1  0.65193400  0.58387200  0.10858600  1
  Cu  Cu29  1  0.87577400  0.92243100  0.24050500  1
  Cu  Cu30  1  0.79666500  0.72434400  0.11376300  1
  Cu  Cu31  1  0.00304400  0.42305300  0.05136700  1
