# generated using pymatgen
data_Cu13Ni5C12
_symmetry_space_group_name_H-M   'P 1'
_cell_length_a   6.18562600
_cell_length_b   6.44568217
_cell_length_c   7.48688203
_cell_angle_alpha   102.51358905
_cell_angle_beta   97.13334251
_cell_angle_gamma   102.41791505
_symmetry_Int_Tables_number   1
_chemical_formula_structural   Cu13Ni5C12
_chemical_formula_sum   'Cu13 Ni5 C12'
_cell_volume   279.99494231
_cell_formula_units_Z   1
loop_
 _symmetry_equiv_pos_site_id
 _symmetry_equiv_pos_as_xyz
  1  'x, y, z'
loop_
 _atom_site_type_symbol
 _atom_site_label
 _atom_site_symmetry_multiplicity
 _atom_site_fract_x
 _atom_site_fract_y
 _atom_site_fract_z
 _atom_site_occupancy
  C  C0  1  0.11275900  0.32286400  0.64045800  1
  C  C1  1  0.45056800  0.90902200  0.71269200  1
  C  C2  1  0.54943200  0.09097800  0.28730800  1
  C  C3  1  0.88724100  0.67713600  0.35954200  1
  C  C4  1  0.00562800  0.85436300  0.81038600  1
  C  C5  1  0.26891200  0.66624100  0.01861500  1
  C  C6  1  0.37364100  0.64329300  0.34905900  1
  C  C7  1  0.33846400  0.31792300  0.07283300  1
  C  C8  1  0.66153600  0.68207700  0.92716700  1
  C  C9  1  0.62635900  0.35670700  0.65094100  1
  C  C10  1  0.73108800  0.33375900  0.98138500  1
  C  C11  1  0.99437200  0.14563700  0.18961400  1
  Cu  Cu12  1  0.05252142  0.97033591  0.69741847  1
  Cu  Cu13  1  0.13567030  0.70116142  0.87027194  1
  Cu  Cu14  1  0.19866418  0.42678886  0.94853656  1
  Cu  Cu15  1  0.21225135  0.59574380  0.46582089  1
  Cu  Cu16  1  0.23541808  0.74060344  0.23933065  1
  Cu  Cu17  1  0.17232694  0.15048748  0.10887572  1
  Cu  Cu18  1  0.44808358  0.19492385  0.55319834  1
  Cu  Cu19  1  0.50213081  0.22259785  0.98319641  1
  Cu  Cu20  1  0.53576177  0.55019596  0.76167090  1
  Ni  Ni21  1  0.46045400  0.46232400  0.25231000  1
  Cu  Cu22  1  0.52164259  0.77344689  0.95531475  1
  Ni  Ni23  1  0.57984300  0.81786300  0.44530200  1
  Cu  Cu24  1  0.81839495  0.85910696  0.87301112  1
  Cu  Cu25  1  0.76356721  0.22815707  0.77689704  1
  Cu  Cu26  1  0.82427933  0.37482053  0.50453231  1
  Ni  Ni27  1  0.77386700  0.57177900  0.04244000  1
  Ni  Ni28  1  0.86027800  0.28240400  0.14357700  1
  Ni  Ni29  1  0.93051100  0.04431300  0.32511200  1
