# generated using pymatgen
data_Cu29Ni11C84
_symmetry_space_group_name_H-M   'P 1'
_cell_length_a   8.54892000
_cell_length_b   8.54892000
_cell_length_c   25.40062100
_cell_angle_alpha   90.00000000
_cell_angle_beta   90.00000000
_cell_angle_gamma   90.00000000
_symmetry_Int_Tables_number   1
_chemical_formula_structural   Cu29Ni11C84
_chemical_formula_sum   'Cu29 Ni11 C84'
_cell_volume   1856.37982761
_cell_formula_units_Z   1
loop_
 _symmetry_equiv_pos_site_id
 _symmetry_equiv_pos_as_xyz
  1  'x, y, z'
loop_
 _atom_site_type_symbol
 _atom_site_label
 _atom_site_symmetry_multiplicity
 _atom_site_fract_x
 _atom_site_fract_y
 _atom_site_fract_z
 _atom_site_occupancy
  Cu  Cu0  1  0.72075543  0.20393500  0.82852538  1
  Cu  Cu1  1  0.41236518  0.69594416  0.94420091  1
  Cu  Cu2  1  0.88084101  0.01868280  0.06371450  1
  Cu  Cu3  1  0.36666198  0.08143005  0.20638013  1
  Ni  Ni4  1  0.40147200  0.48518400  0.68934000  1
  Cu  Cu5  1  0.61194511  0.90612675  0.71126767  1
  Cu  Cu6  1  0.51579932  0.39721603  0.31697939  1
  Ni  Ni7  1  0.91534000  0.80442800  0.80382800  1
  Cu  Cu8  1  0.01236422  0.89796527  0.94342433  1
  Ni  Ni9  1  0.01275000  0.68250000  0.66717600  1
  Cu  Cu10  1  0.59205377  0.49946131  0.19187596  1
  Cu  Cu11  1  0.52135057  0.80534879  0.08025582  1
  Cu  Cu12  1  0.98523766  0.30488208  0.18080323  1
  Cu  Cu13  1  0.61912702  0.08485421  0.95292427  1
  Cu  Cu14  1  0.10804615  0.98544307  0.56559938  1
  Ni  Ni15  1  0.69557200  0.41534000  0.05382800  1
  Cu  Cu16  1  0.81183188  0.90817912  0.19634490  1
  Cu  Cu17  1  0.58043218  0.31195761  0.44720154  1
  Cu  Cu18  1  0.32804419  0.97458929  0.82982335  1
  Cu  Cu19  1  0.90057010  0.59579872  0.28830127  1
  Ni  Ni20  1  0.69742700  0.78553900  0.57159400  1
  Cu  Cu21  1  0.88633443  0.39887382  0.53672135  1
  Cu  Cu22  1  0.79715427  0.28795382  0.67590317  1
  Cu  Cu23  1  0.69017172  0.01928324  0.32746787  1
  Cu  Cu24  1  0.07425692  0.39743086  0.79040155  1
  Ni  Ni25  1  0.19557200  0.08466000  0.69617200  1
  Cu  Cu26  1  0.51201934  0.61566709  0.81162160  1
  Cu  Cu27  1  0.11449028  0.58609632  0.03575072  1
  Cu  Cu28  1  0.98023568  0.12799584  0.44076794  1
  Cu  Cu29  1  0.08075281  0.21484831  0.30721228  1
  Cu  Cu30  1  0.19572356  0.73094936  0.17223185  1
  Ni  Ni31  1  0.40611000  0.89655400  0.45959400  1
  Cu  Cu32  1  0.80593878  0.69170645  0.42389400  1
  Ni  Ni33  1  0.30442800  0.58466000  0.55382800  1
  Cu  Cu34  1  0.22945572  0.31661411  0.94372034  1
  Ni  Ni35  1  0.30257300  0.21446100  0.07159400  1
  Cu  Cu36  1  0.48875118  0.19612406  0.58178691  1
  Cu  Cu37  1  0.27413033  0.79003218  0.32569324  1
  Ni  Ni38  1  0.18250000  0.48725000  0.41717600  1
  Ni  Ni39  1  0.81750000  0.51275000  0.91717600  1
  C  C40  1  0.14250500  0.63652800  0.88329300  1
  C  C41  1  0.62403400  0.48880600  0.60725200  1
  C  C42  1  0.08058000  0.91942000  0.25000000  1
  C  C43  1  0.28142400  0.20366500  0.47516800  1
  C  C44  1  0.70366500  0.21857600  0.22516800  1
  C  C45  1  0.86347200  0.64250500  0.13329300  1
  C  C46  1  0.35749500  0.13652800  0.36670700  1
  C  C47  1  0.29633500  0.78142400  0.72516800  1
  C  C48  1  0.85749500  0.36347200  0.38329300  1
  C  C49  1  0.98880600  0.87596600  0.35725200  1
  C  C50  1  0.12403400  0.01119400  0.14274800  1
  C  C51  1  0.87596600  0.98880600  0.64274800  1
  C  C52  1  0.63652800  0.14250500  0.11670700  1
  C  C53  1  0.41942000  0.41942000  0.00000000  1
  C  C54  1  0.20366500  0.28142400  0.52483200  1
  C  C55  1  0.41274900  0.30144600  0.84261500  1
  C  C56  1  0.58058000  0.58058000  0.50000000  1
  C  C57  1  0.08725100  0.80144600  0.40738500  1
  C  C58  1  0.36347200  0.85749500  0.61670700  1
  C  C59  1  0.91274900  0.19855400  0.90738500  1
  C  C60  1  0.64250500  0.86347200  0.86670700  1
  C  C61  1  0.69855400  0.58725100  0.65738500  1
  C  C62  1  0.78142400  0.29633500  0.27483200  1
  C  C63  1  0.21857600  0.70366500  0.77483200  1
  C  C64  1  0.51119400  0.37596600  0.89274800  1
  C  C65  1  0.30144600  0.41274900  0.15738500  1
  C  C66  1  0.01119400  0.12403400  0.85725200  1
  C  C67  1  0.79633500  0.71857600  0.02483200  1
  C  C68  1  0.80144600  0.08725100  0.59261500  1
  C  C69  1  0.13652800  0.35749500  0.63329300  1
  C  C70  1  0.58725100  0.69855400  0.34261500  1
  C  C71  1  0.48880600  0.62403400  0.39274800  1
  C  C72  1  0.91942000  0.08058000  0.75000000  1
  C  C73  1  0.37596600  0.51119400  0.10725200  1
  C  C74  1  0.71857600  0.79633500  0.97516800  1
  C  C75  1  0.19855400  0.91274900  0.09261500  1
  C  C76  1  0.97258000  0.28786000  0.01150300  1
  C  C77  1  0.61529700  0.89316300  0.81089800  1
  C  C78  1  0.71214000  0.02742000  0.48849700  1
  C  C79  1  0.51058600  0.40267100  0.95068300  1
  C  C80  1  0.17992700  0.29696900  0.58162500  1
  C  C81  1  0.49448500  0.18950500  0.68620200  1
  C  C82  1  0.07395300  0.78320300  0.46593100  1
  C  C83  1  0.60683700  0.11529700  0.06089800  1
  C  C84  1  0.57395300  0.71679700  0.28406900  1
  C  C85  1  0.21679700  0.92604700  0.03406900  1
  C  C86  1  0.10683700  0.38470300  0.68910200  1
  C  C87  1  0.28786000  0.97258000  0.98849700  1
  C  C88  1  0.89316300  0.61529700  0.18910200  1
  C  C89  1  0.67992700  0.20303100  0.16837500  1
  C  C90  1  0.78786000  0.52742000  0.76150300  1
  C  C91  1  0.11529700  0.60683700  0.93910200  1
  C  C92  1  0.20303100  0.67992700  0.83162500  1
  C  C93  1  0.42604700  0.28320300  0.78406900  1
  C  C94  1  0.18950500  0.49448500  0.31379800  1
  C  C95  1  0.99448500  0.31049500  0.06379800  1
  C  C96  1  0.78320300  0.07395300  0.53406900  1
  C  C97  1  0.79696900  0.32007300  0.33162500  1
  C  C98  1  0.82007300  0.70303100  0.08162500  1
  C  C99  1  0.21214000  0.47258000  0.26150300  1
  C  C100  1  0.71679700  0.57395300  0.71593100  1
  C  C101  1  0.47258000  0.21214000  0.73849700  1
  C  C102  1  0.98941400  0.90267100  0.29931700  1
  C  C103  1  0.09732900  0.01058600  0.20068300  1
  C  C104  1  0.70303100  0.82007300  0.91837500  1
  C  C105  1  0.40267100  0.51058600  0.04931700  1
  C  C106  1  0.32007300  0.79696900  0.66837500  1
  C  C107  1  0.50551500  0.81049500  0.18620200  1
  C  C108  1  0.02742000  0.71214000  0.51150300  1
  C  C109  1  0.88470300  0.39316300  0.43910200  1
  C  C110  1  0.52742000  0.78786000  0.23849700  1
  C  C111  1  0.28320300  0.42604700  0.21593100  1
  C  C112  1  0.59732900  0.48941400  0.54931700  1
  C  C113  1  0.01058600  0.09732900  0.79931700  1
  C  C114  1  0.92604700  0.21679700  0.96593100  1
  C  C115  1  0.90267100  0.98941400  0.70068300  1
  C  C116  1  0.29696900  0.17992700  0.41837500  1
  C  C117  1  0.31049500  0.99448500  0.93620200  1
  C  C118  1  0.39316300  0.88470300  0.56089800  1
  C  C119  1  0.68950500  0.00551500  0.43620200  1
  C  C120  1  0.81049500  0.50551500  0.81379800  1
  C  C121  1  0.38470300  0.10683700  0.31089800  1
  C  C122  1  0.48941400  0.59732900  0.45068300  1
  C  C123  1  0.00551500  0.68950500  0.56379800  1
