# generated using pymatgen
data_Cu31NiC40
_symmetry_space_group_name_H-M   'P 1'
_cell_length_a   7.95075200
_cell_length_b   12.88956000
_cell_length_c   7.98924154
_cell_angle_alpha   90.00000000
_cell_angle_beta   119.79975194
_cell_angle_gamma   90.00000000
_symmetry_Int_Tables_number   1
_chemical_formula_structural   Cu31NiC40
_chemical_formula_sum   'Cu31 Ni1 C40'
_cell_volume   710.48560715
_cell_formula_units_Z   1
loop_
 _symmetry_equiv_pos_site_id
 _symmetry_equiv_pos_as_xyz
  1  'x, y, z'
loop_
 _atom_site_type_symbol
 _atom_site_label
 _atom_site_symmetry_multiplicity
 _atom_site_fract_x
 _atom_site_fract_y
 _atom_site_fract_z
 _atom_site_occupancy
  Cu  Cu0  1  0.18821241  0.34223396  0.05312781  1
  Cu  Cu1  1  0.16353731  0.16565071  0.56112045  1
  Cu  Cu2  1  0.86442809  0.66003470  0.97375423  1
  Cu  Cu3  1  0.82911784  0.85078997  0.42220339  1
  Cu  Cu4  1  0.48412526  0.38631828  0.41279485  1
  Cu  Cu5  1  0.46546360  0.09952932  0.92500262  1
  Cu  Cu6  1  0.54884204  0.61087490  0.59748435  1
  Cu  Cu7  1  0.53815560  0.87312612  0.09635903  1
  Cu  Cu8  1  0.31549724  0.47400646  0.44850527  1
  Cu  Cu9  1  0.27629738  0.03570878  0.87591437  1
  Cu  Cu10  1  0.72044354  0.53146154  0.61589133  1
  Cu  Cu11  1  0.70425454  0.96671513  0.10614845  1
  Cu  Cu12  1  0.25225059  0.33400868  0.36842238  1
  Cu  Cu13  1  0.24426214  0.16373375  0.88237448  1
  Cu  Cu14  1  0.76514489  0.66222843  0.63856427  1
  Cu  Cu15  1  0.74517499  0.84863384  0.11538504  1
  Cu  Cu16  1  0.26404599  0.54290178  0.82457880  1
  Cu  Cu17  1  0.29123787  0.96638783  0.35522467  1
  Cu  Cu18  1  0.76509283  0.44242573  0.19099498  1
  Cu  Cu19  1  0.72371966  0.04194538  0.68043980  1
  Cu  Cu20  1  0.07642813  0.44680741  0.79075847  1
  Cu  Cu21  1  0.10382887  0.05767178  0.28503607  1
  Cu  Cu22  1  0.89395505  0.55166420  0.19344134  1
  Cu  Cu23  1  0.91887081  0.93951354  0.72940206  1
  Cu  Cu24  1  0.95498572  0.21039738  0.23263277  1
  Cu  Cu25  1  0.93007933  0.28095885  0.75896086  1
  Cu  Cu26  1  0.04233535  0.77754601  0.77369203  1
  Cu  Cu27  1  0.99252827  0.73473151  0.24220465  1
  Cu  Cu28  1  0.96190585  0.30024900  0.38845475  1
  Ni  Ni29  1  0.97540300  0.20207700  0.90766900  1
  Cu  Cu30  1  0.04198740  0.69540725  0.58577394  1
  Cu  Cu31  1  0.02912079  0.80418628  0.08374282  1
  C  C32  1  0.28211000  0.49032500  0.06780100  1
  C  C33  1  0.28211000  0.00967500  0.56780100  1
  C  C34  1  0.71789000  0.50967500  0.93219900  1
  C  C35  1  0.71789000  0.99032500  0.43219900  1
  C  C36  1  0.41560400  0.55201600  0.20665100  1
  C  C37  1  0.41560400  0.94798400  0.70665100  1
  C  C38  1  0.58439600  0.44798400  0.79334900  1
  C  C39  1  0.58439600  0.05201600  0.29334900  1
  C  C40  1  0.48520000  0.63509600  0.15662200  1
  C  C41  1  0.48520000  0.86490400  0.65662200  1
  C  C42  1  0.51480000  0.36490400  0.84337800  1
  C  C43  1  0.51480000  0.13509600  0.34337800  1
  C  C44  1  0.21739100  0.41135200  0.13633900  1
  C  C45  1  0.21739100  0.08864800  0.63633900  1
  C  C46  1  0.78260900  0.58864800  0.86366100  1
  C  C47  1  0.78260900  0.91135200  0.36366100  1
  C  C48  1  0.31379900  0.39727000  0.33952500  1
  C  C49  1  0.31379900  0.10273000  0.83952500  1
  C  C50  1  0.68620100  0.60273000  0.66047500  1
  C  C51  1  0.68620100  0.89727000  0.16047500  1
  C  C52  1  0.20581300  0.49711600  0.87772000  1
  C  C53  1  0.20581300  0.00288400  0.37772000  1
  C  C54  1  0.79418700  0.50288400  0.12228000  1
  C  C55  1  0.79418700  0.99711600  0.62228000  1
  C  C56  1  0.81037400  0.10676700  0.02851400  1
  C  C57  1  0.81037400  0.39323300  0.52851400  1
  C  C58  1  0.18962600  0.89323300  0.97148600  1
  C  C59  1  0.18962600  0.60676700  0.47148600  1
  C  C60  1  0.43274200  0.65968700  0.98532400  1
  C  C61  1  0.43274200  0.84031300  0.48532400  1
  C  C62  1  0.56725800  0.34031300  0.01467600  1
  C  C63  1  0.56725800  0.15968700  0.51467600  1
  C  C64  1  0.61085200  0.68645100  0.29626200  1
  C  C65  1  0.61085200  0.81354900  0.79626200  1
  C  C66  1  0.38914800  0.31354900  0.70373800  1
  C  C67  1  0.38914800  0.18645100  0.20373800  1
  C  C68  1  0.05040800  0.25444500  0.36627700  1
  C  C69  1  0.05040800  0.24555500  0.86627700  1
  C  C70  1  0.94959200  0.74555500  0.63372300  1
  C  C71  1  0.94959200  0.75444500  0.13372300  1
