# generated using pymatgen
data_CuNi3C8
_symmetry_space_group_name_H-M   'P 1'
_cell_length_a   8.29028900
_cell_length_b   10.69011100
_cell_length_c   9.03090813
_cell_angle_alpha   90.00000000
_cell_angle_beta   113.19382790
_cell_angle_gamma   90.00000000
_symmetry_Int_Tables_number   1
_chemical_formula_structural   CuNi3C8
_chemical_formula_sum   'Cu2 Ni6 C16'
_cell_volume   735.66962030
_cell_formula_units_Z   2
loop_
 _symmetry_equiv_pos_site_id
 _symmetry_equiv_pos_as_xyz
  1  'x, y, z'
loop_
 _atom_site_type_symbol
 _atom_site_label
 _atom_site_symmetry_multiplicity
 _atom_site_fract_x
 _atom_site_fract_y
 _atom_site_fract_z
 _atom_site_occupancy
  Ni  Ni0  1  0.92434900  0.18246400  0.32885200  1
  Ni  Ni1  1  0.07565100  0.68246400  0.67114800  1
  Ni  Ni2  1  0.94895200  0.66808400  0.35542900  1
  Cu  Cu3  1  0.06578810  0.17287395  0.65878770  1
  Cu  Cu4  1  0.51008035  0.18395033  0.97785121  1
  Ni  Ni5  1  0.50255100  0.68059100  0.01522800  1
  Ni  Ni6  1  0.80513700  0.43205100  0.01985300  1
  Ni  Ni7  1  0.19486300  0.93205100  0.98014700  1
  C  C8  1  0.50300600  0.43108700  0.50984900  1
  C  C9  1  0.49699400  0.93108700  0.49015100  1
  C  C10  1  0.80256300  0.20433700  0.02905600  1
  C  C11  1  0.19743700  0.70433700  0.97094400  1
  C  C12  1  0.19404100  0.15748800  0.94449900  1
  C  C13  1  0.80595900  0.65748800  0.05550100  1
  C  C14  1  0.83779600  0.92362100  0.68994900  1
  C  C15  1  0.16220400  0.42362100  0.31005100  1
  C  C16  1  0.85585100  0.43678700  0.71283200  1
  C  C17  1  0.14414900  0.93678700  0.28716800  1
  C  C18  1  0.40256100  0.45392000  0.76895700  1
  C  C19  1  0.59743900  0.95392000  0.23104300  1
  C  C20  1  0.59319400  0.39795400  0.25997800  1
  C  C21  1  0.40680600  0.89795400  0.74002200  1
  C  C22  1  0.49901400  0.18521700  0.56785100  1
  C  C23  1  0.50098600  0.68521700  0.43214900  1
