# generated using pymatgen
data_Cu4C3
_symmetry_space_group_name_H-M   'P 1'
_cell_length_a   16.42652600
_cell_length_b   7.91049000
_cell_length_c   10.92396788
_cell_angle_alpha   49.53465566
_cell_angle_beta   90.00000000
_cell_angle_gamma   90.00000000
_symmetry_Int_Tables_number   1
_chemical_formula_structural   Cu4C3
_chemical_formula_sum   'Cu32 C24'
_cell_volume   1079.93908221
_cell_formula_units_Z   8
loop_
 _symmetry_equiv_pos_site_id
 _symmetry_equiv_pos_as_xyz
  1  'x, y, z'
loop_
 _atom_site_type_symbol
 _atom_site_label
 _atom_site_symmetry_multiplicity
 _atom_site_fract_x
 _atom_site_fract_y
 _atom_site_fract_z
 _atom_site_occupancy
  C  C0  1  0.48411500  0.86363300  0.08101300  1
  C  C1  1  0.95408800  0.38628500  0.35421000  1
  C  C2  1  0.51588500  0.86363300  0.58101300  1
  C  C3  1  0.04591200  0.38628500  0.85421000  1
  C  C4  1  0.44429800  0.50907000  0.02526100  1
  C  C5  1  0.20429100  0.60915200  0.10159300  1
  C  C6  1  0.20788700  0.14706800  0.10694900  1
  C  C7  1  0.72864700  0.67840900  0.26424100  1
  C  C8  1  0.95822000  0.03890800  0.27246600  1
  C  C9  1  0.71925100  0.20862200  0.28224300  1
  C  C10  1  0.36299100  0.77207700  0.42522400  1
  C  C11  1  0.34772900  0.32064000  0.41104100  1
  C  C12  1  0.14621800  0.54526400  0.45366900  1
  C  C13  1  0.13815600  0.08166100  0.46327700  1
  C  C14  1  0.55570200  0.50907000  0.52526100  1
  C  C15  1  0.79570900  0.60915200  0.60159300  1
  C  C16  1  0.79211300  0.14706800  0.60694900  1
  C  C17  1  0.27135300  0.67840900  0.76424100  1
  C  C18  1  0.28074900  0.20862200  0.78224300  1
  C  C19  1  0.04178000  0.03890800  0.77246600  1
  C  C20  1  0.65227100  0.32064000  0.91104100  1
  C  C21  1  0.63700900  0.77207700  0.92522400  1
  C  C22  1  0.85378200  0.54526400  0.95366900  1
  C  C23  1  0.86184400  0.08166100  0.96327700  1
  Cu  Cu24  1  0.95267913  0.39469197  0.12995520  1
  Cu  Cu25  1  0.75627200  0.56173054  0.08992454  1
  Cu  Cu26  1  0.59883221  0.41693557  0.06617538  1
  Cu  Cu27  1  0.98776018  0.03162266  0.09767465  1
  Cu  Cu28  1  0.62845743  0.79840645  0.11720722  1
  Cu  Cu29  1  0.79963913  0.21477473  0.11003380  1
  Cu  Cu30  1  0.27905253  0.60623594  0.25941910  1
  Cu  Cu31  1  0.44425029  0.49023214  0.23832714  1
  Cu  Cu32  1  0.09285877  0.40261271  0.30994275  1
  Cu  Cu33  1  0.24711474  0.27512947  0.26923486  1
  Cu  Cu34  1  0.49968454  0.79551770  0.40227176  1
  Cu  Cu35  1  0.09339121  0.01900406  0.31119242  1
  Cu  Cu36  1  0.67999261  0.68258586  0.42569995  1
  Cu  Cu37  1  0.68969122  0.38509380  0.38380946  1
  Cu  Cu38  1  0.82425158  0.46580903  0.46092000  1
  Cu  Cu39  1  0.85132187  0.09643138  0.43370595  1
  Cu  Cu40  1  0.23948885  0.58372815  0.57538202  1
  Cu  Cu41  1  0.03941083  0.36930638  0.64108941  1
  Cu  Cu42  1  0.37057916  0.84369714  0.60820391  1
  Cu  Cu43  1  0.38070760  0.42119671  0.55631470  1
  Cu  Cu44  1  0.01605229  0.05023919  0.57597537  1
  Cu  Cu45  1  0.20427271  0.20344925  0.61370492  1
  Cu  Cu46  1  0.72041955  0.63331225  0.78873190  1
  Cu  Cu47  1  0.55371171  0.46552040  0.73573165  1
  Cu  Cu48  1  0.89314240  0.43770329  0.77526318  1
  Cu  Cu49  1  0.73987624  0.32549248  0.72561395  1
  Cu  Cu50  1  0.50505371  0.84247886  0.85759420  1
  Cu  Cu51  1  0.91505043  0.99333719  0.82328868  1
  Cu  Cu52  1  0.32417925  0.71112013  0.93315191  1
  Cu  Cu53  1  0.30402963  0.32410327  0.92752884  1
  Cu  Cu54  1  0.15649969  0.49842691  0.96459766  1
  Cu  Cu55  1  0.15428818  0.13661892  0.92504361  1
