# generated using pymatgen
data_Cu13Ni7C50
_symmetry_space_group_name_H-M   'P 1'
_cell_length_a   13.32118083
_cell_length_b   9.24807248
_cell_length_c   13.32229861
_cell_angle_alpha   103.76401857
_cell_angle_beta   142.54816249
_cell_angle_gamma   93.41506619
_symmetry_Int_Tables_number   1
_chemical_formula_structural   Cu13Ni7C50
_chemical_formula_sum   'Cu13 Ni7 C50'
_cell_volume   879.43723307
_cell_formula_units_Z   1
loop_
 _symmetry_equiv_pos_site_id
 _symmetry_equiv_pos_as_xyz
  1  'x, y, z'
loop_
 _atom_site_type_symbol
 _atom_site_label
 _atom_site_symmetry_multiplicity
 _atom_site_fract_x
 _atom_site_fract_y
 _atom_site_fract_z
 _atom_site_occupancy
  C  C0  1  0.63565500  0.86129900  0.49319000  1
  C  C1  1  0.67092500  0.60254400  0.29452700  1
  C  C2  1  0.30750200  0.10011000  0.43220300  1
  C  C3  1  0.36507100  0.35653000  0.72422200  1
  C  C4  1  0.02959900  0.10585300  0.79682200  1
  C  C5  1  0.72849400  0.35341400  0.48067800  1
  C  C6  1  0.87113000  0.84775000  0.12198000  1
  C  C7  1  0.30516200  0.60266900  0.57624200  1
  C  C8  1  0.58190000  0.05357800  0.34054700  1
  C  C9  1  0.16738700  0.51278500  0.85536100  1
  C  C10  1  0.65440300  0.00690100  0.84232500  1
  C  C11  1  0.70990600  0.54696800  0.96725700  1
  C  C12  1  0.42551500  0.82917000  0.98313200  1
  C  C13  1  0.35341900  0.90739000  0.30996500  1
  C  C14  1  0.59677300  0.40483200  0.05383200  1
  C  C15  1  0.84570600  0.32273500  0.90051200  1
  C  C16  1  0.06918900  0.86673400  0.61627700  1
  C  C17  1  0.75104300  0.64457600  0.69057100  1
  C  C18  1  0.95003600  0.13806000  0.38902500  1
  C  C19  1  0.25054100  0.36513600  0.29967200  1
  Cu  Cu20  1  0.99470245  0.83586851  0.84793585  1
  Ni  Ni21  1  0.62655900  0.34152900  0.22635900  1
  Ni  Ni22  1  0.11534300  0.84047600  0.21280900  1
  Cu  Cu23  1  0.00439280  0.34275530  0.36569164  1
  Cu  Cu24  1  0.27534524  0.09899802  0.10080585  1
  Cu  Cu25  1  0.98903738  0.24848366  0.77445657  1
  Ni  Ni26  1  0.47329900  0.74001900  0.76172200  1
  Ni  Ni27  1  0.00695900  0.59246000  0.33058700  1
  Cu  Cu28  1  0.50388046  0.90369975  0.64301048  1
  Ni  Ni29  1  0.24663900  0.39881600  0.86629100  1
  Cu  Cu30  1  0.44178207  0.62973918  0.21009288  1
  Cu  Cu31  1  0.39422704  0.11378276  0.66589879  1
  Cu  Cu32  1  0.13831884  0.14723922  0.70673579  1
  Cu  Cu33  1  0.40075812  0.40730000  0.36830531  1
  Ni  Ni34  1  0.03803500  0.88224000  0.48761500  1
  Cu  Cu35  1  0.42775619  0.63194056  0.52223202  1
  Cu  Cu36  1  0.84926009  0.11138925  0.39344798  1
  Cu  Cu37  1  0.18159691  0.49711084  0.06142759  1
  Cu  Cu38  1  0.45249034  0.98336809  0.82344471  1
  Ni  Ni39  1  0.70965600  0.60102800  0.75686400  1
  C  C40  1  0.86860600  0.94086500  0.68600600  1
  C  C41  1  0.65320500  0.41854400  0.32072800  1
  C  C42  1  0.09661700  0.91496300  0.26313900  1
  C  C43  1  0.25170300  0.43715100  0.57203900  1
  C  C44  1  0.21576000  0.16318500  0.01700800  1
  C  C45  1  0.94894800  0.42105500  0.64717000  1
  C  C46  1  0.77061100  0.91487400  0.96843600  1
  C  C47  1  0.14149900  0.65851700  0.44627700  1
  C  C48  1  0.39106000  0.02567700  0.25406600  1
  C  C49  1  0.26188400  0.68738100  0.90616300  1
  C  C50  1  0.77815800  0.17804700  0.91798700  1
  C  C51  1  0.76993200  0.51974300  0.13137500  1
  C  C52  1  0.26753500  0.88028700  0.79898300  1
  C  C53  1  0.96938400  0.76166900  0.87230600  1
  C  C54  1  0.88717700  0.25525800  0.28842900  1
  C  C55  1  0.08115600  0.37736700  0.11415800  1
  C  C56  1  0.62223200  0.73661900  0.56517900  1
  C  C57  1  0.89135800  0.72547000  0.50570400  1
  C  C58  1  0.21997600  0.22387700  0.33613100  1
  C  C59  1  0.16723900  0.23077600  0.61177600  1
  C  C60  1  0.57431700  0.68467500  0.32575500  1
  C  C61  1  0.35585200  0.18012800  0.60928600  1
  C  C62  1  0.06810300  0.05322100  0.69541100  1
  C  C63  1  0.69528000  0.47352900  0.55516000  1
  C  C64  1  0.91635200  0.96767100  0.27515900  1
  C  C65  1  0.35523700  0.55127700  0.48621200  1
  C  C66  1  0.50414700  0.99263900  0.15390100  1
  C  C67  1  0.22412200  0.54690600  0.02816500  1
  C  C68  1  0.52087900  0.04640700  0.82558100  1
  C  C69  1  0.83159000  0.48322800  0.97946700  1
