# generated using pymatgen
data_CuNiC8
_symmetry_space_group_name_H-M   'P 1'
_cell_length_a   7.31747700
_cell_length_b   7.39279100
_cell_length_c   8.96201500
_cell_angle_alpha   90.00000000
_cell_angle_beta   90.00000000
_cell_angle_gamma   90.00000000
_symmetry_Int_Tables_number   1
_chemical_formula_structural   CuNiC8
_chemical_formula_sum   'Cu2 Ni2 C16'
_cell_volume   484.81434446
_cell_formula_units_Z   2
loop_
 _symmetry_equiv_pos_site_id
 _symmetry_equiv_pos_as_xyz
  1  'x, y, z'
loop_
 _atom_site_type_symbol
 _atom_site_label
 _atom_site_symmetry_multiplicity
 _atom_site_fract_x
 _atom_site_fract_y
 _atom_site_fract_z
 _atom_site_occupancy
  Ni  Ni0  1  0.00000000  0.67026600  0.50000000  1
  Ni  Ni1  1  0.50000000  0.32973400  0.00000000  1
  Cu  Cu2  1  0.00000000  0.17692100  0.00000000  1
  Cu  Cu3  1  0.50000000  0.82307900  0.50000000  1
  C  C4  1  0.27225100  0.52610100  0.16934100  1
  C  C5  1  0.72774900  0.52610100  0.83065900  1
  C  C6  1  0.22774900  0.47389900  0.66934100  1
  C  C7  1  0.77225100  0.47389900  0.33065900  1
  C  C8  1  0.13420300  0.09190500  0.32024600  1
  C  C9  1  0.86579700  0.09190500  0.67975400  1
  C  C10  1  0.36579700  0.90809500  0.82024600  1
  C  C11  1  0.63420300  0.90809500  0.17975400  1
  C  C12  1  0.51968300  0.09456100  0.17652200  1
  C  C13  1  0.48031700  0.09456100  0.82347800  1
  C  C14  1  0.98031700  0.90543900  0.67652200  1
  C  C15  1  0.01968300  0.90543900  0.32347800  1
  C  C16  1  0.36191200  0.75305700  0.45124800  1
  C  C17  1  0.63808800  0.75305700  0.54875200  1
  C  C18  1  0.13808800  0.24694300  0.95124800  1
  C  C19  1  0.86191200  0.24694300  0.04875200  1
