# generated using pymatgen
data_CuC17
_symmetry_space_group_name_H-M   'P 1'
_cell_length_a   9.13948030
_cell_length_b   9.13948030
_cell_length_c   9.02838038
_cell_angle_alpha   85.91936232
_cell_angle_beta   85.91936232
_cell_angle_gamma   51.14116755
_symmetry_Int_Tables_number   1
_chemical_formula_structural   CuC17
_chemical_formula_sum   'Cu2 C34'
_cell_volume   585.41547018
_cell_formula_units_Z   2
loop_
 _symmetry_equiv_pos_site_id
 _symmetry_equiv_pos_as_xyz
  1  'x, y, z'
loop_
 _atom_site_type_symbol
 _atom_site_label
 _atom_site_symmetry_multiplicity
 _atom_site_fract_x
 _atom_site_fract_y
 _atom_site_fract_z
 _atom_site_occupancy
  C  C0  1  0.84533800  0.84533800  0.28523700  1
  C  C1  1  0.39743200  0.39743200  0.77396400  1
  C  C2  1  0.60256800  0.60256800  0.22603600  1
  C  C3  1  0.15466200  0.15466200  0.71476300  1
  Cu  Cu4  1  0.80738582  0.81207269  0.76932043  1
  Cu  Cu5  1  0.19846205  0.20769672  0.21072890  1
  C  C6  1  0.73439400  0.73439400  0.80392300  1
  C  C7  1  0.87215800  0.87215800  0.75605800  1
  C  C8  1  0.12784200  0.12784200  0.24394200  1
  C  C9  1  0.26560600  0.26560600  0.19607700  1
  C  C10  1  0.45308600  0.12787500  0.73030600  1
  C  C11  1  0.73319400  0.38274700  0.37417900  1
  C  C12  1  0.26680600  0.61725300  0.62582100  1
  C  C13  1  0.05034400  0.05034400  0.84562400  1
  C  C14  1  0.87212500  0.54691400  0.26969400  1
  C  C15  1  0.78481800  0.43561200  0.05938700  1
  C  C16  1  0.38274700  0.73319400  0.37417900  1
  C  C17  1  0.61725300  0.26680600  0.62582100  1
  C  C18  1  0.11642300  0.61121900  0.29000700  1
  C  C19  1  0.93084300  0.93084300  0.43116200  1
  C  C20  1  0.38878100  0.88357700  0.70999300  1
  C  C21  1  0.12787500  0.45308600  0.73030600  1
  C  C22  1  0.78020300  0.78020300  0.49309800  1
  C  C23  1  0.19077300  0.19077300  0.93382800  1
  C  C24  1  0.06915700  0.06915700  0.56883800  1
  C  C25  1  0.54691400  0.87212500  0.26969400  1
  C  C26  1  0.80922700  0.80922700  0.06617200  1
  C  C27  1  0.94965600  0.94965600  0.15437600  1
  C  C28  1  0.21979700  0.21979700  0.50690200  1
  C  C29  1  0.88357700  0.38878100  0.70999300  1
  C  C30  1  0.56438800  0.21518200  0.94061300  1
  C  C31  1  0.43561200  0.78481800  0.05938700  1
  C  C32  1  0.61121900  0.11642300  0.29000700  1
  C  C33  1  0.21518200  0.56438800  0.94061300  1
  C  C34  1  0.51345300  0.51345300  0.82269100  1
  C  C35  1  0.48654700  0.48654700  0.17730900  1
