# generated using pymatgen
data_Cu29Ni19C39
_symmetry_space_group_name_H-M   'P 1'
_cell_length_a   17.70827324
_cell_length_b   17.70827324
_cell_length_c   6.18963173
_cell_angle_alpha   88.81701221
_cell_angle_beta   88.81701221
_cell_angle_gamma   22.96805340
_symmetry_Int_Tables_number   1
_chemical_formula_structural   Cu29Ni19C39
_chemical_formula_sum   'Cu29 Ni19 C39'
_cell_volume   757.23022114
_cell_formula_units_Z   1
loop_
 _symmetry_equiv_pos_site_id
 _symmetry_equiv_pos_as_xyz
  1  'x, y, z'
loop_
 _atom_site_type_symbol
 _atom_site_label
 _atom_site_symmetry_multiplicity
 _atom_site_fract_x
 _atom_site_fract_y
 _atom_site_fract_z
 _atom_site_occupancy
  C  C0  1  0.50000000  0.50000000  0.00000000  1
  C  C1  1  0.16685100  0.16685100  0.24759400  1
  C  C2  1  0.83314900  0.83314900  0.75240600  1
  C  C3  1  0.70449000  0.70449000  0.62500800  1
  C  C4  1  0.29551000  0.29551000  0.37499200  1
  C  C5  1  0.04827900  0.04827900  0.65126500  1
  C  C6  1  0.95172100  0.95172100  0.34873500  1
  Ni  Ni7  1  0.58776800  0.58776800  0.94670700  1
  Cu  Cu8  1  0.38507586  0.43352080  0.04034636  1
  Cu  Cu9  1  0.49285914  0.26704729  0.91290931  1
  Cu  Cu10  1  0.73461503  0.51221158  0.07215396  1
  Cu  Cu11  1  0.50822809  0.73526505  0.07527027  1
  Ni  Ni12  1  0.25971100  0.49646000  0.91730700  1
  Ni  Ni13  1  0.63390700  0.63390700  0.84553700  1
  Ni  Ni14  1  0.36609300  0.36609300  0.15446300  1
  Ni  Ni15  1  0.33931200  0.57019100  0.35105700  1
  Cu  Cu16  1  0.46457761  0.61863329  0.63443736  1
  Cu  Cu17  1  0.67452690  0.42458781  0.62233410  1
  Ni  Ni18  1  0.57019100  0.33931200  0.35105700  1
  Ni  Ni19  1  0.78888900  0.29388000  0.27947500  1
  Cu  Cu20  1  0.70576321  0.20444322  0.74932946  1
  Ni  Ni21  1  0.21111000  0.70612000  0.72052500  1
  Ni  Ni22  1  0.29388000  0.78888900  0.27947500  1
  Cu  Cu23  1  0.22696751  0.85096458  0.02670262  1
  Cu  Cu24  1  0.20884377  0.69783081  0.94222460  1
  Ni  Ni25  1  0.77268600  0.13643700  0.96329500  1
  Cu  Cu26  1  0.85768755  0.22795216  0.03551587  1
  Cu  Cu27  1  0.13657575  0.66636917  0.58684832  1
  Ni  Ni28  1  0.90046500  0.30640400  0.41425300  1
  Cu  Cu29  1  0.96726385  0.57367729  0.79657136  1
  Ni  Ni30  1  0.69359600  0.09953500  0.58574700  1
  Cu  Cu31  1  0.21695360  0.50262427  0.55782436  1
  Cu  Cu32  1  0.47850391  0.80058259  0.45886622  1
  Ni  Ni33  1  0.81978600  0.46441400  0.43963900  1
  Cu  Cu34  1  0.53487001  0.18321011  0.55509789  1
  Ni  Ni35  1  0.11282800  0.11282800  0.91446600  1
  Cu  Cu36  1  0.86307526  0.90051754  0.09859370  1
  Cu  Cu37  1  0.13763972  0.17122311  0.79275763  1
  Ni  Ni38  1  0.84475100  0.84475100  0.19652400  1
  Cu  Cu39  1  0.52441482  0.06596273  0.99734275  1
  Cu  Cu40  1  0.96042150  0.46051926  0.97960278  1
  Ni  Ni41  1  0.46455000  0.95109200  0.00213900  1
  Cu  Cu42  1  0.05906046  0.52650915  0.00269591  1
  Ni  Ni43  1  0.56781600  0.96638600  0.79758900  1
  Cu  Cu44  1  0.00821683  0.44591876  0.18740375  1
  Cu  Cu45  1  0.41501608  0.04914496  0.22384365  1
  Cu  Cu46  1  0.98143385  0.00225997  0.32944634  1
  Cu  Cu47  1  0.01656196  0.00290834  0.68930577  1
  Cu  Cu48  1  0.27004902  0.28214550  0.58253302  1
  Cu  Cu49  1  0.72712126  0.70500367  0.42325577  1
  Ni  Ni50  1  0.91304200  0.68110000  0.37511400  1
  Cu  Cu51  1  0.32867340  0.08177717  0.63826429  1
  Cu  Cu52  1  0.06474801  0.34201035  0.60989035  1
  Ni  Ni53  1  0.68110000  0.91304200  0.37511400  1
  Cu  Cu54  1  0.30021904  0.89033972  0.43510115  1
  C  C55  1  0.61653100  0.61653100  0.98763500  1
  C  C56  1  0.38346900  0.38346900  0.01236500  1
  C  C57  1  0.53844400  0.53844400  0.73573500  1
  C  C58  1  0.46155600  0.46155600  0.26426500  1
  C  C59  1  0.32365400  0.74725400  0.12835400  1
  C  C60  1  0.25274600  0.67634600  0.87164600  1
  C  C61  1  0.67634600  0.25274600  0.87164600  1
  C  C62  1  0.74725400  0.32365400  0.12835400  1
  C  C63  1  0.09642700  0.64472500  0.65514800  1
  C  C64  1  0.35527500  0.90357300  0.34485200  1
  C  C65  1  0.90357300  0.35527500  0.34485200  1
  C  C66  1  0.64472500  0.09642700  0.65514800  1
  C  C67  1  0.14108800  0.14108800  0.94402500  1
  C  C68  1  0.85891200  0.85891200  0.05597500  1
  C  C69  1  0.58283000  0.00571600  0.84534100  1
  C  C70  1  0.99428400  0.41717000  0.15465900  1
  C  C71  1  0.41717000  0.99428400  0.15465900  1
  C  C72  1  0.00571600  0.58283000  0.84534100  1
  C  C73  1  0.18926600  0.18926600  0.56979000  1
  C  C74  1  0.81073400  0.81073400  0.43021000  1
  C  C75  1  0.09898900  0.46402300  0.26248400  1
  C  C76  1  0.53597700  0.90101100  0.73751600  1
  C  C77  1  0.90101100  0.53597700  0.73751600  1
  C  C78  1  0.46402300  0.09898900  0.26248400  1
  C  C79  1  0.66011500  0.66011500  0.59784900  1
  C  C80  1  0.33988500  0.33988500  0.40215100  1
  C  C81  1  0.06469100  0.06469100  0.88142900  1
  C  C82  1  0.93530900  0.93530900  0.11857100  1
  C  C83  1  0.12312700  0.75899800  0.47545100  1
  C  C84  1  0.24100200  0.87687300  0.52454900  1
  C  C85  1  0.87687300  0.24100200  0.52454900  1
  C  C86  1  0.75899800  0.12312700  0.47545100  1
