# generated using pymatgen
data_Cu5NiC14
_symmetry_space_group_name_H-M   'P 1'
_cell_length_a   4.62117700
_cell_length_b   6.02357100
_cell_length_c   12.34540301
_cell_angle_alpha   85.30792528
_cell_angle_beta   90.00000000
_cell_angle_gamma   90.00000000
_symmetry_Int_Tables_number   1
_chemical_formula_structural   Cu5NiC14
_chemical_formula_sum   'Cu5 Ni1 C14'
_cell_volume   342.49482852
_cell_formula_units_Z   1
loop_
 _symmetry_equiv_pos_site_id
 _symmetry_equiv_pos_as_xyz
  1  'x, y, z'
loop_
 _atom_site_type_symbol
 _atom_site_label
 _atom_site_symmetry_multiplicity
 _atom_site_fract_x
 _atom_site_fract_y
 _atom_site_fract_z
 _atom_site_occupancy
  C  C0  1  0.50000000  0.00000000  0.50000000  1
  C  C1  1  0.00000000  0.00000000  0.00000000  1
  Ni  Ni2  1  0.50000000  0.50000000  0.00000000  1
  Cu  Cu3  1  0.01111817  0.50286405  0.50155324  1
  Cu  Cu4  1  0.64223356  0.20711660  0.68674098  1
  Cu  Cu5  1  0.12335906  0.80361881  0.80336557  1
  Cu  Cu6  1  0.44568568  0.79875164  0.28525526  1
  Cu  Cu7  1  0.85530996  0.17718291  0.17130269  1
  C  C8  1  0.44605100  0.64624300  0.85348800  1
  C  C9  1  0.94605100  0.35375700  0.64651200  1
  C  C10  1  0.55394900  0.35375700  0.14651200  1
  C  C11  1  0.05394900  0.64624300  0.35348800  1
  C  C12  1  0.39420100  0.27244000  0.45292600  1
  C  C13  1  0.89420100  0.72756000  0.04707400  1
  C  C14  1  0.60579900  0.72756000  0.54707400  1
  C  C15  1  0.10579900  0.27244000  0.95292600  1
  C  C16  1  0.10304800  0.93238400  0.52605900  1
  C  C17  1  0.60304800  0.06761600  0.97394100  1
  C  C18  1  0.89695200  0.06761600  0.47394100  1
  C  C19  1  0.39695200  0.93238400  0.02605900  1
