# generated using pymatgen
data_Cu14Ni28C29
_symmetry_space_group_name_H-M   'P 1'
_cell_length_a   6.37649868
_cell_length_b   6.37649868
_cell_length_c   66.51574723
_cell_angle_alpha   84.98143575
_cell_angle_beta   84.98143575
_cell_angle_gamma   33.83932880
_symmetry_Int_Tables_number   1
_chemical_formula_structural   Cu14Ni28C29
_chemical_formula_sum   'Cu14 Ni28 C29'
_cell_volume   1499.74187307
_cell_formula_units_Z   1
loop_
 _symmetry_equiv_pos_site_id
 _symmetry_equiv_pos_as_xyz
  1  'x, y, z'
loop_
 _atom_site_type_symbol
 _atom_site_label
 _atom_site_symmetry_multiplicity
 _atom_site_fract_x
 _atom_site_fract_y
 _atom_site_fract_z
 _atom_site_occupancy
  C  C0  1  0.00155600  0.00155600  0.00065300  1
  C  C1  1  0.42796500  0.42796500  0.04685100  1
  C  C2  1  0.14611100  0.14611100  0.07208400  1
  C  C3  1  0.85531700  0.85531700  0.09824700  1
  C  C4  1  0.28493800  0.28493800  0.14464500  1
  C  C5  1  0.71413400  0.71413400  0.19016500  1
  C  C6  1  0.14300400  0.14300400  0.23818700  1
  C  C7  1  0.57136200  0.57136200  0.28575100  1
  C  C8  1  0.00001400  0.00001400  0.33332400  1
  C  C9  1  0.42869600  0.42869600  0.38091800  1
  C  C10  1  0.85696700  0.85696700  0.42850900  1
  C  C11  1  0.71492400  0.71492400  0.52201700  1
  C  C12  1  0.28582300  0.28582300  0.47652300  1
  C  C13  1  0.57202500  0.57202500  0.61978400  1
  C  C14  1  0.14469100  0.14469100  0.56840700  1
  C  C15  1  0.85402300  0.85402300  0.59454300  1
  C  C16  1  0.99839300  0.99839300  0.66606900  1
  C  C17  1  0.71444400  0.71444400  0.68999600  1
  C  C18  1  0.42828500  0.42828500  0.71436200  1
  C  C19  1  0.14282200  0.14282200  0.73878800  1
  C  C20  1  0.85863000  0.85863000  0.76266600  1
  C  C21  1  0.28442000  0.28442000  0.80873000  1
  C  C22  1  0.99907000  0.99907000  0.83270000  1
  C  C23  1  0.71578400  0.71578400  0.85700900  1
  C  C24  1  0.42694800  0.42694800  0.88091400  1
  C  C25  1  0.14270700  0.14270700  0.90473500  1
  C  C26  1  0.85865800  0.85865800  0.92857900  1
  C  C27  1  0.57052000  0.57052000  0.95245900  1
  C  C28  1  0.28632500  0.28632500  0.97669500  1
  Ni  Ni29  1  0.36249200  0.36249200  0.01109500  1
  Ni  Ni30  1  0.78546600  0.78546600  0.05923000  1
  Cu  Cu31  1  0.07284339  0.07711454  0.03526612  1
  Cu  Cu32  1  0.20374765  0.23795292  0.10325225  1
  Ni  Ni33  1  0.50125000  0.50125000  0.08188000  1
  Ni  Ni34  1  0.65133200  0.65133200  0.15470700  1
  Cu  Cu35  1  0.89880551  0.96846219  0.12873247  1
  Ni  Ni36  1  0.08099200  0.08099200  0.20266300  1
  Ni  Ni37  1  0.34935200  0.34935200  0.17897700  1
  Ni  Ni38  1  0.50921200  0.50921200  0.24996100  1
  Ni  Ni39  1  0.77559700  0.77559700  0.22621100  1
  Ni  Ni40  1  0.93757300  0.93757300  0.29766800  1
  Cu  Cu41  1  0.21285909  0.19126129  0.27607063  1
  Ni  Ni42  1  0.36599900  0.36599900  0.34532900  1
  Ni  Ni43  1  0.63403400  0.63403400  0.32135700  1
  Ni  Ni44  1  0.79501200  0.79501200  0.39290400  1
  Ni  Ni45  1  0.06243500  0.06243500  0.36899600  1
  Ni  Ni46  1  0.22440100  0.22440100  0.44046200  1
  Cu  Cu47  1  0.47836820  0.47373887  0.41887718  1
  Ni  Ni48  1  0.65062600  0.65062600  0.48766700  1
  Cu  Cu49  1  0.95443228  0.87282143  0.46528106  1
  Cu  Cu50  1  0.11277488  0.06819026  0.53510858  1
  Ni  Ni51  1  0.34858600  0.34858600  0.51195200  1
  Ni  Ni52  1  0.49879400  0.49879400  0.58473200  1
  Cu  Cu53  1  0.78229093  0.78987382  0.56087925  1
  Cu  Cu54  1  0.93584467  0.93350375  0.63289772  1
  Ni  Ni55  1  0.21456000  0.21456000  0.60739900  1
  Cu  Cu56  1  0.35610740  0.34863381  0.68002905  1
  Cu  Cu57  1  0.61664869  0.66769248  0.65139832  1
  Ni  Ni58  1  0.78561700  0.78561700  0.72636500  1
  Ni  Ni59  1  0.07153000  0.07153000  0.70242400  1
  Ni  Ni60  1  0.21927800  0.21927800  0.77336500  1
  Ni  Ni61  1  0.50123100  0.50123100  0.75022600  1
  Cu  Cu62  1  0.62693647  0.63409936  0.82454688  1
  Ni  Ni63  1  0.92377600  0.92377600  0.79809700  1
  Ni  Ni64  1  0.07098200  0.07098200  0.86886000  1
  Ni  Ni65  1  0.35651700  0.35651700  0.84493500  1
  Ni  Ni66  1  0.50016100  0.50016100  0.91652700  1
  Cu  Cu67  1  0.80160146  0.76452426  0.89218945  1
  Ni  Ni68  1  0.92931300  0.92931300  0.96447400  1
  Ni  Ni69  1  0.21467600  0.21467600  0.94058700  1
  Cu  Cu70  1  0.66953720  0.60860663  0.98755059  1
