# generated using pymatgen
data_CuNi3C28
_symmetry_space_group_name_H-M   'P 1'
_cell_length_a   17.36408400
_cell_length_b   5.44429500
_cell_length_c   9.64011993
_cell_angle_alpha   72.60329547
_cell_angle_beta   90.00000000
_cell_angle_gamma   90.00000000
_symmetry_Int_Tables_number   1
_chemical_formula_structural   CuNi3C28
_chemical_formula_sum   'Cu2 Ni6 C56'
_cell_volume   869.64410728
_cell_formula_units_Z   2
loop_
 _symmetry_equiv_pos_site_id
 _symmetry_equiv_pos_as_xyz
  1  'x, y, z'
loop_
 _atom_site_type_symbol
 _atom_site_label
 _atom_site_symmetry_multiplicity
 _atom_site_fract_x
 _atom_site_fract_y
 _atom_site_fract_z
 _atom_site_occupancy
  C  C0  1  0.47043000  0.43988000  0.79416200  1
  C  C1  1  0.02957000  0.43988000  0.29416200  1
  C  C2  1  0.52957000  0.56012000  0.20583800  1
  C  C3  1  0.97043000  0.56012000  0.70583800  1
  C  C4  1  0.70810600  0.17995200  0.35955800  1
  C  C5  1  0.29189400  0.82004800  0.64044200  1
  C  C6  1  0.79189400  0.17995200  0.85955800  1
  C  C7  1  0.20810600  0.82004800  0.14044200  1
  C  C8  1  0.80435400  0.39636400  0.78210700  1
  C  C9  1  0.63747400  0.69115900  0.54080100  1
  C  C10  1  0.79132600  0.01864300  0.79638100  1
  C  C11  1  0.68707300  0.57644300  0.91641700  1
  C  C12  1  0.18707300  0.42355700  0.58358300  1
  C  C13  1  0.19564600  0.60363600  0.21789300  1
  C  C14  1  0.29132600  0.98135700  0.70361900  1
  C  C15  1  0.31292700  0.42355700  0.08358300  1
  C  C16  1  0.36252600  0.30884100  0.45919900  1
  C  C17  1  0.30435400  0.60363600  0.71789300  1
  C  C18  1  0.81292700  0.57644300  0.41641700  1
  C  C19  1  0.13747400  0.30884100  0.95919900  1
  C  C20  1  0.20867400  0.98135700  0.20361900  1
  C  C21  1  0.86252600  0.69115900  0.04080100  1
  C  C22  1  0.70867400  0.01864300  0.29638100  1
  C  C23  1  0.69564600  0.39636400  0.28210700  1
  Ni  Ni24  1  0.88131100  0.87105100  0.05693200  1
  Cu  Cu25  1  0.62023963  0.85688869  0.54763666  1
  Ni  Ni26  1  0.16941600  0.62405400  0.55044900  1
  Ni  Ni27  1  0.38131100  0.12894900  0.44306800  1
  Ni  Ni28  1  0.83058400  0.37594600  0.44955100  1
  Ni  Ni29  1  0.11868900  0.12894900  0.94306800  1
  Cu  Cu30  1  0.66666811  0.36779142  0.95014396  1
  Ni  Ni31  1  0.33058400  0.62405400  0.05044900  1
  C  C32  1  0.60587700  0.27869300  0.52853400  1
  C  C33  1  0.05879800  0.84862800  0.86925300  1
  C  C34  1  0.39366400  0.97271600  0.95958400  1
  C  C35  1  0.55879800  0.15137200  0.63074700  1
  C  C36  1  0.94120200  0.15137200  0.13074700  1
  C  C37  1  0.21174100  0.81989100  0.56699000  1
  C  C38  1  0.60324600  0.28707300  0.01559800  1
  C  C39  1  0.32930400  0.03774800  0.00870100  1
  C  C40  1  0.93465900  0.89411800  0.15145900  1
  C  C41  1  0.56534100  0.89411800  0.65145900  1
  C  C42  1  0.89412300  0.27869300  0.02853400  1
  C  C43  1  0.44120200  0.84862800  0.36925300  1
  C  C44  1  0.67069600  0.96225200  0.99129900  1
  C  C45  1  0.10633600  0.97271600  0.45958400  1
  C  C46  1  0.60633600  0.02728400  0.04041600  1
  C  C47  1  0.10324600  0.71292700  0.48440200  1
  C  C48  1  0.39412300  0.72130700  0.47146600  1
  C  C49  1  0.17069600  0.03774800  0.50870100  1
  C  C50  1  0.64465100  0.10453900  0.48015500  1
  C  C51  1  0.06534100  0.10588200  0.84854100  1
  C  C52  1  0.85534900  0.10453900  0.98015500  1
  C  C53  1  0.78825900  0.18010900  0.43301000  1
  C  C54  1  0.35534900  0.89546100  0.51984500  1
  C  C55  1  0.89366400  0.02728400  0.54041600  1
  C  C56  1  0.89675400  0.28707300  0.51559800  1
  C  C57  1  0.14465100  0.89546100  0.01984500  1
  C  C58  1  0.28825900  0.81989100  0.06699000  1
  C  C59  1  0.82930400  0.96225200  0.49129900  1
  C  C60  1  0.71174100  0.18010900  0.93301000  1
  C  C61  1  0.39675400  0.71292700  0.98440200  1
  C  C62  1  0.10587700  0.72130700  0.97146600  1
  C  C63  1  0.43465900  0.10588200  0.34854100  1
