# generated using pymatgen
data_Cu2NiC6
_symmetry_space_group_name_H-M   'P 1'
_cell_length_a   7.82870400
_cell_length_b   7.82870400
_cell_length_c   6.10974200
_cell_angle_alpha   90.00000000
_cell_angle_beta   90.00000000
_cell_angle_gamma   90.00000000
_symmetry_Int_Tables_number   1
_chemical_formula_structural   Cu2NiC6
_chemical_formula_sum   'Cu4 Ni2 C12'
_cell_volume   374.45757215
_cell_formula_units_Z   2
loop_
 _symmetry_equiv_pos_site_id
 _symmetry_equiv_pos_as_xyz
  1  'x, y, z'
loop_
 _atom_site_type_symbol
 _atom_site_label
 _atom_site_symmetry_multiplicity
 _atom_site_fract_x
 _atom_site_fract_y
 _atom_site_fract_z
 _atom_site_occupancy
  Cu  Cu0  1  0.50329738  0.48452901  0.98279170  1
  Ni  Ni1  1  0.00000000  0.00000000  0.00000000  1
  Cu  Cu2  1  0.20774598  0.68816418  0.49847241  1
  Cu  Cu3  1  0.80800377  0.31120584  0.47627166  1
  Ni  Ni4  1  0.68375800  0.81624200  0.50000000  1
  Cu  Cu5  1  0.31910985  0.19345440  0.47833484  1
  C  C6  1  0.50000000  0.50000000  0.50000000  1
  C  C7  1  0.00000000  0.00000000  0.50000000  1
  C  C8  1  0.60899900  0.10899900  0.81170000  1
  C  C9  1  0.39100100  0.89100100  0.81170000  1
  C  C10  1  0.10899900  0.39100100  0.81170000  1
  C  C11  1  0.89100100  0.60899900  0.81170000  1
  C  C12  1  0.39100100  0.89100100  0.18830000  1
  C  C13  1  0.60899900  0.10899900  0.18830000  1
  C  C14  1  0.89100100  0.60899900  0.18830000  1
  C  C15  1  0.10899900  0.39100100  0.18830000  1
  C  C16  1  0.50000000  0.00000000  0.00000000  1
  C  C17  1  0.00000000  0.50000000  0.00000000  1
