# generated using pymatgen
data_Cu11Ni5C16
_symmetry_space_group_name_H-M   'P 1'
_cell_length_a   11.33530100
_cell_length_b   5.23107300
_cell_length_c   5.23491781
_cell_angle_alpha   67.28876931
_cell_angle_beta   90.00000000
_cell_angle_gamma   90.00000000
_symmetry_Int_Tables_number   1
_chemical_formula_structural   Cu11Ni5C16
_chemical_formula_sum   'Cu11 Ni5 C16'
_cell_volume   286.34024490
_cell_formula_units_Z   1
loop_
 _symmetry_equiv_pos_site_id
 _symmetry_equiv_pos_as_xyz
  1  'x, y, z'
loop_
 _atom_site_type_symbol
 _atom_site_label
 _atom_site_symmetry_multiplicity
 _atom_site_fract_x
 _atom_site_fract_y
 _atom_site_fract_z
 _atom_site_occupancy
  C  C0  1  0.87414800  0.00000000  0.50000000  1
  C  C1  1  0.74849000  0.50000000  0.50000000  1
  C  C2  1  0.62553400  0.00000000  0.50000000  1
  C  C3  1  0.49695400  0.50000000  0.50000000  1
  C  C4  1  0.37168500  0.00000000  0.50000000  1
  C  C5  1  0.25633200  0.50000000  0.50000000  1
  C  C6  1  0.12863700  0.00000000  0.50000000  1
  C  C7  1  0.99804500  0.50000000  0.50000000  1
  C  C8  1  0.37495700  0.50000000  0.00000000  1
  C  C9  1  0.99815100  0.00000000  0.00000000  1
  C  C10  1  0.12971100  0.50000000  0.00000000  1
  C  C11  1  0.87343900  0.50000000  0.00000000  1
  C  C12  1  0.74822100  0.00000000  0.00000000  1
  C  C13  1  0.61824200  0.50000000  0.00000000  1
  C  C14  1  0.49936400  0.00000000  0.00000000  1
  C  C15  1  0.25507400  0.00000000  0.00000000  1
  Cu  Cu16  1  0.88191218  0.74365684  0.27985298  1
  Cu  Cu17  1  0.75223042  0.28135259  0.22903497  1
  Cu  Cu18  1  0.63849277  0.78523995  0.21073144  1
  Cu  Cu19  1  0.51711914  0.25242996  0.23701947  1
  Ni  Ni20  1  0.37665400  0.78260900  0.23037500  1
  Ni  Ni21  1  0.24149100  0.26149500  0.23614600  1
  Cu  Cu22  1  0.09983983  0.77541551  0.22329267  1
  Cu  Cu23  1  0.99903677  0.27673730  0.24000876  1
  Cu  Cu24  1  0.86730427  0.26817955  0.77013528  1
  Ni  Ni25  1  0.74905600  0.72325500  0.77721800  1
  Ni  Ni26  1  0.62508100  0.22802200  0.77736800  1
  Cu  Cu27  1  0.52043198  0.70588369  0.77570818  1
  Cu  Cu28  1  0.38597950  0.20561780  0.76751002  1
  Ni  Ni29  1  0.24149100  0.73850500  0.76385400  1
  Cu  Cu30  1  0.14593878  0.26875567  0.79207430  1
  Cu  Cu31  1  0.00542006  0.72505190  0.77833402  1
