# generated using pymatgen
data_Cu3Ni9C8
_symmetry_space_group_name_H-M   'P 1'
_cell_length_a   4.61246900
_cell_length_b   8.82723700
_cell_length_c   8.92344827
_cell_angle_alpha   74.44783980
_cell_angle_beta   90.00000000
_cell_angle_gamma   90.00000000
_symmetry_Int_Tables_number   1
_chemical_formula_structural   Cu3Ni9C8
_chemical_formula_sum   'Cu3 Ni9 C8'
_cell_volume   350.01901257
_cell_formula_units_Z   1
loop_
 _symmetry_equiv_pos_site_id
 _symmetry_equiv_pos_as_xyz
  1  'x, y, z'
loop_
 _atom_site_type_symbol
 _atom_site_label
 _atom_site_symmetry_multiplicity
 _atom_site_fract_x
 _atom_site_fract_y
 _atom_site_fract_z
 _atom_site_occupancy
  C  C0  1  0.79524200  0.37956100  0.08488300  1
  C  C1  1  0.29524200  0.62043900  0.91511700  1
  C  C2  1  0.94180500  0.10658900  0.89429500  1
  C  C3  1  0.44180500  0.89341100  0.10570500  1
  C  C4  1  0.40935500  0.40362400  0.61524700  1
  C  C5  1  0.90935500  0.59637600  0.38475300  1
  C  C6  1  0.37049700  0.13110300  0.43504200  1
  C  C7  1  0.87049700  0.86889700  0.56495800  1
  Ni  Ni8  1  0.67443100  0.56641500  0.95356800  1
  Ni  Ni9  1  0.17443100  0.43358500  0.04643200  1
  Ni  Ni10  1  0.73733300  0.26009200  0.94987700  1
  Ni  Ni11  1  0.23733300  0.73990800  0.05012300  1
  Cu  Cu12  1  0.65262387  0.96793797  0.91436763  1
  Ni  Ni13  1  0.14403100  0.03435700  0.07749200  1
  Ni  Ni14  1  0.74022700  0.51869000  0.57757800  1
  Cu  Cu15  1  0.26151433  0.48736358  0.40661042  1
  Cu  Cu16  1  0.58576281  0.23306761  0.55348996  1
  Ni  Ni17  1  0.04801600  0.77248600  0.42993600  1
  Ni  Ni18  1  0.18646300  0.98115700  0.59036200  1
  Ni  Ni19  1  0.68646300  0.01884300  0.40963800  1
