# generated using pymatgen
data_Cu7Ni5C12
_symmetry_space_group_name_H-M   'P 1'
_cell_length_a   5.02522195
_cell_length_b   5.02522195
_cell_length_c   9.79976054
_cell_angle_alpha   85.16048855
_cell_angle_beta   85.16048855
_cell_angle_gamma   119.54355264
_symmetry_Int_Tables_number   1
_chemical_formula_structural   Cu7Ni5C12
_chemical_formula_sum   'Cu7 Ni5 C12'
_cell_volume   212.25148129
_cell_formula_units_Z   1
loop_
 _symmetry_equiv_pos_site_id
 _symmetry_equiv_pos_as_xyz
  1  'x, y, z'
loop_
 _atom_site_type_symbol
 _atom_site_label
 _atom_site_symmetry_multiplicity
 _atom_site_fract_x
 _atom_site_fract_y
 _atom_site_fract_z
 _atom_site_occupancy
  C  C0  1  0.75579100  0.75710400  0.74651400  1
  C  C1  1  0.58332400  0.92239600  0.25321900  1
  C  C2  1  0.24289600  0.24420900  0.25348600  1
  C  C3  1  0.07760400  0.41667600  0.74678100  1
  C  C4  1  0.92132100  0.58008800  0.25290500  1
  C  C5  1  0.41991200  0.07867900  0.74709500  1
  C  C6  1  0.83258300  0.16741700  0.50000000  1
  C  C7  1  0.00001100  0.99998900  0.00000000  1
  C  C8  1  0.50039200  0.49960800  0.50000000  1
  C  C9  1  0.66494700  0.33505300  0.00000000  1
  C  C10  1  0.33772900  0.66227100  0.00000000  1
  C  C11  1  0.16506800  0.83493200  0.50000000  1
  Ni  Ni12  1  0.64085300  0.65498000  0.11566200  1
  Cu  Cu13  1  0.39158224  0.76475447  0.60395925  1
  Cu  Cu14  1  0.10321137  0.14890617  0.59395923  1
  Cu  Cu15  1  0.94054290  0.29040670  0.12357407  1
  Ni  Ni16  1  0.79693100  0.48887600  0.61188900  1
  Ni  Ni17  1  0.27367700  0.95235500  0.11431700  1
  Ni  Ni18  1  0.87566600  0.84367500  0.39127200  1
  Cu  Cu19  1  0.73238592  0.01543687  0.87812357  1
  Cu  Cu20  1  0.32035619  0.33356831  0.89258202  1
  Ni  Ni21  1  0.23003100  0.56688100  0.38978000  1
  Cu  Cu22  1  0.09377738  0.70861056  0.89833203  1
  Cu  Cu23  1  0.53550063  0.25566652  0.38613714  1
