# generated using pymatgen
data_Cu3NiC26
_symmetry_space_group_name_H-M   'P 1'
_cell_length_a   9.99005632
_cell_length_b   9.08544067
_cell_length_c   6.46080344
_cell_angle_alpha   77.96134424
_cell_angle_beta   62.80383816
_cell_angle_gamma   39.23481759
_symmetry_Int_Tables_number   1
_chemical_formula_structural   Cu3NiC26
_chemical_formula_sum   'Cu3 Ni1 C26'
_cell_volume   318.68523455
_cell_formula_units_Z   1
loop_
 _symmetry_equiv_pos_site_id
 _symmetry_equiv_pos_as_xyz
  1  'x, y, z'
loop_
 _atom_site_type_symbol
 _atom_site_label
 _atom_site_symmetry_multiplicity
 _atom_site_fract_x
 _atom_site_fract_y
 _atom_site_fract_z
 _atom_site_occupancy
  C  C0  1  0.25000000  0.25000000  0.25000000  1
  C  C1  1  0.00000000  0.00000000  0.00000000  1
  C  C2  1  0.62500000  0.62500000  0.12500000  1
  C  C3  1  0.62500000  0.12500000  0.62500000  1
  C  C4  1  0.62500000  0.62500000  0.62500000  1
  C  C5  1  0.12500000  0.62500000  0.62500000  1
  Cu  Cu6  1  0.78255460  0.79633226  0.20283010  1
  Cu  Cu7  1  0.48621513  0.45614659  0.05041009  1
  Ni  Ni8  1  0.20793000  0.20793000  0.79207000  1
  Cu  Cu9  1  0.03160891  0.06980765  0.48012293  1
  C  C10  1  0.96351000  0.33845700  0.00911000  1
  C  C11  1  0.41626900  0.41626900  0.58373100  1
  C  C12  1  0.90773800  0.06865900  0.36296900  1
  C  C13  1  0.24089000  0.56107700  0.28649000  1
  C  C14  1  0.33845700  0.96351000  0.68892300  1
  C  C15  1  0.34226200  0.18134100  0.88703100  1
  C  C16  1  0.83373100  0.83373100  0.66626900  1
  C  C17  1  0.58373100  0.58373100  0.41626900  1
  C  C18  1  0.66626900  0.66626900  0.83373100  1
  C  C19  1  0.28649000  0.91154300  0.24089000  1
  C  C20  1  0.68892300  0.00911000  0.33845700  1
  C  C21  1  0.56107700  0.24089000  0.91154300  1
  C  C22  1  0.00911000  0.68892300  0.96351000  1
  C  C23  1  0.06865900  0.90773800  0.66063300  1
  C  C24  1  0.58936700  0.88703100  0.18134100  1
  C  C25  1  0.36296900  0.66063300  0.90773800  1
  C  C26  1  0.88703100  0.58936700  0.34226200  1
  C  C27  1  0.66063300  0.36296900  0.06865900  1
  C  C28  1  0.91154300  0.28649000  0.56107700  1
  C  C29  1  0.18134100  0.34226200  0.58936700  1
