# generated using pymatgen
data_Cu5Ni2C17
_symmetry_space_group_name_H-M   'P 1'
_cell_length_a   5.02522195
_cell_length_b   5.02522195
_cell_length_c   9.79976054
_cell_angle_alpha   85.16048855
_cell_angle_beta   85.16048855
_cell_angle_gamma   119.54355264
_symmetry_Int_Tables_number   1
_chemical_formula_structural   Cu5Ni2C17
_chemical_formula_sum   'Cu5 Ni2 C17'
_cell_volume   212.25148129
_cell_formula_units_Z   1
loop_
 _symmetry_equiv_pos_site_id
 _symmetry_equiv_pos_as_xyz
  1  'x, y, z'
loop_
 _atom_site_type_symbol
 _atom_site_label
 _atom_site_symmetry_multiplicity
 _atom_site_fract_x
 _atom_site_fract_y
 _atom_site_fract_z
 _atom_site_occupancy
  Cu  Cu0  1  0.75237379  0.77684776  0.74727500  1
  Cu  Cu1  1  0.61261835  0.93458713  0.25805066  1
  Cu  Cu2  1  0.27872214  0.25480541  0.24601558  1
  Ni  Ni3  1  0.07760400  0.41667600  0.74678100  1
  Ni  Ni4  1  0.92132100  0.58008800  0.25290500  1
  Cu  Cu5  1  0.39791894  0.04187832  0.76381460  1
  Cu  Cu6  1  0.87645184  0.15570437  0.48396696  1
  C  C7  1  0.00001100  0.99998900  0.00000000  1
  C  C8  1  0.50039200  0.49960800  0.50000000  1
  C  C9  1  0.66494700  0.33505300  0.00000000  1
  C  C10  1  0.33772900  0.66227100  0.00000000  1
  C  C11  1  0.16506800  0.83493200  0.50000000  1
  C  C12  1  0.64085300  0.65498000  0.11566200  1
  C  C13  1  0.43311900  0.76996900  0.61022000  1
  C  C14  1  0.15632500  0.12433400  0.60872800  1
  C  C15  1  0.96773300  0.27970400  0.11765600  1
  C  C16  1  0.79693100  0.48887600  0.61188900  1
  C  C17  1  0.27367700  0.95235500  0.11431700  1
  C  C18  1  0.87566600  0.84367500  0.39127200  1
  C  C19  1  0.72029600  0.03226700  0.88234400  1
  C  C20  1  0.34502000  0.35914700  0.88433800  1
  C  C21  1  0.23003100  0.56688100  0.38978000  1
  C  C22  1  0.04764500  0.72632300  0.88568300  1
  C  C23  1  0.51112400  0.20306900  0.38811100  1
