# generated using pymatgen
data_Cu3C2
_symmetry_space_group_name_H-M   'P 1'
_cell_length_a   8.69060515
_cell_length_b   8.63274886
_cell_length_c   8.62422272
_cell_angle_alpha   90.00000000
_cell_angle_beta   90.00000000
_cell_angle_gamma   90.00000000
_symmetry_Int_Tables_number   1
_chemical_formula_structural   Cu3C2
_chemical_formula_sum   'Cu24 C16'
_cell_volume   647.02206142
_cell_formula_units_Z   8
loop_
 _symmetry_equiv_pos_site_id
 _symmetry_equiv_pos_as_xyz
  1  'x, y, z'
loop_
 _atom_site_type_symbol
 _atom_site_label
 _atom_site_symmetry_multiplicity
 _atom_site_fract_x
 _atom_site_fract_y
 _atom_site_fract_z
 _atom_site_occupancy
  C  C0  1  -0.00000000  0.50000000  0.50000000  1
  C  C1  1  0.50000000  -0.00000000  0.50000000  1
  C  C2  1  0.50000000  -0.00000000  -0.00000000  1
  C  C3  1  -0.00000000  0.50000000  -0.00000000  1
  C  C4  1  0.50000000  0.50000000  -0.00000000  1
  C  C5  1  -0.00000000  -0.00000000  0.50000000  1
  C  C6  1  -0.00000000  -0.00000000  -0.00000000  1
  C  C7  1  0.50000000  0.50000000  0.50000000  1
  C  C8  1  0.25000000  0.25000000  0.25000000  1
  C  C9  1  0.75000000  0.75000000  0.25000000  1
  C  C10  1  0.75000000  0.25000000  0.75000000  1
  C  C11  1  0.25000000  0.75000000  0.75000000  1
  C  C12  1  0.75000000  0.75000000  0.75000000  1
  C  C13  1  0.25000000  0.25000000  0.75000000  1
  C  C14  1  0.25000000  0.75000000  0.25000000  1
  C  C15  1  0.75000000  0.25000000  0.25000000  1
  Cu  Cu16  1  0.98543807  0.20520243  0.29783994  1
  Cu  Cu17  1  0.01849326  0.78935241  0.29643642  1
  Cu  Cu18  1  0.99760361  0.19658181  0.70420656  1
  Cu  Cu19  1  0.97428827  0.78500693  0.69434927  1
  Cu  Cu20  1  0.28227700  0.97801545  0.21567693  1
  Cu  Cu21  1  0.29073657  0.03058781  0.79267303  1
  Cu  Cu22  1  0.74885439  0.00647678  0.20560190  1
  Cu  Cu23  1  0.72196024  0.99188378  0.81341080  1
  Cu  Cu24  1  0.18213404  0.28236489  0.97564781  1
  Cu  Cu25  1  0.77747608  0.30990508  0.03149585  1
  Cu  Cu26  1  0.23588987  0.69765895  0.00739834  1
  Cu  Cu27  1  0.81454877  0.70353686  0.99768181  1
  Cu  Cu28  1  0.50834476  0.27669501  0.20930629  1
  Cu  Cu29  1  0.50869565  0.70976104  0.22904058  1
  Cu  Cu30  1  0.49274076  0.29086560  0.82591086  1
  Cu  Cu31  1  0.48311006  0.68480490  0.80324147  1
  Cu  Cu32  1  0.21642527  0.49532873  0.29919440  1
  Cu  Cu33  1  0.22568479  0.48682778  0.71895230  1
  Cu  Cu34  1  0.78540843  0.50659380  0.32605461  1
  Cu  Cu35  1  0.77036116  0.50871628  0.71630613  1
  Cu  Cu36  1  0.24590647  0.22530639  0.49809502  1
  Cu  Cu37  1  0.69863168  0.22419192  0.49434051  1
  Cu  Cu38  1  0.29358799  0.82448008  0.49670176  1
  Cu  Cu39  1  0.70440129  0.82638303  0.53001360  1
