# generated using pymatgen
data_Cu3NiC8
_symmetry_space_group_name_H-M   'P 1'
_cell_length_a   3.06260600
_cell_length_b   7.74625100
_cell_length_c   11.84908158
_cell_angle_alpha   83.71241884
_cell_angle_beta   90.00000000
_cell_angle_gamma   90.00000000
_symmetry_Int_Tables_number   1
_chemical_formula_structural   Cu3NiC8
_chemical_formula_sum   'Cu6 Ni2 C16'
_cell_volume   279.41331040
_cell_formula_units_Z   2
loop_
 _symmetry_equiv_pos_site_id
 _symmetry_equiv_pos_as_xyz
  1  'x, y, z'
loop_
 _atom_site_type_symbol
 _atom_site_label
 _atom_site_symmetry_multiplicity
 _atom_site_fract_x
 _atom_site_fract_y
 _atom_site_fract_z
 _atom_site_occupancy
  C  C0  1  0.75000000  0.85642400  0.86242300  1
  C  C1  1  0.25000000  0.83192900  0.51546400  1
  C  C2  1  0.75000000  0.78551500  0.28438000  1
  C  C3  1  0.75000000  0.38634600  0.92221700  1
  C  C4  1  0.25000000  0.61365400  0.07778300  1
  C  C5  1  0.25000000  0.21448500  0.71562000  1
  C  C6  1  0.75000000  0.16807100  0.48453600  1
  C  C7  1  0.25000000  0.14357600  0.13757700  1
  C  C8  1  0.75000000  0.93783700  0.42180500  1
  C  C9  1  0.75000000  0.62802600  0.95760300  1
  C  C10  1  0.25000000  0.89791800  0.20408700  1
  C  C11  1  0.25000000  0.39271400  0.81757600  1
  C  C12  1  0.75000000  0.60728600  0.18242400  1
  C  C13  1  0.75000000  0.10208200  0.79591300  1
  C  C14  1  0.25000000  0.37197400  0.04239700  1
  C  C15  1  0.25000000  0.06216300  0.57819500  1
  Cu  Cu16  1  0.27644547  0.88376148  0.95328334  1
  Cu  Cu17  1  0.26099425  0.79692001  0.78162047  1
  Cu  Cu18  1  0.71340749  0.71760643  0.59051641  1
  Ni  Ni19  1  0.25000000  0.66572900  0.39071700  1
  Cu  Cu20  1  0.70010721  0.32047759  0.59538240  1
  Ni  Ni21  1  0.25000000  0.28233100  0.40143600  1
  Cu  Cu22  1  0.75645364  0.18795990  0.22081613  1
  Cu  Cu23  1  0.73235893  0.09617126  0.04483927  1
