# generated using pymatgen
data_Cu2Ni2C13
_symmetry_space_group_name_H-M   'P 1'
_cell_length_a   11.27852500
_cell_length_b   6.47559100
_cell_length_c   7.98301360
_cell_angle_alpha   72.40731079
_cell_angle_beta   90.00000000
_cell_angle_gamma   90.00000000
_symmetry_Int_Tables_number   1
_chemical_formula_structural   Cu2Ni2C13
_chemical_formula_sum   'Cu4 Ni4 C26'
_cell_volume   555.77107845
_cell_formula_units_Z   2
loop_
 _symmetry_equiv_pos_site_id
 _symmetry_equiv_pos_as_xyz
  1  'x, y, z'
loop_
 _atom_site_type_symbol
 _atom_site_label
 _atom_site_symmetry_multiplicity
 _atom_site_fract_x
 _atom_site_fract_y
 _atom_site_fract_z
 _atom_site_occupancy
  Ni  Ni0  1  0.12853600  0.24976600  0.43949400  1
  Ni  Ni1  1  0.62853600  0.75023400  0.06050600  1
  Ni  Ni2  1  0.87146400  0.75023400  0.56050600  1
  Ni  Ni3  1  0.37146400  0.24976600  0.93949400  1
  C  C4  1  0.00000000  0.00000000  0.00000000  1
  C  C5  1  0.50000000  0.00000000  0.50000000  1
  C  C6  1  0.08191300  0.37554200  0.92777500  1
  C  C7  1  0.58191300  0.62445800  0.57222500  1
  C  C8  1  0.91808700  0.62445800  0.07222500  1
  C  C9  1  0.41808700  0.37554200  0.42777500  1
  C  C10  1  0.14680600  0.84857400  0.83082600  1
  C  C11  1  0.64680600  0.15142600  0.66917400  1
  C  C12  1  0.85319400  0.15142600  0.16917400  1
  C  C13  1  0.35319400  0.84857400  0.33082600  1
  C  C14  1  0.34704800  0.78359700  0.69903400  1
  C  C15  1  0.84704800  0.21640300  0.80096600  1
  C  C16  1  0.65295200  0.21640300  0.30096600  1
  C  C17  1  0.15295200  0.78359700  0.19903400  1
  Cu  Cu18  1  0.32794900  0.62438200  0.19673400  1
  Cu  Cu19  1  0.82794900  0.37561800  0.30326600  1
  Cu  Cu20  1  0.67205100  0.37561800  0.80326600  1
  Cu  Cu21  1  0.17205100  0.62438200  0.69673400  1
  C  C22  1  0.43303000  0.26036000  0.54032900  1
  C  C23  1  0.93303000  0.73964000  0.95967100  1
  C  C24  1  0.56697000  0.73964000  0.45967100  1
  C  C25  1  0.06697000  0.26036000  0.04032900  1
  C  C26  1  0.14173800  0.98623900  0.86307900  1
  C  C27  1  0.64173800  0.01376100  0.63692100  1
  C  C28  1  0.85826200  0.01376100  0.13692100  1
  C  C29  1  0.35826200  0.98623900  0.36307900  1
  C  C30  1  0.42726400  0.83166300  0.72271400  1
  C  C31  1  0.92726400  0.16833700  0.77728600  1
  C  C32  1  0.57273600  0.16833700  0.27728600  1
  C  C33  1  0.07273600  0.83166300  0.22271400  1
