# generated using pymatgen
data_Cu6Ni2C7
_symmetry_space_group_name_H-M   'P 1'
_cell_length_a   6.07457997
_cell_length_b   6.07457997
_cell_length_c   6.07457993
_cell_angle_alpha   61.55457988
_cell_angle_beta   61.55457988
_cell_angle_gamma   61.55458158
_symmetry_Int_Tables_number   1
_chemical_formula_structural   Cu6Ni2C7
_chemical_formula_sum   'Cu6 Ni2 C7'
_cell_volume   164.03064864
_cell_formula_units_Z   1
loop_
 _symmetry_equiv_pos_site_id
 _symmetry_equiv_pos_as_xyz
  1  'x, y, z'
loop_
 _atom_site_type_symbol
 _atom_site_label
 _atom_site_symmetry_multiplicity
 _atom_site_fract_x
 _atom_site_fract_y
 _atom_site_fract_z
 _atom_site_occupancy
  C  C0  1  0.00000000  0.00000000  0.00000000  1
  C  C1  1  0.50000000  0.50000000  0.00000000  1
  C  C2  1  0.00000000  0.50000000  0.50000000  1
  C  C3  1  0.50000000  0.00000000  0.50000000  1
  C  C4  1  0.00000000  0.00000000  0.50000000  1
  C  C5  1  0.50000000  0.00000000  0.00000000  1
  C  C6  1  0.00000000  0.50000000  0.00000000  1
  Cu  Cu7  1  0.72860945  0.78101138  0.23394288  1
  Cu  Cu8  1  0.23759469  0.30072323  0.23702634  1
  Cu  Cu9  1  0.76935417  0.24672651  0.72009167  1
  Ni  Ni10  1  0.78713600  0.24178100  0.24178100  1
  Cu  Cu11  1  0.20109625  0.79458569  0.74511133  1
  Ni  Ni12  1  0.24178100  0.78713600  0.24178100  1
  Cu  Cu13  1  0.76234121  0.73377721  0.78473976  1
  Cu  Cu14  1  0.26286735  0.21380695  0.78999903  1
