# generated using pymatgen
data_CuC3
_symmetry_space_group_name_H-M   'P 1'
_cell_length_a   5.62759985
_cell_length_b   5.62772499
_cell_length_c   21.84568523
_cell_angle_alpha   97.40336445
_cell_angle_beta   82.59847564
_cell_angle_gamma   90.00674561
_symmetry_Int_Tables_number   1
_chemical_formula_structural   CuC3
_chemical_formula_sum   'Cu12 C36'
_cell_volume   680.28563410
_cell_formula_units_Z   12
loop_
 _symmetry_equiv_pos_site_id
 _symmetry_equiv_pos_as_xyz
  1  'x, y, z'
loop_
 _atom_site_type_symbol
 _atom_site_label
 _atom_site_symmetry_multiplicity
 _atom_site_fract_x
 _atom_site_fract_y
 _atom_site_fract_z
 _atom_site_occupancy
  Cu  Cu0  1  0.66128828  0.37932745  0.69830622  1
  Cu  Cu1  1  0.40734100  0.08475543  0.18393897  1
  Cu  Cu2  1  0.15261201  0.85492705  0.69011038  1
  Cu  Cu3  1  0.91348182  0.60256103  0.19222774  1
  Cu  Cu4  1  0.63840104  0.88157197  0.82208775  1
  Cu  Cu5  1  0.38507668  0.62025743  0.30594509  1
  Cu  Cu6  1  0.08957092  0.45841401  0.82779390  1
  Cu  Cu7  1  0.84768613  0.16437807  0.32143940  1
  Cu  Cu8  1  0.53645603  0.98711954  0.98085876  1
  Cu  Cu9  1  0.28965285  0.71984810  0.48158762  1
  Cu  Cu10  1  0.01251755  0.47164624  0.98196315  1
  Cu  Cu11  1  0.78118153  0.28151632  0.48362333  1
  C  C12  1  0.70143400  0.79836200  0.59736000  1
  C  C13  1  0.45084000  0.54939900  0.09813000  1
  C  C14  1  0.20145200  0.29833600  0.59731500  1
  C  C15  1  0.95075500  0.04931200  0.09812700  1
  C  C16  1  0.30275900  0.19708100  0.39443500  1
  C  C17  1  0.05301900  0.94689400  0.89374500  1
  C  C18  1  0.55323800  0.44691800  0.89377500  1
  C  C19  1  0.80301500  0.69699800  0.39412500  1
  C  C20  1  0.74595200  0.75359400  0.50798200  1
  C  C21  1  0.49540900  0.50461200  0.00851900  1
  C  C22  1  0.24608900  0.25449300  0.50781200  1
  C  C23  1  0.99592600  0.00417000  0.00852500  1
  C  C24  1  0.59959700  0.40016900  0.80116500  1
  C  C25  1  0.34908600  0.15063700  0.30192900  1
  C  C26  1  0.09965600  0.90003700  0.80112300  1
  C  C27  1  0.84951800  0.65074800  0.30157200  1
  C  C28  1  0.65220600  0.84789600  0.69535000  1
  C  C29  1  0.40182300  0.59806700  0.19606100  1
  C  C30  1  0.15242300  0.34755400  0.69524100  1
  C  C31  1  0.90200000  0.09828900  0.19606100  1
  C  C32  1  0.31137800  0.21609300  0.90357300  1
  C  C33  1  0.06194000  0.96502000  0.40386500  1
  C  C34  1  0.78486100  0.68755700  0.90354300  1
  C  C35  1  0.53451500  0.43834700  0.40376500  1
  C  C36  1  0.81170800  0.18750200  0.90349000  1
  C  C37  1  0.56211800  0.93813700  0.40395600  1
  C  C38  1  0.28498000  0.71608900  0.90343200  1
  C  C39  1  0.03405200  0.46533100  0.40395400  1
  C  C40  1  0.94867700  0.05127300  0.60241500  1
  C  C41  1  0.69831000  0.80186000  0.10349800  1
  C  C42  1  0.44846200  0.55165800  0.60250000  1
  C  C43  1  0.19795200  0.30197700  0.10345300  1
  C  C44  1  0.44896000  0.05157600  0.60241600  1
  C  C45  1  0.19822600  0.80194600  0.10352700  1
  C  C46  1  0.94879400  0.55121800  0.60255100  1
  C  C47  1  0.69788400  0.30175600  0.10343800  1
