# generated using pymatgen
data_CuNi5C6
_symmetry_space_group_name_H-M   'P 1'
_cell_length_a   3.95126400
_cell_length_b   3.95126400
_cell_length_c   17.50148300
_cell_angle_alpha   90.00000000
_cell_angle_beta   90.00000000
_cell_angle_gamma   119.99999998
_symmetry_Int_Tables_number   1
_chemical_formula_structural   CuNi5C6
_chemical_formula_sum   'Cu1 Ni5 C6'
_cell_volume   236.63423555
_cell_formula_units_Z   1
loop_
 _symmetry_equiv_pos_site_id
 _symmetry_equiv_pos_as_xyz
  1  'x, y, z'
loop_
 _atom_site_type_symbol
 _atom_site_label
 _atom_site_symmetry_multiplicity
 _atom_site_fract_x
 _atom_site_fract_y
 _atom_site_fract_z
 _atom_site_occupancy
  C  C0  1  0.66666700  0.33333300  0.53772200  1
  C  C1  1  0.33333300  0.66666700  0.03772200  1
  C  C2  1  0.66666700  0.33333300  0.96227800  1
  C  C3  1  0.66666700  0.33333300  0.25000000  1
  C  C4  1  0.33333300  0.66666700  0.75000000  1
  C  C5  1  0.33333300  0.66666700  0.46227800  1
  Ni  Ni6  1  0.00000000  0.00000000  0.41310400  1
  Ni  Ni7  1  0.00000000  0.00000000  0.91310400  1
  Ni  Ni8  1  0.00000000  0.00000000  0.08689600  1
  Ni  Ni9  1  0.33333300  0.66666700  0.25000000  1
  Cu  Cu10  1  0.66085032  0.31984435  0.75022011  1
  Ni  Ni11  1  0.00000000  0.00000000  0.58689600  1
