# generated using pymatgen
data_CuNiC2
_symmetry_space_group_name_H-M   'P 1'
_cell_length_a   5.80147829
_cell_length_b   5.81288630
_cell_length_c   6.12945700
_cell_angle_alpha   90.00000000
_cell_angle_beta   90.00000000
_cell_angle_gamma   102.60418811
_symmetry_Int_Tables_number   1
_chemical_formula_structural   CuNiC2
_chemical_formula_sum   'Cu4 Ni4 C8'
_cell_volume   201.72428394
_cell_formula_units_Z   4
loop_
 _symmetry_equiv_pos_site_id
 _symmetry_equiv_pos_as_xyz
  1  'x, y, z'
loop_
 _atom_site_type_symbol
 _atom_site_label
 _atom_site_symmetry_multiplicity
 _atom_site_fract_x
 _atom_site_fract_y
 _atom_site_fract_z
 _atom_site_occupancy
  C  C0  1  0.81690900  0.33425000  0.35954500  1
  C  C1  1  0.68309100  0.66575000  0.85954500  1
  C  C2  1  0.18309100  0.66575000  0.64045500  1
  C  C3  1  0.31690900  0.33425000  0.14045500  1
  C  C4  1  0.80317100  0.20244500  0.92888800  1
  C  C5  1  0.69682900  0.79755500  0.42888800  1
  C  C6  1  0.19682900  0.79755500  0.07111200  1
  C  C7  1  0.30317100  0.20244500  0.57111200  1
  Ni  Ni8  1  0.51499300  0.08604900  0.23951200  1
  Cu  Cu9  1  0.98176448  0.92308538  0.74817142  1
  Ni  Ni10  1  0.48500700  0.91395100  0.76048800  1
  Cu  Cu11  1  0.01723903  0.08406183  0.24077429  1
  Cu  Cu12  1  0.78235954  0.59129138  0.11315583  1
  Cu  Cu13  1  0.71695232  0.43314989  0.65855774  1
  Ni  Ni14  1  0.20413100  0.42913700  0.86721700  1
  Ni  Ni15  1  0.29586900  0.57086300  0.36721700  1
