# generated using pymatgen
data_Cu2NiC2
_symmetry_space_group_name_H-M   'P 1'
_cell_length_a   6.33244965
_cell_length_b   6.33244965
_cell_length_c   9.71927524
_cell_angle_alpha   64.67053476
_cell_angle_beta   64.67053476
_cell_angle_gamma   31.91791789
_symmetry_Int_Tables_number   1
_chemical_formula_structural   Cu2NiC2
_chemical_formula_sum   'Cu4 Ni2 C4'
_cell_volume   184.53419464
_cell_formula_units_Z   2
loop_
 _symmetry_equiv_pos_site_id
 _symmetry_equiv_pos_as_xyz
  1  'x, y, z'
loop_
 _atom_site_type_symbol
 _atom_site_label
 _atom_site_symmetry_multiplicity
 _atom_site_fract_x
 _atom_site_fract_y
 _atom_site_fract_z
 _atom_site_occupancy
  C  C0  1  0.00000000  0.00000000  0.50000000  1
  C  C1  1  0.00000000  0.00000000  0.00000000  1
  C  C2  1  0.66438300  0.66438300  0.67489200  1
  C  C3  1  0.33561700  0.33561700  0.32510800  1
  Cu  Cu4  1  0.79301422  0.80173689  0.66901312  1
  Ni  Ni5  1  0.44719900  0.44719900  0.39154300  1
  Cu  Cu6  1  0.12310283  0.09208442  0.04697156  1
  Ni  Ni7  1  0.87304300  0.87304300  0.96693300  1
  Cu  Cu8  1  0.55103263  0.55647533  0.62594025  1
  Cu  Cu9  1  0.20861127  0.18908126  0.32883960  1
