# generated using pymatgen
data_Cu2NiC3
_symmetry_space_group_name_H-M   'P 1'
_cell_length_a   5.10887565
_cell_length_b   5.11907210
_cell_length_c   6.82892600
_cell_angle_alpha   90.00000000
_cell_angle_beta   90.00000000
_cell_angle_gamma   119.93412814
_symmetry_Int_Tables_number   1
_chemical_formula_structural   Cu2NiC3
_chemical_formula_sum   'Cu4 Ni2 C6'
_cell_volume   154.77025752
_cell_formula_units_Z   2
loop_
 _symmetry_equiv_pos_site_id
 _symmetry_equiv_pos_as_xyz
  1  'x, y, z'
loop_
 _atom_site_type_symbol
 _atom_site_label
 _atom_site_symmetry_multiplicity
 _atom_site_fract_x
 _atom_site_fract_y
 _atom_site_fract_z
 _atom_site_occupancy
  C  C0  1  0.99997900  0.00000000  0.00000000  1
  C  C1  1  0.99999100  0.00000000  0.50000000  1
  C  C2  1  0.33306600  0.66619900  0.00000000  1
  C  C3  1  0.66686800  0.33380100  0.00000000  1
  Cu  Cu4  1  0.49035722  0.98796615  0.29591558  1
  Cu  Cu5  1  0.50898995  0.54471295  0.27579763  1
  Cu  Cu6  1  0.03962010  0.52264744  0.25337767  1
  Ni  Ni7  1  0.49999600  0.00000000  0.71233200  1
  Cu  Cu8  1  0.53441724  0.53815888  0.71839740  1
  Ni  Ni9  1  0.99998800  0.49999600  0.71221300  1
  C  C10  1  0.33336400  0.66678300  0.50000000  1
  C  C11  1  0.66658000  0.33321700  0.50000000  1
