# generated using pymatgen
data_CuC3
_symmetry_space_group_name_H-M   'P 1'
_cell_length_a   5.24061637
_cell_length_b   6.02893798
_cell_length_c   6.42854121
_cell_angle_alpha   76.44197870
_cell_angle_beta   82.08118488
_cell_angle_gamma   89.99207646
_symmetry_Int_Tables_number   1
_chemical_formula_structural   CuC3
_chemical_formula_sum   'Cu4 C12'
_cell_volume   195.45993976
_cell_formula_units_Z   4
loop_
 _symmetry_equiv_pos_site_id
 _symmetry_equiv_pos_as_xyz
  1  'x, y, z'
loop_
 _atom_site_type_symbol
 _atom_site_label
 _atom_site_symmetry_multiplicity
 _atom_site_fract_x
 _atom_site_fract_y
 _atom_site_fract_z
 _atom_site_occupancy
  Cu  Cu0  1  0.01294127  0.99089456  0.95114303  1
  Cu  Cu1  1  0.50437111  0.26564164  0.00825540  1
  Cu  Cu2  1  0.45999026  0.74000164  0.97629091  1
  Cu  Cu3  1  0.98631529  0.49712708  0.01001469  1
  C  C4  1  0.41998600  0.12986100  0.48027200  1
  C  C5  1  0.92000300  0.88000200  0.48028600  1
  C  C6  1  0.41997500  0.62986100  0.48027500  1
  C  C7  1  0.92000000  0.37999900  0.48028100  1
  C  C8  1  0.36088600  0.04331100  0.83237500  1
  C  C9  1  0.86087700  0.79053000  0.83239000  1
  C  C10  1  0.36086100  0.54328900  0.83238700  1
  C  C11  1  0.86086000  0.29050500  0.83238200  1
  C  C12  1  0.13883800  0.20656900  0.16888700  1
  C  C13  1  0.63889200  0.95899000  0.16884800  1
  C  C14  1  0.13884300  0.70656200  0.16887000  1
  C  C15  1  0.63886700  0.45899600  0.16884200  1
