# generated using pymatgen
data_Cu5NiC2
_symmetry_space_group_name_H-M   'P 1'
_cell_length_a   7.13979240
_cell_length_b   7.13979240
_cell_length_c   12.83957859
_cell_angle_alpha   79.45837843
_cell_angle_beta   79.45837843
_cell_angle_gamma   55.51626791
_symmetry_Int_Tables_number   1
_chemical_formula_structural   Cu5NiC2
_chemical_formula_sum   'Cu10 Ni2 C4'
_cell_volume   527.85530922
_cell_formula_units_Z   2
loop_
 _symmetry_equiv_pos_site_id
 _symmetry_equiv_pos_as_xyz
  1  'x, y, z'
loop_
 _atom_site_type_symbol
 _atom_site_label
 _atom_site_symmetry_multiplicity
 _atom_site_fract_x
 _atom_site_fract_y
 _atom_site_fract_z
 _atom_site_occupancy
  C  C0  1  0.88193500  0.11806500  0.75000000  1
  C  C1  1  0.11806500  0.88193500  0.25000000  1
  C  C2  1  0.50000000  0.00000000  0.50000000  1
  C  C3  1  0.00000000  0.50000000  0.00000000  1
  Cu  Cu4  1  0.46289954  0.72044218  0.58740745  1
  Cu  Cu5  1  0.55232742  0.27674074  0.39603399  1
  Cu  Cu6  1  0.29214756  0.55199735  0.92237299  1
  Ni  Ni7  1  0.70685700  0.46302500  0.10181400  1
  Ni  Ni8  1  0.37331800  0.19486400  0.65486800  1
  Cu  Cu9  1  0.67154744  0.74925936  0.32461498  1
  Cu  Cu10  1  0.81686332  0.60698769  0.85515711  1
  Cu  Cu11  1  0.17840627  0.35481966  0.15473299  1
  Cu  Cu12  1  0.77047889  0.92796544  0.02686178  1
  Cu  Cu13  1  0.17177537  0.13913296  0.96697066  1
  Cu  Cu14  1  0.11254095  0.17752974  0.46958992  1
  Cu  Cu15  1  0.90130107  0.76632456  0.54106803  1
