# generated using pymatgen
data_Cu3NiC42
_symmetry_space_group_name_H-M   'P 1'
_cell_length_a   7.23924400
_cell_length_b   14.40459600
_cell_length_c   17.49547600
_cell_angle_alpha   90.00000000
_cell_angle_beta   90.00000000
_cell_angle_gamma   90.00000000
_symmetry_Int_Tables_number   1
_chemical_formula_structural   Cu3NiC42
_chemical_formula_sum   'Cu6 Ni2 C84'
_cell_volume   1824.39998498
_cell_formula_units_Z   2
loop_
 _symmetry_equiv_pos_site_id
 _symmetry_equiv_pos_as_xyz
  1  'x, y, z'
loop_
 _atom_site_type_symbol
 _atom_site_label
 _atom_site_symmetry_multiplicity
 _atom_site_fract_x
 _atom_site_fract_y
 _atom_site_fract_z
 _atom_site_occupancy
  C  C0  1  0.18288500  0.82203600  0.55673700  1
  C  C1  1  0.68288500  0.67796400  0.94326300  1
  C  C2  1  0.31711500  0.32203600  0.44326300  1
  C  C3  1  0.81711500  0.17796400  0.05673700  1
  C  C4  1  0.81711500  0.17796400  0.44326300  1
  C  C5  1  0.31711500  0.32203600  0.05673700  1
  C  C6  1  0.68288500  0.67796400  0.55673700  1
  C  C7  1  0.18288500  0.82203600  0.94326300  1
  C  C8  1  0.15620500  0.18228000  0.25000000  1
  C  C9  1  0.65620500  0.31772000  0.25000000  1
  C  C10  1  0.34379500  0.68228000  0.75000000  1
  C  C11  1  0.84379500  0.81772000  0.75000000  1
  C  C12  1  0.17263000  0.43650600  0.25000000  1
  C  C13  1  0.67263000  0.06349400  0.25000000  1
  C  C14  1  0.32737000  0.93650600  0.75000000  1
  C  C15  1  0.82737000  0.56349400  0.75000000  1
  C  C16  1  0.33124800  0.05121300  0.42063100  1
  C  C17  1  0.83124800  0.44878700  0.07936900  1
  C  C18  1  0.16875200  0.55121300  0.57936900  1
  C  C19  1  0.66875200  0.94878700  0.92063100  1
  C  C20  1  0.66875200  0.94878700  0.57936900  1
  C  C21  1  0.16875200  0.55121300  0.92063100  1
  C  C22  1  0.83124800  0.44878700  0.42063100  1
  C  C23  1  0.33124800  0.05121300  0.07936900  1
  C  C24  1  0.89213400  0.09951300  0.75000000  1
  C  C25  1  0.39213400  0.40048700  0.75000000  1
  C  C26  1  0.60786600  0.59951300  0.25000000  1
  C  C27  1  0.10786600  0.90048700  0.25000000  1
  C  C28  1  0.46795600  0.18689200  0.64197000  1
  C  C29  1  0.96795600  0.31310800  0.85803000  1
  C  C30  1  0.03204400  0.68689200  0.35803000  1
  C  C31  1  0.53204400  0.81310800  0.14197000  1
  C  C32  1  0.53204400  0.81310800  0.35803000  1
  C  C33  1  0.03204400  0.68689200  0.14197000  1
  C  C34  1  0.96795600  0.31310800  0.64197000  1
  C  C35  1  0.46795600  0.18689200  0.85803000  1
  Cu  Cu36  1  0.07288889  0.06568538  0.58042790  1
  Cu  Cu37  1  0.58409274  0.42670240  0.91935998  1
  Cu  Cu38  1  0.41060866  0.56187026  0.40579435  1
  Cu  Cu39  1  0.88921713  0.94056748  0.07542915  1
  Ni  Ni40  1  0.91941000  0.93583600  0.41619900  1
  Cu  Cu41  1  0.43126287  0.55753838  0.09008845  1
  Cu  Cu42  1  0.58243626  0.43479644  0.58758577  1
  Ni  Ni43  1  0.08059000  0.06416400  0.91619900  1
  C  C44  1  0.99615600  0.04800500  0.34745100  1
  C  C45  1  0.49615600  0.45199500  0.15254900  1
  C  C46  1  0.50384400  0.54800500  0.65254900  1
  C  C47  1  0.00384400  0.95199500  0.84745100  1
  C  C48  1  0.00384400  0.95199500  0.65254900  1
  C  C49  1  0.50384400  0.54800500  0.84745100  1
  C  C50  1  0.49615600  0.45199500  0.34745100  1
  C  C51  1  0.99615600  0.04800500  0.15254900  1
  C  C52  1  0.29579300  0.72783700  0.25000000  1
  C  C53  1  0.79579400  0.77216300  0.25000000  1
  C  C54  1  0.20420700  0.22783700  0.75000000  1
  C  C55  1  0.70420600  0.27216300  0.75000000  1
  C  C56  1  0.33680500  0.67617600  0.48011600  1
  C  C57  1  0.83680500  0.82382400  0.01988400  1
  C  C58  1  0.16319500  0.17617600  0.51988400  1
  C  C59  1  0.66319500  0.32382400  0.98011600  1
  C  C60  1  0.66319500  0.32382400  0.51988400  1
  C  C61  1  0.16319500  0.17617600  0.98011600  1
  C  C62  1  0.83680500  0.82382400  0.48011600  1
  C  C63  1  0.33680500  0.67617600  0.01988400  1
  C  C64  1  0.17742000  0.87684400  0.40524900  1
  C  C65  1  0.67742000  0.62315600  0.09475100  1
  C  C66  1  0.32258000  0.37684400  0.59475100  1
  C  C67  1  0.82258000  0.12315600  0.90524900  1
  C  C68  1  0.82258000  0.12315600  0.59475100  1
  C  C69  1  0.32258000  0.37684400  0.90524900  1
  C  C70  1  0.67742000  0.62315600  0.40524900  1
  C  C71  1  0.17742000  0.87684400  0.09475100  1
  C  C72  1  0.98814000  0.30029600  0.15473100  1
  C  C73  1  0.48814000  0.19970400  0.34526900  1
  C  C74  1  0.51186000  0.80029600  0.84526900  1
  C  C75  1  0.01186000  0.69970400  0.65473100  1
  C  C76  1  0.01186000  0.69970400  0.84526900  1
  C  C77  1  0.51186000  0.80029600  0.65473100  1
  C  C78  1  0.48814000  0.19970400  0.15473100  1
  C  C79  1  0.98814000  0.30029600  0.34526900  1
  C  C80  1  0.66263700  0.99181300  0.42534700  1
  C  C81  1  0.16263700  0.50818700  0.07465300  1
  C  C82  1  0.83736300  0.49181300  0.57465300  1
  C  C83  1  0.33736300  0.00818700  0.92534700  1
  C  C84  1  0.33736300  0.00818700  0.57465300  1
  C  C85  1  0.83736300  0.49181300  0.92534700  1
  C  C86  1  0.16263700  0.50818700  0.42534700  1
  C  C87  1  0.66263700  0.99181300  0.07465300  1
  C  C88  1  0.44307400  0.94619400  0.25000000  1
  C  C89  1  0.94307400  0.55380600  0.25000000  1
  C  C90  1  0.05692600  0.44619400  0.75000000  1
  C  C91  1  0.55692600  0.05380600  0.75000000  1
