# generated using pymatgen
data_Cu2Ni2C5
_symmetry_space_group_name_H-M   'P 1'
_cell_length_a   4.82827900
_cell_length_b   5.77194357
_cell_length_c   7.82556232
_cell_angle_alpha   84.56611367
_cell_angle_beta   89.61818211
_cell_angle_gamma   89.08402360
_symmetry_Int_Tables_number   1
_chemical_formula_structural   Cu2Ni2C5
_chemical_formula_sum   'Cu4 Ni4 C10'
_cell_volume   217.07640211
_cell_formula_units_Z   2
loop_
 _symmetry_equiv_pos_site_id
 _symmetry_equiv_pos_as_xyz
  1  'x, y, z'
loop_
 _atom_site_type_symbol
 _atom_site_label
 _atom_site_symmetry_multiplicity
 _atom_site_fract_x
 _atom_site_fract_y
 _atom_site_fract_z
 _atom_site_occupancy
  C  C0  1  0.56287600  0.82994100  0.65919300  1
  C  C1  1  0.49346500  0.50310300  0.00661700  1
  C  C2  1  0.48888500  0.16664600  0.33512000  1
  C  C3  1  0.95984300  0.33375600  0.68028200  1
  C  C4  1  0.00896000  0.66779600  0.33471500  1
  C  C5  1  0.99037800  0.99400300  0.98803000  1
  C  C6  1  0.80023700  0.04565200  0.76174700  1
  C  C7  1  0.69634800  0.53718900  0.77812000  1
  C  C8  1  0.67764600  0.88119400  0.42708600  1
  C  C9  1  0.31830700  0.45268200  0.22796600  1
  Cu  Cu10  1  0.81020759  0.35891377  0.45603549  1
  Ni  Ni11  1  0.79665200  0.69210000  0.09979400  1
  Ni  Ni12  1  0.69853500  0.20764300  0.10469200  1
  Cu  Cu13  1  0.31013520  0.13490783  0.56560106  1
  Cu  Cu14  1  0.32174953  0.78828642  0.90415343  1
  Ni  Ni15  1  0.20073800  0.97410300  0.22026100  1
  Cu  Cu16  1  0.16164375  0.60147167  0.59307012  1
  Ni  Ni17  1  0.20621100  0.30769500  0.89301500  1
