# generated using pymatgen
data_Cu3NiC13
_symmetry_space_group_name_H-M   'P 1'
_cell_length_a   5.11553081
_cell_length_b   6.04421968
_cell_length_c   5.74710658
_cell_angle_alpha   112.71521438
_cell_angle_beta   91.70744118
_cell_angle_gamma   92.82863658
_symmetry_Int_Tables_number   1
_chemical_formula_structural   Cu3NiC13
_chemical_formula_sum   'Cu3 Ni1 C13'
_cell_volume   163.48404781
_cell_formula_units_Z   1
loop_
 _symmetry_equiv_pos_site_id
 _symmetry_equiv_pos_as_xyz
  1  'x, y, z'
loop_
 _atom_site_type_symbol
 _atom_site_label
 _atom_site_symmetry_multiplicity
 _atom_site_fract_x
 _atom_site_fract_y
 _atom_site_fract_z
 _atom_site_occupancy
  C  C0  1  0.50000000  0.00000000  0.00000000  1
  Ni  Ni1  1  0.53396600  0.25842000  0.71130400  1
  Cu  Cu2  1  0.01617389  0.74846224  0.76326969  1
  Cu  Cu3  1  0.45737470  0.71447459  0.24466249  1
  Cu  Cu4  1  0.98575221  0.21535749  0.24409492  1
  C  C5  1  0.53710200  0.66255600  0.71371400  1
  C  C6  1  0.03908900  0.27784100  0.70878400  1
  C  C7  1  0.46289900  0.33744500  0.28628700  1
  C  C8  1  0.96091200  0.72215900  0.29121700  1
  C  C9  1  0.33920600  0.35819600  0.15982400  1
  C  C10  1  0.85597300  0.64790300  0.38879300  1
  C  C11  1  0.14402800  0.35209700  0.61120800  1
  C  C12  1  0.66079500  0.64180500  0.84017400  1
  C  C13  1  0.66499900  0.11464800  0.34902200  1
  C  C14  1  0.33500000  0.88535200  0.65097700  1
  C  C15  1  0.16963300  0.85745200  0.08959100  1
  C  C16  1  0.83036400  0.14254800  0.91040900  1
