# generated using pymatgen
data_Cu3NiC4
_symmetry_space_group_name_H-M   'P 1'
_cell_length_a   5.24061637
_cell_length_b   6.02893798
_cell_length_c   6.42854121
_cell_angle_alpha   76.44197870
_cell_angle_beta   82.08118488
_cell_angle_gamma   89.99207646
_symmetry_Int_Tables_number   1
_chemical_formula_structural   Cu3NiC4
_chemical_formula_sum   'Cu6 Ni2 C8'
_cell_volume   195.45993976
_cell_formula_units_Z   2
loop_
 _symmetry_equiv_pos_site_id
 _symmetry_equiv_pos_as_xyz
  1  'x, y, z'
loop_
 _atom_site_type_symbol
 _atom_site_label
 _atom_site_symmetry_multiplicity
 _atom_site_fract_x
 _atom_site_fract_y
 _atom_site_fract_z
 _atom_site_occupancy
  C  C0  1  0.00077900  0.99982700  0.99545300  1
  C  C1  1  0.50077800  0.25243600  0.99547300  1
  C  C2  1  0.50077200  0.75241400  0.99550000  1
  C  C3  1  0.00078300  0.49984700  0.99547900  1
  C  C4  1  0.41998600  0.12986100  0.48027200  1
  C  C5  1  0.92000300  0.88000200  0.48028600  1
  C  C6  1  0.41997500  0.62986100  0.48027500  1
  C  C7  1  0.92000000  0.37999900  0.48028100  1
  Cu  Cu8  1  0.32033849  0.01663323  0.83987056  1
  Cu  Cu9  1  0.89674294  0.80883337  0.83516098  1
  Cu  Cu10  1  0.34074421  0.54615425  0.80916869  1
  Cu  Cu11  1  0.88999080  0.31360690  0.85255050  1
  Ni  Ni12  1  0.13883800  0.20656900  0.16888700  1
  Ni  Ni13  1  0.63889200  0.95899000  0.16884800  1
  Cu  Cu14  1  0.14455911  0.71610369  0.16390743  1
  Cu  Cu15  1  0.62468659  0.51214150  0.17900304  1
