# generated using pymatgen
data_Cu6NiC7
_symmetry_space_group_name_H-M   'P 1'
_cell_length_a   5.98450444
_cell_length_b   5.98450444
_cell_length_c   10.41089700
_cell_angle_alpha   90.00000000
_cell_angle_beta   90.00000000
_cell_angle_gamma   120.00000485
_symmetry_Int_Tables_number   1
_chemical_formula_structural   Cu6NiC7
_chemical_formula_sum   'Cu12 Ni2 C14'
_cell_volume   322.90528054
_cell_formula_units_Z   2
loop_
 _symmetry_equiv_pos_site_id
 _symmetry_equiv_pos_as_xyz
  1  'x, y, z'
loop_
 _atom_site_type_symbol
 _atom_site_label
 _atom_site_symmetry_multiplicity
 _atom_site_fract_x
 _atom_site_fract_y
 _atom_site_fract_z
 _atom_site_occupancy
  Ni  Ni0  1  0.66666700  0.33333300  0.75000000  1
  Ni  Ni1  1  0.33333300  0.66666700  0.25000000  1
  Cu  Cu2  1  0.23982600  0.33594600  0.65249200  1
  Cu  Cu3  1  0.76017400  0.66405400  0.34750800  1
  Cu  Cu4  1  0.66405400  0.90388000  0.65249200  1
  Cu  Cu5  1  0.23982600  0.90388000  0.84750800  1
  Cu  Cu6  1  0.33594600  0.09612000  0.34750800  1
  Cu  Cu7  1  0.76017400  0.09612000  0.15249200  1
  Cu  Cu8  1  0.09612000  0.76017400  0.65249200  1
  Cu  Cu9  1  0.66405400  0.76017400  0.84750800  1
  Cu  Cu10  1  0.90388000  0.23982600  0.34750800  1
  Cu  Cu11  1  0.33594600  0.23982600  0.15249200  1
  Cu  Cu12  1  0.09612000  0.33594600  0.84750800  1
  Cu  Cu13  1  0.90388000  0.66405400  0.15249200  1
  C  C14  1  0.00000000  0.00000000  0.50000000  1
  C  C15  1  0.00000000  0.00000000  0.00000000  1
  C  C16  1  0.76713500  0.07427600  0.61328400  1
  C  C17  1  0.23286500  0.92572400  0.38671600  1
  C  C18  1  0.92572400  0.69286000  0.61328400  1
  C  C19  1  0.76713500  0.69286000  0.88671600  1
  C  C20  1  0.07427600  0.30714000  0.38671600  1
  C  C21  1  0.23286500  0.30714000  0.11328400  1
  C  C22  1  0.30714000  0.23286500  0.61328400  1
  C  C23  1  0.92572400  0.23286500  0.88671600  1
  C  C24  1  0.69286000  0.76713500  0.38671600  1
  C  C25  1  0.07427600  0.76713500  0.11328400  1
  C  C26  1  0.30714000  0.07427600  0.88671600  1
  C  C27  1  0.69286000  0.92572400  0.11328400  1
