# generated using pymatgen
data_Cu31Ni29C40
_symmetry_space_group_name_H-M   'P 1'
_cell_length_a   11.48096791
_cell_length_b   11.48096791
_cell_length_c   10.34981600
_cell_angle_alpha   90.00000000
_cell_angle_beta   90.00000000
_cell_angle_gamma   100.69352330
_symmetry_Int_Tables_number   1
_chemical_formula_structural   Cu31Ni29C40
_chemical_formula_sum   'Cu31 Ni29 C40'
_cell_volume   1340.54477485
_cell_formula_units_Z   1
loop_
 _symmetry_equiv_pos_site_id
 _symmetry_equiv_pos_as_xyz
  1  'x, y, z'
loop_
 _atom_site_type_symbol
 _atom_site_label
 _atom_site_symmetry_multiplicity
 _atom_site_fract_x
 _atom_site_fract_y
 _atom_site_fract_z
 _atom_site_occupancy
  C  C0  1  0.50346500  0.99653500  0.25000000  1
  C  C1  1  0.99653500  0.50346500  0.75000000  1
  C  C2  1  0.60467500  0.39532500  0.74443700  1
  C  C3  1  0.10467500  0.89532500  0.75556300  1
  C  C4  1  0.39532500  0.60467500  0.25556300  1
  C  C5  1  0.89532500  0.10467500  0.24443700  1
  C  C6  1  0.00346500  0.49653500  0.25000000  1
  C  C7  1  0.49653500  0.00346500  0.75000000  1
  C  C8  1  0.24133600  0.24133600  0.00000000  1
  C  C9  1  0.15932500  0.34067500  0.25000000  1
  C  C10  1  0.34067500  0.15932500  0.75000000  1
  C  C11  1  0.25866400  0.25866400  0.50000000  1
  C  C12  1  0.74133600  0.74133600  0.50000000  1
  C  C13  1  0.84067500  0.65932500  0.75000000  1
  C  C14  1  0.65932500  0.84067500  0.25000000  1
  C  C15  1  0.75866400  0.75866400  0.00000000  1
  C  C16  1  0.18323500  0.03378400  0.19421300  1
  C  C17  1  0.03378400  0.18323500  0.80578700  1
  C  C18  1  0.19931500  0.58155000  0.45918600  1
  C  C19  1  0.08155000  0.69931500  0.95918600  1
  C  C20  1  0.58155000  0.19931500  0.54081400  1
  C  C21  1  0.69931500  0.08155000  0.04081400  1
  C  C22  1  0.31676500  0.46621600  0.69421300  1
  C  C23  1  0.46621600  0.31676500  0.30578700  1
  C  C24  1  0.52523200  0.25944500  0.01265200  1
  C  C25  1  0.02523200  0.75944500  0.48734800  1
  C  C26  1  0.25944500  0.52523200  0.98734800  1
  C  C27  1  0.75944500  0.02523200  0.51265200  1
  C  C28  1  0.74055500  0.47476800  0.01265200  1
  C  C29  1  0.24055500  0.97476800  0.48734800  1
  C  C30  1  0.47476800  0.74055500  0.98734800  1
  C  C31  1  0.97476800  0.24055500  0.51265200  1
  C  C32  1  0.68323500  0.53378400  0.30578700  1
  C  C33  1  0.53378400  0.68323500  0.69421300  1
  C  C34  1  0.41845000  0.80068500  0.45918600  1
  C  C35  1  0.30068500  0.91845000  0.95918600  1
  C  C36  1  0.80068500  0.41845000  0.54081400  1
  C  C37  1  0.91845000  0.30068500  0.04081400  1
  C  C38  1  0.96621600  0.81676500  0.19421300  1
  C  C39  1  0.81676500  0.96621600  0.80578700  1
  Cu  Cu40  1  0.01846046  0.25458766  0.65361261  1
  Cu  Cu41  1  0.23860527  0.99387680  0.33814132  1
  Ni  Ni42  1  0.16215100  0.16675600  0.16995900  1
  Cu  Cu43  1  0.19493266  0.16978916  0.82939159  1
  Ni  Ni44  1  0.24995700  0.08970100  0.57708100  1
  Ni  Ni45  1  0.08970100  0.24995700  0.42291900  1
  Ni  Ni46  1  0.25004300  0.41029900  0.07708100  1
  Ni  Ni47  1  0.41029900  0.25004300  0.92291900  1
  Cu  Cu48  1  0.35005231  0.34224232  0.67020021  1
  Ni  Ni49  1  0.33324400  0.33784900  0.33004100  1
  Cu  Cu50  1  0.17045495  0.50260094  0.33351987  1
  Cu  Cu51  1  0.00937013  0.64397663  0.82649335  1
  Ni  Ni52  1  0.51365700  0.15688000  0.67194600  1
  Cu  Cu53  1  0.66644172  0.01900197  0.17429017  1
  Ni  Ni54  1  0.22625200  0.49742800  0.58067100  1
  Ni  Ni55  1  0.99742800  0.72625200  0.08067100  1
  Ni  Ni56  1  0.72625200  0.99742800  0.91932900  1
  Ni  Ni57  1  0.49742800  0.22625200  0.41932900  1
  Cu  Cu58  1  0.66626637  0.09075612  0.47668748  1
  Ni  Ni59  1  0.09777100  0.65179900  0.51511400  1
  Ni  Ni60  1  0.15179900  0.59777100  0.01511400  1
  Cu  Cu61  1  0.58296733  0.14443634  0.98485509  1
  Cu  Cu62  1  0.49379375  0.25694520  0.18131458  1
  Cu  Cu63  1  0.26466205  0.48686344  0.81469309  1
  Ni  Ni64  1  0.94593800  0.05406200  0.81461300  1
  Ni  Ni65  1  0.61597000  0.38403000  0.97148000  1
  Cu  Cu66  1  0.31081407  0.67828268  0.44056783  1
  Cu  Cu67  1  0.05070766  0.93499631  0.18728425  1
  Cu  Cu68  1  0.17033559  0.83074427  0.92312374  1
  Ni  Ni69  1  0.11597000  0.88403000  0.52852000  1
  Cu  Cu70  1  0.39271093  0.61827979  0.02565748  1
  Ni  Ni71  1  0.44593800  0.55406200  0.68538700  1
  Ni  Ni72  1  0.55406200  0.44593800  0.31461300  1
  Cu  Cu73  1  0.88565152  0.11299792  0.47025351  1
  Cu  Cu74  1  0.66689873  0.32598008  0.59349468  1
  Cu  Cu75  1  0.82545314  0.17433573  0.06696539  1
  Cu  Cu76  1  0.73561024  0.50182896  0.15631361  1
  Ni  Ni77  1  0.51043900  0.74445600  0.83327000  1
  Ni  Ni78  1  0.84820100  0.40222900  0.98488600  1
  Cu  Cu79  1  0.39772212  0.84160935  0.00709500  1
  Cu  Cu80  1  0.34615748  0.89358904  0.50901161  1
  Cu  Cu81  1  0.90185502  0.34850142  0.47545408  1
  Ni  Ni82  1  0.00257200  0.27374800  0.91932900  1
  Ni  Ni83  1  0.50257200  0.77374800  0.58067100  1
  Cu  Cu84  1  0.27077185  0.02690741  0.08743031  1
  Ni  Ni85  1  0.77374800  0.50257200  0.41932900  1
  Cu  Cu86  1  0.35051100  0.99656838  0.82738429  1
  Ni  Ni87  1  0.48634300  0.84312000  0.32805400  1
  Ni  Ni88  1  0.84312000  0.48634300  0.67194600  1
  Cu  Cu89  1  0.98786113  0.33978861  0.17242729  1
  Ni  Ni90  1  0.66215100  0.66675600  0.33004100  1
  Ni  Ni91  1  0.66675600  0.66215100  0.66995900  1
  Cu  Cu92  1  0.76551446  0.58615115  0.92266175  1
  Cu  Cu93  1  0.59868888  0.76238566  0.06518296  1
  Cu  Cu94  1  0.91522595  0.72549998  0.56355670  1
  Ni  Ni95  1  0.75004300  0.91029900  0.42291900  1
  Cu  Cu96  1  0.84605123  0.84091774  0.15615812  1
  Cu  Cu97  1  0.84546335  0.85709605  0.82742872  1
  Cu  Cu98  1  0.75809187  0.97057312  0.65619861  1
  Ni  Ni99  1  0.98956100  0.75554400  0.33327000  1
