# generated using pymatgen
data_Cu2Ni2C11
_symmetry_space_group_name_H-M   'P 1'
_cell_length_a   5.89264243
_cell_length_b   10.37644510
_cell_length_c   5.92048357
_cell_angle_alpha   106.57221962
_cell_angle_beta   59.84557763
_cell_angle_gamma   106.50032656
_symmetry_Int_Tables_number   1
_chemical_formula_structural   Cu2Ni2C11
_chemical_formula_sum   'Cu4 Ni4 C22'
_cell_volume   295.65709190
_cell_formula_units_Z   2
loop_
 _symmetry_equiv_pos_site_id
 _symmetry_equiv_pos_as_xyz
  1  'x, y, z'
loop_
 _atom_site_type_symbol
 _atom_site_label
 _atom_site_symmetry_multiplicity
 _atom_site_fract_x
 _atom_site_fract_y
 _atom_site_fract_z
 _atom_site_occupancy
  C  C0  1  0.00104500  0.99991600  0.49944000  1
  C  C1  1  0.49898700  0.50008500  0.00047800  1
  C  C2  1  0.49872700  0.00026000  0.50150200  1
  C  C3  1  0.00127200  0.49972300  0.99845400  1
  C  C4  1  0.49876600  0.00028500  0.99999500  1
  C  C5  1  0.00119900  0.49971200  0.49999600  1
  Cu  Cu6  1  0.75133515  0.23370960  0.75457318  1
  Cu  Cu7  1  0.23341133  0.73454670  0.25331684  1
  Ni  Ni8  1  0.74999600  0.75003300  0.25002700  1
  Ni  Ni9  1  0.75000200  0.74997700  0.75000300  1
  Ni  Ni10  1  0.75009500  0.25001100  0.24992500  1
  Cu  Cu11  1  0.25836617  0.24353823  0.74200509  1
  Cu  Cu12  1  0.23564729  0.25076238  0.24785618  1
  Ni  Ni13  1  0.25002300  0.75001800  0.74997700  1
  C  C14  1  0.12081400  0.36217500  0.12066700  1
  C  C15  1  0.62211800  0.86218600  0.61999100  1
  C  C16  1  0.37918200  0.13783000  0.37935900  1
  C  C17  1  0.87781800  0.63781100  0.88002900  1
  C  C18  1  0.62666000  0.35755500  0.10389900  1
  C  C19  1  0.12711700  0.85815400  0.60569900  1
  C  C20  1  0.62660100  0.35754300  0.62697000  1
  C  C21  1  0.12711100  0.85807900  0.12545300  1
  C  C22  1  0.10705400  0.35717900  0.62504100  1
  C  C23  1  0.60358500  0.85677400  0.12664700  1
  C  C24  1  0.39303100  0.14280000  0.87489900  1
  C  C25  1  0.89633400  0.64322300  0.37350500  1
  C  C26  1  0.87343400  0.14241900  0.87302700  1
  C  C27  1  0.37276000  0.64189600  0.37465100  1
  C  C28  1  0.87350100  0.14243100  0.39592300  1
  C  C29  1  0.37288300  0.64191200  0.89445400  1
