# generated using pymatgen
data_Cu127Ni17C90
_symmetry_space_group_name_H-M   'P 1'
_cell_length_a   18.15028825
_cell_length_b   9.06820122
_cell_length_c   22.81857154
_cell_angle_alpha   90.18542843
_cell_angle_beta   89.75356186
_cell_angle_gamma   119.94247988
_symmetry_Int_Tables_number   1
_chemical_formula_structural   Cu127Ni17C90
_chemical_formula_sum   'Cu127 Ni17 C90'
_cell_volume   3254.39924143
_cell_formula_units_Z   1
loop_
 _symmetry_equiv_pos_site_id
 _symmetry_equiv_pos_as_xyz
  1  'x, y, z'
loop_
 _atom_site_type_symbol
 _atom_site_label
 _atom_site_symmetry_multiplicity
 _atom_site_fract_x
 _atom_site_fract_y
 _atom_site_fract_z
 _atom_site_occupancy
  C  C0  1  0.31850052  0.00372568  0.24373543  1
  C  C1  1  0.19827799  0.37224121  0.24447034  1
  C  C2  1  0.69070694  0.36845260  0.24364081  1
  C  C3  1  0.99657915  0.64073092  0.24989139  1
  C  C4  1  0.31841396  0.61404852  0.75355637  1
  C  C5  1  0.81946421  0.62563775  0.74738504  1
  C  C6  1  0.99257819  0.36072920  0.74913761  1
  C  C7  1  0.49541553  0.37367322  0.74183322  1
  C  C8  1  0.18210072  0.01122972  0.74624521  1
  C  C9  1  0.68691767  0.01327488  0.74815854  1
  C  C10  1  0.64657408  0.34998141  0.57625385  1
  C  C11  1  0.32156687  0.68284961  0.07947884  1
  C  C12  1  0.82452311  0.68612461  0.08677518  1
  C  C13  1  0.16424676  0.31913385  0.92274932  1
  C  C14  1  0.99400026  0.30816033  0.42076857  1
  C  C15  1  0.16417546  0.02947098  0.41905221  1
  C  C16  1  0.66067619  0.02682427  0.41300079  1
  C  C17  1  0.84141542  0.66780896  0.41736340  1
  C  C18  1  0.00221157  0.00510367  0.49989167  1
  C  C19  1  0.49226586  0.01149983  0.49355591  1
  C  C20  1  0.00724610  0.02614023  0.99943783  1
  C  C21  1  0.50260050  0.02428738  0.99533324  1
  C  C22  1  0.34457747  0.35774828  0.83305899  1
  C  C23  1  0.83873500  0.33546158  0.82734135  1
  C  C24  1  0.33805178  0.36398774  0.32545846  1
  C  C25  1  0.83160430  0.33192476  0.32837251  1
  C  C26  1  0.16902207  0.66378725  0.15642055  1
  C  C27  1  0.66421669  0.66456268  0.15825926  1
  C  C28  1  0.16095082  0.65874278  0.65885164  1
  C  C29  1  0.65893218  0.66616959  0.65912500  1
  C  C30  1  -0.00000187  0.99212733  0.35340687  1
  C  C31  1  0.99946497  0.00645629  0.84883328  1
  C  C32  1  0.50278123  0.99853523  0.85627752  1
  C  C33  1  0.00157591  0.00219982  0.65050229  1
  C  C34  1  0.50242950  0.00649773  0.64613775  1
  C  C35  1  0.00493443  0.99729919  0.14722344  1
  C  C36  1  0.50026958  0.00298006  0.14622090  1
  C  C37  1  0.33410444  0.33880000  0.97900733  1
  C  C38  1  0.82938318  0.32635918  0.98139927  1
  C  C39  1  0.33750349  0.33764116  0.48435027  1
  C  C40  1  0.83258618  0.33532722  0.47819230  1
  C  C41  1  0.17158212  0.66442836  0.31604819  1
  C  C42  1  0.67303040  0.67073830  0.31620256  1
  C  C43  1  0.15889107  0.64634668  0.81833212  1
  C  C44  1  0.65984119  0.65715035  0.81251742  1
  C  C45  1  0.49769381  0.99897353  0.35014890  1
  C  C46  1  0.34278937  0.35733375  0.68149155  1
  C  C47  1  0.83633330  0.33587330  0.69160238  1
  C  C48  1  0.32555796  0.34878715  0.18570549  1
  C  C49  1  0.82724176  0.34404422  0.17847409  1
  C  C50  1  0.16836017  0.62456341  0.01276151  1
  C  C51  1  0.65518268  0.62347706  0.01884604  1
  C  C52  1  0.15804570  0.65096564  0.50984615  1
  C  C53  1  0.65967907  0.64386621  0.51267659  1
  C  C54  1  0.15017891  0.99815554  0.25157057  1
  C  C55  1  0.35906018  0.71226095  0.25256192  1
  C  C56  1  0.85160480  0.70244333  0.24780551  1
  C  C57  1  0.15038215  0.29552172  0.74898126  1
  C  C58  1  0.64632837  0.29023734  0.74953481  1
  C  C59  1  0.00389596  0.71186334  0.75044027  1
  C  C60  1  0.49850188  0.70975859  0.74953968  1
  C  C61  1  0.85226563  0.99717349  0.74883472  1
  C  C62  1  0.48374847  0.33924369  0.58682217  1
  C  C63  1  0.18344216  0.33358985  0.08419474  1
  C  C64  1  0.68431857  0.33731853  0.08562709  1
  C  C65  1  0.31603409  0.67354693  0.91918548  1
  C  C66  1  0.01319227  0.36193340  0.91857862  1
  C  C67  1  0.51799197  0.36972796  0.91686049  1
  C  C68  1  0.80980917  0.95344568  0.42138964  1
  C  C69  1  0.16953602  0.37178749  0.41788004  1
  C  C70  1  0.65793189  0.35685772  0.41767230  1
  C  C71  1  0.02389071  0.66905612  0.41763328  1
  C  C72  1  0.64640854  0.99625276  0.25047484  1
  C  C73  1  0.99827362  0.28982770  0.25006605  1
  C  C74  1  0.50099973  0.29524021  0.25043512  1
  C  C75  1  0.35428360  0.99591979  0.75100429  1
  C  C76  1  0.98011043  0.33277676  0.58419223  1
  C  C77  1  0.18633077  0.03611295  0.58390048  1
  C  C78  1  0.68767696  0.03881649  0.58430682  1
  C  C79  1  0.33044960  0.63013677  0.58419136  1
  C  C80  1  0.83648970  0.63017090  0.58490240  1
  C  C81  1  0.48019515  0.62522733  0.08561436  1
  C  C82  1  0.98048550  0.62443631  0.08409627  1
  C  C83  1  0.33354812  0.04366288  0.08639740  1
  C  C84  1  0.83309731  0.04322943  0.08477500  1
  C  C85  1  0.81489928  0.66848240  0.91860667  1
  C  C86  1  0.16600427  0.95632766  0.91827997  1
  C  C87  1  0.66866748  0.95658298  0.91914278  1
  C  C88  1  0.31407706  0.96163673  0.41957439  1
  C  C89  1  0.51987876  0.66384141  0.41755046  1
  Cu  Cu90  1  0.10269186  0.04967620  0.30015089  1
  Cu  Cu91  1  0.61872425  0.03288986  0.30719288  1
  Cu  Cu92  1  0.41648190  0.81209772  0.30805910  1
  Cu  Cu93  1  0.90641651  0.75519367  0.30147355  1
  Cu  Cu94  1  0.48640014  0.19715634  0.30641790  1
  Cu  Cu95  1  0.97913547  0.17966610  0.31376269  1
  Ni  Ni96  1  0.10533598  0.17906833  0.80754801  1
  Cu  Cu97  1  0.59096289  0.17938278  0.80365419  1
  Cu  Cu98  1  0.47691641  0.79576891  0.80174056  1
  Cu  Cu99  1  0.98746437  0.82252440  0.81323959  1
  Cu  Cu100  1  0.40090472  0.01318637  0.80400595  1
  Ni  Ni101  1  0.91591492  0.03429270  0.80447050  1
  Cu  Cu102  1  0.41068559  0.98247876  0.69308739  1
  Cu  Cu103  1  0.89700935  0.95174577  0.68630694  1
  Cu  Cu104  1  0.08525414  0.21947156  0.69792117  1
  Cu  Cu105  1  0.57413714  0.19420480  0.69190171  1
  Cu  Cu106  1  0.01753039  0.83674934  0.69082799  1
  Cu  Cu107  1  0.50828603  0.79767289  0.69250050  1
  Cu  Cu108  1  0.39839256  0.84128643  0.19180823  1
  Cu  Cu109  1  0.88330979  0.80079728  0.18706584  1
  Ni  Ni110  1  0.01087733  0.20251672  0.19896539  1
  Cu  Cu111  1  0.51549330  0.23485534  0.19243694  1
  Cu  Cu112  1  0.08773539  0.99403539  0.19571018  1
  Cu  Cu113  1  0.59204385  0.98736212  0.19429031  1
  Ni  Ni114  1  0.43902677  0.35025406  0.64715175  1
  Cu  Cu115  1  0.93126040  0.33117843  0.64115341  1
  Cu  Cu116  1  0.23763709  0.13639815  0.64487131  1
  Cu  Cu117  1  0.73290182  0.13243364  0.63884732  1
  Cu  Cu118  1  0.32502880  0.53777874  0.63795562  1
  Cu  Cu119  1  0.82473623  0.51413741  0.62181327  1
  Cu  Cu120  1  0.44050765  0.53591728  0.14315169  1
  Cu  Cu121  1  0.94756912  0.50732053  0.14168939  1
  Cu  Cu122  1  0.33294413  0.13776068  0.14538264  1
  Cu  Cu123  1  0.82165346  0.12811343  0.13418483  1
  Cu  Cu124  1  0.23385872  0.34435297  0.13777402  1
  Cu  Cu125  1  0.74163330  0.36727566  0.14045465  1
  Cu  Cu126  1  0.23635390  0.27131209  0.02389578  1
  Cu  Cu127  1  0.73788057  0.33950594  0.03579245  1
  Cu  Cu128  1  0.42147976  0.54513159  0.03949526  1
  Cu  Cu129  1  0.92487619  0.52627333  0.02854515  1
  Cu  Cu130  1  0.35837644  0.14443026  0.02823430  1
  Cu  Cu131  1  0.83153286  0.12569386  0.04348761  1
  Ni  Ni132  1  0.23078123  0.14506703  0.53042908  1
  Cu  Cu133  1  0.73515080  0.14202775  0.52800564  1
  Cu  Cu134  1  0.34256804  0.51773945  0.53405288  1
  Cu  Cu135  1  0.84226252  0.54199693  0.53691617  1
  Cu  Cu136  1  0.43240217  0.32242065  0.52508890  1
  Cu  Cu137  1  0.93676148  0.32033049  0.52473070  1
  Cu  Cu138  1  0.27511792  0.70158595  0.97281405  1
  Ni  Ni139  1  0.77794501  0.69591506  0.97186942  1
  Cu  Cu140  1  0.07997337  0.43870063  0.97032780  1
  Cu  Cu141  1  0.57319591  0.44129546  0.97448926  1
  Cu  Cu142  1  0.15570374  0.85797850  0.96905093  1
  Cu  Cu143  1  0.65981121  0.84667187  0.97109245  1
  Cu  Cu144  1  0.26000215  0.84294480  0.47607834  1
  Cu  Cu145  1  0.76150114  0.84034806  0.47493226  1
  Cu  Cu146  1  0.14584158  0.46534561  0.47448257  1
  Ni  Ni147  1  0.64821268  0.43409752  0.47833051  1
  Cu  Cu148  1  0.10226712  0.73370732  0.46180959  1
  Cu  Cu149  1  0.57954764  0.70929822  0.47400032  1
  Cu  Cu150  1  0.05557745  0.62539367  0.36533229  1
  Cu  Cu151  1  0.55044361  0.63178004  0.35571661  1
  Cu  Cu152  1  0.25738090  0.90171747  0.36099946  1
  Cu  Cu153  1  0.74221578  0.88109594  0.36042511  1
  Cu  Cu154  1  0.18326978  0.49169256  0.34939608  1
  Cu  Cu155  1  0.68494464  0.47131412  0.35465796  1
  Cu  Cu156  1  0.05361899  0.46403055  0.85417325  1
  Cu  Cu157  1  0.56283978  0.49879143  0.87624404  1
  Cu  Cu158  1  0.17731143  0.87854234  0.86779373  1
  Ni  Ni159  1  0.68030343  0.88132400  0.86349505  1
  Cu  Cu160  1  0.25707722  0.66934757  0.85862859  1
  Cu  Cu161  1  0.76398928  0.65527965  0.85947844  1
  Ni  Ni162  1  0.00589252  0.82928774  0.40998625  1
  Cu  Cu163  1  0.50153719  0.80887280  0.41723938  1
  Cu  Cu164  1  0.40961000  0.97498083  0.41200652  1
  Cu  Cu165  1  0.91652522  0.99700907  0.40615909  1
  Ni  Ni166  1  0.08257975  0.18235877  0.40906148  1
  Cu  Cu167  1  0.57243313  0.16996726  0.40764718  1
  Ni  Ni168  1  0.01006332  0.17632007  0.91210377  1
  Cu  Cu169  1  0.51444851  0.15852182  0.90057777  1
  Cu  Cu170  1  0.08463244  0.96678128  0.91510028  1
  Cu  Cu171  1  0.58184799  0.97155867  0.89967584  1
  Cu  Cu172  1  0.41109411  0.83616384  0.90775893  1
  Cu  Cu173  1  0.89431780  0.80659731  0.90262628  1
  Cu  Cu174  1  0.48597229  0.16063405  0.58237001  1
  Cu  Cu175  1  0.99216642  0.15856373  0.58490125  1
  Cu  Cu176  1  0.10333303  0.02810097  0.58430334  1
  Cu  Cu177  1  0.59948915  0.02831216  0.59110093  1
  Cu  Cu178  1  0.41538814  0.77828722  0.58224300  1
  Cu  Cu179  1  0.90549926  0.79691332  0.59064051  1
  Cu  Cu180  1  0.48309780  0.79563833  0.09493094  1
  Cu  Cu181  1  0.97140973  0.78693523  0.09049915  1
  Cu  Cu182  1  0.41960918  0.01989683  0.08814772  1
  Cu  Cu183  1  0.91471602  0.03938740  0.08992368  1
  Cu  Cu184  1  0.10240465  0.19471354  0.08329759  1
  Cu  Cu185  1  0.59978162  0.20319488  0.09561057  1
  Ni  Ni186  1  0.34318626  0.14523378  0.74585658  1
  Cu  Cu187  1  0.84492995  0.17521309  0.74603854  1
  Cu  Cu188  1  0.24226171  0.30483447  0.74208084  1
  Cu  Cu189  1  0.74093550  0.34120302  0.74370863  1
  Ni  Ni190  1  0.41706348  0.51798746  0.74846966  1
  Cu  Cu191  1  0.92787756  0.50351790  0.74164887  1
  Cu  Cu192  1  0.33477843  0.50829532  0.24982666  1
  Cu  Cu193  1  0.85738876  0.51078591  0.25938704  1
  Cu  Cu194  1  0.43414999  0.33675766  0.23897031  1
  Cu  Cu195  1  0.92398427  0.29939925  0.25028178  1
  Cu  Cu196  1  0.24765404  0.15640915  0.25052804  1
  Cu  Cu197  1  0.72712154  0.12999514  0.23082901  1
  Cu  Cu198  1  0.30413927  0.47460969  0.91935211  1
  Cu  Cu199  1  0.82523047  0.52872380  0.92484382  1
  Cu  Cu200  1  0.41255895  0.33118405  0.93147951  1
  Cu  Cu201  1  0.90913555  0.34212140  0.92701973  1
  Cu  Cu202  1  0.25006888  0.13456624  0.92685753  1
  Cu  Cu203  1  0.72853662  0.13077837  0.91676335  1
  Ni  Ni204  1  0.31705328  0.13184927  0.42380255  1
  Cu  Cu205  1  0.83293228  0.13196194  0.42088420  1
  Cu  Cu206  1  0.24636452  0.31214802  0.42732909  1
  Cu  Cu207  1  0.73854152  0.33704783  0.42899142  1
  Cu  Cu208  1  0.43633010  0.50242543  0.42569574  1
  Cu  Cu209  1  0.92568369  0.50101887  0.42597483  1
  Cu  Cu210  1  0.17679766  0.55006932  0.08357253  1
  Cu  Cu211  1  0.67836284  0.52128966  0.07855889  1
  Cu  Cu212  1  0.07697591  0.65937243  0.07579983  1
  Ni  Ni213  1  0.56807025  0.66245682  0.07796516  1
  Ni  Ni214  1  0.25906118  0.87329269  0.08090800  1
  Cu  Cu215  1  0.75803177  0.88131216  0.07686592  1
  Cu  Cu216  1  0.18660454  0.87960041  0.57755394  1
  Cu  Cu217  1  0.67817323  0.88423447  0.57909975  1
  Ni  Ni218  1  0.25692034  0.65455006  0.57574892  1
  Cu  Cu219  1  0.74963958  0.63669599  0.58167316  1
  Cu  Cu220  1  0.07009356  0.50172005  0.57776408  1
  Cu  Cu221  1  0.57816064  0.49242791  0.58722717  1
  Cu  Cu222  1  0.14075176  0.78212762  0.26222620  1
  Cu  Cu223  1  0.64463035  0.84672511  0.25238816  1
  Cu  Cu224  1  0.25536521  0.69376130  0.26233756  1
  Cu  Cu225  1  0.75451255  0.67141862  0.24767118  1
  Cu  Cu226  1  0.06988669  0.45416370  0.25707274  1
  Cu  Cu227  1  0.57543456  0.50090655  0.25708171  1
  Cu  Cu228  1  0.18778999  0.48715181  0.75519302  1
  Cu  Cu229  1  0.66585373  0.48204375  0.75548751  1
  Cu  Cu230  1  0.08413685  0.69533716  0.75294082  1
  Cu  Cu231  1  0.59948642  0.73041312  0.74878101  1
  Cu  Cu232  1  0.26996258  0.85242538  0.76090481  1
  Cu  Cu233  1  0.76078843  0.81218016  0.75142783  1
