# generated using pymatgen
data_CuNiC9
_symmetry_space_group_name_H-M   'P 1'
_cell_length_a   7.68672730
_cell_length_b   7.68672730
_cell_length_c   7.68672730
_cell_angle_alpha   60.00000000
_cell_angle_beta   60.00000000
_cell_angle_gamma   60.00000000
_symmetry_Int_Tables_number   1
_chemical_formula_structural   CuNiC9
_chemical_formula_sum   'Cu2 Ni2 C18'
_cell_volume   321.15110777
_cell_formula_units_Z   2
loop_
 _symmetry_equiv_pos_site_id
 _symmetry_equiv_pos_as_xyz
  1  'x, y, z'
loop_
 _atom_site_type_symbol
 _atom_site_label
 _atom_site_symmetry_multiplicity
 _atom_site_fract_x
 _atom_site_fract_y
 _atom_site_fract_z
 _atom_site_occupancy
  C  C0  1  0.12500000  0.62500000  0.62500000  1
  C  C1  1  0.62500000  0.12500000  0.62500000  1
  C  C2  1  0.62500000  0.62500000  0.12500000  1
  C  C3  1  0.62500000  0.62500000  0.62500000  1
  Ni  Ni4  1  0.62500000  0.12500000  0.12500000  1
  Ni  Ni5  1  0.12500000  0.12500000  0.62500000  1
  Cu  Cu6  1  0.14667616  0.11145431  0.12097037  1
  Cu  Cu7  1  0.14086612  0.58479015  0.09469260  1
  C  C8  1  0.00000000  0.00000000  0.00000000  1
  C  C9  1  0.25000000  0.25000000  0.25000000  1
  C  C10  1  0.94411100  0.55588900  0.55588900  1
  C  C11  1  0.69411100  0.69411100  0.30588900  1
  C  C12  1  0.55588900  0.55588900  0.94411100  1
  C  C13  1  0.30588900  0.69411100  0.30588900  1
  C  C14  1  0.69411100  0.30588900  0.69411100  1
  C  C15  1  0.94411100  0.94411100  0.55588900  1
  C  C16  1  0.30588900  0.30588900  0.69411100  1
  C  C17  1  0.55588900  0.94411100  0.94411100  1
  C  C18  1  0.30588900  0.69411100  0.69411100  1
  C  C19  1  0.94411100  0.55588900  0.94411100  1
  C  C20  1  0.69411100  0.30588900  0.30588900  1
  C  C21  1  0.55588900  0.94411100  0.55588900  1
