# generated using pymatgen
data_Cu3NiC8
_symmetry_space_group_name_H-M   'P 1'
_cell_length_a   4.67787200
_cell_length_b   5.62455400
_cell_length_c   11.70829335
_cell_angle_alpha   61.85066730
_cell_angle_beta   90.00000000
_cell_angle_gamma   90.00000000
_symmetry_Int_Tables_number   1
_chemical_formula_structural   Cu3NiC8
_chemical_formula_sum   'Cu6 Ni2 C16'
_cell_volume   271.61965880
_cell_formula_units_Z   2
loop_
 _symmetry_equiv_pos_site_id
 _symmetry_equiv_pos_as_xyz
  1  'x, y, z'
loop_
 _atom_site_type_symbol
 _atom_site_label
 _atom_site_symmetry_multiplicity
 _atom_site_fract_x
 _atom_site_fract_y
 _atom_site_fract_z
 _atom_site_occupancy
  C  C0  1  0.54851700  0.52365800  0.12429500  1
  C  C1  1  0.45148300  0.47634200  0.87570500  1
  C  C2  1  0.46267900  0.02400600  0.62628100  1
  C  C3  1  0.53732100  0.97599400  0.37371900  1
  C  C4  1  0.04851700  0.47634200  0.37570500  1
  C  C5  1  0.96267900  0.97599400  0.87371900  1
  C  C6  1  0.95148300  0.52365800  0.62429500  1
  C  C7  1  0.03732100  0.02400600  0.12628100  1
  C  C8  1  0.28557900  0.15852800  0.45599800  1
  C  C9  1  0.33868400  0.18052500  0.20699400  1
  C  C10  1  0.16131600  0.18052500  0.70699400  1
  C  C11  1  0.21442100  0.15852800  0.95599800  1
  C  C12  1  0.78557900  0.84147200  0.04400200  1
  C  C13  1  0.83868400  0.81947500  0.29300600  1
  C  C14  1  0.66131600  0.81947500  0.79300600  1
  C  C15  1  0.71442100  0.84147200  0.54400200  1
  Cu  Cu16  1  0.25118090  0.61105156  0.98099298  1
  Ni  Ni17  1  0.19066400  0.67292600  0.71153900  1
  Cu  Cu18  1  0.29936298  0.69841618  0.21413341  1
  Cu  Cu19  1  0.25105152  0.61881823  0.47747587  1
  Ni  Ni20  1  0.74518100  0.36227200  0.53213500  1
  Cu  Cu21  1  0.68441407  0.34183281  0.80979250  1
  Cu  Cu22  1  0.77593876  0.32678724  0.28133256  1
  Cu  Cu23  1  0.76761892  0.35020772  0.01578179  1
