# generated using pymatgen
data_Cu6Ni2C7
_symmetry_space_group_name_H-M   'P 1'
_cell_length_a   5.35169200
_cell_length_b   6.99141000
_cell_length_c   10.65159900
_cell_angle_alpha   90.00000000
_cell_angle_beta   90.00000000
_cell_angle_gamma   90.00000000
_symmetry_Int_Tables_number   1
_chemical_formula_structural   Cu6Ni2C7
_chemical_formula_sum   'Cu12 Ni4 C14'
_cell_volume   398.53887507
_cell_formula_units_Z   2
loop_
 _symmetry_equiv_pos_site_id
 _symmetry_equiv_pos_as_xyz
  1  'x, y, z'
loop_
 _atom_site_type_symbol
 _atom_site_label
 _atom_site_symmetry_multiplicity
 _atom_site_fract_x
 _atom_site_fract_y
 _atom_site_fract_z
 _atom_site_occupancy
  C  C0  1  0.00000000  0.50000000  0.50000000  1
  C  C1  1  0.00000000  0.00000000  0.00000000  1
  Cu  Cu2  1  0.41467366  0.94290068  0.74729859  1
  Cu  Cu3  1  0.43405733  0.45889027  0.75597400  1
  Cu  Cu4  1  0.60027206  0.05644046  0.25377277  1
  Cu  Cu5  1  0.57171617  0.50818111  0.25424721  1
  Cu  Cu6  1  0.56858434  0.99305641  0.64938032  1
  Cu  Cu7  1  0.59334017  0.51703270  0.85121082  1
  Cu  Cu8  1  0.39160753  0.01424862  0.36259661  1
  Cu  Cu9  1  0.41202301  0.50677206  0.15802359  1
  Ni  Ni10  1  0.70390600  0.16941100  0.60874400  1
  Ni  Ni11  1  0.70390600  0.33058900  0.89125600  1
  Cu  Cu12  1  0.30280145  0.17658739  0.38320785  1
  Cu  Cu13  1  0.74244670  0.64246069  0.90472204  1
  Ni  Ni14  1  0.29609400  0.83058900  0.39125600  1
  Cu  Cu15  1  0.33652709  0.64871360  0.11495190  1
  Cu  Cu16  1  0.68800482  0.83206486  0.61132474  1
  Ni  Ni17  1  0.29609400  0.33058900  0.10874400  1
  C  C18  1  0.80038400  0.30473600  0.56620700  1
  C  C19  1  0.80038400  0.19526400  0.93379300  1
  C  C20  1  0.19961600  0.30473600  0.43379300  1
  C  C21  1  0.80038400  0.80473600  0.93379300  1
  C  C22  1  0.19961600  0.69526400  0.43379300  1
  C  C23  1  0.19961600  0.80473600  0.06620700  1
  C  C24  1  0.80038400  0.69526400  0.56620700  1
  C  C25  1  0.19961600  0.19526400  0.06620700  1
  C  C26  1  0.22779800  0.00000000  0.80945600  1
  C  C27  1  0.22779800  0.50000000  0.69054400  1
  C  C28  1  0.77220200  0.00000000  0.19054400  1
  C  C29  1  0.77220200  0.50000000  0.30945600  1
