# generated using pymatgen
data_Cu9Ni5C6
_symmetry_space_group_name_H-M   'P 1'
_cell_length_a   6.52263000
_cell_length_b   10.19592014
_cell_length_c   10.19592014
_cell_angle_alpha   120.13608969
_cell_angle_beta   90.00000000
_cell_angle_gamma   90.00000000
_symmetry_Int_Tables_number   1
_chemical_formula_structural   Cu9Ni5C6
_chemical_formula_sum   'Cu9 Ni5 C6'
_cell_volume   586.42034598
_cell_formula_units_Z   1
loop_
 _symmetry_equiv_pos_site_id
 _symmetry_equiv_pos_as_xyz
  1  'x, y, z'
loop_
 _atom_site_type_symbol
 _atom_site_label
 _atom_site_symmetry_multiplicity
 _atom_site_fract_x
 _atom_site_fract_y
 _atom_site_fract_z
 _atom_site_occupancy
  Ni  Ni0  1  0.45652200  0.33327800  0.66672200  1
  Cu  Cu1  1  0.96623943  0.68145085  0.34800087  1
  Ni  Ni2  1  0.24786900  0.12703000  0.87297000  1
  Cu  Cu3  1  0.24252526  0.74024335  0.86989727  1
  Cu  Cu4  1  0.24801163  0.13126895  0.26397116  1
  Cu  Cu5  1  0.73872906  0.84605363  0.09561239  1
  Cu  Cu6  1  0.74143348  0.26604071  0.13738666  1
  Cu  Cu7  1  0.74550645  0.89603359  0.76085808  1
  Ni  Ni8  1  0.44178600  0.53773600  0.46226400  1
  Cu  Cu9  1  0.45484210  0.93103081  0.47622130  1
  Cu  Cu10  1  0.44922672  0.52137055  0.06345978  1
  Ni  Ni11  1  0.94178600  0.46226400  0.53773600  1
  Ni  Ni12  1  0.94207600  0.07513900  0.53770300  1
  Cu  Cu13  1  0.95773385  0.45191702  0.91519621  1
  C  C14  1  0.18847000  0.81095300  0.18904700  1
  C  C15  1  0.18871200  0.37807200  0.18884700  1
  C  C16  1  0.18871200  0.81115300  0.62192800  1
  C  C17  1  0.68847000  0.18904700  0.81095300  1
  C  C18  1  0.68871200  0.62192800  0.81115300  1
  C  C19  1  0.68871200  0.18884700  0.37807200  1
