# generated using pymatgen
data_Cu2NiC7
_symmetry_space_group_name_H-M   'P 1'
_cell_length_a   8.07892169
_cell_length_b   8.07892169
_cell_length_c   6.03183100
_cell_angle_alpha   90.00000000
_cell_angle_beta   90.00000000
_cell_angle_gamma   99.96308843
_symmetry_Int_Tables_number   1
_chemical_formula_structural   Cu2NiC7
_chemical_formula_sum   'Cu4 Ni2 C14'
_cell_volume   387.75433520
_cell_formula_units_Z   2
loop_
 _symmetry_equiv_pos_site_id
 _symmetry_equiv_pos_as_xyz
  1  'x, y, z'
loop_
 _atom_site_type_symbol
 _atom_site_label
 _atom_site_symmetry_multiplicity
 _atom_site_fract_x
 _atom_site_fract_y
 _atom_site_fract_z
 _atom_site_occupancy
  Ni  Ni0  1  0.89907900  0.10092100  0.25000000  1
  Cu  Cu1  1  0.36421865  0.19139613  0.26484378  1
  Cu  Cu2  1  0.83498269  0.66367541  0.23290562  1
  Cu  Cu3  1  0.09783968  0.89137139  0.74894127  1
  Cu  Cu4  1  0.18267065  0.33185913  0.77494057  1
  Ni  Ni5  1  0.64307900  0.82221200  0.75000000  1
  C  C6  1  0.34859600  0.65140400  0.25000000  1
  C  C7  1  0.65140400  0.34859600  0.75000000  1
  C  C8  1  0.30000600  0.46212100  0.25000000  1
  C  C9  1  0.14339600  0.14339600  0.00000000  1
  C  C10  1  0.28154600  0.71845400  0.04688200  1
  C  C11  1  0.28154600  0.71845400  0.45311800  1
  C  C12  1  0.46212100  0.30000600  0.75000000  1
  C  C13  1  0.85660400  0.85660400  0.50000000  1
  C  C14  1  0.71845400  0.28154600  0.54688200  1
  C  C15  1  0.53787900  0.69999400  0.25000000  1
  C  C16  1  0.69999400  0.53787900  0.75000000  1
  C  C17  1  0.71845400  0.28154600  0.95311800  1
  C  C18  1  0.85660400  0.85660400  0.00000000  1
  C  C19  1  0.14339600  0.14339600  0.50000000  1
