# generated using pymatgen
data_CuC9
_symmetry_space_group_name_H-M   'P 1'
_cell_length_a   8.72633700
_cell_length_b   8.68440100
_cell_length_c   14.91830423
_cell_angle_alpha   54.35733861
_cell_angle_beta   90.00000000
_cell_angle_gamma   90.00000000
_symmetry_Int_Tables_number   1
_chemical_formula_structural   CuC9
_chemical_formula_sum   'Cu8 C72'
_cell_volume   918.76403398
_cell_formula_units_Z   8
loop_
 _symmetry_equiv_pos_site_id
 _symmetry_equiv_pos_as_xyz
  1  'x, y, z'
loop_
 _atom_site_type_symbol
 _atom_site_label
 _atom_site_symmetry_multiplicity
 _atom_site_fract_x
 _atom_site_fract_y
 _atom_site_fract_z
 _atom_site_occupancy
  C  C0  1  0.90790000  0.38864600  0.69670900  1
  C  C1  1  0.28978100  0.32857200  0.75269000  1
  C  C2  1  0.22843800  0.03401800  0.17734900  1
  C  C3  1  0.72843800  0.96598200  0.32265100  1
  C  C4  1  0.78978100  0.67142800  0.74731000  1
  C  C5  1  0.40790000  0.61135400  0.80329100  1
  C  C6  1  0.59210000  0.38864600  0.19670900  1
  C  C7  1  0.21021900  0.32857200  0.25269000  1
  C  C8  1  0.27156200  0.03401800  0.67734900  1
  C  C9  1  0.77156200  0.96598200  0.82265100  1
  C  C10  1  0.71021900  0.67142800  0.24731000  1
  C  C11  1  0.09210000  0.61135400  0.30329100  1
  Cu  Cu12  1  0.52573111  0.13782311  0.12292170  1
  Cu  Cu13  1  0.95226111  0.36861255  0.88571482  1
  Cu  Cu14  1  0.44046242  0.62645159  0.62089623  1
  Cu  Cu15  1  0.01311096  0.86157618  0.37997518  1
  Cu  Cu16  1  0.94907224  0.11730912  0.62275654  1
  Cu  Cu17  1  0.54605368  0.35001455  0.40577721  1
  Cu  Cu18  1  0.02767327  0.63443869  0.11243258  1
  Cu  Cu19  1  0.47922749  0.85455359  0.89160101  1
  C  C20  1  0.75071900  0.54309100  0.49435000  1
  C  C21  1  0.60949400  0.25137200  0.85212500  1
  C  C22  1  0.90016000  0.95654200  0.14799200  1
  C  C23  1  0.40016000  0.04345800  0.35200800  1
  C  C24  1  0.10949400  0.74862800  0.64787500  1
  C  C25  1  0.25071900  0.45690900  0.00565000  1
  C  C26  1  0.74928100  0.54309100  0.99435000  1
  C  C27  1  0.89050600  0.25137200  0.35212500  1
  C  C28  1  0.59984000  0.95654200  0.64799200  1
  C  C29  1  0.09984000  0.04345800  0.85200800  1
  C  C30  1  0.39050600  0.74862800  0.14787500  1
  C  C31  1  0.24928100  0.45690900  0.50565000  1
  C  C32  1  0.14190000  0.62515000  0.42518700  1
  C  C33  1  0.32199400  0.47804900  0.59252500  1
  C  C34  1  0.09923800  0.23723700  0.83723200  1
  C  C35  1  0.40496700  0.91016100  0.16279700  1
  C  C36  1  0.63655500  0.55326000  0.56796400  1
  C  C37  1  0.77447000  0.33358800  0.81431300  1
  C  C38  1  0.84064900  0.73229300  0.42618400  1
  C  C39  1  0.58055800  0.18472600  0.96969300  1
  C  C40  1  0.93778200  0.12354300  0.03263200  1
  C  C41  1  0.73637000  0.96688500  0.18635700  1
  C  C42  1  0.02382800  0.93487900  0.23011200  1
  C  C43  1  0.48670000  0.40737100  0.77653300  1
  C  C44  1  0.98670000  0.59262900  0.72346700  1
  C  C45  1  0.52382800  0.06512100  0.26988800  1
  C  C46  1  0.23637000  0.03311500  0.31364300  1
  C  C47  1  0.43778200  0.87645700  0.46736800  1
  C  C48  1  0.08055800  0.81527400  0.53030700  1
  C  C49  1  0.34064900  0.26770700  0.07381600  1
  C  C50  1  0.27447000  0.66641200  0.68568700  1
  C  C51  1  0.13655500  0.44674000  0.93203600  1
  C  C52  1  0.90496700  0.08983900  0.33720300  1
  C  C53  1  0.59923800  0.76276300  0.66276800  1
  C  C54  1  0.82199400  0.52195100  0.90747500  1
  C  C55  1  0.64190000  0.37485000  0.07481300  1
  C  C56  1  0.35810000  0.62515000  0.92518700  1
  C  C57  1  0.17800600  0.47804900  0.09252500  1
  C  C58  1  0.40076200  0.23723700  0.33723200  1
  C  C59  1  0.09503300  0.91016100  0.66279700  1
  C  C60  1  0.86344500  0.55326000  0.06796400  1
  C  C61  1  0.72553000  0.33358800  0.31431300  1
  C  C62  1  0.65935100  0.73229300  0.92618400  1
  C  C63  1  0.91944200  0.18472600  0.46969300  1
  C  C64  1  0.56221800  0.12354300  0.53263200  1
  C  C65  1  0.76363000  0.96688500  0.68635700  1
  C  C66  1  0.47617200  0.93487900  0.73011200  1
  C  C67  1  0.01330000  0.40737100  0.27653300  1
  C  C68  1  0.51330000  0.59262900  0.22346700  1
  C  C69  1  0.97617200  0.06512100  0.76988800  1
  C  C70  1  0.26363000  0.03311500  0.81364300  1
  C  C71  1  0.06221800  0.87645700  0.96736800  1
  C  C72  1  0.41944200  0.81527400  0.03030700  1
  C  C73  1  0.15935100  0.26770700  0.57381600  1
  C  C74  1  0.22553000  0.66641200  0.18568700  1
  C  C75  1  0.36344500  0.44674000  0.43203600  1
  C  C76  1  0.59503300  0.08983900  0.83720300  1
  C  C77  1  0.90076200  0.76276300  0.16276800  1
  C  C78  1  0.67800600  0.52195100  0.40747500  1
  C  C79  1  0.85810000  0.37485000  0.57481300  1
