# generated using pymatgen
data_Cu(NiC9)2
_symmetry_space_group_name_H-M   'P 1'
_cell_length_a   7.16272800
_cell_length_b   9.72650949
_cell_length_c   9.73040868
_cell_angle_alpha   119.91255891
_cell_angle_beta   90.06445947
_cell_angle_gamma   90.01821399
_symmetry_Int_Tables_number   1
_chemical_formula_structural   Cu(NiC9)2
_chemical_formula_sum   'Cu2 Ni4 C36'
_cell_volume   587.59579368
_cell_formula_units_Z   2
loop_
 _symmetry_equiv_pos_site_id
 _symmetry_equiv_pos_as_xyz
  1  'x, y, z'
loop_
 _atom_site_type_symbol
 _atom_site_label
 _atom_site_symmetry_multiplicity
 _atom_site_fract_x
 _atom_site_fract_y
 _atom_site_fract_z
 _atom_site_occupancy
  C  C0  1  0.24260300  0.00716100  0.24292200  1
  C  C1  1  0.74244700  0.25527600  0.24360500  1
  C  C2  1  0.74377800  0.75632900  0.01043500  1
  C  C3  1  0.74356500  0.98730000  0.75056700  1
  C  C4  1  0.99564600  0.33351100  0.66814500  1
  C  C5  1  0.49375800  0.66745200  0.33231700  1
  Ni  Ni6  1  0.49271200  0.33234700  0.66664100  1
  Ni  Ni7  1  0.99345800  0.66778100  0.33290700  1
  Ni  Ni8  1  0.24320000  0.75330600  0.74568800  1
  Ni  Ni9  1  0.24273500  0.25017000  0.00158700  1
  C  C10  1  0.74583900  0.60170600  0.63055700  1
  C  C11  1  0.74612900  0.36894500  0.97139000  1
  C  C12  1  0.74441900  0.03264800  0.40368700  1
  C  C13  1  0.24422600  0.40144000  0.37035000  1
  C  C14  1  0.24555000  0.62635000  0.02874000  1
  C  C15  1  0.24464300  0.96706000  0.59912000  1
  C  C16  1  0.57423000  0.67438900  0.74133100  1
  C  C17  1  0.57408500  0.25828300  0.93343900  1
  C  C18  1  0.57262500  0.07471300  0.33538000  1
  C  C19  1  0.07244400  0.33922200  0.25840900  1
  C  C20  1  0.07172900  0.73543600  0.07949900  1
  C  C21  1  0.07245900  0.91534700  0.65928900  1
  C  C22  1  0.75555900  0.66027100  0.50864400  1
  C  C23  1  0.75609700  0.49057200  0.15183900  1
  C  C24  1  0.75527400  0.85083300  0.33912500  1
  C  C25  1  0.25442000  0.32976200  0.48109300  1
  C  C26  1  0.25633700  0.51981600  0.84586200  1
  C  C27  1  0.25458500  0.15022800  0.67411800  1
  C  C28  1  0.92579700  0.65064500  0.73489900  1
  C  C29  1  0.92564000  0.26513300  0.91620300  1
  C  C30  1  0.92129000  0.09192900  0.35674000  1
  C  C31  1  0.41782800  0.35398300  0.26014100  1
  C  C32  1  0.42090400  0.73475100  0.09385600  1
  C  C33  1  0.41999400  0.90210000  0.64237600  1
  C  C34  1  0.72845800  0.41731800  0.54373100  1
  C  C35  1  0.72857200  0.45671800  0.87436500  1
  C  C36  1  0.72880700  0.12482400  0.58788500  1
  C  C37  1  0.23278300  0.58600200  0.46775700  1
  C  C38  1  0.23402400  0.52639300  0.11345800  1
  C  C39  1  0.23064600  0.88132500  0.41483200  1
  Cu  Cu40  1  0.24878800  0.00040600  0.98208800  1
  Cu  Cu41  1  0.75591700  0.00081800  0.00498200  1
