# generated using pymatgen
data_CuC10
_symmetry_space_group_name_H-M   'P 1'
_cell_length_a   6.86611600
_cell_length_b   6.86611600
_cell_length_c   5.14219300
_cell_angle_alpha   90.00000000
_cell_angle_beta   90.00000000
_cell_angle_gamma   90.00000000
_symmetry_Int_Tables_number   1
_chemical_formula_structural   CuC10
_chemical_formula_sum   'Cu2 C20'
_cell_volume   242.42122728
_cell_formula_units_Z   2
loop_
 _symmetry_equiv_pos_site_id
 _symmetry_equiv_pos_as_xyz
  1  'x, y, z'
loop_
 _atom_site_type_symbol
 _atom_site_label
 _atom_site_symmetry_multiplicity
 _atom_site_fract_x
 _atom_site_fract_y
 _atom_site_fract_z
 _atom_site_occupancy
  C  C0  1  0.00000000  0.24379900  0.31458600  1
  C  C1  1  0.74379900  0.50000000  0.81458600  1
  C  C2  1  0.25620100  0.50000000  0.81458600  1
  C  C3  1  0.00000000  0.75620100  0.31458600  1
  C  C4  1  0.50000000  0.74379900  0.18541400  1
  C  C5  1  0.24379900  0.00000000  0.68541400  1
  C  C6  1  0.75620100  0.00000000  0.68541400  1
  C  C7  1  0.50000000  0.25620100  0.18541400  1
  Cu  Cu8  1  0.53443438  0.48787452  0.01546220  1
  Cu  Cu9  1  0.01168977  0.99981167  0.51053404  1
  C  C10  1  0.71090100  0.28909900  0.50000000  1
  C  C11  1  0.28909900  0.28909900  0.50000000  1
  C  C12  1  0.00000000  0.50000000  0.67481100  1
  C  C13  1  0.00000000  0.50000000  0.17481100  1
  C  C14  1  0.28909900  0.71090100  0.50000000  1
  C  C15  1  0.71090100  0.71090100  0.50000000  1
  C  C16  1  0.78909900  0.78909900  0.00000000  1
  C  C17  1  0.21090100  0.78909900  0.00000000  1
  C  C18  1  0.50000000  0.00000000  0.82518900  1
  C  C19  1  0.50000000  0.00000000  0.32518900  1
  C  C20  1  0.78909900  0.21090100  0.00000000  1
  C  C21  1  0.21090100  0.21090100  0.00000000  1
