# generated using pymatgen
data_Cu3C2
_symmetry_space_group_name_H-M   'P 1'
_cell_length_a   10.30477095
_cell_length_b   10.30477095
_cell_length_c   54.45385200
_cell_angle_alpha   90.00000000
_cell_angle_beta   90.00000000
_cell_angle_gamma   104.25048914
_symmetry_Int_Tables_number   1
_chemical_formula_structural   Cu3C2
_chemical_formula_sum   'Cu6 C4'
_cell_volume   5604.43203334
_cell_formula_units_Z   2
loop_
 _symmetry_equiv_pos_site_id
 _symmetry_equiv_pos_as_xyz
  1  'x, y, z'
loop_
 _atom_site_type_symbol
 _atom_site_label
 _atom_site_symmetry_multiplicity
 _atom_site_fract_x
 _atom_site_fract_y
 _atom_site_fract_z
 _atom_site_occupancy
  C  C0  1  0.00000000  0.00000000  0.50000000  1
  C  C1  1  0.50000000  0.00000000  0.00000000  1
  C  C2  1  0.00000000  0.50000000  0.00000000  1
  C  C3  1  0.00000000  0.00000000  0.00000000  1
  Cu  Cu4  1  0.99222646  0.99644125  0.25079070  1
  Cu  Cu5  1  0.01042199  0.00875727  0.75393654  1
  Cu  Cu6  1  0.28013756  0.02079708  0.00092305  1
  Cu  Cu7  1  0.76284562  0.98251859  0.99991116  1
  Cu  Cu8  1  0.01153319  0.26313047  0.00036067  1
  Cu  Cu9  1  0.97981509  0.75235322  0.00243517  1
