# generated using pymatgen
data_Cu17Ni3C50
_symmetry_space_group_name_H-M   'P 1'
_cell_length_a   13.32118083
_cell_length_b   9.24807248
_cell_length_c   13.32229861
_cell_angle_alpha   103.76401857
_cell_angle_beta   142.54816249
_cell_angle_gamma   93.41506619
_symmetry_Int_Tables_number   1
_chemical_formula_structural   Cu17Ni3C50
_chemical_formula_sum   'Cu17 Ni3 C50'
_cell_volume   879.43723307
_cell_formula_units_Z   1
loop_
 _symmetry_equiv_pos_site_id
 _symmetry_equiv_pos_as_xyz
  1  'x, y, z'
loop_
 _atom_site_type_symbol
 _atom_site_label
 _atom_site_symmetry_multiplicity
 _atom_site_fract_x
 _atom_site_fract_y
 _atom_site_fract_z
 _atom_site_occupancy
  Ni  Ni0  1  0.63565500  0.86129900  0.49319000  1
  Cu  Cu1  1  0.68429213  0.60479406  0.30522989  1
  Cu  Cu2  1  0.31314126  0.08965503  0.43461486  1
  Cu  Cu3  1  0.36581400  0.34474410  0.72173305  1
  Cu  Cu4  1  0.00582690  0.09636802  0.77351594  1
  Cu  Cu5  1  0.71887064  0.34747838  0.47536643  1
  Cu  Cu6  1  0.85971273  0.84518014  0.10192162  1
  Ni  Ni7  1  0.30516200  0.60266900  0.57624200  1
  Cu  Cu8  1  0.58938964  0.04744911  0.34414736  1
  Cu  Cu9  1  0.17228628  0.52144738  0.86747067  1
  Cu  Cu10  1  0.65381464  0.97695828  0.82214720  1
  Cu  Cu11  1  0.70814810  0.57045488  0.94417660  1
  Cu  Cu12  1  0.41393161  0.82127687  0.96335916  1
  Cu  Cu13  1  0.31024428  0.89424356  0.28724606  1
  Cu  Cu14  1  0.59942725  0.41124808  0.04305473  1
  Cu  Cu15  1  0.87700738  0.31967325  0.92726909  1
  Cu  Cu16  1  0.05339854  0.85472409  0.59778408  1
  Cu  Cu17  1  0.74977611  0.64517924  0.69344506  1
  Cu  Cu18  1  0.92997341  0.13069106  0.36938978  1
  Ni  Ni19  1  0.25054100  0.36513600  0.29967200  1
  C  C20  1  0.99108800  0.84425700  0.85096100  1
  C  C21  1  0.62655900  0.34152900  0.22635900  1
  C  C22  1  0.11534300  0.84047600  0.21280900  1
  C  C23  1  0.99271600  0.33965500  0.35292800  1
  C  C24  1  0.26388100  0.09737600  0.08521000  1
  C  C25  1  0.98163100  0.24282600  0.76502400  1
  C  C26  1  0.47329900  0.74001900  0.76172200  1
  C  C27  1  0.00695900  0.59246000  0.33058700  1
  C  C28  1  0.52364200  0.89046900  0.64695100  1
  C  C29  1  0.24663900  0.39881600  0.86629100  1
  C  C30  1  0.43451500  0.61977900  0.21006800  1
  C  C31  1  0.40900700  0.11666600  0.68588400  1
  C  C32  1  0.12084500  0.14416200  0.70192600  1
  C  C33  1  0.39665100  0.38309000  0.34893200  1
  C  C34  1  0.03803500  0.88224000  0.48761500  1
  C  C35  1  0.43663700  0.64448700  0.52336000  1
  C  C36  1  0.83883200  0.09447200  0.38523200  1
  C  C37  1  0.14886300  0.47843000  0.01141700  1
  C  C38  1  0.47219000  0.98188800  0.83724800  1
  C  C39  1  0.70965600  0.60102800  0.75686400  1
  C  C40  1  0.86860600  0.94086500  0.68600600  1
  C  C41  1  0.65320500  0.41854400  0.32072800  1
  C  C42  1  0.09661700  0.91496300  0.26313900  1
  C  C43  1  0.25170300  0.43715100  0.57203900  1
  C  C44  1  0.21576000  0.16318500  0.01700800  1
  C  C45  1  0.94894800  0.42105500  0.64717000  1
  C  C46  1  0.77061100  0.91487400  0.96843600  1
  C  C47  1  0.14149900  0.65851700  0.44627700  1
  C  C48  1  0.39106000  0.02567700  0.25406600  1
  C  C49  1  0.26188400  0.68738100  0.90616300  1
  C  C50  1  0.77815800  0.17804700  0.91798700  1
  C  C51  1  0.76993200  0.51974300  0.13137500  1
  C  C52  1  0.26753500  0.88028700  0.79898300  1
  C  C53  1  0.96938400  0.76166900  0.87230600  1
  C  C54  1  0.88717700  0.25525800  0.28842900  1
  C  C55  1  0.08115600  0.37736700  0.11415800  1
  C  C56  1  0.62223200  0.73661900  0.56517900  1
  C  C57  1  0.89135800  0.72547000  0.50570400  1
  C  C58  1  0.21997600  0.22387700  0.33613100  1
  C  C59  1  0.16723900  0.23077600  0.61177600  1
  C  C60  1  0.57431700  0.68467500  0.32575500  1
  C  C61  1  0.35585200  0.18012800  0.60928600  1
  C  C62  1  0.06810300  0.05322100  0.69541100  1
  C  C63  1  0.69528000  0.47352900  0.55516000  1
  C  C64  1  0.91635200  0.96767100  0.27515900  1
  C  C65  1  0.35523700  0.55127700  0.48621200  1
  C  C66  1  0.50414700  0.99263900  0.15390100  1
  C  C67  1  0.22412200  0.54690600  0.02816500  1
  C  C68  1  0.52087900  0.04640700  0.82558100  1
  C  C69  1  0.83159000  0.48322800  0.97946700  1
