# generated using pymatgen
data_Cu5NiC23
_symmetry_space_group_name_H-M   'P 1'
_cell_length_a   10.13884210
_cell_length_b   10.13884210
_cell_length_c   10.13884210
_cell_angle_alpha   60.00000000
_cell_angle_beta   60.00000000
_cell_angle_gamma   60.00000000
_symmetry_Int_Tables_number   1
_chemical_formula_structural   Cu5NiC23
_chemical_formula_sum   'Cu10 Ni2 C46'
_cell_volume   736.97045982
_cell_formula_units_Z   2
loop_
 _symmetry_equiv_pos_site_id
 _symmetry_equiv_pos_as_xyz
  1  'x, y, z'
loop_
 _atom_site_type_symbol
 _atom_site_label
 _atom_site_symmetry_multiplicity
 _atom_site_fract_x
 _atom_site_fract_y
 _atom_site_fract_z
 _atom_site_occupancy
  Cu  Cu0  1  0.51129001  0.97293703  0.96207939  1
  Cu  Cu1  1  0.54552422  0.53947339  0.95594159  1
  Cu  Cu2  1  0.54524537  0.95901739  0.51986031  1
  Cu  Cu3  1  0.96083388  0.55205689  0.96093852  1
  Ni  Ni4  1  0.28809300  0.28809300  0.71190700  1
  Cu  Cu5  1  0.26260610  0.73953066  0.71389500  1
  Cu  Cu6  1  0.93817276  0.96057812  0.54578988  1
  Ni  Ni7  1  0.96190700  0.53809300  0.53809300  1
  Cu  Cu8  1  0.72102095  0.30149392  0.70662515  1
  Cu  Cu9  1  0.29992135  0.71099184  0.26746060  1
  Cu  Cu10  1  0.72784220  0.27330088  0.29056662  1
  Cu  Cu11  1  0.71701656  0.71495679  0.27219162  1
  C  C12  1  0.34325200  0.34325200  0.97024500  1
  C  C13  1  0.34325200  0.34325200  0.34325200  1
  C  C14  1  0.34325200  0.97024500  0.34325200  1
  C  C15  1  0.97024500  0.34325200  0.34325200  1
  C  C16  1  0.27975500  0.90674800  0.90674800  1
  C  C17  1  0.90674800  0.27975500  0.90674800  1
  C  C18  1  0.90674800  0.90674800  0.90674800  1
  C  C19  1  0.90674800  0.90674800  0.27975500  1
  C  C20  1  0.62500000  0.12500000  0.12500000  1
  C  C21  1  0.12500000  0.12500000  0.12500000  1
  C  C22  1  0.12500000  0.62500000  0.12500000  1
  C  C23  1  0.12500000  0.12500000  0.62500000  1
  C  C24  1  0.50000000  0.50000000  0.50000000  1
  C  C25  1  0.75000000  0.75000000  0.75000000  1
  C  C26  1  0.56028400  0.56028400  0.31914800  1
  C  C27  1  0.56028400  0.31914800  0.56028400  1
  C  C28  1  0.56028400  0.56028400  0.56028400  1
  C  C29  1  0.31914800  0.56028400  0.56028400  1
  C  C30  1  0.49135900  0.21980400  0.96688400  1
  C  C31  1  0.32195200  0.49135900  0.96688400  1
  C  C32  1  0.49135900  0.32195200  0.21980400  1
  C  C33  1  0.21980400  0.32195200  0.96688400  1
  C  C34  1  0.49135900  0.96688400  0.32195200  1
  C  C35  1  0.32195200  0.96688400  0.21980400  1
  C  C36  1  0.21980400  0.49135900  0.32195200  1
  C  C37  1  0.32195200  0.21980400  0.49135900  1
  C  C38  1  0.96688400  0.49135900  0.21980400  1
  C  C39  1  0.21980400  0.96688400  0.49135900  1
  C  C40  1  0.96688400  0.21980400  0.32195200  1
  C  C41  1  0.28311600  0.92804800  0.75864100  1
  C  C42  1  0.96688400  0.32195200  0.49135900  1
  C  C43  1  0.28311600  0.03019600  0.92804800  1
  C  C44  1  0.03019600  0.28311600  0.75864100  1
  C  C45  1  0.28311600  0.75864100  0.03019600  1
  C  C46  1  0.92804800  0.03019600  0.75864100  1
  C  C47  1  0.03019600  0.75864100  0.92804800  1
  C  C48  1  0.92804800  0.28311600  0.03019600  1
  C  C49  1  0.75864100  0.28311600  0.92804800  1
  C  C50  1  0.03019600  0.92804800  0.28311600  1
  C  C51  1  0.75864100  0.92804800  0.03019600  1
  C  C52  1  0.92804800  0.75864100  0.28311600  1
  C  C53  1  0.75864100  0.03019600  0.28311600  1
  C  C54  1  0.93085200  0.68971600  0.68971600  1
  C  C55  1  0.68971600  0.93085200  0.68971600  1
  C  C56  1  0.68971600  0.68971600  0.68971600  1
  C  C57  1  0.68971600  0.68971600  0.93085200  1
