# generated using pymatgen
data_Cu8Ni7C
_symmetry_space_group_name_H-M   'P 1'
_cell_length_a   8.53216100
_cell_length_b   8.53216100
_cell_length_c   4.26443100
_cell_angle_alpha   90.00000000
_cell_angle_beta   90.00000000
_cell_angle_gamma   90.00000000
_symmetry_Int_Tables_number   1
_chemical_formula_structural   Cu8Ni7C
_chemical_formula_sum   'Cu16 Ni14 C2'
_cell_volume   310.44107279
_cell_formula_units_Z   2
loop_
 _symmetry_equiv_pos_site_id
 _symmetry_equiv_pos_as_xyz
  1  'x, y, z'
loop_
 _atom_site_type_symbol
 _atom_site_label
 _atom_site_symmetry_multiplicity
 _atom_site_fract_x
 _atom_site_fract_y
 _atom_site_fract_z
 _atom_site_occupancy
  Ni  Ni0  1  0.50000000  0.00000000  0.00000000  1
  Ni  Ni1  1  0.00000000  0.50000000  0.00000000  1
  Ni  Ni2  1  0.24995500  0.00000000  0.50000000  1
  Ni  Ni3  1  0.75004500  0.00000000  0.50000000  1
  Ni  Ni4  1  0.25095100  0.50000000  0.50000000  1
  Ni  Ni5  1  0.74904900  0.50000000  0.50000000  1
  Ni  Ni6  1  0.00000000  0.24995500  0.50000000  1
  Ni  Ni7  1  0.50000000  0.25095100  0.50000000  1
  Ni  Ni8  1  0.00000000  0.75004500  0.50000000  1
  Ni  Ni9  1  0.50000000  0.74904900  0.50000000  1
  Ni  Ni10  1  0.25048100  0.25048100  0.00000000  1
  Ni  Ni11  1  0.74951900  0.25048100  0.00000000  1
  Ni  Ni12  1  0.25048100  0.74951900  0.00000000  1
  Ni  Ni13  1  0.74951900  0.74951900  0.00000000  1
  C  C14  1  0.00000000  0.00000000  0.00000000  1
  C  C15  1  0.50000000  0.50000000  0.00000000  1
  Cu  Cu16  1  0.00000000  0.25362200  0.00000000  1
  Cu  Cu17  1  0.50000000  0.24701900  0.00000000  1
  Cu  Cu18  1  0.00000000  0.74637800  0.00000000  1
  Cu  Cu19  1  0.50000000  0.75298100  0.00000000  1
  Cu  Cu20  1  0.24991900  0.24991900  0.50000000  1
  Cu  Cu21  1  0.75008100  0.24991900  0.50000000  1
  Cu  Cu22  1  0.24991900  0.75008100  0.50000000  1
  Cu  Cu23  1  0.75008100  0.75008100  0.50000000  1
  Cu  Cu24  1  0.00000000  0.00000000  0.50000000  1
  Cu  Cu25  1  0.50000000  0.00000000  0.50000000  1
  Cu  Cu26  1  0.00000000  0.50000000  0.50000000  1
  Cu  Cu27  1  0.50000000  0.50000000  0.50000000  1
  Cu  Cu28  1  0.25362200  0.00000000  0.00000000  1
  Cu  Cu29  1  0.74637800  0.00000000  0.00000000  1
  Cu  Cu30  1  0.24701900  0.50000000  0.00000000  1
  Cu  Cu31  1  0.75298100  0.50000000  0.00000000  1
