# generated using pymatgen
data_CuNiC4
_symmetry_space_group_name_H-M   'P 1'
_cell_length_a   3.77747100
_cell_length_b   6.45342000
_cell_length_c   7.36793900
_cell_angle_alpha   90.00000000
_cell_angle_beta   90.00000000
_cell_angle_gamma   90.00000000
_symmetry_Int_Tables_number   1
_chemical_formula_structural   CuNiC4
_chemical_formula_sum   'Cu2 Ni2 C8'
_cell_volume   179.61272061
_cell_formula_units_Z   2
loop_
 _symmetry_equiv_pos_site_id
 _symmetry_equiv_pos_as_xyz
  1  'x, y, z'
loop_
 _atom_site_type_symbol
 _atom_site_label
 _atom_site_symmetry_multiplicity
 _atom_site_fract_x
 _atom_site_fract_y
 _atom_site_fract_z
 _atom_site_occupancy
  Ni  Ni0  1  0.75000000  0.47450500  0.32657400  1
  Ni  Ni1  1  0.25000000  0.02549500  0.82657400  1
  Cu  Cu2  1  0.74633344  0.97242625  0.18415941  1
  Cu  Cu3  1  0.20945700  0.50194783  0.66785961  1
  C  C4  1  0.25000000  0.26873500  0.12458900  1
  C  C5  1  0.25000000  0.76873500  0.37541100  1
  C  C6  1  0.75000000  0.73126500  0.87541100  1
  C  C7  1  0.75000000  0.23126500  0.62458900  1
  C  C8  1  0.25000000  0.64525800  0.06254700  1
  C  C9  1  0.25000000  0.14525800  0.43745300  1
  C  C10  1  0.75000000  0.85474200  0.56254700  1
  C  C11  1  0.75000000  0.35474200  0.93745300  1
