# generated using pymatgen
data_CuC4
_symmetry_space_group_name_H-M   'P 1'
_cell_length_a   7.44285324
_cell_length_b   7.44285324
_cell_length_c   7.44285324
_cell_angle_alpha   60.00000000
_cell_angle_beta   60.00000000
_cell_angle_gamma   60.00000000
_symmetry_Int_Tables_number   1
_chemical_formula_structural   CuC4
_chemical_formula_sum   'Cu2 C8'
_cell_volume   291.54350420
_cell_formula_units_Z   2
loop_
 _symmetry_equiv_pos_site_id
 _symmetry_equiv_pos_as_xyz
  1  'x, y, z'
loop_
 _atom_site_type_symbol
 _atom_site_label
 _atom_site_symmetry_multiplicity
 _atom_site_fract_x
 _atom_site_fract_y
 _atom_site_fract_z
 _atom_site_occupancy
  Cu  Cu0  1  0.72871278  0.75379225  0.73411232  1
  Cu  Cu1  1  0.23313794  0.24405851  0.26702720  1
  C  C2  1  0.00000000  0.00000000  0.00000000  1
  C  C3  1  0.50000000  0.50000000  0.50000000  1
  C  C4  1  0.74370100  0.25629900  0.25629900  1
  C  C5  1  0.25629900  0.25629900  0.74370100  1
  C  C6  1  0.25629900  0.74370100  0.74370100  1
  C  C7  1  0.25629900  0.74370100  0.25629900  1
  C  C8  1  0.74370100  0.25629900  0.74370100  1
  C  C9  1  0.74370100  0.74370100  0.25629900  1
