# generated using pymatgen
data_CuC9
_symmetry_space_group_name_H-M   'P 1'
_cell_length_a   6.42428595
_cell_length_b   6.42428595
_cell_length_c   6.40814344
_cell_angle_alpha   82.26155075
_cell_angle_beta   82.26155075
_cell_angle_gamma   81.95061764
_symmetry_Int_Tables_number   1
_chemical_formula_structural   CuC9
_chemical_formula_sum   'Cu2 C18'
_cell_volume   257.66932434
_cell_formula_units_Z   2
loop_
 _symmetry_equiv_pos_site_id
 _symmetry_equiv_pos_as_xyz
  1  'x, y, z'
loop_
 _atom_site_type_symbol
 _atom_site_label
 _atom_site_symmetry_multiplicity
 _atom_site_fract_x
 _atom_site_fract_y
 _atom_site_fract_z
 _atom_site_occupancy
  Cu  Cu0  1  0.35119096  0.32514061  0.34921145  1
  Cu  Cu1  1  0.63566241  0.66846868  0.63257069  1
  C  C2  1  0.65474800  0.65474800  0.14927100  1
  C  C3  1  0.66243700  0.15260900  0.65901900  1
  C  C4  1  0.15260900  0.66243700  0.65901900  1
  C  C5  1  0.34525200  0.34525200  0.85073000  1
  C  C6  1  0.33756300  0.84739100  0.34098100  1
  C  C7  1  0.84739100  0.33756300  0.34098100  1
  C  C8  1  0.00000000  0.00000000  0.50000000  1
  C  C9  1  0.00000000  0.50000000  0.00000000  1
  C  C10  1  0.50000000  0.00000000  0.00000000  1
  C  C11  1  0.71959500  0.28040500  0.00000000  1
  C  C12  1  0.30188900  0.00268900  0.69804500  1
  C  C13  1  0.99731100  0.69811100  0.30195500  1
  C  C14  1  0.69811100  0.99731100  0.30195500  1
  C  C15  1  0.00268900  0.30188900  0.69804500  1
  C  C16  1  0.28040500  0.71959500  0.00000000  1
  C  C17  1  0.10244200  0.10244200  0.10025700  1
  C  C18  1  0.89755800  0.89755800  0.89974300  1
  C  C19  1  0.50000000  0.50000000  0.00000000  1
