# generated using pymatgen
data_CuC5
_symmetry_space_group_name_H-M   'P 1'
_cell_length_a   5.46943505
_cell_length_b   5.46943505
_cell_length_c   7.41083551
_cell_angle_alpha   89.74357117
_cell_angle_beta   89.74357117
_cell_angle_gamma   90.02777771
_symmetry_Int_Tables_number   1
_chemical_formula_structural   CuC5
_chemical_formula_sum   'Cu2 C10'
_cell_volume   221.68859889
_cell_formula_units_Z   2
loop_
 _symmetry_equiv_pos_site_id
 _symmetry_equiv_pos_as_xyz
  1  'x, y, z'
loop_
 _atom_site_type_symbol
 _atom_site_label
 _atom_site_symmetry_multiplicity
 _atom_site_fract_x
 _atom_site_fract_y
 _atom_site_fract_z
 _atom_site_occupancy
  C  C0  1  0.75253900  0.24746100  0.25000000  1
  C  C1  1  0.24746100  0.75253900  0.75000000  1
  Cu  Cu2  1  0.74425303  0.22435810  0.77235727  1
  Cu  Cu3  1  0.24094347  0.76090775  0.24492661  1
  C  C4  1  0.52974500  0.24930500  0.86555600  1
  C  C5  1  0.96800800  0.24919100  0.86318700  1
  C  C6  1  0.75080900  0.03199200  0.63681300  1
  C  C7  1  0.75069500  0.47025500  0.63444400  1
  C  C8  1  0.24930500  0.52974500  0.36555600  1
  C  C9  1  0.03199200  0.75080900  0.13681300  1
  C  C10  1  0.47025500  0.75069500  0.13444400  1
  C  C11  1  0.24919100  0.96800800  0.36318700  1
