# generated using pymatgen
data_Cu3NiC2
_symmetry_space_group_name_H-M   'P 1'
_cell_length_a   4.77116380
_cell_length_b   4.77116380
_cell_length_c   7.87832400
_cell_angle_alpha   90.00000000
_cell_angle_beta   90.00000000
_cell_angle_gamma   119.99999724
_symmetry_Int_Tables_number   1
_chemical_formula_structural   Cu3NiC2
_chemical_formula_sum   'Cu6 Ni2 C4'
_cell_volume   155.31490478
_cell_formula_units_Z   2
loop_
 _symmetry_equiv_pos_site_id
 _symmetry_equiv_pos_as_xyz
  1  'x, y, z'
loop_
 _atom_site_type_symbol
 _atom_site_label
 _atom_site_symmetry_multiplicity
 _atom_site_fract_x
 _atom_site_fract_y
 _atom_site_fract_z
 _atom_site_occupancy
  Cu  Cu0  1  0.28750719  0.63411595  0.50726732  1
  Cu  Cu1  1  0.35569524  0.67186812  0.99747485  1
  Cu  Cu2  1  0.38583589  0.91597885  0.77829187  1
  Ni  Ni3  1  0.50474200  0.49525800  0.74815800  1
  Cu  Cu4  1  0.95497434  0.47136444  0.74409544  1
  Cu  Cu5  1  0.16656765  0.34200918  0.24153891  1
  Cu  Cu6  1  0.14686098  0.85318306  0.27062629  1
  Ni  Ni7  1  0.68038700  0.84019400  0.25115600  1
  C  C8  1  0.66666700  0.33333300  0.44312700  1
  C  C9  1  0.66666700  0.33333300  0.06525400  1
  C  C10  1  0.00000000  0.00000000  0.92274100  1
  C  C11  1  0.00000000  0.00000000  0.56190700  1
