# generated using pymatgen
data_CuC2
_symmetry_space_group_name_H-M   'P 1'
_cell_length_a   3.06260600
_cell_length_b   7.74625100
_cell_length_c   11.84908158
_cell_angle_alpha   83.71241884
_cell_angle_beta   90.00000000
_cell_angle_gamma   90.00000000
_symmetry_Int_Tables_number   1
_chemical_formula_structural   CuC2
_chemical_formula_sum   'Cu8 C16'
_cell_volume   279.41331040
_cell_formula_units_Z   8
loop_
 _symmetry_equiv_pos_site_id
 _symmetry_equiv_pos_as_xyz
  1  'x, y, z'
loop_
 _atom_site_type_symbol
 _atom_site_label
 _atom_site_symmetry_multiplicity
 _atom_site_fract_x
 _atom_site_fract_y
 _atom_site_fract_z
 _atom_site_occupancy
  C  C0  1  0.75000000  0.85642400  0.86242300  1
  C  C1  1  0.25000000  0.83192900  0.51546400  1
  C  C2  1  0.75000000  0.78551500  0.28438000  1
  C  C3  1  0.75000000  0.38634600  0.92221700  1
  C  C4  1  0.25000000  0.61365400  0.07778300  1
  C  C5  1  0.25000000  0.21448500  0.71562000  1
  C  C6  1  0.75000000  0.16807100  0.48453600  1
  C  C7  1  0.25000000  0.14357600  0.13757700  1
  Cu  Cu8  1  0.76930416  0.97097883  0.41283227  1
  Cu  Cu9  1  0.75656414  0.62279451  0.93634680  1
  Cu  Cu10  1  0.26403086  0.88712652  0.21205040  1
  Cu  Cu11  1  0.28950304  0.40964529  0.81270269  1
  Cu  Cu12  1  0.69706365  0.65399655  0.19661392  1
  Cu  Cu13  1  0.74669419  0.11609996  0.81070897  1
  Cu  Cu14  1  0.23817200  0.35097457  0.03824028  1
  Cu  Cu15  1  0.27276631  0.03954821  0.57420320  1
  C  C16  1  0.25000000  0.89596000  0.96311900  1
  C  C17  1  0.25000000  0.80374500  0.76929400  1
  C  C18  1  0.75000000  0.71766900  0.59856400  1
  C  C19  1  0.25000000  0.66572900  0.39071700  1
  C  C20  1  0.75000000  0.33427100  0.60928300  1
  C  C21  1  0.25000000  0.28233100  0.40143600  1
  C  C22  1  0.75000000  0.19625500  0.23070600  1
  C  C23  1  0.75000000  0.10404000  0.03688100  1
