# generated using pymatgen
data_Cu3NiC6
_symmetry_space_group_name_H-M   'P 1'
_cell_length_a   7.31747700
_cell_length_b   7.39279100
_cell_length_c   8.96201500
_cell_angle_alpha   90.00000000
_cell_angle_beta   90.00000000
_cell_angle_gamma   90.00000000
_symmetry_Int_Tables_number   1
_chemical_formula_structural   Cu3NiC6
_chemical_formula_sum   'Cu6 Ni2 C12'
_cell_volume   484.81434446
_cell_formula_units_Z   2
loop_
 _symmetry_equiv_pos_site_id
 _symmetry_equiv_pos_as_xyz
  1  'x, y, z'
loop_
 _atom_site_type_symbol
 _atom_site_label
 _atom_site_symmetry_multiplicity
 _atom_site_fract_x
 _atom_site_fract_y
 _atom_site_fract_z
 _atom_site_occupancy
  C  C0  1  0.00000000  0.67026600  0.50000000  1
  C  C1  1  0.50000000  0.32973400  0.00000000  1
  C  C2  1  0.00000000  0.17692100  0.00000000  1
  C  C3  1  0.50000000  0.82307900  0.50000000  1
  Ni  Ni4  1  0.27225100  0.52610100  0.16934100  1
  Cu  Cu5  1  0.73617585  0.53703704  0.84388942  1
  Cu  Cu6  1  0.22583884  0.45063618  0.67308033  1
  Cu  Cu7  1  0.75099502  0.47163515  0.32802787  1
  Cu  Cu8  1  0.11888003  0.08912859  0.32486114  1
  Ni  Ni9  1  0.86579700  0.09190500  0.67975400  1
  Cu  Cu10  1  0.38215604  0.91477629  0.81537427  1
  Cu  Cu11  1  0.63080089  0.89014449  0.19326694  1
  C  C12  1  0.51968300  0.09456100  0.17652200  1
  C  C13  1  0.48031700  0.09456100  0.82347800  1
  C  C14  1  0.98031700  0.90543900  0.67652200  1
  C  C15  1  0.01968300  0.90543900  0.32347800  1
  C  C16  1  0.36191200  0.75305700  0.45124800  1
  C  C17  1  0.63808800  0.75305700  0.54875200  1
  C  C18  1  0.13808800  0.24694300  0.95124800  1
  C  C19  1  0.86191200  0.24694300  0.04875200  1
