# generated using pymatgen
data_Cu15(NiC4)2
_symmetry_space_group_name_H-M   'P 1'
_cell_length_a   11.48096791
_cell_length_b   11.48096791
_cell_length_c   10.34981600
_cell_angle_alpha   90.00000000
_cell_angle_beta   90.00000000
_cell_angle_gamma   100.69352330
_symmetry_Int_Tables_number   1
_chemical_formula_structural   Cu15(NiC4)2
_chemical_formula_sum   'Cu60 Ni8 C32'
_cell_volume   1340.54477485
_cell_formula_units_Z   4
loop_
 _symmetry_equiv_pos_site_id
 _symmetry_equiv_pos_as_xyz
  1  'x, y, z'
loop_
 _atom_site_type_symbol
 _atom_site_label
 _atom_site_symmetry_multiplicity
 _atom_site_fract_x
 _atom_site_fract_y
 _atom_site_fract_z
 _atom_site_occupancy
  Ni  Ni0  1  0.50346500  0.99653500  0.25000000  1
  Ni  Ni1  1  0.99653500  0.50346500  0.75000000  1
  Ni  Ni2  1  0.60467500  0.39532500  0.74443700  1
  Ni  Ni3  1  0.10467500  0.89532500  0.75556300  1
  Ni  Ni4  1  0.39532500  0.60467500  0.25556300  1
  Ni  Ni5  1  0.89532500  0.10467500  0.24443700  1
  Ni  Ni6  1  0.00346500  0.49653500  0.25000000  1
  Ni  Ni7  1  0.49653500  0.00346500  0.75000000  1
  C  C8  1  0.24133600  0.24133600  0.00000000  1
  C  C9  1  0.15932500  0.34067500  0.25000000  1
  C  C10  1  0.34067500  0.15932500  0.75000000  1
  C  C11  1  0.25866400  0.25866400  0.50000000  1
  C  C12  1  0.74133600  0.74133600  0.50000000  1
  C  C13  1  0.84067500  0.65932500  0.75000000  1
  C  C14  1  0.65932500  0.84067500  0.25000000  1
  C  C15  1  0.75866400  0.75866400  0.00000000  1
  C  C16  1  0.18323500  0.03378400  0.19421300  1
  C  C17  1  0.03378400  0.18323500  0.80578700  1
  C  C18  1  0.19931500  0.58155000  0.45918600  1
  C  C19  1  0.08155000  0.69931500  0.95918600  1
  C  C20  1  0.58155000  0.19931500  0.54081400  1
  C  C21  1  0.69931500  0.08155000  0.04081400  1
  C  C22  1  0.31676500  0.46621600  0.69421300  1
  C  C23  1  0.46621600  0.31676500  0.30578700  1
  C  C24  1  0.52523200  0.25944500  0.01265200  1
  C  C25  1  0.02523200  0.75944500  0.48734800  1
  C  C26  1  0.25944500  0.52523200  0.98734800  1
  C  C27  1  0.75944500  0.02523200  0.51265200  1
  C  C28  1  0.74055500  0.47476800  0.01265200  1
  C  C29  1  0.24055500  0.97476800  0.48734800  1
  C  C30  1  0.47476800  0.74055500  0.98734800  1
  C  C31  1  0.97476800  0.24055500  0.51265200  1
  C  C32  1  0.68323500  0.53378400  0.30578700  1
  C  C33  1  0.53378400  0.68323500  0.69421300  1
  C  C34  1  0.41845000  0.80068500  0.45918600  1
  C  C35  1  0.30068500  0.91845000  0.95918600  1
  C  C36  1  0.80068500  0.41845000  0.54081400  1
  C  C37  1  0.91845000  0.30068500  0.04081400  1
  C  C38  1  0.96621600  0.81676500  0.19421300  1
  C  C39  1  0.81676500  0.96621600  0.80578700  1
  Cu  Cu40  1  0.01043900  0.24445600  0.66673000  1
  Cu  Cu41  1  0.24445600  0.01043900  0.33327000  1
  Cu  Cu42  1  0.16215100  0.16675600  0.16995900  1
  Cu  Cu43  1  0.16675600  0.16215100  0.83004100  1
  Cu  Cu44  1  0.24995700  0.08970100  0.57708100  1
  Cu  Cu45  1  0.08970100  0.24995700  0.42291900  1
  Cu  Cu46  1  0.25004300  0.41029900  0.07708100  1
  Cu  Cu47  1  0.41029900  0.25004300  0.92291900  1
  Cu  Cu48  1  0.33784900  0.33324400  0.66995900  1
  Cu  Cu49  1  0.33324400  0.33784900  0.33004100  1
  Cu  Cu50  1  0.15688000  0.51365700  0.32805400  1
  Cu  Cu51  1  0.01365700  0.65688000  0.82805400  1
  Cu  Cu52  1  0.51365700  0.15688000  0.67194600  1
  Cu  Cu53  1  0.65688000  0.01365700  0.17194600  1
  Cu  Cu54  1  0.22625200  0.49742800  0.58067100  1
  Cu  Cu55  1  0.99742800  0.72625200  0.08067100  1
  Cu  Cu56  1  0.72625200  0.99742800  0.91932900  1
  Cu  Cu57  1  0.49742800  0.22625200  0.41932900  1
  Cu  Cu58  1  0.65179900  0.09777100  0.48488600  1
  Cu  Cu59  1  0.09777100  0.65179900  0.51511400  1
  Cu  Cu60  1  0.15179900  0.59777100  0.01511400  1
  Cu  Cu61  1  0.59777100  0.15179900  0.98488600  1
  Cu  Cu62  1  0.48956100  0.25554400  0.16673000  1
  Cu  Cu63  1  0.25554400  0.48956100  0.83327000  1
  Cu  Cu64  1  0.94593800  0.05406200  0.81461300  1
  Cu  Cu65  1  0.61597000  0.38403000  0.97148000  1
  Cu  Cu66  1  0.32540400  0.67459600  0.42468300  1
  Cu  Cu67  1  0.05406200  0.94593800  0.18538700  1
  Cu  Cu68  1  0.17459600  0.82540400  0.92468300  1
  Cu  Cu69  1  0.11597000  0.88403000  0.52852000  1
  Cu  Cu70  1  0.38403000  0.61597000  0.02852000  1
  Cu  Cu71  1  0.44593800  0.55406200  0.68538700  1
  Cu  Cu72  1  0.55406200  0.44593800  0.31461300  1
  Cu  Cu73  1  0.88403000  0.11597000  0.47148000  1
  Cu  Cu74  1  0.67459600  0.32540400  0.57531700  1
  Cu  Cu75  1  0.82540400  0.17459600  0.07531700  1
  Cu  Cu76  1  0.74445600  0.51043900  0.16673000  1
  Cu  Cu77  1  0.51043900  0.74445600  0.83327000  1
  Cu  Cu78  1  0.84820100  0.40222900  0.98488600  1
  Cu  Cu79  1  0.40222900  0.84820100  0.01511400  1
  Cu  Cu80  1  0.34820100  0.90222900  0.51511400  1
  Cu  Cu81  1  0.90222900  0.34820100  0.48488600  1
  Cu  Cu82  1  0.00257200  0.27374800  0.91932900  1
  Cu  Cu83  1  0.50257200  0.77374800  0.58067100  1
  Cu  Cu84  1  0.27374800  0.00257200  0.08067100  1
  Cu  Cu85  1  0.77374800  0.50257200  0.41932900  1
  Cu  Cu86  1  0.34312000  0.98634300  0.82805400  1
  Cu  Cu87  1  0.48634300  0.84312000  0.32805400  1
  Cu  Cu88  1  0.84312000  0.48634300  0.67194600  1
  Cu  Cu89  1  0.98634300  0.34312000  0.17194600  1
  Cu  Cu90  1  0.66215100  0.66675600  0.33004100  1
  Cu  Cu91  1  0.66675600  0.66215100  0.66995900  1
  Cu  Cu92  1  0.74995700  0.58970100  0.92291900  1
  Cu  Cu93  1  0.58970100  0.74995700  0.07708100  1
  Cu  Cu94  1  0.91029900  0.75004300  0.57708100  1
  Cu  Cu95  1  0.75004300  0.91029900  0.42291900  1
  Cu  Cu96  1  0.83324400  0.83784900  0.16995900  1
  Cu  Cu97  1  0.83784900  0.83324400  0.83004100  1
  Cu  Cu98  1  0.75554400  0.98956100  0.66673000  1
  Cu  Cu99  1  0.98956100  0.75554400  0.33327000  1
