# generated using pymatgen
data_Cu5NiC2
_symmetry_space_group_name_H-M   'P 1'
_cell_length_a   5.80861417
_cell_length_b   5.82744160
_cell_length_c   5.83275803
_cell_angle_alpha   122.25548634
_cell_angle_beta   122.19396541
_cell_angle_gamma   86.86387793
_symmetry_Int_Tables_number   1
_chemical_formula_structural   Cu5NiC2
_chemical_formula_sum   'Cu5 Ni1 C2'
_cell_volume   133.82346956
_cell_formula_units_Z   1
loop_
 _symmetry_equiv_pos_site_id
 _symmetry_equiv_pos_as_xyz
  1  'x, y, z'
loop_
 _atom_site_type_symbol
 _atom_site_label
 _atom_site_symmetry_multiplicity
 _atom_site_fract_x
 _atom_site_fract_y
 _atom_site_fract_z
 _atom_site_occupancy
  C  C0  1  0.50000000  0.50000000  -0.00000000  1
  C  C1  1  -0.00000000  -0.00000000  -0.00000000  1
  Cu  Cu2  1  0.80189649  0.24274027  0.01893634  1
  Cu  Cu3  1  0.27293261  0.27494935  0.46777741  1
  Cu  Cu4  1  0.24495597  0.72210581  0.96672318  1
  Cu  Cu5  1  0.75309184  0.70640797  0.57530858  1
  Cu  Cu6  1  0.78359913  0.81418662  0.10404733  1
  Ni  Ni7  1  0.22489484  0.22863337  0.92458169  1
