# generated using pymatgen
data_CuC4
_symmetry_space_group_name_H-M   'P 1'
_cell_length_a   9.34747600
_cell_length_b   9.34747600
_cell_length_c   3.08165800
_cell_angle_alpha   90.00000000
_cell_angle_beta   90.00000000
_cell_angle_gamma   90.00000000
_symmetry_Int_Tables_number   1
_chemical_formula_structural   CuC4
_chemical_formula_sum   'Cu4 C16'
_cell_volume   269.26081558
_cell_formula_units_Z   4
loop_
 _symmetry_equiv_pos_site_id
 _symmetry_equiv_pos_as_xyz
  1  'x, y, z'
loop_
 _atom_site_type_symbol
 _atom_site_label
 _atom_site_symmetry_multiplicity
 _atom_site_fract_x
 _atom_site_fract_y
 _atom_site_fract_z
 _atom_site_occupancy
  C  C0  1  0.82514600  0.32514600  0.00000000  1
  C  C1  1  0.32514600  0.17485400  0.00000000  1
  C  C2  1  0.67485400  0.82514600  0.00000000  1
  C  C3  1  0.17485400  0.67485400  0.00000000  1
  C  C4  1  0.00000000  0.00000000  0.00000000  1
  C  C5  1  0.50000000  0.50000000  0.00000000  1
  Cu  Cu6  1  0.62124154  0.13237763  0.96337946  1
  Cu  Cu7  1  0.11849038  0.38779154  0.98850281  1
  Cu  Cu8  1  0.88756822  0.63376341  0.96243543  1
  Cu  Cu9  1  0.37044515  0.86873935  0.98603325  1
  C  C10  1  0.07096800  0.21657000  0.50000000  1
  C  C11  1  0.21657000  0.92903200  0.50000000  1
  C  C12  1  0.78343000  0.07096800  0.50000000  1
  C  C13  1  0.92903200  0.78343000  0.50000000  1
  C  C14  1  0.42903200  0.71657000  0.50000000  1
  C  C15  1  0.57096800  0.28343000  0.50000000  1
  C  C16  1  0.71657000  0.57096800  0.50000000  1
  C  C17  1  0.28343000  0.42903200  0.50000000  1
  C  C18  1  0.50000000  0.00000000  0.50000000  1
  C  C19  1  0.00000000  0.50000000  0.50000000  1
