# generated using pymatgen
data_Cu2C3
_symmetry_space_group_name_H-M   'P 1'
_cell_length_a   6.10958181
_cell_length_b   5.62427942
_cell_length_c   4.91348500
_cell_angle_alpha   90.00000000
_cell_angle_beta   90.00000000
_cell_angle_gamma   117.40541026
_symmetry_Int_Tables_number   1
_chemical_formula_structural   Cu2C3
_chemical_formula_sum   'Cu4 C6'
_cell_volume   149.88888027
_cell_formula_units_Z   2
loop_
 _symmetry_equiv_pos_site_id
 _symmetry_equiv_pos_as_xyz
  1  'x, y, z'
loop_
 _atom_site_type_symbol
 _atom_site_label
 _atom_site_symmetry_multiplicity
 _atom_site_fract_x
 _atom_site_fract_y
 _atom_site_fract_z
 _atom_site_occupancy
  C  C0  1  0.62327100  0.16661600  0.90889600  1
  C  C1  1  0.37672900  0.54334500  0.90889600  1
  C  C2  1  0.37672900  0.83338400  0.40889600  1
  C  C3  1  0.62327100  0.45665500  0.40889600  1
  C  C4  1  0.00000000  0.77971400  0.26733900  1
  C  C5  1  0.00000000  0.22028600  0.76733900  1
  Cu  Cu6  1  0.56600776  0.15193772  0.20903579  1
  Cu  Cu7  1  0.44878384  0.58166739  0.24847416  1
  Cu  Cu8  1  0.47023865  0.86440906  0.77086653  1
  Cu  Cu9  1  0.56649388  0.41948982  0.74120236  1
