# generated using pymatgen
data_Cu15C4
_symmetry_space_group_name_H-M   'P 1'
_cell_length_a   10.86716200
_cell_length_b   5.66253800
_cell_length_c   9.92427247
_cell_angle_alpha   84.28151027
_cell_angle_beta   90.00000000
_cell_angle_gamma   90.00000000
_symmetry_Int_Tables_number   1
_chemical_formula_structural   Cu15C4
_chemical_formula_sum   'Cu30 C8'
_cell_volume   607.65807491
_cell_formula_units_Z   2
loop_
 _symmetry_equiv_pos_site_id
 _symmetry_equiv_pos_as_xyz
  1  'x, y, z'
loop_
 _atom_site_type_symbol
 _atom_site_label
 _atom_site_symmetry_multiplicity
 _atom_site_fract_x
 _atom_site_fract_y
 _atom_site_fract_z
 _atom_site_occupancy
  C  C0  1  0.75000000  0.40131400  0.70182200  1
  C  C1  1  0.25000000  0.59868600  0.29817800  1
  C  C2  1  0.50000000  0.00000000  0.50000000  1
  C  C3  1  0.56558300  0.98909400  0.15856800  1
  C  C4  1  0.43441700  0.01090600  0.84143200  1
  C  C5  1  0.00000000  0.00000000  0.50000000  1
  C  C6  1  0.93441700  0.98909400  0.15856800  1
  C  C7  1  0.06558300  0.01090600  0.84143200  1
  Cu  Cu8  1  0.76419298  0.70627969  0.57766777  1
  Cu  Cu9  1  0.75745166  0.87232403  0.15869264  1
  Cu  Cu10  1  0.74516939  0.59542448  0.86731834  1
  Cu  Cu11  1  0.23013469  0.30780607  0.43260766  1
  Cu  Cu12  1  0.24166463  0.43625307  0.15294549  1
  Cu  Cu13  1  0.25291570  0.11643274  0.83450067  1
  Cu  Cu14  1  0.38723169  0.12629767  0.63447450  1
  Cu  Cu15  1  0.44599274  0.18239284  0.31674329  1
  Cu  Cu16  1  0.42948082  0.10669519  0.03047182  1
  Cu  Cu17  1  0.62904803  0.85504595  0.37152750  1
  Cu  Cu18  1  0.56904508  0.88442284  0.98045317  1
  Cu  Cu19  1  0.56120741  0.77960334  0.70670686  1
  Cu  Cu20  1  0.13349409  0.73160772  0.45344824  1
  Cu  Cu21  1  0.04286319  0.70208483  0.22800259  1
  Cu  Cu22  1  0.12801426  0.71930661  0.85715227  1
  Cu  Cu23  1  0.86495466  0.25608448  0.53804731  1
  Cu  Cu24  1  0.85777226  0.29805129  0.16646173  1
  Cu  Cu25  1  0.93870436  0.30441308  0.81215748  1
  Cu  Cu26  1  0.61610168  0.21543673  0.51274887  1
  Cu  Cu27  1  0.62489707  0.28509649  0.12376660  1
  Cu  Cu28  1  0.54361189  0.25543774  0.79770165  1
  Cu  Cu29  1  0.37851100  0.72086634  0.46189599  1
  Cu  Cu30  1  0.45066043  0.71686896  0.20428554  1
  Cu  Cu31  1  0.37512610  0.68518911  0.83535858  1
  Cu  Cu32  1  0.12669070  0.12744469  0.62799064  1
  Cu  Cu33  1  0.03900504  0.16437918  0.29971629  1
  Cu  Cu34  1  0.08635622  0.12606960  0.03661073  1
  Cu  Cu35  1  0.88694436  0.84649721  0.40892257  1
  Cu  Cu36  1  0.91596351  0.84885262  0.96789103  1
  Cu  Cu37  1  0.94994045  0.85095815  0.68828154  1
