# generated using pymatgen
data_Cu16Ni6C7
_symmetry_space_group_name_H-M   'P 1'
_cell_length_a   10.13884210
_cell_length_b   10.13884210
_cell_length_c   10.13884210
_cell_angle_alpha   60.00000000
_cell_angle_beta   60.00000000
_cell_angle_gamma   60.00000000
_symmetry_Int_Tables_number   1
_chemical_formula_structural   Cu16Ni6C7
_chemical_formula_sum   'Cu32 Ni12 C14'
_cell_volume   736.97045982
_cell_formula_units_Z   2
loop_
 _symmetry_equiv_pos_site_id
 _symmetry_equiv_pos_as_xyz
  1  'x, y, z'
loop_
 _atom_site_type_symbol
 _atom_site_label
 _atom_site_symmetry_multiplicity
 _atom_site_fract_x
 _atom_site_fract_y
 _atom_site_fract_z
 _atom_site_occupancy
  Ni  Ni0  1  0.53809300  0.96190700  0.96190700  1
  Ni  Ni1  1  0.53809300  0.53809300  0.96190700  1
  Ni  Ni2  1  0.53809300  0.96190700  0.53809300  1
  Ni  Ni3  1  0.96190700  0.53809300  0.96190700  1
  Ni  Ni4  1  0.28809300  0.28809300  0.71190700  1
  Ni  Ni5  1  0.28809300  0.71190700  0.71190700  1
  Ni  Ni6  1  0.96190700  0.96190700  0.53809300  1
  Ni  Ni7  1  0.96190700  0.53809300  0.53809300  1
  Ni  Ni8  1  0.71190700  0.28809300  0.71190700  1
  Ni  Ni9  1  0.28809300  0.71190700  0.28809300  1
  Ni  Ni10  1  0.71190700  0.28809300  0.28809300  1
  Ni  Ni11  1  0.71190700  0.71190700  0.28809300  1
  C  C12  1  0.34325200  0.34325200  0.97024500  1
  C  C13  1  0.34325200  0.34325200  0.34325200  1
  C  C14  1  0.34325200  0.97024500  0.34325200  1
  C  C15  1  0.97024500  0.34325200  0.34325200  1
  C  C16  1  0.27975500  0.90674800  0.90674800  1
  C  C17  1  0.90674800  0.27975500  0.90674800  1
  C  C18  1  0.90674800  0.90674800  0.90674800  1
  C  C19  1  0.90674800  0.90674800  0.27975500  1
  C  C20  1  0.62500000  0.12500000  0.12500000  1
  C  C21  1  0.12500000  0.12500000  0.12500000  1
  C  C22  1  0.12500000  0.62500000  0.12500000  1
  C  C23  1  0.12500000  0.12500000  0.62500000  1
  C  C24  1  0.50000000  0.50000000  0.50000000  1
  C  C25  1  0.75000000  0.75000000  0.75000000  1
  Cu  Cu26  1  0.56028400  0.56028400  0.31914800  1
  Cu  Cu27  1  0.56028400  0.31914800  0.56028400  1
  Cu  Cu28  1  0.56028400  0.56028400  0.56028400  1
  Cu  Cu29  1  0.31914800  0.56028400  0.56028400  1
  Cu  Cu30  1  0.49135900  0.21980400  0.96688400  1
  Cu  Cu31  1  0.32195200  0.49135900  0.96688400  1
  Cu  Cu32  1  0.49135900  0.32195200  0.21980400  1
  Cu  Cu33  1  0.21980400  0.32195200  0.96688400  1
  Cu  Cu34  1  0.49135900  0.96688400  0.32195200  1
  Cu  Cu35  1  0.32195200  0.96688400  0.21980400  1
  Cu  Cu36  1  0.21980400  0.49135900  0.32195200  1
  Cu  Cu37  1  0.32195200  0.21980400  0.49135900  1
  Cu  Cu38  1  0.96688400  0.49135900  0.21980400  1
  Cu  Cu39  1  0.21980400  0.96688400  0.49135900  1
  Cu  Cu40  1  0.96688400  0.21980400  0.32195200  1
  Cu  Cu41  1  0.28311600  0.92804800  0.75864100  1
  Cu  Cu42  1  0.96688400  0.32195200  0.49135900  1
  Cu  Cu43  1  0.28311600  0.03019600  0.92804800  1
  Cu  Cu44  1  0.03019600  0.28311600  0.75864100  1
  Cu  Cu45  1  0.28311600  0.75864100  0.03019600  1
  Cu  Cu46  1  0.92804800  0.03019600  0.75864100  1
  Cu  Cu47  1  0.03019600  0.75864100  0.92804800  1
  Cu  Cu48  1  0.92804800  0.28311600  0.03019600  1
  Cu  Cu49  1  0.75864100  0.28311600  0.92804800  1
  Cu  Cu50  1  0.03019600  0.92804800  0.28311600  1
  Cu  Cu51  1  0.75864100  0.92804800  0.03019600  1
  Cu  Cu52  1  0.92804800  0.75864100  0.28311600  1
  Cu  Cu53  1  0.75864100  0.03019600  0.28311600  1
  Cu  Cu54  1  0.93085200  0.68971600  0.68971600  1
  Cu  Cu55  1  0.68971600  0.93085200  0.68971600  1
  Cu  Cu56  1  0.68971600  0.68971600  0.68971600  1
  Cu  Cu57  1  0.68971600  0.68971600  0.93085200  1
