# generated using pymatgen
data_Cu13(NiC)4
_symmetry_space_group_name_H-M   'P 1'
_cell_length_a   8.38430404
_cell_length_b   8.38430404
_cell_length_c   3.86256900
_cell_angle_alpha   90.00000000
_cell_angle_beta   90.00000000
_cell_angle_gamma   91.37813407
_symmetry_Int_Tables_number   1
_chemical_formula_structural   Cu13(NiC)4
_chemical_formula_sum   'Cu13 Ni4 C4'
_cell_volume   271.44674993
_cell_formula_units_Z   1
loop_
 _symmetry_equiv_pos_site_id
 _symmetry_equiv_pos_as_xyz
  1  'x, y, z'
loop_
 _atom_site_type_symbol
 _atom_site_label
 _atom_site_symmetry_multiplicity
 _atom_site_fract_x
 _atom_site_fract_y
 _atom_site_fract_z
 _atom_site_occupancy
  Ni  Ni0  1  0.81187400  0.18812600  0.50000000  1
  Ni  Ni1  1  0.18812600  0.81187400  0.50000000  1
  Ni  Ni2  1  0.65157900  0.65157900  0.50000000  1
  Ni  Ni3  1  0.34842100  0.34842100  0.50000000  1
  Cu  Cu4  1  0.50000000  0.00000000  0.50000000  1
  Cu  Cu5  1  0.00000000  0.50000000  0.50000000  1
  Cu  Cu6  1  0.00000000  0.00000000  0.00000000  1
  Cu  Cu7  1  0.43097300  0.78414900  0.00000000  1
  Cu  Cu8  1  0.56902700  0.21585100  0.00000000  1
  Cu  Cu9  1  0.21585100  0.56902700  0.00000000  1
  Cu  Cu10  1  0.78414900  0.43097300  0.00000000  1
  Cu  Cu11  1  0.70852100  0.92551200  0.00000000  1
  Cu  Cu12  1  0.29147900  0.07448800  0.00000000  1
  Cu  Cu13  1  0.07448800  0.29147900  0.00000000  1
  Cu  Cu14  1  0.92551200  0.70852100  0.00000000  1
  Cu  Cu15  1  0.87634800  0.87634800  0.50000000  1
  Cu  Cu16  1  0.12365200  0.12365200  0.50000000  1
  C  C17  1  0.44318200  0.55681800  0.00000000  1
  C  C18  1  0.55681800  0.44318200  0.00000000  1
  C  C19  1  0.50000000  0.00000000  0.00000000  1
  C  C20  1  0.00000000  0.50000000  0.00000000  1
