# generated using pymatgen
data_Cu3Ni9C19
_symmetry_space_group_name_H-M   'P 1'
_cell_length_a   8.54892000
_cell_length_b   8.54892000
_cell_length_c   25.40062100
_cell_angle_alpha   90.00000000
_cell_angle_beta   90.00000000
_cell_angle_gamma   90.00000000
_symmetry_Int_Tables_number   1
_chemical_formula_structural   Cu3Ni9C19
_chemical_formula_sum   'Cu12 Ni36 C76'
_cell_volume   1856.37982761
_cell_formula_units_Z   4
loop_
 _symmetry_equiv_pos_site_id
 _symmetry_equiv_pos_as_xyz
  1  'x, y, z'
loop_
 _atom_site_type_symbol
 _atom_site_label
 _atom_site_symmetry_multiplicity
 _atom_site_fract_x
 _atom_site_fract_y
 _atom_site_fract_z
 _atom_site_occupancy
  C  C0  1  0.71446100  0.19742700  0.82159400  1
  C  C1  1  0.41534000  0.69557200  0.94617200  1
  C  C2  1  0.90147200  0.01481600  0.06066000  1
  C  C3  1  0.39655400  0.09389000  0.20959400  1
  C  C4  1  0.40147200  0.48518400  0.68934000  1
  C  C5  1  0.60344600  0.90611000  0.70959400  1
  C  C6  1  0.48518400  0.40147200  0.31066000  1
  C  C7  1  0.91534000  0.80442800  0.80382800  1
  C  C8  1  0.01481600  0.90147200  0.93934000  1
  C  C9  1  0.01275000  0.68250000  0.66717600  1
  C  C10  1  0.59852800  0.51481600  0.18934000  1
  C  C11  1  0.51275000  0.81750000  0.08282400  1
  C  C12  1  0.98725000  0.31750000  0.16717600  1
  C  C13  1  0.59389000  0.10344600  0.95959400  1
  C  C14  1  0.09852800  0.98518400  0.56066000  1
  C  C15  1  0.69557200  0.41534000  0.05382800  1
  C  C16  1  0.80442800  0.91534000  0.19617200  1
  C  C17  1  0.58466000  0.30442800  0.44617200  1
  C  C18  1  0.31750000  0.98725000  0.83282400  1
  C  C19  1  0.90611000  0.60344600  0.29040600  1
  C  C20  1  0.69742700  0.78553900  0.57159400  1
  C  C21  1  0.89655400  0.40611000  0.54040600  1
  C  C22  1  0.80257300  0.28553900  0.67840600  1
  C  C23  1  0.68250000  0.01275000  0.33282400  1
  C  C24  1  0.09389000  0.39655400  0.79040600  1
  C  C25  1  0.19557200  0.08466000  0.69617200  1
  C  C26  1  0.51481600  0.59852800  0.81066000  1
  C  C27  1  0.10344600  0.59389000  0.04040600  1
  C  C28  1  0.98518400  0.09852800  0.43934000  1
  C  C29  1  0.08466000  0.19557200  0.30382800  1
  C  C30  1  0.19742700  0.71446100  0.17840600  1
  C  C31  1  0.40611000  0.89655400  0.45959400  1
  C  C32  1  0.78553900  0.69742700  0.42840600  1
  C  C33  1  0.30442800  0.58466000  0.55382800  1
  C  C34  1  0.21446100  0.30257300  0.92840600  1
  C  C35  1  0.30257300  0.21446100  0.07159400  1
  C  C36  1  0.48725000  0.18250000  0.58282400  1
  C  C37  1  0.28553900  0.80257300  0.32159400  1
  C  C38  1  0.18250000  0.48725000  0.41717600  1
  C  C39  1  0.81750000  0.51275000  0.91717600  1
  C  C40  1  0.14250500  0.63652800  0.88329300  1
  C  C41  1  0.62403400  0.48880600  0.60725200  1
  C  C42  1  0.08058000  0.91942000  0.25000000  1
  C  C43  1  0.28142400  0.20366500  0.47516800  1
  C  C44  1  0.70366500  0.21857600  0.22516800  1
  C  C45  1  0.86347200  0.64250500  0.13329300  1
  C  C46  1  0.35749500  0.13652800  0.36670700  1
  C  C47  1  0.29633500  0.78142400  0.72516800  1
  C  C48  1  0.85749500  0.36347200  0.38329300  1
  C  C49  1  0.98880600  0.87596600  0.35725200  1
  C  C50  1  0.12403400  0.01119400  0.14274800  1
  C  C51  1  0.87596600  0.98880600  0.64274800  1
  C  C52  1  0.63652800  0.14250500  0.11670700  1
  C  C53  1  0.41942000  0.41942000  0.00000000  1
  C  C54  1  0.20366500  0.28142400  0.52483200  1
  C  C55  1  0.41274900  0.30144600  0.84261500  1
  C  C56  1  0.58058000  0.58058000  0.50000000  1
  C  C57  1  0.08725100  0.80144600  0.40738500  1
  C  C58  1  0.36347200  0.85749500  0.61670700  1
  C  C59  1  0.91274900  0.19855400  0.90738500  1
  C  C60  1  0.64250500  0.86347200  0.86670700  1
  C  C61  1  0.69855400  0.58725100  0.65738500  1
  C  C62  1  0.78142400  0.29633500  0.27483200  1
  C  C63  1  0.21857600  0.70366500  0.77483200  1
  C  C64  1  0.51119400  0.37596600  0.89274800  1
  C  C65  1  0.30144600  0.41274900  0.15738500  1
  C  C66  1  0.01119400  0.12403400  0.85725200  1
  C  C67  1  0.79633500  0.71857600  0.02483200  1
  C  C68  1  0.80144600  0.08725100  0.59261500  1
  C  C69  1  0.13652800  0.35749500  0.63329300  1
  C  C70  1  0.58725100  0.69855400  0.34261500  1
  C  C71  1  0.48880600  0.62403400  0.39274800  1
  C  C72  1  0.91942000  0.08058000  0.75000000  1
  C  C73  1  0.37596600  0.51119400  0.10725200  1
  C  C74  1  0.71857600  0.79633500  0.97516800  1
  C  C75  1  0.19855400  0.91274900  0.09261500  1
  Ni  Ni76  1  0.97258000  0.28786000  0.01150300  1
  Ni  Ni77  1  0.61529700  0.89316300  0.81089800  1
  Cu  Cu78  1  0.70572740  0.02685616  0.48238209  1
  Cu  Cu79  1  0.49281027  0.41553325  0.95247228  1
  Cu  Cu80  1  0.19457218  0.28175368  0.58438011  1
  Cu  Cu81  1  0.49257785  0.17176777  0.68756660  1
  Ni  Ni82  1  0.07395300  0.78320300  0.46593100  1
  Ni  Ni83  1  0.60683700  0.11529700  0.06089800  1
  Cu  Cu84  1  0.55413533  0.72175699  0.28668339  1
  Ni  Ni85  1  0.21679700  0.92604700  0.03406900  1
  Ni  Ni86  1  0.10683700  0.38470300  0.68910200  1
  Ni  Ni87  1  0.28786000  0.97258000  0.98849700  1
  Ni  Ni88  1  0.89316300  0.61529700  0.18910200  1
  Cu  Cu89  1  0.66603623  0.18069107  0.16932162  1
  Ni  Ni90  1  0.78786000  0.52742000  0.76150300  1
  Ni  Ni91  1  0.11529700  0.60683700  0.93910200  1
  Cu  Cu92  1  0.19970153  0.66074179  0.83247875  1
  Cu  Cu93  1  0.40818658  0.30546845  0.77875602  1
  Ni  Ni94  1  0.18950500  0.49448500  0.31379800  1
  Cu  Cu95  1  0.99811374  0.31783019  0.06740553  1
  Cu  Cu96  1  0.78772989  0.05817769  0.52652713  1
  Ni  Ni97  1  0.79696900  0.32007300  0.33162500  1
  Ni  Ni98  1  0.82007300  0.70303100  0.08162500  1
  Ni  Ni99  1  0.21214000  0.47258000  0.26150300  1
  Ni  Ni100  1  0.71679700  0.57395300  0.71593100  1
  Ni  Ni101  1  0.47258000  0.21214000  0.73849700  1
  Ni  Ni102  1  0.98941400  0.90267100  0.29931700  1
  Ni  Ni103  1  0.09732900  0.01058600  0.20068300  1
  Ni  Ni104  1  0.70303100  0.82007300  0.91837500  1
  Ni  Ni105  1  0.40267100  0.51058600  0.04931700  1
  Ni  Ni106  1  0.32007300  0.79696900  0.66837500  1
  Ni  Ni107  1  0.50551500  0.81049500  0.18620200  1
  Ni  Ni108  1  0.02742000  0.71214000  0.51150300  1
  Ni  Ni109  1  0.88470300  0.39316300  0.43910200  1
  Ni  Ni110  1  0.52742000  0.78786000  0.23849700  1
  Ni  Ni111  1  0.28320300  0.42604700  0.21593100  1
  Ni  Ni112  1  0.59732900  0.48941400  0.54931700  1
  Ni  Ni113  1  0.01058600  0.09732900  0.79931700  1
  Ni  Ni114  1  0.92604700  0.21679700  0.96593100  1
  Cu  Cu115  1  0.92632180  0.98211613  0.69952728  1
  Cu  Cu116  1  0.30944918  0.19405573  0.42158577  1
  Ni  Ni117  1  0.31049500  0.99448500  0.93620200  1
  Ni  Ni118  1  0.39316300  0.88470300  0.56089800  1
  Ni  Ni119  1  0.68950500  0.00551500  0.43620200  1
  Ni  Ni120  1  0.81049500  0.50551500  0.81379800  1
  Ni  Ni121  1  0.38470300  0.10683700  0.31089800  1
  Ni  Ni122  1  0.48941400  0.59732900  0.45068300  1
  Ni  Ni123  1  0.00551500  0.68950500  0.56379800  1
