# generated using pymatgen
data_Cu19Ni17C78
_symmetry_space_group_name_H-M   'P 1'
_cell_length_a   13.18310507
_cell_length_b   13.18310507
_cell_length_c   15.15897032
_cell_angle_alpha   90.00000000
_cell_angle_beta   90.00000000
_cell_angle_gamma   119.99999976
_symmetry_Int_Tables_number   1
_chemical_formula_structural   Cu19Ni17C78
_chemical_formula_sum   'Cu19 Ni17 C78'
_cell_volume   2281.58032158
_cell_formula_units_Z   1
loop_
 _symmetry_equiv_pos_site_id
 _symmetry_equiv_pos_as_xyz
  1  'x, y, z'
loop_
 _atom_site_type_symbol
 _atom_site_label
 _atom_site_symmetry_multiplicity
 _atom_site_fract_x
 _atom_site_fract_y
 _atom_site_fract_z
 _atom_site_occupancy
  C  C0  1  0.00000000  0.00000000  0.75000000  1
  C  C1  1  0.00000000  0.00000000  0.25000000  1
  Cu  Cu2  1  0.57549186  0.65685234  0.74814440  1
  Cu  Cu3  1  0.41689057  0.33130321  0.25128085  1
  Cu  Cu4  1  0.09633222  0.44012303  0.76520250  1
  Ni  Ni5  1  0.90687453  0.33246171  0.25000000  1
  Cu  Cu6  1  0.90477596  0.57146573  0.25356586  1
  Ni  Ni7  1  0.09312547  0.66753829  0.75000000  1
  Cu  Cu8  1  0.34104842  0.90688205  0.73759416  1
  Cu  Cu9  1  0.67284381  0.58198892  0.25914700  1
  Cu  Cu10  1  0.66578589  0.08092098  0.25373350  1
  Cu  Cu11  1  0.33323377  0.43272389  0.75701439  1
  Cu  Cu12  1  0.42207720  0.07289747  0.24920822  1
  Cu  Cu13  1  0.57503283  0.89751412  0.74771635  1
  Cu  Cu14  1  0.01982759  0.25417370  0.88950317  1
  Ni  Ni15  1  0.00029105  0.76393883  0.10385770  1
  Cu  Cu16  1  0.24092883  0.00298949  0.89021171  1
  Ni  Ni17  1  0.00029105  0.76393883  0.39614230  1
  Ni  Ni18  1  0.76364778  0.76393883  0.10385770  1
  Ni  Ni19  1  0.76364778  0.99970895  0.10385770  1
  Ni  Ni20  1  0.99970895  0.23606117  0.60385770  1
  Cu  Cu21  1  0.24382349  0.24093657  0.89313942  1
  Ni  Ni22  1  0.76393883  0.76364778  0.89614230  1
  Ni  Ni23  1  0.76364778  0.99970895  0.39614230  1
  Ni  Ni24  1  0.23606117  0.99970895  0.10385770  1
  Cu  Cu25  1  0.23938167  0.23312870  0.10657981  1
  Ni  Ni26  1  0.23635222  0.00029105  0.60385770  1
  Cu  Cu27  1  0.77872478  0.01756942  0.90008239  1
  Ni  Ni28  1  0.23635222  0.23606117  0.60385770  1
  Cu  Cu29  1  0.77798929  0.77559200  0.39177492  1
  Ni  Ni30  1  0.23606117  0.23635222  0.39614230  1
  Cu  Cu31  1  0.77311597  0.01871926  0.61538695  1
  Cu  Cu32  1  0.76725758  0.77048042  0.61003392  1
  Ni  Ni33  1  0.23606117  0.99970895  0.39614230  1
  Ni  Ni34  1  0.00029105  0.23635222  0.10385770  1
  Cu  Cu35  1  0.99125522  0.76172764  0.90064195  1
  Ni  Ni36  1  0.99970895  0.76364778  0.60385770  1
  Ni  Ni37  1  0.00029105  0.23635222  0.39614230  1
  C  C38  1  0.73550290  0.73550290  -0.00000000  1
  C  C39  1  0.26449710  0.26449710  -0.00000000  1
  C  C40  1  1.00000000  0.26449710  -0.00000000  1
  C  C41  1  0.26449710  0.26449710  0.50000000  1
  C  C42  1  0.00000000  0.73550290  -0.00000000  1
  C  C43  1  0.73550290  0.73550290  0.50000000  1
  C  C44  1  0.26449710  1.00000000  -0.00000000  1
  C  C45  1  0.00000000  0.73550290  0.50000000  1
  C  C46  1  0.73550290  0.00000000  -0.00000000  1
  C  C47  1  1.00000000  0.26449710  0.50000000  1
  C  C48  1  0.73550290  0.00000000  0.50000000  1
  C  C49  1  0.26449710  1.00000000  0.50000000  1
  C  C50  1  0.90435268  0.09564732  0.37496808  1
  C  C51  1  0.09564732  0.90435268  0.62503192  1
  C  C52  1  0.19129464  0.09564732  0.37496808  1
  C  C53  1  0.09564732  0.90435268  0.87496808  1
  C  C54  1  0.80870536  0.90435268  0.62503192  1
  C  C55  1  0.90435268  0.09564732  0.12503192  1
  C  C56  1  0.90435268  0.80870536  0.37496808  1
  C  C57  1  0.80870536  0.90435268  0.87496808  1
  C  C58  1  0.09564732  0.19129464  0.62503192  1
  C  C59  1  0.19129464  0.09564732  0.12503192  1
  C  C60  1  0.09564732  0.19129464  0.87496808  1
  C  C61  1  0.90435268  0.80870536  0.12503192  1
  C  C62  1  0.65074283  0.67889752  0.83791020  1
  C  C63  1  0.34925717  0.32110248  0.16208980  1
  C  C64  1  0.02815470  0.34925717  0.83791020  1
  C  C65  1  0.34925717  0.32110248  0.33791020  1
  C  C66  1  0.97184530  0.32110248  0.16208980  1
  C  C67  1  0.97184530  0.65074283  0.16208980  1
  C  C68  1  0.65074283  0.67889752  0.66208980  1
  C  C69  1  0.02815470  0.67889752  0.83791020  1
  C  C70  1  0.32110248  0.97184530  0.83791020  1
  C  C71  1  0.97184530  0.65074283  0.33791020  1
  C  C72  1  0.67889752  0.65074283  0.16208980  1
  C  C73  1  0.67889752  0.02815470  0.16208980  1
  C  C74  1  0.02815470  0.34925717  0.66208980  1
  C  C75  1  0.32110248  0.34925717  0.83791020  1
  C  C76  1  0.02815470  0.67889752  0.66208980  1
  C  C77  1  0.97184530  0.32110248  0.33791020  1
  C  C78  1  0.67889752  0.02815470  0.33791020  1
  C  C79  1  0.32110248  0.34925717  0.66208980  1
  C  C80  1  0.32110248  0.97184530  0.66208980  1
  C  C81  1  0.67889752  0.65074283  0.33791020  1
  C  C82  1  0.34925717  0.02815470  0.16208980  1
  C  C83  1  0.65074283  0.97184530  0.83791020  1
  C  C84  1  0.65074283  0.97184530  0.66208980  1
  C  C85  1  0.34925717  0.02815470  0.33791020  1
  C  C86  1  0.45767622  0.54232378  0.75000000  1
  C  C87  1  0.54232378  0.45767622  0.25000000  1
  C  C88  1  0.08464757  0.54232378  0.75000000  1
  C  C89  1  0.91535243  0.45767622  0.25000000  1
  C  C90  1  0.45767622  0.91535243  0.75000000  1
  C  C91  1  0.54232378  0.08464757  0.25000000  1
  C  C92  1  0.22960585  0.77039415  0.75000000  1
  C  C93  1  0.77039415  0.22960585  0.25000000  1
  C  C94  1  0.54078829  0.77039415  0.75000000  1
  C  C95  1  0.45921171  0.22960585  0.25000000  1
  C  C96  1  0.22960585  0.45921171  0.75000000  1
  C  C97  1  0.77039415  0.54078829  0.25000000  1
  C  C98  1  0.66666700  0.33333300  0.93095717  1
  C  C99  1  0.33333300  0.66666700  0.06904283  1
  C  C100  1  0.33333300  0.66666700  0.43095717  1
  C  C101  1  0.66666700  0.33333300  0.56904283  1
  C  C102  1  0.87603504  0.12396496  0.86467524  1
  C  C103  1  0.12396496  0.87603504  0.13532476  1
  C  C104  1  0.24792991  0.12396496  0.86467524  1
  C  C105  1  0.12396496  0.87603504  0.36467524  1
  C  C106  1  0.75207009  0.87603504  0.13532476  1
  C  C107  1  0.87603504  0.12396496  0.63532476  1
  C  C108  1  0.87603504  0.75207009  0.86467524  1
  C  C109  1  0.75207009  0.87603504  0.36467524  1
  C  C110  1  0.12396496  0.24792991  0.13532476  1
  C  C111  1  0.24792991  0.12396496  0.63532476  1
  C  C112  1  0.12396496  0.24792991  0.36467524  1
  C  C113  1  0.87603504  0.75207009  0.63532476  1
