# generated using pymatgen
data_Cu3NiC12
_symmetry_space_group_name_H-M   'P 1'
_cell_length_a   5.75930800
_cell_length_b   8.12849569
_cell_length_c   9.19497326
_cell_angle_alpha   109.99838272
_cell_angle_beta   105.19312661
_cell_angle_gamma   100.65121503
_symmetry_Int_Tables_number   1
_chemical_formula_structural   Cu3NiC12
_chemical_formula_sum   'Cu6 Ni2 C24'
_cell_volume   372.05736127
_cell_formula_units_Z   2
loop_
 _symmetry_equiv_pos_site_id
 _symmetry_equiv_pos_as_xyz
  1  'x, y, z'
loop_
 _atom_site_type_symbol
 _atom_site_label
 _atom_site_symmetry_multiplicity
 _atom_site_fract_x
 _atom_site_fract_y
 _atom_site_fract_z
 _atom_site_occupancy
  Ni  Ni0  1  0.83387400  0.15337600  0.26828800  1
  Ni  Ni1  1  0.16612600  0.84662400  0.73171200  1
  C  C2  1  0.25523500  0.50295000  0.62895400  1
  C  C3  1  0.43876600  0.17734500  0.67854700  1
  C  C4  1  0.74476500  0.49705000  0.37104600  1
  C  C5  1  0.56123400  0.82265500  0.32145300  1
  C  C6  1  0.89398500  0.15399900  0.94570000  1
  C  C7  1  0.10601500  0.84600100  0.05430000  1
  Cu  Cu8  1  0.09923400  0.85286500  0.39661500  1
  Cu  Cu9  1  0.56579200  0.82816500  0.96890700  1
  Cu  Cu10  1  0.43420800  0.17183500  0.03109300  1
  Cu  Cu11  1  0.90076600  0.14713500  0.60338500  1
  Cu  Cu12  1  0.79931100  0.53734600  0.72678400  1
  Cu  Cu13  1  0.20068900  0.46265400  0.27321600  1
  C  C14  1  0.45975500  0.76400700  0.80381600  1
  C  C15  1  0.08068900  0.40937500  0.36953800  1
  C  C16  1  0.81810200  0.94928900  0.05527900  1
  C  C17  1  0.20421000  0.92772900  0.56543000  1
  C  C18  1  0.85447000  0.73282400  0.31532900  1
  C  C19  1  0.56653400  0.19602500  0.92849800  1
  C  C20  1  0.91931100  0.59062500  0.63046200  1
  C  C21  1  0.14553000  0.26717600  0.68467100  1
  C  C22  1  0.54024500  0.23599300  0.19618400  1
  C  C23  1  0.79579000  0.07227100  0.43457000  1
  C  C24  1  0.18189800  0.05071100  0.94472100  1
  C  C25  1  0.43346600  0.80397500  0.07150200  1
  C  C26  1  0.75913300  0.11040300  0.69698500  1
  C  C27  1  0.42984800  0.60507000  0.35615700  1
  C  C28  1  0.10980900  0.38694300  0.10613700  1
  C  C29  1  0.57015200  0.39493000  0.64384300  1
  C  C30  1  0.24086700  0.88959700  0.30301500  1
  C  C31  1  0.89019100  0.61305700  0.89386300  1
