# generated using pymatgen
data_Cu29C14
_symmetry_space_group_name_H-M   'P 1'
_cell_length_a   9.72882067
_cell_length_b   9.72882067
_cell_length_c   14.24013103
_cell_angle_alpha   89.40431423
_cell_angle_beta   89.40431423
_cell_angle_gamma   60.46814145
_symmetry_Int_Tables_number   1
_chemical_formula_structural   Cu29C14
_chemical_formula_sum   'Cu58 C28'
_cell_volume   1172.63539572
_cell_formula_units_Z   2
loop_
 _symmetry_equiv_pos_site_id
 _symmetry_equiv_pos_as_xyz
  1  'x, y, z'
loop_
 _atom_site_type_symbol
 _atom_site_label
 _atom_site_symmetry_multiplicity
 _atom_site_fract_x
 _atom_site_fract_y
 _atom_site_fract_z
 _atom_site_occupancy
  C  C0  1  0.09451400  0.66839400  0.05787000  1
  C  C1  1  0.33160600  0.90548600  0.44213000  1
  C  C2  1  0.66839400  0.09451400  0.55787000  1
  C  C3  1  0.90548600  0.33160600  0.94213000  1
  C  C4  1  0.00000000  0.00000000  0.00000000  1
  C  C5  1  0.00000000  0.00000000  0.50000000  1
  C  C6  1  0.43655300  0.00247400  0.23995900  1
  C  C7  1  0.56344700  0.99752600  0.76004100  1
  C  C8  1  0.43696000  0.56304000  0.75000000  1
  C  C9  1  0.56304000  0.43696000  0.25000000  1
  C  C10  1  0.99752600  0.56344700  0.26004100  1
  C  C11  1  0.00247400  0.43655300  0.73995900  1
  C  C12  1  0.08699500  0.68571800  0.84101500  1
  C  C13  1  0.22362100  0.69392900  0.34285700  1
  C  C14  1  0.08809900  0.21243800  0.33998800  1
  C  C15  1  0.32810200  0.34235200  0.13294200  1
  C  C16  1  0.34235200  0.32810200  0.63294200  1
  C  C17  1  0.21243800  0.08809900  0.83998800  1
  C  C18  1  0.31428200  0.91300500  0.65898500  1
  C  C19  1  0.69392900  0.22362100  0.84285700  1
  C  C20  1  0.30607100  0.77637900  0.15714300  1
  C  C21  1  0.68571800  0.08699500  0.34101500  1
  C  C22  1  0.78756200  0.91190100  0.16001200  1
  C  C23  1  0.65764800  0.67189800  0.36705800  1
  C  C24  1  0.67189800  0.65764800  0.86705800  1
  C  C25  1  0.91190100  0.78756200  0.66001200  1
  C  C26  1  0.77637900  0.30607100  0.65714300  1
  C  C27  1  0.91300500  0.31428200  0.15898500  1
  Cu  Cu28  1  0.02759851  0.80217429  0.58542198  1
  Cu  Cu29  1  0.08343772  0.65959121  0.32703555  1
  Cu  Cu30  1  0.21466149  0.79874282  0.08652388  1
  Cu  Cu31  1  0.25073141  0.64036180  0.81567169  1
  Cu  Cu32  1  0.05574735  0.54473131  0.82603253  1
  Cu  Cu33  1  0.16902256  0.50057974  0.19020617  1
  Cu  Cu34  1  0.08497214  0.36642233  0.32787742  1
  Cu  Cu35  1  0.96752847  0.26250735  0.07274517  1
  Cu  Cu36  1  0.09738858  0.26732421  0.81788167  1
  Cu  Cu37  1  0.36506452  0.46021181  0.67955012  1
  Cu  Cu38  1  0.37969654  0.54780659  0.33608554  1
  Cu  Cu39  1  0.16747266  0.33251749  0.67405356  1
  Cu  Cu40  1  0.31449977  0.35126824  0.04938336  1
  Cu  Cu41  1  0.33296755  0.33330644  0.52483465  1
  Cu  Cu42  1  0.33277333  0.19396884  0.17026556  1
  Cu  Cu43  1  0.55452868  0.36760755  0.81904748  1
  Cu  Cu44  1  0.47747961  0.32439696  0.19024790  1
  Cu  Cu45  1  0.25736643  0.08702596  0.33751088  1
  Cu  Cu46  1  0.17428274  0.03143765  0.73935509  1
  Cu  Cu47  1  0.21267950  0.98188880  0.56701731  1
  Cu  Cu48  1  0.15281222  0.02822167  0.93452544  1
  Cu  Cu49  1  0.39545215  0.07354791  0.83445788  1
  Cu  Cu50  1  0.47869481  0.19524859  0.66703918  1
  Cu  Cu51  1  0.33792290  0.88946596  0.15296860  1
  Cu  Cu52  1  0.53304501  0.08555514  0.32613800  1
  Cu  Cu53  1  0.64826627  0.29293939  0.34152560  1
  Cu  Cu54  1  0.18653385  0.78590419  0.23422520  1
  Cu  Cu55  1  0.21422741  0.80612664  0.42128413  1
  Cu  Cu56  1  0.78013377  0.23116172  0.56138193  1
  Cu  Cu57  1  0.31596522  0.77931132  0.67664310  1
  Cu  Cu58  1  0.46147749  0.93508079  0.66379649  1
  Cu  Cu59  1  0.66372227  0.07105692  0.83370427  1
  Cu  Cu60  1  0.51780387  0.83989586  0.32311468  1
  Cu  Cu61  1  0.63895687  0.88615975  0.16874693  1
  Cu  Cu62  1  0.80876547  0.00816701  0.06927535  1
  Cu  Cu63  1  0.76306910  0.03301066  0.43328265  1
  Cu  Cu64  1  0.81903673  0.99079028  0.25966881  1
  Cu  Cu65  1  0.73444143  0.92701198  0.66000369  1
  Cu  Cu66  1  0.49590469  0.69884886  0.83090731  1
  Cu  Cu67  1  0.44542483  0.63980433  0.15807148  1
  Cu  Cu68  1  0.66019161  0.79981519  0.81924971  1
  Cu  Cu69  1  0.70956098  0.62745101  0.96452613  1
  Cu  Cu70  1  0.66865744  0.66921816  0.47522249  1
  Cu  Cu71  1  0.81276184  0.65526663  0.32416145  1
  Cu  Cu72  1  0.63172323  0.46616202  0.67405919  1
  Cu  Cu73  1  0.68458998  0.53588274  0.30558983  1
  Cu  Cu74  1  0.90731803  0.74465792  0.16810559  1
  Cu  Cu75  1  0.97855728  0.82807716  0.74731084  1
  Cu  Cu76  1  0.03562047  0.76445748  0.93727956  1
  Cu  Cu77  1  0.89958716  0.64637814  0.66730995  1
  Cu  Cu78  1  0.80772417  0.49980303  0.82058056  1
  Cu  Cu79  1  0.90475187  0.47825271  0.17991174  1
  Cu  Cu80  1  0.72253561  0.36050025  0.18100959  1
  Cu  Cu81  1  0.80025296  0.19405053  0.91840505  1
  Cu  Cu82  1  0.78177833  0.21653493  0.76338943  1
  Cu  Cu83  1  0.91208277  0.31894112  0.68531252  1
  Cu  Cu84  1  0.04186166  0.19950959  0.42174322  1
  Cu  Cu85  1  0.01389872  0.21259881  0.24074659  1
