# generated using pymatgen
data_Cu9NiC26
_symmetry_space_group_name_H-M   'P 1'
_cell_length_a   8.81192917
_cell_length_b   8.81192917
_cell_length_c   7.61403800
_cell_angle_alpha   90.00000000
_cell_angle_beta   90.00000000
_cell_angle_gamma   109.79250639
_symmetry_Int_Tables_number   1
_chemical_formula_structural   Cu9NiC26
_chemical_formula_sum   'Cu9 Ni1 C26'
_cell_volume   556.30385887
_cell_formula_units_Z   1
loop_
 _symmetry_equiv_pos_site_id
 _symmetry_equiv_pos_as_xyz
  1  'x, y, z'
loop_
 _atom_site_type_symbol
 _atom_site_label
 _atom_site_symmetry_multiplicity
 _atom_site_fract_x
 _atom_site_fract_y
 _atom_site_fract_z
 _atom_site_occupancy
  Ni  Ni0  1  0.75709200  0.75709200  0.50000000  1
  Cu  Cu1  1  0.00513448  0.28203646  0.42798104  1
  Cu  Cu2  1  0.65670986  0.38931922  0.24030588  1
  Cu  Cu3  1  0.35080050  0.60399889  0.24897696  1
  Cu  Cu4  1  0.99682841  0.73116129  0.90556022  1
  Cu  Cu5  1  0.23431690  0.21655874  0.99037578  1
  Cu  Cu6  1  0.74943239  0.98864575  0.06366863  1
  Cu  Cu7  1  0.36024459  0.63090979  0.74224456  1
  Cu  Cu8  1  0.60998751  0.39354777  0.75369733  1
  Cu  Cu9  1  0.26587679  0.01636349  0.56722611  1
  C  C10  1  0.37254500  0.37254500  0.50000000  1
  C  C11  1  0.62745500  0.62745500  0.00000000  1
  C  C12  1  0.01386100  0.58995200  0.52752300  1
  C  C13  1  0.58995200  0.01386100  0.47247700  1
  C  C14  1  0.98613900  0.41004800  0.02752300  1
  C  C15  1  0.41004800  0.98613900  0.97247700  1
  C  C16  1  0.94130900  0.05869100  0.75000000  1
  C  C17  1  0.05869100  0.94130900  0.25000000  1
  C  C18  1  0.48888800  0.48888800  0.00000000  1
  C  C19  1  0.69491800  0.68949700  0.83945300  1
  C  C20  1  0.52164100  0.13920500  0.01319000  1
  C  C21  1  0.47835900  0.86079500  0.51319000  1
  C  C22  1  0.86079500  0.47835900  0.48681000  1
  C  C23  1  0.55581400  0.15289500  0.51315100  1
  C  C24  1  0.15289500  0.55581400  0.48684900  1
  C  C25  1  0.44418600  0.84710500  0.01315100  1
  C  C26  1  0.51111200  0.51111200  0.50000000  1
  C  C27  1  0.26781300  0.97422800  0.88662500  1
  C  C28  1  0.84710500  0.44418600  0.98684900  1
  C  C29  1  0.30508200  0.31050300  0.33945300  1
  C  C30  1  0.97422800  0.26781300  0.11337500  1
  C  C31  1  0.31050300  0.30508200  0.66054700  1
  C  C32  1  0.02577200  0.73218700  0.61337500  1
  C  C33  1  0.13920500  0.52164100  0.98681000  1
  C  C34  1  0.68949700  0.69491800  0.16054700  1
  C  C35  1  0.73218700  0.02577200  0.38662500  1
