# generated using pymatgen
data_Cu5Ni3C10
_symmetry_space_group_name_H-M   'P 1'
_cell_length_a   5.40279000
_cell_length_b   5.40279000
_cell_length_c   7.46239300
_cell_angle_alpha   90.00000000
_cell_angle_beta   90.00000000
_cell_angle_gamma   90.00000000
_symmetry_Int_Tables_number   1
_chemical_formula_structural   Cu5Ni3C10
_chemical_formula_sum   'Cu5 Ni3 C10'
_cell_volume   217.82829479
_cell_formula_units_Z   1
loop_
 _symmetry_equiv_pos_site_id
 _symmetry_equiv_pos_as_xyz
  1  'x, y, z'
loop_
 _atom_site_type_symbol
 _atom_site_label
 _atom_site_symmetry_multiplicity
 _atom_site_fract_x
 _atom_site_fract_y
 _atom_site_fract_z
 _atom_site_occupancy
  C  C0  1  0.00000000  0.00000000  0.00000000  1
  C  C1  1  0.50000000  0.50000000  0.50000000  1
  C  C2  1  0.82738100  0.50000000  0.15349800  1
  C  C3  1  0.17261900  0.50000000  0.15349800  1
  C  C4  1  0.00000000  0.32738100  0.65349800  1
  C  C5  1  0.00000000  0.67261900  0.65349800  1
  C  C6  1  0.67261900  0.00000000  0.34650200  1
  C  C7  1  0.32738100  0.00000000  0.34650200  1
  C  C8  1  0.50000000  0.17261900  0.84650200  1
  C  C9  1  0.50000000  0.82738100  0.84650200  1
  Cu  Cu10  1  0.24390391  0.48487855  0.82821863  1
  Cu  Cu11  1  0.77563278  0.48091600  0.84967442  1
  Cu  Cu12  1  0.96371626  0.70497432  0.35754026  1
  Ni  Ni13  1  0.00000000  0.24892300  0.35525100  1
  Cu  Cu14  1  0.20103621  0.99850910  0.64946284  1
  Cu  Cu15  1  0.76235111  0.01431077  0.64373214  1
  Ni  Ni16  1  0.50000000  0.74892300  0.14474900  1
  Ni  Ni17  1  0.50000000  0.25107700  0.14474900  1
