# generated using pymatgen
data_Cu4C7
_symmetry_space_group_name_H-M   'P 1'
_cell_length_a   18.73190700
_cell_length_b   7.50331200
_cell_length_c   11.65516898
_cell_angle_alpha   56.34819437
_cell_angle_beta   90.00000000
_cell_angle_gamma   90.00000000
_symmetry_Int_Tables_number   1
_chemical_formula_structural   Cu4C7
_chemical_formula_sum   'Cu16 C28'
_cell_volume   1363.62940677
_cell_formula_units_Z   4
loop_
 _symmetry_equiv_pos_site_id
 _symmetry_equiv_pos_as_xyz
  1  'x, y, z'
loop_
 _atom_site_type_symbol
 _atom_site_label
 _atom_site_symmetry_multiplicity
 _atom_site_fract_x
 _atom_site_fract_y
 _atom_site_fract_z
 _atom_site_occupancy
  Cu  Cu0  1  0.62014150  0.35511764  0.30270726  1
  Cu  Cu1  1  0.12743374  0.56989456  0.23165992  1
  Cu  Cu2  1  0.37454774  0.61121311  0.71061997  1
  Cu  Cu3  1  0.87847152  0.37892468  0.77527691  1
  Cu  Cu4  1  0.71734539  0.12926171  0.33956955  1
  Cu  Cu5  1  0.20420715  0.88908363  0.15231678  1
  Cu  Cu6  1  0.30046140  0.86378081  0.64363152  1
  Cu  Cu7  1  0.80232829  0.13370248  0.84528272  1
  Cu  Cu8  1  0.54501534  0.01294402  0.27750118  1
  Cu  Cu9  1  0.04820091  0.97576716  0.24281814  1
  Cu  Cu10  1  0.44906235  0.96133380  0.73284462  1
  Cu  Cu11  1  0.95127160  0.04671348  0.75290976  1
  Cu  Cu12  1  0.65338642  0.41933092  0.99249925  1
  Cu  Cu13  1  0.16921457  0.62263343  0.49052931  1
  Cu  Cu14  1  0.32503224  0.62491341  0.97308053  1
  Cu  Cu15  1  0.82538191  0.36088126  0.51424257  1
  C  C16  1  0.58224300  0.18226500  0.05314000  1
  C  C17  1  0.08224300  0.81773500  0.44686000  1
  C  C18  1  0.41775700  0.81773500  0.94686000  1
  C  C19  1  0.91775700  0.18226500  0.55314000  1
  C  C20  1  0.46749200  0.84024800  0.28396900  1
  C  C21  1  0.96749200  0.15975200  0.21603100  1
  C  C22  1  0.53250800  0.15975200  0.71603100  1
  C  C23  1  0.03250800  0.84024800  0.78396900  1
  C  C24  1  0.69669600  0.52672700  0.82318000  1
  C  C25  1  0.19669600  0.47327300  0.67682000  1
  C  C26  1  0.30330400  0.47327300  0.17682000  1
  C  C27  1  0.80330400  0.52672700  0.32318000  1
  C  C28  1  0.52307500  0.25388000  0.30540700  1
  C  C29  1  0.02307500  0.74612000  0.19459300  1
  C  C30  1  0.47692500  0.74612000  0.69459300  1
  C  C31  1  0.97692500  0.25388000  0.80540700  1
  C  C32  1  0.63339900  0.85988900  0.39446400  1
  C  C33  1  0.13339900  0.14011100  0.10553600  1
  C  C34  1  0.36660100  0.14011100  0.60553600  1
  C  C35  1  0.86660100  0.85988900  0.89446400  1
  C  C36  1  0.75226600  0.21090100  0.15698000  1
  C  C37  1  0.25226600  0.78909900  0.34302000  1
  C  C38  1  0.24773400  0.78909900  0.84302000  1
  C  C39  1  0.74773400  0.21090100  0.65698000  1
  C  C40  1  0.64206100  0.60398400  0.06985400  1
  C  C41  1  0.14206100  0.39601600  0.43014600  1
  C  C42  1  0.35793900  0.39601600  0.93014600  1
  C  C43  1  0.85793900  0.60398400  0.56985400  1
