# generated using pymatgen
data_Cu21Ni35C64
_symmetry_space_group_name_H-M   'P 1'
_cell_length_a   8.79602200
_cell_length_b   11.41846200
_cell_length_c   13.86369500
_cell_angle_alpha   90.00000000
_cell_angle_beta   90.00000000
_cell_angle_gamma   90.00000000
_symmetry_Int_Tables_number   1
_chemical_formula_structural   Cu21Ni35C64
_chemical_formula_sum   'Cu21 Ni35 C64'
_cell_volume   1392.42853027
_cell_formula_units_Z   1
loop_
 _symmetry_equiv_pos_site_id
 _symmetry_equiv_pos_as_xyz
  1  'x, y, z'
loop_
 _atom_site_type_symbol
 _atom_site_label
 _atom_site_symmetry_multiplicity
 _atom_site_fract_x
 _atom_site_fract_y
 _atom_site_fract_z
 _atom_site_occupancy
  C  C0  1  0.33823300  0.27482700  0.64696300  1
  C  C1  1  0.83823300  0.22517300  0.35303700  1
  C  C2  1  0.66176700  0.77482700  0.85303700  1
  C  C3  1  0.16176700  0.72517300  0.14696300  1
  C  C4  1  0.66176700  0.72517300  0.35303700  1
  C  C5  1  0.16176700  0.77482700  0.64696300  1
  C  C6  1  0.33823300  0.22517300  0.14696300  1
  C  C7  1  0.83823300  0.27482700  0.85303700  1
  C  C8  1  0.00037800  0.47436500  0.67458200  1
  C  C9  1  0.50037800  0.02563500  0.32541800  1
  C  C10  1  0.99962200  0.97436500  0.82541800  1
  C  C11  1  0.49962200  0.52563500  0.17458200  1
  C  C12  1  0.99962200  0.52563500  0.32541800  1
  C  C13  1  0.49962200  0.97436500  0.67458200  1
  C  C14  1  0.00037800  0.02563500  0.17458200  1
  C  C15  1  0.50037800  0.47436500  0.82541800  1
  C  C16  1  0.75268900  0.30600700  0.59750800  1
  C  C17  1  0.25268900  0.19399300  0.40249200  1
  C  C18  1  0.24731100  0.80600700  0.90249200  1
  C  C19  1  0.74731100  0.69399300  0.09750800  1
  C  C20  1  0.24731100  0.69399300  0.40249200  1
  C  C21  1  0.74731100  0.80600700  0.59750800  1
  C  C22  1  0.75268900  0.19399300  0.09750800  1
  C  C23  1  0.25268900  0.30600700  0.90249200  1
  C  C24  1  0.75141700  0.51297500  0.62231000  1
  C  C25  1  0.25141700  0.98702500  0.37769000  1
  C  C26  1  0.24858300  0.01297500  0.87769000  1
  C  C27  1  0.74858300  0.48702500  0.12231000  1
  C  C28  1  0.24858300  0.48702500  0.37769000  1
  C  C29  1  0.74858300  0.01297500  0.62231000  1
  C  C30  1  0.75141700  0.98702500  0.12231000  1
  C  C31  1  0.25141700  0.51297500  0.87769000  1
  C  C32  1  0.86485200  0.47569700  0.52204500  1
  C  C33  1  0.36485200  0.02430300  0.47795500  1
  C  C34  1  0.13514800  0.97569700  0.97795500  1
  C  C35  1  0.63514800  0.52430300  0.02204500  1
  C  C36  1  0.13514800  0.52430300  0.47795500  1
  C  C37  1  0.63514800  0.97569700  0.52204500  1
  C  C38  1  0.86485200  0.02430300  0.02204500  1
  C  C39  1  0.36485200  0.47569700  0.97795500  1
  C  C40  1  0.10088600  0.07225200  0.64627300  1
  C  C41  1  0.60088600  0.42774800  0.35372700  1
  C  C42  1  0.89911400  0.57225200  0.85372700  1
  C  C43  1  0.39911400  0.92774800  0.14627300  1
  C  C44  1  0.89911400  0.92774800  0.35372700  1
  C  C45  1  0.39911400  0.57225200  0.64627300  1
  C  C46  1  0.10088600  0.42774800  0.14627300  1
  C  C47  1  0.60088600  0.07225200  0.85372700  1
  C  C48  1  0.07923000  0.15367300  0.54915300  1
  C  C49  1  0.57923000  0.34632700  0.45084700  1
  C  C50  1  0.92077000  0.65367300  0.95084700  1
  C  C51  1  0.42077000  0.84632700  0.04915300  1
  C  C52  1  0.92077000  0.84632700  0.45084700  1
  C  C53  1  0.42077000  0.65367300  0.54915300  1
  C  C54  1  0.07923000  0.34632700  0.04915300  1
  C  C55  1  0.57923000  0.15367300  0.95084700  1
  C  C56  1  0.83806600  0.45088500  0.59663500  1
  C  C57  1  0.33806600  0.04911500  0.40336500  1
  C  C58  1  0.16193400  0.95088500  0.90336500  1
  C  C59  1  0.66193400  0.54911500  0.09663500  1
  C  C60  1  0.16193400  0.54911500  0.40336500  1
  C  C61  1  0.66193400  0.95088500  0.59663500  1
  C  C62  1  0.83806600  0.04911500  0.09663500  1
  C  C63  1  0.33806600  0.45088500  0.90336500  1
  Cu  Cu64  1  0.97333108  0.45073517  0.77838710  1
  Cu  Cu65  1  0.43989588  0.04585774  0.22936137  1
  Ni  Ni66  1  0.05257300  0.94732200  0.72159600  1
  Ni  Ni67  1  0.55257300  0.55267800  0.27840400  1
  Ni  Ni68  1  0.05257300  0.55267800  0.22159600  1
  Ni  Ni69  1  0.55257300  0.94732200  0.77840400  1
  Ni  Ni70  1  0.94742700  0.05267800  0.27840400  1
  Cu  Cu71  1  0.42711579  0.43653362  0.72282957  1
  Ni  Ni72  1  0.04381800  0.60546600  0.66525800  1
  Ni  Ni73  1  0.54381800  0.89453400  0.33474200  1
  Cu  Cu74  1  0.95508435  0.10362610  0.82898448  1
  Ni  Ni75  1  0.45618200  0.39453400  0.16525800  1
  Cu  Cu76  1  0.95695145  0.40679563  0.32618461  1
  Cu  Cu77  1  0.44227682  0.10734462  0.65281006  1
  Cu  Cu78  1  0.04501604  0.89434685  0.18331043  1
  Ni  Ni79  1  0.54381800  0.60546600  0.83474200  1
  Cu  Cu80  1  0.13455042  0.40928373  0.64570193  1
  Cu  Cu81  1  0.65094257  0.11653640  0.37333725  1
  Ni  Ni82  1  0.86498800  0.89788200  0.85945100  1
  Cu  Cu83  1  0.35466563  0.59441118  0.13829085  1
  Ni  Ni84  1  0.86498800  0.60211800  0.35945100  1
  Cu  Cu85  1  0.37002983  0.90522362  0.63924659  1
  Cu  Cu86  1  0.12952612  0.09187361  0.14222462  1
  Ni  Ni87  1  0.63501200  0.39788200  0.85945100  1
  Ni  Ni88  1  0.78266600  0.25075300  0.69825800  1
  Cu  Cu89  1  0.28705998  0.24464713  0.29924013  1
  Ni  Ni90  1  0.21733400  0.75075300  0.80174200  1
  Ni  Ni91  1  0.71733400  0.74924700  0.19825800  1
  Ni  Ni92  1  0.21733400  0.74924700  0.30174200  1
  Cu  Cu93  1  0.70062974  0.74233820  0.69662700  1
  Ni  Ni94  1  0.78266600  0.24924700  0.19825800  1
  Cu  Cu95  1  0.29663336  0.25564413  0.80463049  1
  Cu  Cu96  1  0.83430081  0.22163837  0.52313770  1
  Ni  Ni97  1  0.32639700  0.26960600  0.48250200  1
  Ni  Ni98  1  0.17360300  0.73039400  0.98250200  1
  Ni  Ni99  1  0.67360300  0.76960600  0.01749800  1
  Cu  Cu100  1  0.18628352  0.76842745  0.48387872  1
  Cu  Cu101  1  0.67907266  0.71538767  0.50835504  1
  Ni  Ni102  1  0.82639700  0.26960600  0.01749800  1
  Ni  Ni103  1  0.32639700  0.23039400  0.98250200  1
  Ni  Ni104  1  0.58178800  0.32016700  0.57810300  1
  Cu  Cu105  1  0.07919064  0.16948295  0.41796559  1
  Ni  Ni106  1  0.41821200  0.82016700  0.92189700  1
  Ni  Ni107  1  0.91821200  0.67983300  0.07810300  1
  Cu  Cu108  1  0.40488824  0.69419590  0.41375950  1
  Ni  Ni109  1  0.91821200  0.82016700  0.57810300  1
  Ni  Ni110  1  0.58178800  0.17983300  0.07810300  1
  Ni  Ni111  1  0.08178800  0.32016700  0.92189700  1
  Ni  Ni112  1  0.13449900  0.14387200  0.61155000  1
  Ni  Ni113  1  0.63449900  0.35612800  0.38845000  1
  Cu  Cu114  1  0.87929786  0.65070603  0.88332575  1
  Ni  Ni115  1  0.36550100  0.85612800  0.11155000  1
  Ni  Ni116  1  0.86550100  0.85612800  0.38845000  1
  Ni  Ni117  1  0.36550100  0.64387200  0.61155000  1
  Ni  Ni118  1  0.13449900  0.35612800  0.11155000  1
  Ni  Ni119  1  0.63449900  0.14387200  0.88845000  1
