# generated using pymatgen
data_Cu3NiC72
_symmetry_space_group_name_H-M   'P 1'
_cell_length_a   5.63516800
_cell_length_b   9.47688600
_cell_length_c   18.20809700
_cell_angle_alpha   90.00000000
_cell_angle_beta   90.00000000
_cell_angle_gamma   90.00000000
_symmetry_Int_Tables_number   1
_chemical_formula_structural   Cu3NiC72
_chemical_formula_sum   'Cu3 Ni1 C72'
_cell_volume   972.38238496
_cell_formula_units_Z   1
loop_
 _symmetry_equiv_pos_site_id
 _symmetry_equiv_pos_as_xyz
  1  'x, y, z'
loop_
 _atom_site_type_symbol
 _atom_site_label
 _atom_site_symmetry_multiplicity
 _atom_site_fract_x
 _atom_site_fract_y
 _atom_site_fract_z
 _atom_site_occupancy
  Ni  Ni0  1  0.50000000  0.50000000  0.00000000  1
  Cu  Cu1  1  0.02347441  0.01510414  0.50486774  1
  Cu  Cu2  1  0.49401550  0.48671090  0.49763403  1
  Cu  Cu3  1  0.01690455  0.98827227  0.00490723  1
  C  C4  1  0.98911600  0.16576000  0.20630600  1
  C  C5  1  0.51088400  0.66576000  0.29369400  1
  C  C6  1  0.01088400  0.83424000  0.70630600  1
  C  C7  1  0.48911600  0.33424000  0.79369400  1
  C  C8  1  0.01088400  0.83424000  0.79369400  1
  C  C9  1  0.48911600  0.33424000  0.70630600  1
  C  C10  1  0.98911600  0.16576000  0.29369400  1
  C  C11  1  0.51088400  0.66576000  0.20630600  1
  C  C12  1  0.58241700  0.35833300  0.20627000  1
  C  C13  1  0.91758300  0.85833300  0.29373000  1
  C  C14  1  0.41758300  0.64166700  0.70627000  1
  C  C15  1  0.08241700  0.14166700  0.79373000  1
  C  C16  1  0.41758300  0.64166700  0.79373000  1
  C  C17  1  0.08241700  0.14166700  0.70627000  1
  C  C18  1  0.58241700  0.35833300  0.29373000  1
  C  C19  1  0.91758300  0.85833300  0.20627000  1
  C  C20  1  0.20479800  0.73544300  0.08688900  1
  C  C21  1  0.29520200  0.23544300  0.41311100  1
  C  C22  1  0.79520200  0.26455700  0.58688900  1
  C  C23  1  0.70479800  0.76455700  0.91311100  1
  C  C24  1  0.79520200  0.26455700  0.91311100  1
  C  C25  1  0.70479800  0.76455700  0.58688900  1
  C  C26  1  0.20479800  0.73544300  0.41311100  1
  C  C27  1  0.29520200  0.23544300  0.08688900  1
  C  C28  1  0.98600800  0.73427300  0.36955200  1
  C  C29  1  0.51399200  0.23427300  0.13044800  1
  C  C30  1  0.01399200  0.26572700  0.86955200  1
  C  C31  1  0.48600800  0.76572700  0.63044800  1
  C  C32  1  0.01399200  0.26572700  0.63044800  1
  C  C33  1  0.48600800  0.76572700  0.86955200  1
  C  C34  1  0.98600800  0.73427300  0.13044800  1
  C  C35  1  0.51399200  0.23427300  0.36955200  1
  C  C36  1  0.41416100  0.77857700  0.12753400  1
  C  C37  1  0.08583900  0.27857700  0.37246600  1
  C  C38  1  0.58583900  0.22142300  0.62753400  1
  C  C39  1  0.91416100  0.72142300  0.87246600  1
  C  C40  1  0.58583900  0.22142300  0.87246600  1
  C  C41  1  0.91416100  0.72142300  0.62753400  1
  C  C42  1  0.41416100  0.77857700  0.37246600  1
  C  C43  1  0.08583900  0.27857700  0.12753400  1
  C  C44  1  0.23373700  0.58761000  0.05585500  1
  C  C45  1  0.26626300  0.08761000  0.44414500  1
  C  C46  1  0.76626300  0.41239000  0.55585500  1
  C  C47  1  0.73373700  0.91239000  0.94414500  1
  C  C48  1  0.76626300  0.41239000  0.94414500  1
  C  C49  1  0.73373700  0.91239000  0.55585500  1
  C  C50  1  0.23373700  0.58761000  0.44414500  1
  C  C51  1  0.26626300  0.08761000  0.05585500  1
  C  C52  1  0.33391800  0.51583100  0.58358100  1
  C  C53  1  0.16608200  0.01583100  0.91641900  1
  C  C54  1  0.66608200  0.48416900  0.08358100  1
  C  C55  1  0.83391800  0.98416900  0.41641900  1
  C  C56  1  0.66608200  0.48416900  0.41641900  1
  C  C57  1  0.83391800  0.98416900  0.08358100  1
  C  C58  1  0.33391800  0.51583100  0.91641900  1
  C  C59  1  0.16608200  0.01583100  0.58358100  1
  C  C60  1  0.16680600  0.82349000  0.01763700  1
  C  C61  1  0.33319400  0.32349000  0.48236300  1
  C  C62  1  0.83319400  0.17651000  0.51763700  1
  C  C63  1  0.66680600  0.67651000  0.98236300  1
  C  C64  1  0.83319400  0.17651000  0.98236300  1
  C  C65  1  0.66680600  0.67651000  0.51763700  1
  C  C66  1  0.16680600  0.82349000  0.48236300  1
  C  C67  1  0.33319400  0.32349000  0.01763700  1
  C  C68  1  0.60538000  0.63716500  0.25000000  1
  C  C69  1  0.89462000  0.13716500  0.25000000  1
  C  C70  1  0.39462000  0.36283500  0.75000000  1
  C  C71  1  0.10538000  0.86283500  0.75000000  1
  C  C72  1  0.99477500  0.90048500  0.25000000  1
  C  C73  1  0.50522500  0.40048500  0.25000000  1
  C  C74  1  0.00522500  0.09951500  0.75000000  1
  C  C75  1  0.49477500  0.59951500  0.75000000  1
