# generated using pymatgen
data_Cu6NiC2
_symmetry_space_group_name_H-M   'P 1'
_cell_length_a   7.33374557
_cell_length_b   7.33374557
_cell_length_c   8.22838339
_cell_angle_alpha   62.82891371
_cell_angle_beta   62.82891371
_cell_angle_gamma   67.17908767
_symmetry_Int_Tables_number   1
_chemical_formula_structural   Cu6NiC2
_chemical_formula_sum   'Cu12 Ni2 C4'
_cell_volume   341.16011099
_cell_formula_units_Z   2
loop_
 _symmetry_equiv_pos_site_id
 _symmetry_equiv_pos_as_xyz
  1  'x, y, z'
loop_
 _atom_site_type_symbol
 _atom_site_label
 _atom_site_symmetry_multiplicity
 _atom_site_fract_x
 _atom_site_fract_y
 _atom_site_fract_z
 _atom_site_occupancy
  Ni  Ni0  1  0.76339700  0.23660300  0.25000000  1
  Ni  Ni1  1  0.23660300  0.76339700  0.75000000  1
  C  C2  1  0.48958200  0.06698100  0.74487700  1
  C  C3  1  0.93301900  0.51041800  0.75512300  1
  C  C4  1  0.51041800  0.93301900  0.25512300  1
  C  C5  1  0.06698100  0.48958200  0.24487700  1
  Cu  Cu6  1  0.62909900  0.09841300  0.53289100  1
  Cu  Cu7  1  0.90158700  0.37090100  0.96710900  1
  Cu  Cu8  1  0.37090100  0.90158700  0.46710900  1
  Cu  Cu9  1  0.09841300  0.62909900  0.03289100  1
  Cu  Cu10  1  0.66607400  0.06647100  0.18838600  1
  Cu  Cu11  1  0.93352900  0.33392600  0.31161400  1
  Cu  Cu12  1  0.33392600  0.93352900  0.81161400  1
  Cu  Cu13  1  0.06647100  0.66607400  0.68838600  1
  Cu  Cu14  1  0.99962200  0.00037800  0.25000000  1
  Cu  Cu15  1  0.00037800  0.99962200  0.75000000  1
  Cu  Cu16  1  0.55877000  0.44123000  0.25000000  1
  Cu  Cu17  1  0.44123000  0.55877000  0.75000000  1
