# generated using pymatgen
data_Cu3C2
_symmetry_space_group_name_H-M   'P 1'
_cell_length_a   5.59156530
_cell_length_b   6.85409453
_cell_length_c   8.85595721
_cell_angle_alpha   104.89346458
_cell_angle_beta   71.56536654
_cell_angle_gamma   89.92689525
_symmetry_Int_Tables_number   1
_chemical_formula_structural   Cu3C2
_chemical_formula_sum   'Cu15 C10'
_cell_volume   309.90791741
_cell_formula_units_Z   5
loop_
 _symmetry_equiv_pos_site_id
 _symmetry_equiv_pos_as_xyz
  1  'x, y, z'
loop_
 _atom_site_type_symbol
 _atom_site_label
 _atom_site_symmetry_multiplicity
 _atom_site_fract_x
 _atom_site_fract_y
 _atom_site_fract_z
 _atom_site_occupancy
  C  C0  1  0.60000000  0.59996900  0.79999500  1
  C  C1  1  0.20621500  0.20333900  0.58691900  1
  C  C2  1  0.99375700  0.99669000  0.01308100  1
  C  C3  1  0.39507000  0.40902800  0.20968700  1
  C  C4  1  0.80489600  0.79097700  0.39031100  1
  C  C5  1  0.99940100  0.50798500  0.00155900  1
  C  C6  1  0.20060500  0.69201300  0.59842700  1
  C  C7  1  0.39726000  0.89902600  0.20541300  1
  C  C8  1  0.80271900  0.30098100  0.39459600  1
  C  C9  1  0.60001200  0.09996800  0.79999300  1
  Cu  Cu10  1  0.10655365  0.59731344  0.78177823  1
  Cu  Cu11  1  0.12313062  0.10614446  0.26903438  1
  Cu  Cu12  1  0.58139833  0.14368280  0.31818458  1
  Cu  Cu13  1  0.65819133  0.17338275  0.60944613  1
  Cu  Cu14  1  0.49546827  0.03074474  0.01441973  1
  Cu  Cu15  1  0.87837309  0.41098248  0.22034636  1
  Cu  Cu16  1  0.28298018  0.82100558  0.43050377  1
  Cu  Cu17  1  0.46753440  0.51033285  0.52168284  1
  Cu  Cu18  1  0.68041696  0.72728606  0.11577843  1
  Cu  Cu19  1  0.97565889  0.45822372  0.51608065  1
  Cu  Cu20  1  0.20465889  0.70025269  0.09283819  1
  Cu  Cu21  1  0.89329570  0.90598070  0.72286482  1
  Cu  Cu22  1  0.29475840  0.28565690  0.90974036  1
  Cu  Cu23  1  0.41285719  0.90894753  0.70702867  1
  Cu  Cu24  1  0.80474647  0.27708028  0.87422731  1
