# generated using pymatgen
data_Cu3NiC8
_symmetry_space_group_name_H-M   'P 1'
_cell_length_a   3.47997900
_cell_length_b   6.30456900
_cell_length_c   10.29145700
_cell_angle_alpha   90.00000000
_cell_angle_beta   90.00000000
_cell_angle_gamma   90.00000000
_symmetry_Int_Tables_number   1
_chemical_formula_structural   Cu3NiC8
_chemical_formula_sum   'Cu3 Ni1 C8'
_cell_volume   225.79217612
_cell_formula_units_Z   1
loop_
 _symmetry_equiv_pos_site_id
 _symmetry_equiv_pos_as_xyz
  1  'x, y, z'
loop_
 _atom_site_type_symbol
 _atom_site_label
 _atom_site_symmetry_multiplicity
 _atom_site_fract_x
 _atom_site_fract_y
 _atom_site_fract_z
 _atom_site_occupancy
  C  C0  1  0.25000000  0.07755700  0.66448700  1
  C  C1  1  0.25000000  0.42244300  0.16448700  1
  C  C2  1  0.75000000  0.92244300  0.33551300  1
  C  C3  1  0.75000000  0.57755700  0.83551300  1
  Cu  Cu4  1  0.21931680  0.57469526  0.54101957  1
  Cu  Cu5  1  0.22828685  0.86210441  0.04006279  1
  Cu  Cu6  1  0.81667187  0.39168972  0.44489737  1
  Ni  Ni7  1  0.75000000  0.10036200  0.95648800  1
  C  C8  1  0.25000000  0.15255700  0.93582900  1
  C  C9  1  0.25000000  0.34744300  0.43582900  1
  C  C10  1  0.75000000  0.84744300  0.06417100  1
  C  C11  1  0.75000000  0.65255700  0.56417100  1
