# generated using pymatgen
data_CuNiC5
_symmetry_space_group_name_H-M   'P 1'
_cell_length_a   7.04988349
_cell_length_b   7.04988349
_cell_length_c   9.43876439
_cell_angle_alpha   54.26651330
_cell_angle_beta   54.26651330
_cell_angle_gamma   25.45265267
_symmetry_Int_Tables_number   1
_chemical_formula_structural   CuNiC5
_chemical_formula_sum   'Cu2 Ni2 C10'
_cell_volume   161.47985595
_cell_formula_units_Z   2
loop_
 _symmetry_equiv_pos_site_id
 _symmetry_equiv_pos_as_xyz
  1  'x, y, z'
loop_
 _atom_site_type_symbol
 _atom_site_label
 _atom_site_symmetry_multiplicity
 _atom_site_fract_x
 _atom_site_fract_y
 _atom_site_fract_z
 _atom_site_occupancy
  C  C0  1  0.65188900  0.65188900  0.83436400  1
  C  C1  1  0.34811100  0.34811100  0.16563600  1
  Cu  Cu2  1  0.35875872  0.38024439  0.82272352  1
  Cu  Cu3  1  0.84372266  0.87930912  0.48479686  1
  Ni  Ni4  1  0.13960400  0.13960400  0.52866200  1
  Ni  Ni5  1  0.63749000  0.63749000  0.17715500  1
  C  C6  1  0.13437000  0.13437000  0.31295000  1
  C  C7  1  0.54097100  0.54097100  0.69245900  1
  C  C8  1  0.45902900  0.45902900  0.30754100  1
  C  C9  1  0.86563000  0.86563000  0.68705000  1
  C  C10  1  0.83680100  0.83680100  0.99519300  1
  C  C11  1  0.23821100  0.23821100  0.62000100  1
  C  C12  1  0.16319900  0.16319900  0.00480700  1
  C  C13  1  0.76178900  0.76178900  0.37999900  1
