# generated using pymatgen
data_Cu2C9
_symmetry_space_group_name_H-M   'P 1'
_cell_length_a   9.77924900
_cell_length_b   9.79398043
_cell_length_c   14.23851213
_cell_angle_alpha   89.95442337
_cell_angle_beta   90.72042774
_cell_angle_gamma   119.85566548
_symmetry_Int_Tables_number   1
_chemical_formula_structural   Cu2C9
_chemical_formula_sum   'Cu16 C72'
_cell_volume   1182.62439194
_cell_formula_units_Z   8
loop_
 _symmetry_equiv_pos_site_id
 _symmetry_equiv_pos_as_xyz
  1  'x, y, z'
loop_
 _atom_site_type_symbol
 _atom_site_label
 _atom_site_symmetry_multiplicity
 _atom_site_fract_x
 _atom_site_fract_y
 _atom_site_fract_z
 _atom_site_occupancy
  C  C0  1  0.77321700  0.08997400  0.06082500  1
  C  C1  1  0.32041200  0.22723900  0.06561200  1
  C  C2  1  0.67133100  0.90476900  0.44084900  1
  C  C3  1  0.32638800  0.09450600  0.55660100  1
  C  C4  1  0.69112900  0.77345100  0.93749600  1
  C  C5  1  0.22291100  0.90778500  0.94668300  1
  C  C6  1  0.09402800  0.32355000  0.94187000  1
  C  C7  1  0.00190000  0.00614100  0.49270900  1
  C  C8  1  0.56758000  0.00056300  0.25056500  1
  C  C9  1  0.43124600  0.99804700  0.75141100  1
  C  C10  1  0.56784800  0.56257600  0.74526200  1
  C  C11  1  0.43404000  0.44109700  0.25580600  1
  C  C12  1  0.99968000  0.56513600  0.25522600  1
  C  C13  1  0.99854900  0.43861900  0.74120100  1
  Cu  Cu14  1  0.93109037  0.70716724  0.84700914  1
  Cu  Cu15  1  0.79837481  0.70019308  0.31374967  1
  Cu  Cu16  1  0.90213655  0.21147631  0.33220070  1
  Cu  Cu17  1  0.66954338  0.34197082  0.13628649  1
  Cu  Cu18  1  0.65014394  0.31875043  0.63059685  1
  Cu  Cu19  1  0.77319802  0.10154880  0.84032762  1
  Cu  Cu20  1  0.70528866  0.94609441  0.65883113  1
  Cu  Cu21  1  0.31216388  0.21413719  0.85050353  1
  Cu  Cu22  1  0.68747389  0.76544080  0.16642336  1
  Cu  Cu23  1  0.28757771  0.07230298  0.32476940  1
  Cu  Cu24  1  0.22863814  0.91514659  0.15914260  1
  Cu  Cu25  1  0.33240314  0.66021154  0.37714066  1
  Cu  Cu26  1  0.33777844  0.66567402  0.86658169  1
  Cu  Cu27  1  0.07098542  0.76643345  0.66385062  1
  Cu  Cu28  1  0.24218223  0.32651264  0.65041379  1
  Cu  Cu29  1  0.05288055  0.31921558  0.14437351  1
  C  C30  1  0.00414400  0.79513700  0.56939400  1
  C  C31  1  0.91501200  0.65649200  0.33536700  1
  C  C32  1  0.74228600  0.75431700  0.06168000  1
  C  C33  1  0.74530000  0.65918000  0.83799700  1
  C  C34  1  0.91114100  0.52763500  0.81939700  1
  C  C35  1  0.81516900  0.47413600  0.18369900  1
  C  C36  1  0.92512400  0.38276000  0.33190000  1
  C  C37  1  0.00175300  0.24309300  0.06786300  1
  C  C38  1  0.91977000  0.25988900  0.83720200  1
  C  C39  1  0.66873600  0.48151100  0.67786700  1
  C  C40  1  0.61938600  0.53889700  0.32841700  1
  C  C41  1  0.81092600  0.32960500  0.67517400  1
  C  C42  1  0.66805200  0.33770100  0.02891600  1
  C  C43  1  0.66793700  0.34274200  0.52591500  1
  C  C44  1  0.66804600  0.18192000  0.16903300  1
  C  C45  1  0.47983000  0.38158000  0.82317400  1
  C  C46  1  0.51751400  0.33620000  0.17342100  1
  C  C47  1  0.74382400  0.08618100  0.33571600  1
  C  C48  1  0.79566400  0.00549400  0.74815100  1
  C  C49  1  0.76771900  0.97553500  0.56868800  1
  C  C50  1  0.76200700  0.00467700  0.92636800  1
  C  C51  1  0.62074300  0.10104600  0.81953000  1
  C  C52  1  0.50957400  0.18592800  0.66643100  1
  C  C53  1  0.66297900  0.91676500  0.16051100  1
  C  C54  1  0.46971100  0.08936800  0.33101100  1
  C  C55  1  0.34638800  0.26223300  0.32690600  1
  C  C56  1  0.79866600  0.78502000  0.23744700  1
  C  C57  1  0.79346300  0.80175000  0.41485500  1
  C  C58  1  0.20830700  0.20165800  0.58382600  1
  C  C59  1  0.65602600  0.74006800  0.67312000  1
  C  C60  1  0.52858400  0.90990100  0.67114600  1
  C  C61  1  0.33618200  0.08392500  0.84372800  1
  C  C62  1  0.48896000  0.81310200  0.33523000  1
  C  C63  1  0.37907500  0.90041100  0.18124000  1
  C  C64  1  0.23640000  0.99443800  0.07505400  1
  C  C65  1  0.22905400  0.02660200  0.43098900  1
  C  C66  1  0.20416300  0.99777000  0.25196300  1
  C  C67  1  0.25517700  0.91503300  0.66586000  1
  C  C68  1  0.48166300  0.66253100  0.82381800  1
  C  C69  1  0.52032300  0.61888400  0.17896700  1
  C  C70  1  0.33105600  0.81408300  0.83152700  1
  C  C71  1  0.33263200  0.65242000  0.97068800  1
  C  C72  1  0.33137100  0.65581400  0.47522200  1
  C  C73  1  0.18841000  0.66937100  0.32519400  1
  C  C74  1  0.38210100  0.46245100  0.67195600  1
  C  C75  1  0.33067100  0.51755700  0.32330900  1
  C  C76  1  0.08219200  0.73946900  0.16833700  1
  C  C77  1  0.99650500  0.79300600  0.74825300  1
  C  C78  1  0.00661100  0.76982700  0.92522000  1
  C  C79  1  0.08038500  0.61860900  0.66906300  1
  C  C80  1  0.18274600  0.51587800  0.82127500  1
  C  C81  1  0.09315500  0.47607100  0.17858600  1
  C  C82  1  0.25438700  0.33942200  0.16111500  1
  C  C83  1  0.25088700  0.24939500  0.93617100  1
  C  C84  1  0.20234800  0.21439700  0.76130000  1
  C  C85  1  0.08597900  0.34484700  0.66564700  1
  C  C86  1  0.00024700  0.19812400  0.42370800  1
  C  C87  1  0.99340500  0.20292300  0.24387700  1
