# generated using pymatgen
data_Cu12NiC6
_symmetry_space_group_name_H-M   'P 1'
_cell_length_a   5.41281461
_cell_length_b   5.41281461
_cell_length_c   29.20976978
_cell_angle_alpha   88.71836366
_cell_angle_beta   88.71836366
_cell_angle_gamma   118.84089343
_symmetry_Int_Tables_number   1
_chemical_formula_structural   Cu12NiC6
_chemical_formula_sum   'Cu24 Ni2 C12'
_cell_volume   748.92764418
_cell_formula_units_Z   2
loop_
 _symmetry_equiv_pos_site_id
 _symmetry_equiv_pos_as_xyz
  1  'x, y, z'
loop_
 _atom_site_type_symbol
 _atom_site_label
 _atom_site_symmetry_multiplicity
 _atom_site_fract_x
 _atom_site_fract_y
 _atom_site_fract_z
 _atom_site_occupancy
  C  C0  1  0.49179800  0.99914200  0.49954300  1
  C  C1  1  0.99914200  0.49179800  0.99954300  1
  C  C2  1  0.18423800  0.35871900  0.49954100  1
  C  C3  1  0.35871900  0.18423800  0.99954100  1
  C  C4  1  0.82114800  0.64682500  0.50037900  1
  C  C5  1  0.64682500  0.82114800  0.00037900  1
  Ni  Ni6  1  0.29269600  0.80667700  0.09573400  1
  Ni  Ni7  1  0.80667700  0.29269600  0.59573400  1
  C  C8  1  0.19648500  0.69952700  0.40392900  1
  C  C9  1  0.69952700  0.19648500  0.90392900  1
  C  C10  1  0.53108900  0.36396400  0.40407700  1
  C  C11  1  0.36396400  0.53108900  0.90407700  1
  C  C12  1  0.63574300  0.46784600  0.09559200  1
  C  C13  1  0.46784600  0.63574300  0.59559200  1
  Cu  Cu14  1  0.86788900  0.53734600  0.38676200  1
  Cu  Cu15  1  0.53734600  0.86788900  0.88676200  1
  Cu  Cu16  1  0.46836200  0.14623800  0.11560500  1
  Cu  Cu17  1  0.14623800  0.46836200  0.61560500  1
  Cu  Cu18  1  0.86438300  0.02117400  0.47217100  1
  Cu  Cu19  1  0.02117400  0.86438300  0.97217100  1
  Cu  Cu20  1  0.98767200  0.13571700  0.03004200  1
  Cu  Cu21  1  0.13571700  0.98767200  0.53004200  1
  Cu  Cu22  1  0.94705200  0.62184600  0.11632300  1
  Cu  Cu23  1  0.62184600  0.94705200  0.61632300  1
  Cu  Cu24  1  0.36950100  0.03568900  0.38646500  1
  Cu  Cu25  1  0.03568900  0.36950100  0.88646500  1
  Cu  Cu26  1  0.31227700  0.81713000  0.03413300  1
  Cu  Cu27  1  0.81713000  0.31227700  0.53413300  1
  Cu  Cu28  1  0.18537400  0.68536300  0.46065600  1
  Cu  Cu29  1  0.68536300  0.18537400  0.96065600  1
  Cu  Cu30  1  0.46822200  0.62776500  0.11430600  1
  Cu  Cu31  1  0.62776500  0.46822200  0.61430600  1
  Cu  Cu32  1  0.36773400  0.53565600  0.38578400  1
  Cu  Cu33  1  0.53565600  0.36773400  0.88578400  1
  Cu  Cu34  1  0.51592300  0.35050100  0.46056500  1
  Cu  Cu35  1  0.35050100  0.51592300  0.96056500  1
  Cu  Cu36  1  0.65417100  0.48071800  0.03859200  1
  Cu  Cu37  1  0.48071900  0.65417100  0.53859200  1
