# generated using pymatgen
data_CuC7
_symmetry_space_group_name_H-M   'P 1'
_cell_length_a   4.91201800
_cell_length_b   6.06147200
_cell_length_c   10.73625700
_cell_angle_alpha   90.00000000
_cell_angle_beta   90.00000000
_cell_angle_gamma   90.00000000
_symmetry_Int_Tables_number   1
_chemical_formula_structural   CuC7
_chemical_formula_sum   'Cu2 C14'
_cell_volume   319.66195548
_cell_formula_units_Z   2
loop_
 _symmetry_equiv_pos_site_id
 _symmetry_equiv_pos_as_xyz
  1  'x, y, z'
loop_
 _atom_site_type_symbol
 _atom_site_label
 _atom_site_symmetry_multiplicity
 _atom_site_fract_x
 _atom_site_fract_y
 _atom_site_fract_z
 _atom_site_occupancy
  C  C0  1  0.50000000  0.25055700  0.41680300  1
  C  C1  1  0.50000000  0.74944300  0.41680300  1
  C  C2  1  0.00000000  0.74798800  0.08569500  1
  C  C3  1  0.00000000  0.25201200  0.08569500  1
  C  C4  1  0.00000000  0.00000000  0.33029500  1
  C  C5  1  0.00000000  0.50000000  0.32899600  1
  C  C6  1  0.50000000  0.75055700  0.91680300  1
  C  C7  1  0.50000000  0.24944300  0.91680300  1
  C  C8  1  0.00000000  0.24798800  0.58569500  1
  C  C9  1  0.00000000  0.75201200  0.58569500  1
  C  C10  1  0.00000000  0.50000000  0.83029500  1
  C  C11  1  0.00000000  0.00000000  0.82899600  1
  Cu  Cu12  1  0.51810281  0.49048860  0.16137690  1
  Cu  Cu13  1  0.54922105  0.98954114  0.67812092  1
  C  C14  1  0.50000000  0.00000000  0.16833600  1
  C  C15  1  0.50000000  0.50000000  0.66833600  1
