# generated using pymatgen
data_Cu3NiC8
_symmetry_space_group_name_H-M   'P 1'
_cell_length_a   4.72007000
_cell_length_b   7.88123300
_cell_length_c   8.81831500
_cell_angle_alpha   90.00000000
_cell_angle_beta   90.00000000
_cell_angle_gamma   90.00000000
_symmetry_Int_Tables_number   1
_chemical_formula_structural   Cu3NiC8
_chemical_formula_sum   'Cu3 Ni1 C8'
_cell_volume   328.04106620
_cell_formula_units_Z   1
loop_
 _symmetry_equiv_pos_site_id
 _symmetry_equiv_pos_as_xyz
  1  'x, y, z'
loop_
 _atom_site_type_symbol
 _atom_site_label
 _atom_site_symmetry_multiplicity
 _atom_site_fract_x
 _atom_site_fract_y
 _atom_site_fract_z
 _atom_site_occupancy
  C  C0  1  0.75000000  0.48080400  0.68409600  1
  C  C1  1  0.75000000  0.98080400  0.81590400  1
  C  C2  1  0.25000000  0.51919600  0.31590400  1
  C  C3  1  0.25000000  0.01919600  0.18409600  1
  Cu  Cu4  1  0.75519451  0.85778407  0.43827091  1
  Cu  Cu5  1  0.20770946  0.13281483  0.57225231  1
  Ni  Ni6  1  0.25000000  0.64435700  0.93673100  1
  Cu  Cu7  1  0.76344213  0.34911685  0.06823317  1
  C  C8  1  0.75000000  0.73503900  0.11552200  1
  C  C9  1  0.25000000  0.26496100  0.88447800  1
  C  C10  1  0.75000000  0.23503900  0.38447800  1
  C  C11  1  0.25000000  0.76496100  0.61552200  1
