# generated using pymatgen
data_Cu4C11
_symmetry_space_group_name_H-M   'P 1'
_cell_length_a   15.15657800
_cell_length_b   8.73486300
_cell_length_c   11.81185546
_cell_angle_alpha   86.53193067
_cell_angle_beta   90.00000000
_cell_angle_gamma   90.00000000
_symmetry_Int_Tables_number   1
_chemical_formula_structural   Cu4C11
_chemical_formula_sum   'Cu16 C44'
_cell_volume   1560.91521125
_cell_formula_units_Z   4
loop_
 _symmetry_equiv_pos_site_id
 _symmetry_equiv_pos_as_xyz
  1  'x, y, z'
loop_
 _atom_site_type_symbol
 _atom_site_label
 _atom_site_symmetry_multiplicity
 _atom_site_fract_x
 _atom_site_fract_y
 _atom_site_fract_z
 _atom_site_occupancy
  C  C0  1  0.09578400  0.27130200  0.75406200  1
  C  C1  1  0.59578400  0.72869800  0.74593800  1
  C  C2  1  0.90421600  0.72869800  0.24593800  1
  C  C3  1  0.40421600  0.27130200  0.25406200  1
  C  C4  1  0.39607300  0.32069100  0.72768400  1
  C  C5  1  0.89607300  0.67930900  0.77231600  1
  C  C6  1  0.60392700  0.67930900  0.27231600  1
  C  C7  1  0.10392700  0.32069100  0.22768400  1
  C  C8  1  0.46315500  0.31051500  0.61457300  1
  C  C9  1  0.96315500  0.68948500  0.88542700  1
  C  C10  1  0.53684500  0.68948500  0.38542700  1
  C  C11  1  0.03684500  0.31051500  0.11457300  1
  C  C12  1  0.36446200  0.29228500  0.60925000  1
  C  C13  1  0.86446200  0.70771500  0.89075000  1
  C  C14  1  0.63553800  0.70771500  0.39075000  1
  C  C15  1  0.13553800  0.29228500  0.10925000  1
  C  C16  1  0.35126800  0.12933300  0.62044300  1
  C  C17  1  0.85126800  0.87066700  0.87955700  1
  C  C18  1  0.64873200  0.87066700  0.37955700  1
  C  C19  1  0.14873200  0.12933300  0.12044300  1
  C  C20  1  0.73281200  0.30302100  0.96207700  1
  C  C21  1  0.23281200  0.69697900  0.53792300  1
  C  C22  1  0.26718800  0.69697900  0.03792300  1
  C  C23  1  0.76718800  0.30302100  0.46207700  1
  C  C24  1  0.61715800  0.26280800  0.93092600  1
  C  C25  1  0.11715800  0.73719200  0.56907400  1
  C  C26  1  0.38284200  0.73719200  0.06907400  1
  C  C27  1  0.88284200  0.26280800  0.43092600  1
  C  C28  1  0.65257000  0.35533000  0.02312500  1
  C  C29  1  0.15257000  0.64467000  0.47687500  1
  C  C30  1  0.34743000  0.64467000  0.97687500  1
  C  C31  1  0.84743000  0.35533000  0.52312500  1
  C  C32  1  0.66566400  0.19281000  0.06687200  1
  C  C33  1  0.16566400  0.80719000  0.43312800  1
  C  C34  1  0.33433600  0.80719000  0.93312800  1
  C  C35  1  0.83433600  0.19281000  0.56687200  1
  Cu  Cu36  1  0.09352698  0.23616713  0.55867559  1
  Cu  Cu37  1  0.59440475  0.73643041  0.92290215  1
  Cu  Cu38  1  0.90854993  0.76735831  0.41297353  1
  Cu  Cu39  1  0.38931095  0.22431259  0.06632240  1
  Cu  Cu40  1  0.97787141  0.34779197  0.84343107  1
  Cu  Cu41  1  0.46920810  0.70785265  0.69137976  1
  Cu  Cu42  1  0.04809439  0.68620433  0.19860910  1
  Cu  Cu43  1  0.54640939  0.33022755  0.32262220  1
  Cu  Cu44  1  0.16078388  0.04419373  0.81518455  1
  Cu  Cu45  1  0.63942635  0.94259696  0.67690552  1
  Cu  Cu46  1  0.84112815  0.94641123  0.17200145  1
  Cu  Cu47  1  0.33871221  0.04941747  0.32605479  1
  Cu  Cu48  1  0.18748126  0.48294439  0.79604460  1
  Cu  Cu49  1  0.67249789  0.52776274  0.69014700  1
  Cu  Cu50  1  0.84362962  0.51113823  0.20327505  1
  Cu  Cu51  1  0.34397951  0.51494897  0.30068658  1
  C  C52  1  0.42855800  0.16544800  0.68423400  1
  C  C53  1  0.92855800  0.83455200  0.81576600  1
  C  C54  1  0.57144200  0.83455200  0.31576600  1
  C  C55  1  0.07144200  0.16544800  0.18423400  1
  C  C56  1  0.68988500  0.15148000  0.95071200  1
  C  C57  1  0.18988500  0.84852000  0.54928800  1
  C  C58  1  0.31011500  0.84852000  0.04928800  1
  C  C59  1  0.81011500  0.15148000  0.45071200  1
