# generated using pymatgen
data_CuNi2C
_symmetry_space_group_name_H-M   'P 1'
_cell_length_a   5.11554841
_cell_length_b   5.11554841
_cell_length_c   8.62439983
_cell_angle_alpha   72.74804562
_cell_angle_beta   72.74804562
_cell_angle_gamma   59.99999465
_symmetry_Int_Tables_number   1
_chemical_formula_structural   CuNi2C
_chemical_formula_sum   'Cu3 Ni6 C3'
_cell_volume   183.63548715
_cell_formula_units_Z   3
loop_
 _symmetry_equiv_pos_site_id
 _symmetry_equiv_pos_as_xyz
  1  'x, y, z'
loop_
 _atom_site_type_symbol
 _atom_site_label
 _atom_site_symmetry_multiplicity
 _atom_site_fract_x
 _atom_site_fract_y
 _atom_site_fract_z
 _atom_site_occupancy
  C  C0  1  0.14168900  0.14168900  0.57493300  1
  C  C1  1  0.85831100  0.85831100  0.42506700  1
  C  C2  1  0.00000000  0.00000000  0.00000000  1
  Ni  Ni3  1  0.08273700  0.58056900  0.75612500  1
  Ni  Ni4  1  0.58056900  0.58056900  0.75612500  1
  Cu  Cu5  1  0.55246858  0.07672736  0.75947080  1
  Ni  Ni6  1  0.91726300  0.41943100  0.24387500  1
  Ni  Ni7  1  0.41943100  0.41943100  0.24387500  1
  Ni  Ni8  1  0.41943100  0.91726300  0.24387500  1
  Ni  Ni9  1  0.33286100  0.33286100  0.00141600  1
  Cu  Cu10  1  0.60618552  0.69203012  0.99520009  1
  Cu  Cu11  1  0.54149046  0.43577948  0.51253823  1
