# generated using pymatgen
data_CuC4
_symmetry_space_group_name_H-M   'P 1'
_cell_length_a   7.94165768
_cell_length_b   7.94165768
_cell_length_c   7.94165768
_cell_angle_alpha   60.00000000
_cell_angle_beta   60.00000000
_cell_angle_gamma   60.00000000
_symmetry_Int_Tables_number   1
_chemical_formula_structural   CuC4
_chemical_formula_sum   'Cu2 C8'
_cell_volume   354.17548049
_cell_formula_units_Z   2
loop_
 _symmetry_equiv_pos_site_id
 _symmetry_equiv_pos_as_xyz
  1  'x, y, z'
loop_
 _atom_site_type_symbol
 _atom_site_label
 _atom_site_symmetry_multiplicity
 _atom_site_fract_x
 _atom_site_fract_y
 _atom_site_fract_z
 _atom_site_occupancy
  Cu  Cu0  1  0.74239527  0.78248894  0.72209596  1
  Cu  Cu1  1  0.25072307  0.24520559  0.23764305  1
  C  C2  1  0.50000000  0.50000000  0.50000000  1
  C  C3  1  0.00000000  0.00000000  0.00000000  1
  C  C4  1  0.75781500  0.24218500  0.24218500  1
  C  C5  1  0.24218500  0.24218500  0.75781500  1
  C  C6  1  0.24218500  0.75781500  0.75781500  1
  C  C7  1  0.24218500  0.75781500  0.24218500  1
  C  C8  1  0.75781500  0.24218500  0.75781500  1
  C  C9  1  0.75781500  0.75781500  0.24218500  1
