# generated using pymatgen
data_Cu6Ni9C10
_symmetry_space_group_name_H-M   'P 1'
_cell_length_a   5.58313800
_cell_length_b   12.52827421
_cell_length_c   9.67717955
_cell_angle_alpha   97.24303101
_cell_angle_beta   106.78181927
_cell_angle_gamma   102.87975701
_symmetry_Int_Tables_number   1
_chemical_formula_structural   Cu6Ni9C10
_chemical_formula_sum   'Cu12 Ni18 C20'
_cell_volume   618.46638279
_cell_formula_units_Z   2
loop_
 _symmetry_equiv_pos_site_id
 _symmetry_equiv_pos_as_xyz
  1  'x, y, z'
loop_
 _atom_site_type_symbol
 _atom_site_label
 _atom_site_symmetry_multiplicity
 _atom_site_fract_x
 _atom_site_fract_y
 _atom_site_fract_z
 _atom_site_occupancy
  C  C0  1  0.37070400  0.17311900  0.56723900  1
  C  C1  1  0.16874500  0.56603900  0.76849300  1
  C  C2  1  0.51506500  0.11414100  0.91320500  1
  C  C3  1  0.30965500  0.50801400  0.10863300  1
  C  C4  1  0.10319900  0.90526700  0.30450500  1
  C  C5  1  0.90475700  0.30698700  0.50770700  1
  C  C6  1  0.71236000  0.71125300  0.71085400  1
  C  C7  1  0.60668300  0.40775100  0.80801200  1
  C  C8  1  0.40456600  0.80590800  0.00818600  1
  C  C9  1  0.20595900  0.20699300  0.20850300  1
  C  C10  1  0.01253700  0.61318100  0.40922700  1
  C  C11  1  0.81450500  0.01041700  0.61095300  1
  C  C12  1  0.08522800  0.28690000  0.89002500  1
  C  C13  1  0.87607500  0.68357700  0.08078700  1
  C  C14  1  0.68278200  0.08562700  0.28214600  1
  C  C15  1  0.48590600  0.48296600  0.48099000  1
  C  C16  1  0.29176900  0.88410400  0.68948500  1
  C  C17  1  0.99065100  0.98357000  0.98985500  1
  C  C18  1  0.78827000  0.38717800  0.18852300  1
  C  C19  1  0.58342300  0.78836000  0.38223200  1
  Cu  Cu20  1  0.36111196  0.94118546  0.93823816  1
  Ni  Ni21  1  0.78056700  0.15189700  0.54090300  1
  Cu  Cu22  1  0.56442664  0.53974957  0.74126932  1
  Cu  Cu23  1  0.19050864  0.34047085  0.15267207  1
  Ni  Ni24  1  0.97091000  0.75165400  0.33640400  1
  Ni  Ni25  1  0.19412000  0.05973000  0.71742200  1
  Cu  Cu26  1  0.55694657  0.24922241  0.32226604  1
  Cu  Cu27  1  0.35852021  0.65690420  0.52139174  1
  Ni  Ni28  1  0.99392700  0.45906300  0.92487100  1
  Ni  Ni29  1  0.79245000  0.85924100  0.12236800  1
  Ni  Ni30  1  0.68086600  0.03004400  0.77884200  1
  Cu  Cu31  1  0.10059009  0.23254778  0.39046141  1
  Ni  Ni32  1  0.87761100  0.62865500  0.57630000  1
  Ni  Ni33  1  0.47592400  0.43293600  0.98059800  1
  Cu  Cu34  1  0.29885071  0.83767371  0.18023113  1
  Ni  Ni35  1  0.49725500  0.76205800  0.82201300  1
  Ni  Ni36  1  0.89448900  0.96154100  0.41595700  1
  Cu  Cu37  1  0.70945136  0.36997949  0.61144465  1
  Ni  Ni38  1  0.29385400  0.15904400  0.02890000  1
  Ni  Ni39  1  0.08903900  0.55540300  0.21788300  1
  Cu  Cu40  1  0.82378435  0.84875917  0.62905093  1
  Ni  Ni41  1  0.21616400  0.05106900  0.24533200  1
  Cu  Cu42  1  0.01548802  0.44051081  0.44153872  1
  Ni  Ni43  1  0.61602400  0.25207100  0.84424200  1
  Ni  Ni44  1  0.42367300  0.64887000  0.04730100  1
  Ni  Ni45  1  0.42351500  0.93415700  0.47602500  1
  Cu  Cu46  1  0.84470351  0.13142225  0.09072428  1
  Ni  Ni47  1  0.62538500  0.52940600  0.27643800  1
  Cu  Cu48  1  0.24019173  0.34880966  0.68653243  1
  Ni  Ni49  1  0.02959000  0.73153600  0.87975200  1
