# generated using pymatgen
data_Cu3Ni2C11
_symmetry_space_group_name_H-M   'P 1'
_cell_length_a   10.06509600
_cell_length_b   5.26818900
_cell_length_c   7.55524128
_cell_angle_alpha   70.62909037
_cell_angle_beta   90.00000000
_cell_angle_gamma   90.00000000
_symmetry_Int_Tables_number   1
_chemical_formula_structural   Cu3Ni2C11
_chemical_formula_sum   'Cu6 Ni4 C22'
_cell_volume   377.93700698
_cell_formula_units_Z   2
loop_
 _symmetry_equiv_pos_site_id
 _symmetry_equiv_pos_as_xyz
  1  'x, y, z'
loop_
 _atom_site_type_symbol
 _atom_site_label
 _atom_site_symmetry_multiplicity
 _atom_site_fract_x
 _atom_site_fract_y
 _atom_site_fract_z
 _atom_site_occupancy
  C  C0  1  0.75000000  0.95851400  0.65296500  1
  C  C1  1  0.25000000  0.04148600  0.34703500  1
  Cu  Cu2  1  0.43133141  0.04414555  0.67891373  1
  Cu  Cu3  1  0.06322614  0.06990541  0.65459625  1
  Cu  Cu4  1  0.93524607  0.97687858  0.32298683  1
  Ni  Ni5  1  0.56116400  0.95495000  0.32109400  1
  Cu  Cu6  1  0.42624865  0.53232769  0.17460866  1
  Cu  Cu7  1  0.06320513  0.53384111  0.17184571  1
  Ni  Ni8  1  0.75000000  0.45582100  0.15383700  1
  Cu  Cu9  1  0.24052206  0.51487421  0.83781965  1
  Ni  Ni10  1  0.56399200  0.45393800  0.81637400  1
  Ni  Ni11  1  0.93600800  0.45393800  0.81637400  1
  C  C12  1  0.61210600  0.18241100  0.72829300  1
  C  C13  1  0.88789400  0.18241100  0.72829300  1
  C  C14  1  0.06777000  0.21893500  0.40433900  1
  C  C15  1  0.43223000  0.21893500  0.40433900  1
  C  C16  1  0.25000000  0.90358100  0.64344900  1
  C  C17  1  0.75000000  0.09641900  0.35655100  1
  C  C18  1  0.56777000  0.78106500  0.59566100  1
  C  C19  1  0.93223000  0.78106500  0.59566100  1
  C  C20  1  0.38789400  0.81758900  0.27170700  1
  C  C21  1  0.11210600  0.81758900  0.27170700  1
  C  C22  1  0.61906300  0.67709500  0.22487000  1
  C  C23  1  0.88093700  0.67709500  0.22487000  1
  C  C24  1  0.06971400  0.71459700  0.90654700  1
  C  C25  1  0.43028600  0.71459700  0.90654700  1
  C  C26  1  0.25000000  0.41585600  0.12804300  1
  C  C27  1  0.75000000  0.58414400  0.87195700  1
  C  C28  1  0.93028600  0.28540300  0.09345300  1
  C  C29  1  0.56971400  0.28540300  0.09345300  1
  C  C30  1  0.38093700  0.32290500  0.77513000  1
  C  C31  1  0.11906300  0.32290500  0.77513000  1
