# generated using pymatgen
data_Cu15NiC16
_symmetry_space_group_name_H-M   'P 1'
_cell_length_a   6.33912300
_cell_length_b   7.37291262
_cell_length_c   7.37015738
_cell_angle_alpha   85.61398669
_cell_angle_beta   89.99953914
_cell_angle_gamma   89.99802836
_symmetry_Int_Tables_number   1
_chemical_formula_structural   Cu15NiC16
_chemical_formula_sum   'Cu15 Ni1 C16'
_cell_volume   343.45615867
_cell_formula_units_Z   1
loop_
 _symmetry_equiv_pos_site_id
 _symmetry_equiv_pos_as_xyz
  1  'x, y, z'
loop_
 _atom_site_type_symbol
 _atom_site_label
 _atom_site_symmetry_multiplicity
 _atom_site_fract_x
 _atom_site_fract_y
 _atom_site_fract_z
 _atom_site_occupancy
  C  C0  1  0.75032400  0.36287700  0.30540000  1
  C  C1  1  0.75032300  0.86288200  0.80538400  1
  C  C2  1  0.74969900  0.44456700  0.88713800  1
  C  C3  1  0.74968500  0.94457800  0.38712000  1
  C  C4  1  0.25030100  0.44457000  0.88713300  1
  C  C5  1  0.25031200  0.94455800  0.38713400  1
  C  C6  1  0.24968000  0.36289100  0.30541200  1
  C  C7  1  0.24969300  0.86287900  0.80540400  1
  C  C8  1  0.49998100  0.61720700  0.55370500  1
  C  C9  1  0.99997100  0.19635600  0.63259400  1
  C  C10  1  0.49992400  0.11729000  0.05360500  1
  C  C11  1  0.00007300  0.69626400  0.13248400  1
  C  C12  1  0.00001000  0.10986900  0.06046500  1
  C  C13  1  0.00000500  0.60990700  0.56046900  1
  C  C14  1  0.49998500  0.68962600  0.14010500  1
  C  C15  1  0.49999900  0.18959900  0.64011000  1
  Cu  Cu16  1  0.00724731  0.45651487  0.75517817  1
  Cu  Cu17  1  0.96460953  0.96068467  0.25376057  1
  Cu  Cu18  1  0.48744989  0.49811553  0.30982811  1
  Cu  Cu19  1  0.50182185  0.01027909  0.80088891  1
  Cu  Cu20  1  0.49123555  0.36844921  0.76689772  1
  Cu  Cu21  1  0.47041215  0.92018116  0.24012037  1
  Cu  Cu22  1  0.00932148  0.56200107  0.37847111  1
  Cu  Cu23  1  0.01342996  0.01027406  0.88454702  1
  Cu  Cu24  1  0.79240074  0.27476073  0.07734852  1
  Cu  Cu25  1  0.79627025  0.74985445  0.58212582  1
  Cu  Cu26  1  0.29151057  0.65932941  0.00654827  1
  Cu  Cu27  1  0.24263982  0.15779491  0.52788524  1
  Cu  Cu28  1  0.70572041  0.64390786  0.00157181  1
  Cu  Cu29  1  0.69150387  0.12940295  0.48456608  1
  Ni  Ni30  1  0.21388500  0.23695200  0.07731600  1
  Cu  Cu31  1  0.20699585  0.73897935  0.55734493  1
