# generated using pymatgen
data_Cu11NiC8
_symmetry_space_group_name_H-M   'P 1'
_cell_length_a   10.03326024
_cell_length_b   10.33568019
_cell_length_c   10.33568118
_cell_angle_alpha   33.04481152
_cell_angle_beta   33.61835945
_cell_angle_gamma   33.61835722
_symmetry_Int_Tables_number   1
_chemical_formula_structural   Cu11NiC8
_chemical_formula_sum   'Cu11 Ni1 C8'
_cell_volume   289.59567707
_cell_formula_units_Z   1
loop_
 _symmetry_equiv_pos_site_id
 _symmetry_equiv_pos_as_xyz
  1  'x, y, z'
loop_
 _atom_site_type_symbol
 _atom_site_label
 _atom_site_symmetry_multiplicity
 _atom_site_fract_x
 _atom_site_fract_y
 _atom_site_fract_z
 _atom_site_occupancy
  C  C0  1  0.15018100  0.12647200  0.12647200  1
  C  C1  1  0.84981900  0.87352800  0.87352800  1
  C  C2  1  0.30522100  0.27631400  0.27631400  1
  C  C3  1  0.69477900  0.72368600  0.72368600  1
  C  C4  1  0.50000000  0.50000000  0.50000000  1
  C  C5  1  0.00000000  0.00000000  0.00000000  1
  C  C6  1  0.45049300  0.38633600  0.38633600  1
  C  C7  1  0.54950700  0.61366400  0.61366400  1
  Cu  Cu8  1  0.91507660  0.36802654  0.40063125  1
  Cu  Cu9  1  0.67332062  0.43131588  0.81869586  1
  Ni  Ni10  1  0.13963700  0.58662500  0.58662500  1
  Cu  Cu11  1  0.23414649  0.83749440  0.75656959  1
  Cu  Cu12  1  0.31597244  0.12316333  0.63926651  1
  Cu  Cu13  1  0.76249417  0.19140630  0.20772110  1
  Cu  Cu14  1  0.36785764  0.40293162  0.88178989  1
  Cu  Cu15  1  0.26139813  0.66704307  0.15463507  1
  Cu  Cu16  1  0.37463049  0.85678326  0.38688806  1
  Cu  Cu17  1  0.73207124  0.81759778  0.37700178  1
  Cu  Cu18  1  0.61469269  0.61110607  0.12770370  1
  Cu  Cu19  1  0.61893272  0.10088281  0.64148284  1
