# generated using pymatgen
data_CuNi7C36
_symmetry_space_group_name_H-M   'P 1'
_cell_length_a   7.97281500
_cell_length_b   8.74179331
_cell_length_c   10.94833301
_cell_angle_alpha   87.01058685
_cell_angle_beta   85.01541869
_cell_angle_gamma   73.74469812
_symmetry_Int_Tables_number   1
_chemical_formula_structural   CuNi7C36
_chemical_formula_sum   'Cu1 Ni7 C36'
_cell_volume   729.47897340
_cell_formula_units_Z   1
loop_
 _symmetry_equiv_pos_site_id
 _symmetry_equiv_pos_as_xyz
  1  'x, y, z'
loop_
 _atom_site_type_symbol
 _atom_site_label
 _atom_site_symmetry_multiplicity
 _atom_site_fract_x
 _atom_site_fract_y
 _atom_site_fract_z
 _atom_site_occupancy
  C  C0  1  0.23191500  0.27508200  0.56420900  1
  C  C1  1  0.76808500  0.72491800  0.43579100  1
  C  C2  1  0.74939100  0.21721000  0.11428900  1
  C  C3  1  0.25060900  0.78279000  0.88571100  1
  Cu  Cu4  1  0.92592224  0.36900416  0.34929460  1
  Ni  Ni5  1  0.07180200  0.66193100  0.65642600  1
  Ni  Ni6  1  0.65318800  0.15095900  0.43091000  1
  Ni  Ni7  1  0.34681200  0.84904100  0.56909000  1
  Ni  Ni8  1  0.37445300  0.34762300  0.93223900  1
  Ni  Ni9  1  0.62554700  0.65237700  0.06776100  1
  Ni  Ni10  1  0.05765500  0.20282900  0.87235700  1
  Ni  Ni11  1  0.94234500  0.79717100  0.12764300  1
  C  C12  1  0.33155500  0.55257600  0.31839400  1
  C  C13  1  0.66844500  0.44742400  0.68160600  1
  C  C14  1  0.62724500  0.01645500  0.78751300  1
  C  C15  1  0.37275500  0.98354500  0.21248700  1
  C  C16  1  0.77472100  0.51846600  0.33913200  1
  C  C17  1  0.22527900  0.48153400  0.66086800  1
  C  C18  1  0.11338200  0.35536100  0.40014300  1
  C  C19  1  0.88661800  0.64463900  0.59985700  1
  C  C20  1  0.96509500  0.25012500  0.20384700  1
  C  C21  1  0.03490500  0.74987500  0.79615300  1
  C  C22  1  0.84925500  0.20714700  0.44981900  1
  C  C23  1  0.15074500  0.79285300  0.55018100  1
  C  C24  1  0.70043000  0.96307200  0.49347300  1
  C  C25  1  0.29957000  0.03692800  0.50652700  1
  C  C26  1  0.49670100  0.27731500  0.52209600  1
  C  C27  1  0.50329900  0.72268500  0.47790400  1
  C  C28  1  0.60885900  0.16895700  0.27997000  1
  C  C29  1  0.39114100  0.83104300  0.72003000  1
  C  C30  1  0.40718900  0.52402700  0.89252600  1
  C  C31  1  0.59281100  0.47597300  0.10747400  1
  C  C32  1  0.48850700  0.21896900  0.03487200  1
  C  C33  1  0.51149300  0.78103100  0.96512800  1
  C  C34  1  0.51748600  0.12730300  0.76388600  1
  C  C35  1  0.48251400  0.87269700  0.23611400  1
  C  C36  1  0.15320400  0.35284700  0.93070800  1
  C  C37  1  0.84679600  0.64715300  0.06929200  1
  C  C38  1  0.17801700  0.02943100  0.93423400  1
  C  C39  1  0.82198300  0.97056900  0.06576600  1
  C  C40  1  0.84785300  0.27290800  0.93256000  1
  C  C41  1  0.15214700  0.72709200  0.06744000  1
  C  C42  1  0.07073300  0.21478900  0.71742900  1
  C  C43  1  0.92926700  0.78521100  0.28257100  1
