# generated using pymatgen
data_CuC
_symmetry_space_group_name_H-M   'P 1'
_cell_length_a   7.06954500
_cell_length_b   7.47829400
_cell_length_c   8.19670555
_cell_angle_alpha   72.09669953
_cell_angle_beta   90.00000000
_cell_angle_gamma   90.00000000
_symmetry_Int_Tables_number   1
_chemical_formula_structural   CuC
_chemical_formula_sum   'Cu20 C20'
_cell_volume   412.36056962
_cell_formula_units_Z   20
loop_
 _symmetry_equiv_pos_site_id
 _symmetry_equiv_pos_as_xyz
  1  'x, y, z'
loop_
 _atom_site_type_symbol
 _atom_site_label
 _atom_site_symmetry_multiplicity
 _atom_site_fract_x
 _atom_site_fract_y
 _atom_site_fract_z
 _atom_site_occupancy
  C  C0  1  0.33683400  0.76510500  0.29493500  1
  C  C1  1  0.83683400  0.23489500  0.20506500  1
  C  C2  1  0.66316600  0.23489500  0.70506500  1
  C  C3  1  0.16316600  0.76510500  0.79493500  1
  C  C4  1  0.87745000  0.28020900  0.77729800  1
  C  C5  1  0.37745000  0.71979100  0.72270200  1
  C  C6  1  0.20356800  0.58574600  0.41250000  1
  C  C7  1  0.70356800  0.41425400  0.08750000  1
  C  C8  1  0.79643200  0.41425400  0.58750000  1
  C  C9  1  0.29643200  0.58574600  0.91250000  1
  C  C10  1  0.81675800  0.88656800  0.60701700  1
  C  C11  1  0.31675800  0.11343200  0.89298300  1
  C  C12  1  0.18324200  0.11343200  0.39298300  1
  C  C13  1  0.68324200  0.88656800  0.10701700  1
  C  C14  1  0.12255000  0.71979100  0.22270200  1
  C  C15  1  0.62255000  0.28020900  0.27729800  1
  C  C16  1  0.65311900  0.74645900  0.46119200  1
  C  C17  1  0.15311900  0.25354100  0.03880800  1
  C  C18  1  0.34688100  0.25354100  0.53880800  1
  C  C19  1  0.84688100  0.74645900  0.96119200  1
  Cu  Cu20  1  0.53482379  0.64499688  0.60926839  1
  Cu  Cu21  1  0.73417536  0.92366218  0.97090235  1
  Cu  Cu22  1  0.26537980  0.09256214  0.99911653  1
  Cu  Cu23  1  0.77504939  0.91464452  0.50786458  1
  Cu  Cu24  1  0.28168242  0.72050243  0.81273986  1
  Cu  Cu25  1  0.79863652  0.26916428  0.68144449  1
  Cu  Cu26  1  0.70309846  0.27411796  0.18493574  1
  Cu  Cu27  1  0.22327380  0.70860079  0.28632349  1
  Cu  Cu28  1  0.52470950  0.30990893  0.41829171  1
  Cu  Cu29  1  0.98174544  0.69734293  0.06646046  1
  Cu  Cu30  1  0.80575327  0.60177383  0.46520125  1
  Cu  Cu31  1  0.29734331  0.38050757  0.04686605  1
  Cu  Cu32  1  0.19190582  0.36392556  0.56149220  1
  Cu  Cu33  1  0.70846997  0.66119039  0.94821213  1
  Cu  Cu34  1  0.58848415  0.85403733  0.28960429  1
  Cu  Cu35  1  0.06061217  0.16668916  0.20273672  1
  Cu  Cu36  1  0.41138609  0.16381055  0.70682322  1
  Cu  Cu37  1  0.93736220  0.83614796  0.78035716  1
  Cu  Cu38  1  0.24744958  0.07488781  0.49070747  1
  Cu  Cu39  1  0.98683403  0.32073311  0.92081836  1
