# generated using pymatgen
data_CuNiC2
_symmetry_space_group_name_H-M   'P 1'
_cell_length_a   5.56504400
_cell_length_b   5.66051200
_cell_length_c   7.23236700
_cell_angle_alpha   90.00000000
_cell_angle_beta   90.00000000
_cell_angle_gamma   90.00000000
_symmetry_Int_Tables_number   1
_chemical_formula_structural   CuNiC2
_chemical_formula_sum   'Cu4 Ni4 C8'
_cell_volume   227.82678088
_cell_formula_units_Z   4
loop_
 _symmetry_equiv_pos_site_id
 _symmetry_equiv_pos_as_xyz
  1  'x, y, z'
loop_
 _atom_site_type_symbol
 _atom_site_label
 _atom_site_symmetry_multiplicity
 _atom_site_fract_x
 _atom_site_fract_y
 _atom_site_fract_z
 _atom_site_occupancy
  C  C0  1  0.00036400  0.56022000  0.37557000  1
  C  C1  1  0.50036400  0.43978000  0.62443000  1
  C  C2  1  0.50036400  0.93978000  0.87557000  1
  C  C3  1  0.00036400  0.06022000  0.12443000  1
  C  C4  1  0.49449000  0.94958000  0.37517400  1
  C  C5  1  0.99449000  0.05042000  0.62482600  1
  C  C6  1  0.99449000  0.55042000  0.87517400  1
  C  C7  1  0.49449000  0.44958000  0.12482600  1
  Ni  Ni8  1  0.42191100  0.12246400  0.66842400  1
  Cu  Cu9  1  0.92491729  0.89195408  0.33608533  1
  Ni  Ni10  1  0.92191100  0.37753600  0.16842400  1
  Ni  Ni11  1  0.42191100  0.62246400  0.83157600  1
  Cu  Cu12  1  0.30461800  0.05854528  0.06335384  1
  Cu  Cu13  1  0.84883762  0.96542705  0.92380589  1
  Ni  Ni14  1  0.83173600  0.45904900  0.58341500  1
  Cu  Cu15  1  0.31426648  0.52484196  0.39900055  1
