# generated using pymatgen
data_Cu31(NiC6)3
_symmetry_space_group_name_H-M   'P 1'
_cell_length_a   9.90985231
_cell_length_b   9.90985231
_cell_length_c   9.90985173
_cell_angle_alpha   114.08176826
_cell_angle_beta   114.08176826
_cell_angle_gamma   114.08177561
_symmetry_Int_Tables_number   1
_chemical_formula_structural   Cu31(NiC6)3
_chemical_formula_sum   'Cu31 Ni3 C18'
_cell_volume   587.66654692
_cell_formula_units_Z   1
loop_
 _symmetry_equiv_pos_site_id
 _symmetry_equiv_pos_as_xyz
  1  'x, y, z'
loop_
 _atom_site_type_symbol
 _atom_site_label
 _atom_site_symmetry_multiplicity
 _atom_site_fract_x
 _atom_site_fract_y
 _atom_site_fract_z
 _atom_site_occupancy
  Ni  Ni0  1  0.76085600  0.76085600  0.95784900  1
  Ni  Ni1  1  0.95784900  0.76085600  0.76085600  1
  Ni  Ni2  1  0.76085600  0.95784900  0.76085600  1
  C  C3  1  0.14756200  0.81105800  0.57511500  1
  C  C4  1  0.57511500  0.14756200  0.81105800  1
  C  C5  1  0.81105800  0.14756200  0.57511500  1
  C  C6  1  0.81105800  0.57511500  0.14756200  1
  C  C7  1  0.14756200  0.57511500  0.81105800  1
  C  C8  1  0.57511500  0.81105800  0.14756200  1
  C  C9  1  0.03234300  0.41315600  0.22143700  1
  C  C10  1  0.22143700  0.03234300  0.41315600  1
  C  C11  1  0.41315600  0.03234300  0.22143700  1
  C  C12  1  0.41315600  0.22143700  0.03234300  1
  C  C13  1  0.03234300  0.22143700  0.41315600  1
  C  C14  1  0.22143700  0.41315600  0.03234300  1
  C  C15  1  0.79519100  0.79519100  0.44543200  1
  C  C16  1  0.44543200  0.79519100  0.79519100  1
  C  C17  1  0.79519100  0.44543200  0.79519100  1
  C  C18  1  0.46534300  0.46534300  0.90033400  1
  C  C19  1  0.90033400  0.46534300  0.46534300  1
  C  C20  1  0.46534300  0.90033400  0.46534300  1
  Cu  Cu21  1  0.20508100  0.99473100  0.80467900  1
  Cu  Cu22  1  0.80467900  0.20508100  0.99473100  1
  Cu  Cu23  1  0.99473100  0.20508100  0.80467900  1
  Cu  Cu24  1  0.99473100  0.80467900  0.20508100  1
  Cu  Cu25  1  0.20508100  0.80467900  0.99473100  1
  Cu  Cu26  1  0.80467900  0.99473100  0.20508100  1
  Cu  Cu27  1  0.60028700  0.60028700  0.02790800  1
  Cu  Cu28  1  0.02790800  0.60028700  0.60028700  1
  Cu  Cu29  1  0.60028700  0.02790800  0.60028700  1
  Cu  Cu30  1  0.74943900  0.74943900  0.54130400  1
  Cu  Cu31  1  0.54130400  0.74943900  0.74943900  1
  Cu  Cu32  1  0.74943900  0.54130400  0.74943900  1
  Cu  Cu33  1  0.37305500  0.37305500  0.09301700  1
  Cu  Cu34  1  0.09301700  0.37305500  0.37305500  1
  Cu  Cu35  1  0.37305500  0.09301700  0.37305500  1
  Cu  Cu36  1  0.02417200  0.58972500  0.31231000  1
  Cu  Cu37  1  0.31231000  0.02417200  0.58972500  1
  Cu  Cu38  1  0.58972500  0.02417200  0.31231000  1
  Cu  Cu39  1  0.58972500  0.31231000  0.02417200  1
  Cu  Cu40  1  0.02417200  0.31231000  0.58972500  1
  Cu  Cu41  1  0.31231000  0.58972500  0.02417200  1
  Cu  Cu42  1  0.96734900  0.96734900  0.96734900  1
  Cu  Cu43  1  0.20208900  0.20208900  0.48482100  1
  Cu  Cu44  1  0.48482100  0.20208900  0.20208900  1
  Cu  Cu45  1  0.20208900  0.48482100  0.20208900  1
  Cu  Cu46  1  0.40031900  0.89294800  0.74290000  1
  Cu  Cu47  1  0.74290000  0.40031900  0.89294800  1
  Cu  Cu48  1  0.89294800  0.40031900  0.74290000  1
  Cu  Cu49  1  0.89294800  0.74290000  0.40031900  1
  Cu  Cu50  1  0.40031900  0.74290000  0.89294800  1
  Cu  Cu51  1  0.74290000  0.89294800  0.40031900  1
