# generated using pymatgen
data_Cu3NiC36
_symmetry_space_group_name_H-M   'P 1'
_cell_length_a   8.69060515
_cell_length_b   8.63274886
_cell_length_c   8.62422272
_cell_angle_alpha   90.00000000
_cell_angle_beta   90.00000000
_cell_angle_gamma   90.00000000
_symmetry_Int_Tables_number   1
_chemical_formula_structural   Cu3NiC36
_chemical_formula_sum   'Cu3 Ni1 C36'
_cell_volume   647.02206142
_cell_formula_units_Z   1
loop_
 _symmetry_equiv_pos_site_id
 _symmetry_equiv_pos_as_xyz
  1  'x, y, z'
loop_
 _atom_site_type_symbol
 _atom_site_label
 _atom_site_symmetry_multiplicity
 _atom_site_fract_x
 _atom_site_fract_y
 _atom_site_fract_z
 _atom_site_occupancy
  C  C0  1  -0.00000000  0.50000000  0.50000000  1
  C  C1  1  0.50000000  -0.00000000  0.50000000  1
  C  C2  1  0.50000000  -0.00000000  -0.00000000  1
  C  C3  1  -0.00000000  0.50000000  -0.00000000  1
  C  C4  1  0.50000000  0.50000000  -0.00000000  1
  C  C5  1  -0.00000000  -0.00000000  0.50000000  1
  C  C6  1  -0.00000000  -0.00000000  -0.00000000  1
  C  C7  1  0.50000000  0.50000000  0.50000000  1
  Cu  Cu8  1  0.28351654  0.25014068  0.23115773  1
  Cu  Cu9  1  0.76888120  0.76008512  0.26559633  1
  Cu  Cu10  1  0.73279147  0.27088943  0.76278718  1
  Ni  Ni11  1  0.25000000  0.75000000  0.75000000  1
  C  C12  1  0.75000000  0.75000000  0.75000000  1
  C  C13  1  0.25000000  0.25000000  0.75000000  1
  C  C14  1  0.25000000  0.75000000  0.25000000  1
  C  C15  1  0.75000000  0.25000000  0.25000000  1
  C  C16  1  0.99320522  0.20022314  0.29085506  1
  C  C17  1  0.00679478  0.79977686  0.29085506  1
  C  C18  1  0.00679478  0.20022314  0.70914494  1
  C  C19  1  0.99320522  0.79977686  0.70914494  1
  C  C20  1  0.28735635  0.99221276  0.20297351  1
  C  C21  1  0.28735635  0.00778724  0.79702649  1
  C  C22  1  0.71264365  0.00778724  0.20297351  1
  C  C23  1  0.71264365  0.99221276  0.79702649  1
  C  C24  1  0.20349053  0.28902630  0.99242497  1
  C  C25  1  0.79650947  0.28902630  0.00757503  1
  C  C26  1  0.20349053  0.71097370  0.00757503  1
  C  C27  1  0.79650947  0.71097370  0.99242497  1
  C  C28  1  0.50679478  0.29977686  0.20914494  1
  C  C29  1  0.49320522  0.70022314  0.20914494  1
  C  C30  1  0.49320522  0.29977686  0.79085506  1
  C  C31  1  0.50679478  0.70022314  0.79085506  1
  C  C32  1  0.21264365  0.50778724  0.29702649  1
  C  C33  1  0.21264365  0.49221276  0.70297351  1
  C  C34  1  0.78735635  0.49221276  0.29702649  1
  C  C35  1  0.78735635  0.50778724  0.70297351  1
  C  C36  1  0.29650947  0.21097370  0.50757503  1
  C  C37  1  0.70349053  0.21097370  0.49242497  1
  C  C38  1  0.29650947  0.78902630  0.49242497  1
  C  C39  1  0.70349053  0.78902630  0.50757503  1
