# generated using pymatgen
data_Cu3C7
_symmetry_space_group_name_H-M   'P 1'
_cell_length_a   6.52263000
_cell_length_b   10.19592014
_cell_length_c   10.19592014
_cell_angle_alpha   120.13608969
_cell_angle_beta   90.00000000
_cell_angle_gamma   90.00000000
_symmetry_Int_Tables_number   1
_chemical_formula_structural   Cu3C7
_chemical_formula_sum   'Cu6 C14'
_cell_volume   586.42034598
_cell_formula_units_Z   2
loop_
 _symmetry_equiv_pos_site_id
 _symmetry_equiv_pos_as_xyz
  1  'x, y, z'
loop_
 _atom_site_type_symbol
 _atom_site_label
 _atom_site_symmetry_multiplicity
 _atom_site_fract_x
 _atom_site_fract_y
 _atom_site_fract_z
 _atom_site_occupancy
  C  C0  1  0.45652200  0.33327800  0.66672200  1
  C  C1  1  0.95652200  0.66672200  0.33327800  1
  C  C2  1  0.24786900  0.12703000  0.87297000  1
  C  C3  1  0.24838800  0.74566600  0.87277300  1
  C  C4  1  0.24838800  0.12722700  0.25433400  1
  C  C5  1  0.74786900  0.87297000  0.12703000  1
  C  C6  1  0.74838800  0.25433400  0.12722700  1
  C  C7  1  0.74838800  0.87277300  0.74566600  1
  C  C8  1  0.44178600  0.53773600  0.46226400  1
  C  C9  1  0.44207600  0.92486100  0.46229700  1
  C  C10  1  0.44207600  0.53770300  0.07513900  1
  C  C11  1  0.94178600  0.46226400  0.53773600  1
  C  C12  1  0.94207600  0.07513900  0.53770300  1
  C  C13  1  0.94207600  0.46229700  0.92486100  1
  Cu  Cu14  1  0.17453320  0.80121817  0.19524283  1
  Cu  Cu15  1  0.21935644  0.33896035  0.17917154  1
  Cu  Cu16  1  0.19682276  0.83081701  0.63357366  1
  Cu  Cu17  1  0.70325054  0.15176622  0.76781526  1
  Cu  Cu18  1  0.71048114  0.58849076  0.79472250  1
  Cu  Cu19  1  0.71766081  0.18988114  0.35866355  1
