# generated using pymatgen
data_Cu17NiC36
_symmetry_space_group_name_H-M   'P 1'
_cell_length_a   8.85296800
_cell_length_b   7.47056800
_cell_length_c   17.43134624
_cell_angle_alpha   65.80883338
_cell_angle_beta   90.00000000
_cell_angle_gamma   90.00000000
_symmetry_Int_Tables_number   1
_chemical_formula_structural   Cu17NiC36
_chemical_formula_sum   'Cu17 Ni1 C36'
_cell_volume   1051.61207888
_cell_formula_units_Z   1
loop_
 _symmetry_equiv_pos_site_id
 _symmetry_equiv_pos_as_xyz
  1  'x, y, z'
loop_
 _atom_site_type_symbol
 _atom_site_label
 _atom_site_symmetry_multiplicity
 _atom_site_fract_x
 _atom_site_fract_y
 _atom_site_fract_z
 _atom_site_occupancy
  Cu  Cu0  1  0.64623529  0.70804199  0.91844749  1
  Cu  Cu1  1  0.65520978  0.25821060  0.58224006  1
  Cu  Cu2  1  0.62198772  0.28966955  0.32007991  1
  Cu  Cu3  1  0.36287952  0.27905605  0.07561879  1
  Cu  Cu4  1  0.50303904  0.97607475  0.75933557  1
  Cu  Cu5  1  0.64638859  0.70141572  0.18304503  1
  Cu  Cu6  1  0.60753406  0.31784928  0.94084667  1
  Cu  Cu7  1  0.81161425  0.06683655  0.46985116  1
  Cu  Cu8  1  0.18399734  0.05270739  0.99439259  1
  Cu  Cu9  1  0.34690704  0.72184641  0.42821216  1
  Ni  Ni10  1  0.39640900  0.68985500  0.05571600  1
  Cu  Cu11  1  0.33230739  0.30437727  0.82905396  1
  Cu  Cu12  1  0.51803482  0.97344528  0.26225119  1
  Cu  Cu13  1  0.34212590  0.71995627  0.67968135  1
  Cu  Cu14  1  0.83624531  0.92138914  0.98859680  1
  Cu  Cu15  1  0.38256299  0.30389009  0.44624805  1
  Cu  Cu16  1  0.61089178  0.70862067  0.56291614  1
  Cu  Cu17  1  0.15631608  0.94744846  0.50701136  1
  C  C18  1  0.22086600  0.19484400  0.89250500  1
  C  C19  1  0.72212800  0.86845000  0.52936000  1
  C  C20  1  0.38940800  0.12692400  0.17499000  1
  C  C21  1  0.69462800  0.51370500  0.92343900  1
  C  C22  1  0.61426000  0.85945900  0.22415900  1
  C  C23  1  0.30537200  0.51370500  0.42343900  1
  C  C24  1  0.69462800  0.48629500  0.57656100  1
  C  C25  1  0.77913400  0.80515600  0.10749500  1
  C  C26  1  0.61426000  0.14054100  0.27584100  1
  C  C27  1  0.50938700  0.27446000  0.52219600  1
  C  C28  1  0.38940800  0.87307600  0.32501000  1
  C  C29  1  0.19912100  0.80735800  0.45349000  1
  C  C30  1  0.50753400  0.32280800  0.86276900  1
  C  C31  1  0.50938700  0.72554000  0.97780400  1
  C  C32  1  0.27787200  0.86845000  0.02936000  1
  C  C33  1  0.30537200  0.48629500  0.07656100  1
  C  C34  1  0.38574000  0.85945900  0.72415900  1
  C  C35  1  0.49246600  0.32280800  0.36276900  1
  C  C36  1  0.50753400  0.67719200  0.63723100  1
  C  C37  1  0.72212800  0.13155000  0.97064000  1
  C  C38  1  0.61059200  0.87307600  0.82501000  1
  C  C39  1  0.49246600  0.67719200  0.13723100  1
  C  C40  1  0.00000000  0.00000000  0.00000000  1
  C  C41  1  0.38574000  0.14054100  0.77584100  1
  C  C42  1  0.61059200  0.12692400  0.67499000  1
  C  C43  1  0.22086600  0.80515600  0.60749500  1
  C  C44  1  0.77913400  0.19484400  0.39250500  1
  C  C45  1  0.49061300  0.27446000  0.02219600  1
  C  C46  1  0.19912100  0.19264200  0.04651000  1
  C  C47  1  0.29367100  0.50000000  0.75000000  1
  C  C48  1  0.49061300  0.72554000  0.47780400  1
  C  C49  1  0.00000000  0.00000000  0.50000000  1
  C  C50  1  0.70632900  0.50000000  0.25000000  1
  C  C51  1  0.27787200  0.13155000  0.47064000  1
  C  C52  1  0.80087900  0.19264200  0.54651000  1
  C  C53  1  0.80087900  0.80735800  0.95349000  1
