# generated using pymatgen
data_Cu7Ni5C8
_symmetry_space_group_name_H-M   'P 1'
_cell_length_a   8.07892169
_cell_length_b   8.07892169
_cell_length_c   6.03183100
_cell_angle_alpha   90.00000000
_cell_angle_beta   90.00000000
_cell_angle_gamma   99.96308843
_symmetry_Int_Tables_number   1
_chemical_formula_structural   Cu7Ni5C8
_chemical_formula_sum   'Cu7 Ni5 C8'
_cell_volume   387.75433520
_cell_formula_units_Z   1
loop_
 _symmetry_equiv_pos_site_id
 _symmetry_equiv_pos_as_xyz
  1  'x, y, z'
loop_
 _atom_site_type_symbol
 _atom_site_label
 _atom_site_symmetry_multiplicity
 _atom_site_fract_x
 _atom_site_fract_y
 _atom_site_fract_z
 _atom_site_occupancy
  C  C0  1  0.89907900  0.10092100  0.25000000  1
  C  C1  1  0.35692100  0.17778800  0.25000000  1
  C  C2  1  0.82221200  0.64307900  0.25000000  1
  C  C3  1  0.10092100  0.89907900  0.75000000  1
  C  C4  1  0.17778800  0.35692100  0.75000000  1
  C  C5  1  0.64307900  0.82221200  0.75000000  1
  C  C6  1  0.34859600  0.65140400  0.25000000  1
  C  C7  1  0.65140400  0.34859600  0.75000000  1
  Cu  Cu8  1  0.30363117  0.45897844  0.26768304  1
  Ni  Ni9  1  0.14339600  0.14339600  0.00000000  1
  Cu  Cu10  1  0.27494095  0.71652152  0.05341381  1
  Cu  Cu11  1  0.29933792  0.69888121  0.47263773  1
  Ni  Ni12  1  0.46212100  0.30000600  0.75000000  1
  Ni  Ni13  1  0.85660400  0.85660400  0.50000000  1
  Ni  Ni14  1  0.71845400  0.28154600  0.54688200  1
  Cu  Cu15  1  0.56079131  0.68674192  0.24981199  1
  Ni  Ni16  1  0.69999400  0.53787900  0.75000000  1
  Cu  Cu17  1  0.71131391  0.28996374  0.95834630  1
  Cu  Cu18  1  0.84915920  0.85702855  0.98941881  1
  Cu  Cu19  1  0.16945762  0.13812564  0.46181227  1
