# generated using pymatgen
data_CuC22
_symmetry_space_group_name_H-M   'P 1'
_cell_length_a   5.41223800
_cell_length_b   7.07624101
_cell_length_c   9.96138467
_cell_angle_alpha   96.42181475
_cell_angle_beta   101.37253650
_cell_angle_gamma   109.56573431
_symmetry_Int_Tables_number   1
_chemical_formula_structural   CuC22
_chemical_formula_sum   'Cu1 C22'
_cell_volume   345.82150923
_cell_formula_units_Z   1
loop_
 _symmetry_equiv_pos_site_id
 _symmetry_equiv_pos_as_xyz
  1  'x, y, z'
loop_
 _atom_site_type_symbol
 _atom_site_label
 _atom_site_symmetry_multiplicity
 _atom_site_fract_x
 _atom_site_fract_y
 _atom_site_fract_z
 _atom_site_occupancy
  Cu  Cu0  1  0.50393741  0.47870894  0.49635801  1
  C  C1  1  0.00000000  0.00000000  0.00000000  1
  C  C2  1  0.00000000  0.50000000  0.00000000  1
  C  C3  1  0.49469500  0.41231100  0.17660100  1
  C  C4  1  0.50530500  0.58768900  0.82339900  1
  C  C5  1  0.58747600  0.41603700  0.33808300  1
  C  C6  1  0.41252400  0.58396300  0.66191700  1
  C  C7  1  0.74910000  0.51270400  0.12901200  1
  C  C8  1  0.25090000  0.48729600  0.87098800  1
  C  C9  1  0.35014700  0.18258100  0.10350100  1
  C  C10  1  0.64985300  0.81741900  0.89649900  1
  C  C11  1  0.29634300  0.52806900  0.16147600  1
  C  C12  1  0.70365700  0.47193100  0.83852400  1
  C  C13  1  0.86572100  0.95851200  0.21910600  1
  C  C14  1  0.13427900  0.04148800  0.78089400  1
  C  C15  1  0.19377000  0.23856700  0.46676700  1
  C  C16  1  0.80623000  0.76143300  0.53323300  1
  C  C17  1  0.11363700  0.37219000  0.40696800  1
  C  C18  1  0.88636300  0.62781000  0.59303200  1
  C  C19  1  0.65017400  0.95847600  0.24163800  1
  C  C20  1  0.34982600  0.04152400  0.75836200  1
  C  C21  1  0.11822900  0.79081500  0.01702500  1
  C  C22  1  0.88177100  0.20918500  0.98297500  1
