# generated using pymatgen
data_Cu12C5
_symmetry_space_group_name_H-M   'P 1'
_cell_length_a   5.15949655
_cell_length_b   5.36177310
_cell_length_c   7.51050647
_cell_angle_alpha   89.97591080
_cell_angle_beta   90.38475065
_cell_angle_gamma   89.90366141
_symmetry_Int_Tables_number   1
_chemical_formula_structural   Cu12C5
_chemical_formula_sum   'Cu12 C5'
_cell_volume   207.76602775
_cell_formula_units_Z   1
loop_
 _symmetry_equiv_pos_site_id
 _symmetry_equiv_pos_as_xyz
  1  'x, y, z'
loop_
 _atom_site_type_symbol
 _atom_site_label
 _atom_site_symmetry_multiplicity
 _atom_site_fract_x
 _atom_site_fract_y
 _atom_site_fract_z
 _atom_site_occupancy
  C  C0  1  0.02756500  0.93841000  0.25082100  1
  C  C1  1  0.99927000  0.49536500  0.98285700  1
  C  C2  1  0.50184300  0.00607300  0.52023600  1
  C  C3  1  0.99931700  0.49939400  0.49456600  1
  C  C4  1  0.50324700  0.00103600  0.00687200  1
  Cu  Cu5  1  0.11503494  0.47905058  0.74454773  1
  Cu  Cu6  1  0.20903198  0.17688701  0.07112122  1
  Cu  Cu7  1  0.20111211  0.19457229  0.45227338  1
  Cu  Cu8  1  0.30878275  0.70580119  0.04411647  1
  Cu  Cu9  1  0.28180956  0.74556163  0.45259419  1
  Cu  Cu10  1  0.34945860  0.00938153  0.76371360  1
  Cu  Cu11  1  0.66186262  0.98068467  0.24218845  1
  Cu  Cu12  1  0.71773447  0.26094632  0.54063953  1
  Cu  Cu13  1  0.75676813  0.30299644  0.94397539  1
  Cu  Cu14  1  0.79260574  0.81158176  0.95675388  1
  Cu  Cu15  1  0.79470722  0.80992247  0.54308049  1
  Cu  Cu16  1  0.90198305  0.56643010  0.25540603  1
