# generated using pymatgen
data_Cu8NiC9
_symmetry_space_group_name_H-M   'P 1'
_cell_length_a   8.81192917
_cell_length_b   8.81192917
_cell_length_c   7.61403800
_cell_angle_alpha   90.00000000
_cell_angle_beta   90.00000000
_cell_angle_gamma   109.79250639
_symmetry_Int_Tables_number   1
_chemical_formula_structural   Cu8NiC9
_chemical_formula_sum   'Cu16 Ni2 C18'
_cell_volume   556.30385887
_cell_formula_units_Z   2
loop_
 _symmetry_equiv_pos_site_id
 _symmetry_equiv_pos_as_xyz
  1  'x, y, z'
loop_
 _atom_site_type_symbol
 _atom_site_label
 _atom_site_symmetry_multiplicity
 _atom_site_fract_x
 _atom_site_fract_y
 _atom_site_fract_z
 _atom_site_occupancy
  C  C0  1  0.75709200  0.75709200  0.50000000  1
  C  C1  1  0.00579600  0.26646700  0.42727100  1
  C  C2  1  0.63618900  0.36381100  0.25000000  1
  C  C3  1  0.36337600  0.63662400  0.25000000  1
  C  C4  1  0.99420400  0.73353300  0.92727100  1
  C  C5  1  0.24290800  0.24290800  0.00000000  1
  C  C6  1  0.73353300  0.99420400  0.07272900  1
  C  C7  1  0.36381100  0.63618900  0.75000000  1
  C  C8  1  0.63662400  0.36337600  0.75000000  1
  C  C9  1  0.26646700  0.00579600  0.57272900  1
  C  C10  1  0.37254500  0.37254500  0.50000000  1
  C  C11  1  0.62745500  0.62745500  0.00000000  1
  C  C12  1  0.01386100  0.58995200  0.52752300  1
  C  C13  1  0.58995200  0.01386100  0.47247700  1
  C  C14  1  0.98613900  0.41004800  0.02752300  1
  C  C15  1  0.41004800  0.98613900  0.97247700  1
  C  C16  1  0.94130900  0.05869100  0.75000000  1
  C  C17  1  0.05869100  0.94130900  0.25000000  1
  Cu  Cu18  1  0.50431026  0.49127984  0.00608715  1
  Cu  Cu19  1  0.69748148  0.69790311  0.84565788  1
  Cu  Cu20  1  0.53668981  0.15368364  0.99406877  1
  Cu  Cu21  1  0.48033227  0.85032427  0.52463035  1
  Cu  Cu22  1  0.86737569  0.45648744  0.49095877  1
  Cu  Cu23  1  0.54883412  0.15019633  0.49312213  1
  Ni  Ni24  1  0.15289500  0.55581400  0.48684900  1
  Cu  Cu25  1  0.44599453  0.84457674  0.00743624  1
  Cu  Cu26  1  0.52716885  0.51612201  0.53142762  1
  Cu  Cu27  1  0.27197447  0.96968555  0.88781866  1
  Cu  Cu28  1  0.84618677  0.44747184  0.97473637  1
  Cu  Cu29  1  0.31348092  0.32482920  0.37020986  1
  Cu  Cu30  1  0.94552747  0.25400934  0.10699190  1
  Cu  Cu31  1  0.31684873  0.32501981  0.67387644  1
  Cu  Cu32  1  0.99483203  0.70361600  0.62881020  1
  Cu  Cu33  1  0.14720302  0.53789010  0.98397379  1
  Cu  Cu34  1  0.68074675  0.69021147  0.11911307  1
  Ni  Ni35  1  0.73218700  0.02577200  0.38662500  1
