# generated using pymatgen
data_CuC15
_symmetry_space_group_name_H-M   'P 1'
_cell_length_a   8.66780488
_cell_length_b   4.41102094
_cell_length_c   4.41102094
_cell_angle_alpha   90.00000000
_cell_angle_beta   90.00000000
_cell_angle_gamma   90.00000000
_symmetry_Int_Tables_number   1
_chemical_formula_structural   CuC15
_chemical_formula_sum   'Cu1 C15'
_cell_volume   168.65039602
_cell_formula_units_Z   1
loop_
 _symmetry_equiv_pos_site_id
 _symmetry_equiv_pos_as_xyz
  1  'x, y, z'
loop_
 _atom_site_type_symbol
 _atom_site_label
 _atom_site_symmetry_multiplicity
 _atom_site_fract_x
 _atom_site_fract_y
 _atom_site_fract_z
 _atom_site_occupancy
  C  C0  1  0.00000000  0.50000000  0.50000000  1
  C  C1  1  0.50000000  0.50000000  0.50000000  1
  C  C2  1  0.24504739  0.00000000  0.50000000  1
  C  C3  1  0.75495261  0.00000000  0.50000000  1
  C  C4  1  0.24504739  0.50000000  0.00000000  1
  C  C5  1  0.75495261  0.50000000  0.00000000  1
  Cu  Cu6  1  0.00318898  0.99742823  0.97744335  1
  C  C7  1  0.50000000  0.00000000  0.00000000  1
  C  C8  1  0.23462103  0.00000000  0.00000000  1
  C  C9  1  0.76537897  0.00000000  0.00000000  1
  C  C10  1  0.25000060  0.50000000  0.50000000  1
  C  C11  1  0.74999940  0.50000000  0.50000000  1
  C  C12  1  0.00000000  0.00000000  0.50000000  1
  C  C13  1  0.50000000  0.00000000  0.50000000  1
  C  C14  1  0.00000000  0.50000000  0.00000000  1
  C  C15  1  0.50000000  0.50000000  0.00000000  1
