# generated using pymatgen
data_CuC12
_symmetry_space_group_name_H-M   'P 1'
_cell_length_a   5.69506911
_cell_length_b   5.69506911
_cell_length_c   5.69506912
_cell_angle_alpha   61.16768086
_cell_angle_beta   61.16768086
_cell_angle_gamma   61.16767187
_symmetry_Int_Tables_number   1
_chemical_formula_structural   CuC12
_chemical_formula_sum   'Cu1 C12'
_cell_volume   134.04307738
_cell_formula_units_Z   1
loop_
 _symmetry_equiv_pos_site_id
 _symmetry_equiv_pos_as_xyz
  1  'x, y, z'
loop_
 _atom_site_type_symbol
 _atom_site_label
 _atom_site_symmetry_multiplicity
 _atom_site_fract_x
 _atom_site_fract_y
 _atom_site_fract_z
 _atom_site_occupancy
  C  C0  1  0.91657100  0.28031900  0.48773500  1
  C  C1  1  0.51226500  0.08342900  0.71968100  1
  C  C2  1  0.71968100  0.51226500  0.08342900  1
  C  C3  1  0.28031900  0.48773500  0.91657100  1
  C  C4  1  0.48773500  0.91657100  0.28031900  1
  C  C5  1  0.08342900  0.71968100  0.51226500  1
  Cu  Cu6  1  0.99801462  0.97957100  0.02126744  1
  C  C7  1  0.79721600  0.09737200  0.35063100  1
  C  C8  1  0.64936900  0.20278400  0.90262800  1
  C  C9  1  0.90262800  0.64936900  0.20278400  1
  C  C10  1  0.09737200  0.35063100  0.79721600  1
  C  C11  1  0.35063100  0.79721600  0.09737200  1
  C  C12  1  0.20278400  0.90262800  0.64936900  1
