# generated using pymatgen
data_Cu7(NiC4)3
_symmetry_space_group_name_H-M   'P 1'
_cell_length_a   6.66805100
_cell_length_b   7.49033100
_cell_length_c   9.31907800
_cell_angle_alpha   90.00000000
_cell_angle_beta   90.00000000
_cell_angle_gamma   90.00000000
_symmetry_Int_Tables_number   1
_chemical_formula_structural   Cu7(NiC4)3
_chemical_formula_sum   'Cu14 Ni6 C24'
_cell_volume   465.44982282
_cell_formula_units_Z   2
loop_
 _symmetry_equiv_pos_site_id
 _symmetry_equiv_pos_as_xyz
  1  'x, y, z'
loop_
 _atom_site_type_symbol
 _atom_site_label
 _atom_site_symmetry_multiplicity
 _atom_site_fract_x
 _atom_site_fract_y
 _atom_site_fract_z
 _atom_site_occupancy
  C  C0  1  0.77135400  0.03336300  0.39892900  1
  C  C1  1  0.22864600  0.53336300  0.10107100  1
  C  C2  1  0.27135400  0.46663700  0.60107100  1
  C  C3  1  0.72864600  0.96663700  0.89892900  1
  C  C4  1  0.68354300  0.37028500  0.46156800  1
  C  C5  1  0.31645700  0.87028500  0.03843200  1
  C  C6  1  0.18354300  0.12971500  0.53843200  1
  C  C7  1  0.81645700  0.62971500  0.96156800  1
  C  C8  1  0.87101900  0.30718600  0.55842600  1
  C  C9  1  0.12898100  0.80718600  0.94157400  1
  C  C10  1  0.37101900  0.19281400  0.44157400  1
  C  C11  1  0.62898100  0.69281400  0.05842600  1
  C  C12  1  0.01362200  0.94542600  0.15315600  1
  C  C13  1  0.98637800  0.44542600  0.34684400  1
  C  C14  1  0.51362200  0.55457400  0.84684400  1
  C  C15  1  0.48637800  0.05457400  0.65315600  1
  C  C16  1  0.07494100  0.14235500  0.18281900  1
  C  C17  1  0.92505900  0.64235500  0.31718100  1
  C  C18  1  0.57494100  0.35764500  0.81718100  1
  C  C19  1  0.42505900  0.85764500  0.68281900  1
  C  C20  1  0.47879300  0.70379100  0.36082800  1
  C  C21  1  0.52120700  0.20379100  0.13917200  1
  C  C22  1  0.97879300  0.79620900  0.63917200  1
  C  C23  1  0.02120700  0.29620900  0.86082800  1
  Ni  Ni24  1  0.72647000  0.77693200  0.36119400  1
  Ni  Ni25  1  0.27353000  0.27693200  0.13880600  1
  Ni  Ni26  1  0.22647000  0.72306800  0.63880600  1
  Cu  Cu27  1  0.76249611  0.21007677  0.86718195  1
  Cu  Cu28  1  0.47002357  0.53074347  0.47303446  1
  Cu  Cu29  1  0.50763444  0.01726234  0.02862356  1
  Cu  Cu30  1  0.98114622  0.01620517  0.53576591  1
  Cu  Cu31  1  0.02151529  0.48502408  0.97248817  1
  Cu  Cu32  1  0.47374836  0.58237832  0.17853445  1
  Cu  Cu33  1  0.51243246  0.08738184  0.30506822  1
  Cu  Cu34  1  0.95222370  0.89637325  0.81602395  1
  Cu  Cu35  1  0.02508327  0.40052059  0.69358201  1
  Cu  Cu36  1  0.81649310  0.29630683  0.45567715  1
  Ni  Ni37  1  0.19529100  0.78925900  0.03722900  1
  Cu  Cu38  1  0.26576155  0.20865325  0.53420380  1
  Ni  Ni39  1  0.69529100  0.71074100  0.96277100  1
  Cu  Cu40  1  0.93729324  0.02995493  0.18513662  1
  Ni  Ni41  1  0.04171200  0.55866700  0.31007900  1
  Cu  Cu42  1  0.46667100  0.45393891  0.80098053  1
  Cu  Cu43  1  0.54719736  0.95308609  0.68228396  1
