# generated using pymatgen
data_Cu3C2
_symmetry_space_group_name_H-M   'P 1'
_cell_length_a   6.07822390
_cell_length_b   6.07822390
_cell_length_c   6.07822390
_cell_angle_alpha   140.04840783
_cell_angle_beta   140.04840783
_cell_angle_gamma   57.77980561
_symmetry_Int_Tables_number   1
_chemical_formula_structural   Cu3C2
_chemical_formula_sum   'Cu3 C2'
_cell_volume   91.78367762
_cell_formula_units_Z   1
loop_
 _symmetry_equiv_pos_site_id
 _symmetry_equiv_pos_as_xyz
  1  'x, y, z'
loop_
 _atom_site_type_symbol
 _atom_site_label
 _atom_site_symmetry_multiplicity
 _atom_site_fract_x
 _atom_site_fract_y
 _atom_site_fract_z
 _atom_site_occupancy
  C  C0  1  0.99810900  0.99810900  0.00000000  1
  C  C1  1  0.38113000  0.38113000  0.00000000  1
  Cu  Cu2  1  0.77331289  0.21096375  0.47076733  1
  Cu  Cu3  1  0.28567661  0.81934642  0.56128915  1
  Cu  Cu4  1  0.65589993  0.56204034  0.00569163  1
