# generated using pymatgen
data_CuC5
_symmetry_space_group_name_H-M   'P 1'
_cell_length_a   6.58327200
_cell_length_b   8.06065200
_cell_length_c   8.88410100
_cell_angle_alpha   90.00000000
_cell_angle_beta   90.00000000
_cell_angle_gamma   90.00000000
_symmetry_Int_Tables_number   1
_chemical_formula_structural   CuC5
_chemical_formula_sum   'Cu4 C20'
_cell_volume   471.43894724
_cell_formula_units_Z   4
loop_
 _symmetry_equiv_pos_site_id
 _symmetry_equiv_pos_as_xyz
  1  'x, y, z'
loop_
 _atom_site_type_symbol
 _atom_site_label
 _atom_site_symmetry_multiplicity
 _atom_site_fract_x
 _atom_site_fract_y
 _atom_site_fract_z
 _atom_site_occupancy
  C  C0  1  0.96120600  0.80530200  0.82286500  1
  C  C1  1  0.46120600  0.69469800  0.17713500  1
  C  C2  1  0.53879400  0.19469800  0.32286500  1
  C  C3  1  0.03879400  0.30530200  0.67713500  1
  C  C4  1  0.85208300  0.91153800  0.44944600  1
  C  C5  1  0.35208300  0.58846200  0.55055400  1
  C  C6  1  0.14791700  0.41153800  0.05055400  1
  C  C7  1  0.64791700  0.08846200  0.94944600  1
  Cu  Cu8  1  0.74888375  0.49483564  0.35523230  1
  Cu  Cu9  1  0.24087389  0.99502403  0.14165954  1
  Cu  Cu10  1  0.74593173  0.49759497  0.85409137  1
  Cu  Cu11  1  0.24603500  0.02258142  0.64894560  1
  C  C12  1  0.12610000  0.60638500  0.65142100  1
  C  C13  1  0.16536200  0.62794600  0.03440700  1
  C  C14  1  0.26419300  0.65652600  0.37682500  1
  C  C15  1  0.62610000  0.89361500  0.34857900  1
  C  C16  1  0.76419300  0.84347400  0.62317500  1
  C  C17  1  0.33463800  0.37205400  0.53440700  1
  C  C18  1  0.73580700  0.15652600  0.12317500  1
  C  C19  1  0.83463800  0.12794600  0.46559300  1
  C  C20  1  0.66536200  0.87205400  0.96559300  1
  C  C21  1  0.87390000  0.10638500  0.84857900  1
  C  C22  1  0.37390000  0.39361500  0.15142100  1
  C  C23  1  0.23580700  0.34347400  0.87682500  1
