# generated using pymatgen
data_Cu35Ni5C36
_symmetry_space_group_name_H-M   'P 1'
_cell_length_a   6.11396400
_cell_length_b   13.76150600
_cell_length_c   14.08787500
_cell_angle_alpha   90.00000000
_cell_angle_beta   90.00000000
_cell_angle_gamma   90.00000000
_symmetry_Int_Tables_number   1
_chemical_formula_structural   Cu35Ni5C36
_chemical_formula_sum   'Cu35 Ni5 C36'
_cell_volume   1185.31650161
_cell_formula_units_Z   1
loop_
 _symmetry_equiv_pos_site_id
 _symmetry_equiv_pos_as_xyz
  1  'x, y, z'
loop_
 _atom_site_type_symbol
 _atom_site_label
 _atom_site_symmetry_multiplicity
 _atom_site_fract_x
 _atom_site_fract_y
 _atom_site_fract_z
 _atom_site_occupancy
  C  C0  1  0.41952800  0.63127600  0.25000000  1
  C  C1  1  0.08047200  0.13127600  0.25000000  1
  C  C2  1  0.58047200  0.36872400  0.75000000  1
  C  C3  1  0.91952800  0.86872400  0.75000000  1
  C  C4  1  0.08974700  0.63521000  0.01520200  1
  C  C5  1  0.41025300  0.13521000  0.48479800  1
  C  C6  1  0.91025300  0.36479000  0.51520200  1
  C  C7  1  0.58974700  0.86479000  0.98479800  1
  C  C8  1  0.91025300  0.36479000  0.98479800  1
  C  C9  1  0.58974700  0.86479000  0.51520200  1
  C  C10  1  0.08974700  0.63521000  0.48479800  1
  C  C11  1  0.41025300  0.13521000  0.01520200  1
  C  C12  1  0.58955100  0.95911900  0.25000000  1
  C  C13  1  0.91044900  0.45911900  0.25000000  1
  C  C14  1  0.41044900  0.04088100  0.75000000  1
  C  C15  1  0.08955100  0.54088100  0.75000000  1
  C  C16  1  0.91269300  0.74451500  0.25000000  1
  C  C17  1  0.58730700  0.24451500  0.25000000  1
  C  C18  1  0.08730700  0.25548500  0.75000000  1
  C  C19  1  0.41269300  0.75548500  0.75000000  1
  C  C20  1  0.09117600  0.90112800  0.10351200  1
  C  C21  1  0.40882400  0.40112800  0.39648800  1
  C  C22  1  0.90882400  0.09887200  0.60351200  1
  C  C23  1  0.59117600  0.59887200  0.89648800  1
  C  C24  1  0.90882400  0.09887200  0.89648800  1
  C  C25  1  0.59117600  0.59887200  0.60351200  1
  C  C26  1  0.09117600  0.90112800  0.39648800  1
  C  C27  1  0.40882400  0.40112800  0.10351200  1
  C  C28  1  0.11621300  0.92489000  0.93760400  1
  C  C29  1  0.38378700  0.42489000  0.56239600  1
  C  C30  1  0.88378700  0.07511000  0.43760400  1
  C  C31  1  0.61621300  0.57511000  0.06239600  1
  C  C32  1  0.88378700  0.07511000  0.06239600  1
  C  C33  1  0.61621300  0.57511000  0.43760400  1
  C  C34  1  0.11621300  0.92489000  0.56239600  1
  C  C35  1  0.38378700  0.42489000  0.93760400  1
  Cu  Cu36  1  0.67092513  0.78765825  0.23895746  1
  Cu  Cu37  1  0.82317820  0.30529764  0.25031152  1
  Cu  Cu38  1  0.33138055  0.19965217  0.75268812  1
  Cu  Cu39  1  0.13340464  0.69900536  0.74512116  1
  Cu  Cu40  1  0.94415687  0.61411119  0.26876764  1
  Cu  Cu41  1  0.61116603  0.11322967  0.25569869  1
  Cu  Cu42  1  0.07009706  0.37517209  0.74343714  1
  Cu  Cu43  1  0.42849383  0.88053192  0.74191553  1
  Cu  Cu44  1  0.09434997  0.86724094  0.98653209  1
  Cu  Cu45  1  0.39402028  0.36576406  0.53157863  1
  Cu  Cu46  1  0.88242490  0.14867169  0.46118632  1
  Cu  Cu47  1  0.60298875  0.63791099  0.02570148  1
  Cu  Cu48  1  0.89227458  0.12577998  0.01727070  1
  Cu  Cu49  1  0.61445442  0.63121852  0.48297486  1
  Cu  Cu50  1  0.10389851  0.86136443  0.52465444  1
  Cu  Cu51  1  0.44072527  0.36301330  0.97963754  1
  Cu  Cu52  1  0.33637494  0.95832967  0.12188307  1
  Cu  Cu53  1  0.14379610  0.45596570  0.37613784  1
  Cu  Cu54  1  0.67245040  0.05604224  0.64001608  1
  Cu  Cu55  1  0.84833359  0.54161124  0.85746821  1
  Cu  Cu56  1  0.62428040  0.03380104  0.86124231  1
  Cu  Cu57  1  0.83892221  0.55456209  0.62680841  1
  Ni  Ni58  1  0.33841200  0.95786200  0.37002900  1
  Cu  Cu59  1  0.13396261  0.45572318  0.12456094  1
  Ni  Ni60  1  0.07880800  0.77896500  0.14898300  1
  Cu  Cu61  1  0.41733976  0.29127229  0.34396285  1
  Cu  Cu62  1  0.94542324  0.21188379  0.64354161  1
  Cu  Cu63  1  0.58449531  0.72170302  0.83145216  1
  Cu  Cu64  1  0.92505458  0.22228102  0.84845094  1
  Cu  Cu65  1  0.57250915  0.72556969  0.63741697  1
  Cu  Cu66  1  0.05802655  0.77270341  0.36055737  1
  Cu  Cu67  1  0.41307831  0.28723598  0.15513042  1
  Ni  Ni68  1  0.86025100  0.97125200  0.13157600  1
  Cu  Cu69  1  0.64023872  0.46438954  0.37001942  1
  Ni  Ni70  1  0.13974900  0.02874800  0.63157600  1
  Cu  Cu71  1  0.33927440  0.53504192  0.87075979  1
  Cu  Cu72  1  0.13273308  0.02870855  0.86815450  1
  Cu  Cu73  1  0.35928686  0.53251913  0.63246741  1
  Cu  Cu74  1  0.85603448  0.97357155  0.36758469  1
  Ni  Ni75  1  0.63974900  0.47125200  0.13157600  1
