# generated using pymatgen
data_Cu2NiC2
_symmetry_space_group_name_H-M   'P 1'
_cell_length_a   3.36588200
_cell_length_b   3.36588200
_cell_length_c   6.28566600
_cell_angle_alpha   90.00000000
_cell_angle_beta   90.00000000
_cell_angle_gamma   90.00000000
_symmetry_Int_Tables_number   1
_chemical_formula_structural   Cu2NiC2
_chemical_formula_sum   'Cu2 Ni1 C2'
_cell_volume   71.21132612
_cell_formula_units_Z   1
loop_
 _symmetry_equiv_pos_site_id
 _symmetry_equiv_pos_as_xyz
  1  'x, y, z'
loop_
 _atom_site_type_symbol
 _atom_site_label
 _atom_site_symmetry_multiplicity
 _atom_site_fract_x
 _atom_site_fract_y
 _atom_site_fract_z
 _atom_site_occupancy
  C  C0  1  0.50000000  0.00000000  0.25563200  1
  C  C1  1  0.00000000  0.50000000  0.74436800  1
  Cu  Cu2  1  0.01268945  0.03147263  0.99399088  1
  Cu  Cu3  1  0.42327420  0.00779709  0.63613571  1
  Ni  Ni4  1  0.00000000  0.50000000  0.36825400  1
