# generated using pymatgen
data_CuC9
_symmetry_space_group_name_H-M   'P 1'
_cell_length_a   4.00694368
_cell_length_b   4.00929706
_cell_length_c   23.96861810
_cell_angle_alpha   94.78915996
_cell_angle_beta   94.77953627
_cell_angle_gamma   89.91402533
_symmetry_Int_Tables_number   1
_chemical_formula_structural   CuC9
_chemical_formula_sum   'Cu2 C18'
_cell_volume   382.37209069
_cell_formula_units_Z   2
loop_
 _symmetry_equiv_pos_site_id
 _symmetry_equiv_pos_as_xyz
  1  'x, y, z'
loop_
 _atom_site_type_symbol
 _atom_site_label
 _atom_site_symmetry_multiplicity
 _atom_site_fract_x
 _atom_site_fract_y
 _atom_site_fract_z
 _atom_site_occupancy
  C  C0  1  0.16492700  0.16497900  0.33031900  1
  C  C1  1  0.83510100  0.83510800  0.66980500  1
  Cu  Cu2  1  0.75212187  0.75414291  0.44817090  1
  Cu  Cu3  1  0.28443618  0.21566238  0.54309217  1
  C  C4  1  0.53330600  0.53332400  0.06706200  1
  C  C5  1  0.39366600  0.39377400  0.78777200  1
  C  C6  1  0.60615200  0.60623000  0.21204100  1
  C  C7  1  0.46686900  0.46687500  0.93329700  1
  C  C8  1  0.37349500  0.87347200  0.74702600  1
  C  C9  1  0.54706500  0.04705000  0.09469000  1
  C  C10  1  0.23071300  0.22998900  0.46129100  1
  C  C11  1  0.95306600  0.45300500  0.90549700  1
  C  C12  1  0.76900300  0.76885400  0.53834300  1
  C  C13  1  0.12643000  0.62645500  0.25283500  1
  C  C14  1  0.62632200  0.12649100  0.25274700  1
  C  C15  1  0.31599400  0.31608000  0.63180200  1
  C  C16  1  0.87340800  0.37352000  0.74699600  1
  C  C17  1  0.04737700  0.54748400  0.09541900  1
  C  C18  1  0.45286300  0.95292100  0.90522800  1
  C  C19  1  0.68396200  0.68366700  0.36789400  1
