# generated using pymatgen
data_CuC6
_symmetry_space_group_name_H-M   'P 1'
_cell_length_a   6.38565914
_cell_length_b   6.38565914
_cell_length_c   7.00273821
_cell_angle_alpha   75.72854624
_cell_angle_beta   75.72854624
_cell_angle_gamma   70.73913718
_symmetry_Int_Tables_number   1
_chemical_formula_structural   CuC6
_chemical_formula_sum   'Cu2 C12'
_cell_volume   256.95178268
_cell_formula_units_Z   2
loop_
 _symmetry_equiv_pos_site_id
 _symmetry_equiv_pos_as_xyz
  1  'x, y, z'
loop_
 _atom_site_type_symbol
 _atom_site_label
 _atom_site_symmetry_multiplicity
 _atom_site_fract_x
 _atom_site_fract_y
 _atom_site_fract_z
 _atom_site_occupancy
  C  C0  1  0.77750600  0.77750600  0.11834700  1
  C  C1  1  0.22249400  0.22249400  0.88165300  1
  C  C2  1  0.63663100  0.63663100  0.73397400  1
  C  C3  1  0.36336900  0.36336900  0.26602600  1
  Cu  Cu4  1  0.98304637  0.98101387  0.79082391  1
  Cu  Cu5  1  0.99965053  0.04230561  0.24455983  1
  C  C6  1  0.70441200  0.70441200  0.46578500  1
  C  C7  1  0.29558800  0.29558800  0.53421500  1
  C  C8  1  0.54492100  0.54492100  0.19560500  1
  C  C9  1  0.45507900  0.45507900  0.80439500  1
  C  C10  1  0.10890500  0.49173000  0.15416100  1
  C  C11  1  0.49173000  0.10890500  0.15416100  1
  C  C12  1  0.89109500  0.50827000  0.84583900  1
  C  C13  1  0.50827000  0.89109500  0.84583900  1
