# generated using pymatgen
data_Cu2Ni2C11
_symmetry_space_group_name_H-M   'P 1'
_cell_length_a   5.56749500
_cell_length_b   5.57421660
_cell_length_c   11.08929191
_cell_angle_alpha   75.93718494
_cell_angle_beta   76.15940301
_cell_angle_gamma   60.09525275
_symmetry_Int_Tables_number   1
_chemical_formula_structural   Cu2Ni2C11
_chemical_formula_sum   'Cu4 Ni4 C22'
_cell_volume   286.51980330
_cell_formula_units_Z   2
loop_
 _symmetry_equiv_pos_site_id
 _symmetry_equiv_pos_as_xyz
  1  'x, y, z'
loop_
 _atom_site_type_symbol
 _atom_site_label
 _atom_site_symmetry_multiplicity
 _atom_site_fract_x
 _atom_site_fract_y
 _atom_site_fract_z
 _atom_site_occupancy
  C  C0  1  0.22350000  0.88818900  0.32348000  1
  C  C1  1  0.42840900  0.79403700  0.68624600  1
  C  C2  1  0.58788300  0.93297400  0.18542400  1
  C  C3  1  0.58243900  0.72778500  0.99174500  1
  C  C4  1  0.76304200  0.81312800  0.51294100  1
  C  C5  1  0.68910600  0.40933300  0.81878900  1
  C  C6  1  0.91039000  0.57404300  0.32942400  1
  C  C7  1  0.05363800  0.72399400  0.83030000  1
  C  C8  1  0.94636200  0.27600600  0.16970000  1
  C  C9  1  0.08961000  0.42595700  0.67057600  1
  C  C10  1  0.31089400  0.59066700  0.18121100  1
  C  C11  1  0.41756100  0.27221500  0.00825500  1
  C  C12  1  0.23695800  0.18687200  0.48705900  1
  C  C13  1  0.41211700  0.06702600  0.81457600  1
  C  C14  1  0.57159100  0.20596300  0.31375400  1
  C  C15  1  0.77650000  0.11181100  0.67652000  1
  C  C16  1  0.00000000  0.00000000  0.00000000  1
  C  C17  1  0.50000000  0.50000000  0.50000000  1
  Ni  Ni18  1  0.28635000  0.96020600  0.11905400  1
  Cu  Cu19  1  0.38229111  0.68894789  0.86980588  1
  Cu  Cu20  1  0.52409134  0.91391795  0.39182898  1
  Ni  Ni21  1  0.76372800  0.47061900  0.62347700  1
  Cu  Cu22  1  0.22386309  0.53022681  0.38224798  1
  Ni  Ni23  1  0.45994800  0.13339100  0.61989800  1
  Cu  Cu24  1  0.61266475  0.30381097  0.13820204  1
  Ni  Ni25  1  0.71365000  0.03979400  0.88094600  1
  C  C26  1  0.96040100  0.61718900  0.14457500  1
  C  C27  1  0.11248300  0.77874800  0.64257200  1
  C  C28  1  0.88751700  0.22125200  0.35742800  1
  C  C29  1  0.03959900  0.38281100  0.85542500  1
