# generated using pymatgen
data_Cu4NiC4
_symmetry_space_group_name_H-M   'P 1'
_cell_length_a   6.95772699
_cell_length_b   6.83779900
_cell_length_c   10.08460154
_cell_angle_alpha   90.00000000
_cell_angle_beta   104.22004189
_cell_angle_gamma   90.00000000
_symmetry_Int_Tables_number   1
_chemical_formula_structural   Cu4NiC4
_chemical_formula_sum   'Cu16 Ni4 C16'
_cell_volume   465.07963240
_cell_formula_units_Z   4
loop_
 _symmetry_equiv_pos_site_id
 _symmetry_equiv_pos_as_xyz
  1  'x, y, z'
loop_
 _atom_site_type_symbol
 _atom_site_label
 _atom_site_symmetry_multiplicity
 _atom_site_fract_x
 _atom_site_fract_y
 _atom_site_fract_z
 _atom_site_occupancy
  C  C0  1  0.89683200  0.03451200  0.61742600  1
  C  C1  1  0.89683200  0.96548800  0.11742600  1
  C  C2  1  0.54382000  0.00834700  0.83404000  1
  C  C3  1  0.54382000  0.99165300  0.33404000  1
  C  C4  1  0.35814400  0.02017800  0.01375000  1
  C  C5  1  0.35814400  0.97982200  0.51375000  1
  C  C6  1  0.10003200  0.40496900  0.07767800  1
  C  C7  1  0.10003200  0.59503100  0.57767800  1
  C  C8  1  0.68127300  0.38598500  0.97593200  1
  C  C9  1  0.68127300  0.61401500  0.47593200  1
  C  C10  1  0.86596400  0.65123700  0.81425100  1
  C  C11  1  0.86596400  0.34876300  0.31425100  1
  C  C12  1  0.30662500  0.61179500  0.89728300  1
  C  C13  1  0.30662500  0.38820500  0.39728300  1
  C  C14  1  0.47057400  0.37531900  0.69321400  1
  C  C15  1  0.47057400  0.62468100  0.19321400  1
  Cu  Cu16  1  0.74831194  0.86645782  0.82013924  1
  Ni  Ni17  1  0.76207500  0.12151800  0.34270200  1
  Cu  Cu18  1  0.53923153  0.15606267  0.98689301  1
  Ni  Ni19  1  0.55938800  0.83980500  0.48313500  1
  Cu  Cu20  1  0.35291457  0.84672481  0.87376750  1
  Cu  Cu21  1  0.35706547  0.13048272  0.38349771  1
  Ni  Ni22  1  0.16835100  0.17306000  0.02929200  1
  Ni  Ni23  1  0.16835100  0.82694000  0.52929200  1
  Cu  Cu24  1  0.26694424  0.52237843  0.74636874  1
  Cu  Cu25  1  0.27220069  0.50054606  0.22466571  1
  Cu  Cu26  1  0.44875699  0.12433526  0.67069626  1
  Cu  Cu27  1  0.43392296  0.87924100  0.15833939  1
  Cu  Cu28  1  0.87547401  0.37175787  0.11670852  1
  Cu  Cu29  1  0.86833628  0.59889467  0.63533047  1
  Cu  Cu30  1  0.05559952  0.56757170  0.95435223  1
  Cu  Cu31  1  0.09407677  0.39710483  0.42304481  1
  Cu  Cu32  1  0.69239400  0.42810578  0.78099583  1
  Cu  Cu33  1  0.70808038  0.52943426  0.29745997  1
  Cu  Cu34  1  0.50874543  0.56620789  0.03934154  1
  Cu  Cu35  1  0.52047553  0.48045208  0.51221625  1
