# generated using pymatgen
data_Cu35Ni25C16
_symmetry_space_group_name_H-M   'P 1'
_cell_length_a   8.44382759
_cell_length_b   11.77748300
_cell_length_c   12.71314038
_cell_angle_alpha   90.00000000
_cell_angle_beta   95.80925773
_cell_angle_gamma   90.00000000
_symmetry_Int_Tables_number   1
_chemical_formula_structural   Cu35Ni25C16
_chemical_formula_sum   'Cu35 Ni25 C16'
_cell_volume   1257.79122973
_cell_formula_units_Z   1
loop_
 _symmetry_equiv_pos_site_id
 _symmetry_equiv_pos_as_xyz
  1  'x, y, z'
loop_
 _atom_site_type_symbol
 _atom_site_label
 _atom_site_symmetry_multiplicity
 _atom_site_fract_x
 _atom_site_fract_y
 _atom_site_fract_z
 _atom_site_occupancy
  C  C0  1  0.90994600  0.81012400  0.51246200  1
  C  C1  1  0.09005400  0.31012400  0.98753800  1
  C  C2  1  0.09005400  0.18987600  0.48753800  1
  C  C3  1  0.90994600  0.68987600  0.01246200  1
  C  C4  1  0.61791400  0.39993100  0.25621400  1
  C  C5  1  0.38208600  0.89993100  0.24378600  1
  C  C6  1  0.38208600  0.60006900  0.74378600  1
  C  C7  1  0.61791400  0.10006900  0.75621400  1
  C  C8  1  0.76412100  0.71697600  0.25791200  1
  C  C9  1  0.23587900  0.21697600  0.24208800  1
  C  C10  1  0.23587900  0.28302400  0.74208800  1
  C  C11  1  0.76412100  0.78302400  0.75791200  1
  C  C12  1  0.25313500  0.59408200  0.26869800  1
  C  C13  1  0.74686500  0.09408200  0.23130200  1
  C  C14  1  0.74686500  0.40591800  0.73130200  1
  C  C15  1  0.25313500  0.90591800  0.76869800  1
  Ni  Ni16  1  0.74784300  0.58167400  0.29725600  1
  Cu  Cu17  1  0.25339014  0.06853826  0.19593501  1
  Ni  Ni18  1  0.25215700  0.41832600  0.70274400  1
  Ni  Ni19  1  0.74784300  0.91832600  0.79725600  1
  Cu  Cu20  1  0.68983728  0.36981967  0.37530240  1
  Ni  Ni21  1  0.30113600  0.86511700  0.11102000  1
  Ni  Ni22  1  0.30113600  0.63488300  0.61102000  1
  Cu  Cu23  1  0.68769085  0.14669283  0.90998130  1
  Cu  Cu24  1  0.40731784  0.27448744  0.29778386  1
  Cu  Cu25  1  0.56916644  0.76151451  0.21818259  1
  Cu  Cu26  1  0.58909407  0.73837309  0.69832985  1
  Ni  Ni27  1  0.41570700  0.23513800  0.78584200  1
  Ni  Ni28  1  0.23164500  0.58453700  0.13656700  1
  Cu  Cu29  1  0.76270804  0.08844295  0.35912377  1
  Ni  Ni30  1  0.76835500  0.41546300  0.86343300  1
  Cu  Cu31  1  0.22140383  0.92239831  0.62352730  1
  Cu  Cu32  1  0.42294174  0.52200091  0.32117797  1
  Cu  Cu33  1  0.58556644  0.01331465  0.18766786  1
  Ni  Ni34  1  0.58366900  0.48113900  0.68506600  1
  Ni  Ni35  1  0.41633100  0.98113900  0.81493400  1
  Cu  Cu36  1  0.12632314  0.78857415  0.52070962  1
  Cu  Cu37  1  0.84684593  0.30593483  0.98380486  1
  Ni  Ni38  1  0.84971400  0.19902200  0.49119900  1
  Cu  Cu39  1  0.14343544  0.71187884  0.01324512  1
  Cu  Cu40  1  0.83443752  0.80177323  0.37058249  1
  Cu  Cu41  1  0.16087363  0.29512340  0.13635707  1
  Cu  Cu42  1  0.16797372  0.22752847  0.63810119  1
  Cu  Cu43  1  0.81945325  0.72059466  0.85728937  1
  Cu  Cu44  1  0.53771172  0.44313073  0.11397129  1
  Ni  Ni45  1  0.45775400  0.93547400  0.37667900  1
  Cu  Cu46  1  0.44933190  0.56737617  0.85761251  1
  Cu  Cu47  1  0.54153384  0.05337162  0.61533012  1
  Ni  Ni48  1  0.88250800  0.72197600  0.16130500  1
  Ni  Ni49  1  0.11749200  0.22197600  0.33869500  1
  Ni  Ni50  1  0.11749200  0.27802400  0.83869500  1
  Ni  Ni51  1  0.88250800  0.77802400  0.66130500  1
  Ni  Ni52  1  0.87375800  0.45535400  0.19933000  1
  Cu  Cu53  1  0.13030977  0.96082237  0.30397294  1
  Cu  Cu54  1  0.11712783  0.53488375  0.80801727  1
  Ni  Ni55  1  0.87375800  0.04464600  0.69933000  1
  Ni  Ni56  1  0.28456500  0.73057600  0.30799200  1
  Ni  Ni57  1  0.71543500  0.23057600  0.19200800  1
  Cu  Cu58  1  0.72721456  0.26281399  0.69901488  1
  Cu  Cu59  1  0.30492720  0.77524289  0.79613709  1
  Cu  Cu60  1  0.11320123  0.54506744  0.32446171  1
  Cu  Cu61  1  0.89879986  0.04551751  0.17862615  1
  Cu  Cu62  1  0.90466424  0.47625046  0.67052892  1
  Ni  Ni63  1  0.09626700  0.95615700  0.82400300  1
  Cu  Cu64  1  0.76809485  0.62711334  0.51854377  1
  Cu  Cu65  1  0.24231113  0.10211284  0.97883594  1
  Ni  Ni66  1  0.23957600  0.39473800  0.48315200  1
  Cu  Cu67  1  0.77710801  0.88862042  0.02010095  1
  Cu  Cu68  1  0.93093464  0.51450714  0.02060832  1
  Ni  Ni69  1  0.06927700  0.00566600  0.48434400  1
  Ni  Ni70  1  0.06927700  0.49433400  0.98434400  1
  Cu  Cu71  1  0.94011458  0.98906482  0.51556374  1
  Ni  Ni72  1  0.35639200  0.33123200  0.49720600  1
  Cu  Cu73  1  0.64183074  0.84469614  0.00561091  1
  Cu  Cu74  1  0.65199365  0.67589319  0.50407974  1
  Cu  Cu75  1  0.35669049  0.17143378  0.99923723  1
