# generated using pymatgen
data_Cu3NiC16
_symmetry_space_group_name_H-M   'P 1'
_cell_length_a   5.96650044
_cell_length_b   5.96650044
_cell_length_c   5.96650074
_cell_angle_alpha   104.13751332
_cell_angle_beta   104.13751332
_cell_angle_gamma   104.13750555
_symmetry_Int_Tables_number   1
_chemical_formula_structural   Cu3NiC16
_chemical_formula_sum   'Cu3 Ni1 C16'
_cell_volume   189.01207995
_cell_formula_units_Z   1
loop_
 _symmetry_equiv_pos_site_id
 _symmetry_equiv_pos_as_xyz
  1  'x, y, z'
loop_
 _atom_site_type_symbol
 _atom_site_label
 _atom_site_symmetry_multiplicity
 _atom_site_fract_x
 _atom_site_fract_y
 _atom_site_fract_z
 _atom_site_occupancy
  C  C0  1  0.00000000  0.00000000  0.00000000  1
  C  C1  1  0.00000000  0.44436500  0.55563500  1
  C  C2  1  0.55563500  0.00000000  0.44436500  1
  C  C3  1  0.44436500  0.55563500  0.00000000  1
  Ni  Ni4  1  0.50000000  0.05819300  0.94180700  1
  Cu  Cu5  1  0.93586559  0.46766188  0.07236306  1
  Cu  Cu6  1  0.08657684  0.94718062  0.57421215  1
  Cu  Cu7  1  0.49960858  0.49222373  0.51323694  1
  C  C8  1  0.37904400  0.22568500  0.97294500  1
  C  C9  1  0.02705500  0.77431500  0.62095600  1
  C  C10  1  0.77431500  0.62095600  0.02705500  1
  C  C11  1  0.62095600  0.02705500  0.77431500  1
  C  C12  1  0.64855500  0.35144500  0.50000000  1
  C  C13  1  0.35144500  0.50000000  0.64855500  1
  C  C14  1  0.50000000  0.64855500  0.35144500  1
  C  C15  1  0.90954000  0.09046000  0.50000000  1
  C  C16  1  0.09046000  0.50000000  0.90954000  1
  C  C17  1  0.50000000  0.90954000  0.09046000  1
  C  C18  1  0.22568500  0.97294500  0.37904400  1
  C  C19  1  0.97294500  0.37904400  0.22568500  1
