# generated using pymatgen
data_Cu9Ni3C8
_symmetry_space_group_name_H-M   'P 1'
_cell_length_a   7.44230001
_cell_length_b   7.44230001
_cell_length_c   6.27409460
_cell_angle_alpha   76.86127952
_cell_angle_beta   76.86127952
_cell_angle_gamma   87.09468157
_symmetry_Int_Tables_number   1
_chemical_formula_structural   Cu9Ni3C8
_chemical_formula_sum   'Cu9 Ni3 C8'
_cell_volume   329.55268178
_cell_formula_units_Z   1
loop_
 _symmetry_equiv_pos_site_id
 _symmetry_equiv_pos_as_xyz
  1  'x, y, z'
loop_
 _atom_site_type_symbol
 _atom_site_label
 _atom_site_symmetry_multiplicity
 _atom_site_fract_x
 _atom_site_fract_y
 _atom_site_fract_z
 _atom_site_occupancy
  C  C0  1  0.90468000  0.09532000  0.25000000  1
  C  C1  1  0.32249000  0.67751000  0.25000000  1
  C  C2  1  0.67751000  0.32249000  0.75000000  1
  C  C3  1  0.09532000  0.90468000  0.75000000  1
  C  C4  1  0.79838000  0.61944000  0.25030000  1
  C  C5  1  0.38056000  0.20162000  0.24970000  1
  C  C6  1  0.61944000  0.79838000  0.75030000  1
  C  C7  1  0.20162000  0.38056000  0.74970000  1
  Cu  Cu8  1  0.76881163  0.98013369  0.66634028  1
  Cu  Cu9  1  0.36400500  0.83895456  0.86159827  1
  Cu  Cu10  1  0.66657589  0.63756520  0.01369226  1
  Cu  Cu11  1  0.01211450  0.76914202  0.14427972  1
  Cu  Cu12  1  0.15420401  0.59259421  0.64077814  1
  Cu  Cu13  1  0.62725246  0.65237861  0.50055337  1
  Cu  Cu14  1  0.34843602  0.29989200  0.48458108  1
  Ni  Ni15  1  0.61663000  0.14307000  0.14241000  1
  Ni  Ni16  1  0.85693000  0.38337000  0.35759000  1
  Cu  Cu17  1  0.34527640  0.33878086  0.98612554  1
  Ni  Ni18  1  0.23151000  0.00141000  0.33966000  1
  Cu  Cu19  1  0.98165901  0.24015912  0.81113539  1
