# generated using pymatgen
data_Cu15NiC24
_symmetry_space_group_name_H-M   'P 1'
_cell_length_a   6.68264900
_cell_length_b   7.08101500
_cell_length_c   7.99330900
_cell_angle_alpha   90.00000000
_cell_angle_beta   90.00000000
_cell_angle_gamma   90.00000000
_symmetry_Int_Tables_number   1
_chemical_formula_structural   Cu15NiC24
_chemical_formula_sum   'Cu15 Ni1 C24'
_cell_volume   378.24288477
_cell_formula_units_Z   1
loop_
 _symmetry_equiv_pos_site_id
 _symmetry_equiv_pos_as_xyz
  1  'x, y, z'
loop_
 _atom_site_type_symbol
 _atom_site_label
 _atom_site_symmetry_multiplicity
 _atom_site_fract_x
 _atom_site_fract_y
 _atom_site_fract_z
 _atom_site_occupancy
  C  C0  1  0.75662000  0.50000000  0.00000000  1
  C  C1  1  0.24338000  0.50000000  0.00000000  1
  C  C2  1  0.50000000  0.74397600  0.09777400  1
  C  C3  1  0.74488300  0.97794300  0.15552400  1
  C  C4  1  0.25511700  0.97794300  0.15552400  1
  C  C5  1  0.50000000  0.24209600  0.20380900  1
  C  C6  1  0.00000000  0.74209600  0.29619100  1
  C  C7  1  0.75511700  0.47794300  0.34447600  1
  C  C8  1  0.24488300  0.47794300  0.34447600  1
  C  C9  1  0.00000000  0.24397600  0.40222600  1
  C  C10  1  0.25662000  0.00000000  0.50000000  1
  C  C11  1  0.74338000  0.00000000  0.50000000  1
  C  C12  1  0.00000000  0.75602400  0.59777400  1
  C  C13  1  0.75511700  0.52205700  0.65552400  1
  C  C14  1  0.24488300  0.52205700  0.65552400  1
  C  C15  1  0.00000000  0.25790400  0.70380900  1
  C  C16  1  0.50000000  0.75790400  0.79619100  1
  C  C17  1  0.74488300  0.02205700  0.84447600  1
  C  C18  1  0.25511700  0.02205700  0.84447600  1
  C  C19  1  0.50000000  0.25602400  0.90222600  1
  C  C20  1  0.00000000  0.23234400  0.10280500  1
  C  C21  1  0.50000000  0.73234400  0.39719500  1
  C  C22  1  0.50000000  0.26765600  0.60280500  1
  C  C23  1  0.00000000  0.76765600  0.89719500  1
  Cu  Cu24  1  0.75990765  0.21125482  0.00606620  1
  Cu  Cu25  1  0.25892475  0.20676729  0.02891003  1
  Cu  Cu26  1  0.96670453  0.47586844  0.20056077  1
  Cu  Cu27  1  0.49302562  0.54836049  0.22568027  1
  Cu  Cu28  1  0.99160642  0.98662172  0.26177998  1
  Cu  Cu29  1  0.46663219  0.96409267  0.28640836  1
  Ni  Ni30  1  0.75957200  0.71758600  0.47597900  1
  Cu  Cu31  1  0.23425228  0.71649785  0.46996638  1
  Cu  Cu32  1  0.74459442  0.27599715  0.51887472  1
  Cu  Cu33  1  0.24623549  0.30337328  0.52210894  1
  Cu  Cu34  1  0.48432649  0.03112032  0.70558422  1
  Cu  Cu35  1  0.97151789  0.98807862  0.74627561  1
  Cu  Cu36  1  0.49512483  0.47603405  0.76226406  1
  Cu  Cu37  1  0.97954819  0.55110114  0.76880563  1
  Cu  Cu38  1  0.77347623  0.77332000  0.97896395  1
  Cu  Cu39  1  0.26755387  0.78254816  0.98995196  1
