# generated using pymatgen
data_Cu5Ni3C8
_symmetry_space_group_name_H-M   'P 1'
_cell_length_a   5.95163900
_cell_length_b   5.16054400
_cell_length_c   5.17951981
_cell_angle_alpha   70.53889999
_cell_angle_beta   90.00000000
_cell_angle_gamma   90.00000000
_symmetry_Int_Tables_number   1
_chemical_formula_structural   Cu5Ni3C8
_chemical_formula_sum   'Cu5 Ni3 C8'
_cell_volume   149.99349271
_cell_formula_units_Z   1
loop_
 _symmetry_equiv_pos_site_id
 _symmetry_equiv_pos_as_xyz
  1  'x, y, z'
loop_
 _atom_site_type_symbol
 _atom_site_label
 _atom_site_symmetry_multiplicity
 _atom_site_fract_x
 _atom_site_fract_y
 _atom_site_fract_z
 _atom_site_occupancy
  C  C0  1  0.24921600  0.00000000  0.00000000  1
  C  C1  1  0.75078400  0.00000000  0.00000000  1
  C  C2  1  0.00000000  0.50000000  0.00000000  1
  C  C3  1  0.50000000  0.50000000  0.00000000  1
  C  C4  1  0.00000000  0.00000000  0.50000000  1
  C  C5  1  0.50000000  0.00000000  0.50000000  1
  C  C6  1  0.25005200  0.50000000  0.50000000  1
  C  C7  1  0.74994800  0.50000000  0.50000000  1
  Cu  Cu8  1  0.25122747  0.73097979  0.75564633  1
  Ni  Ni9  1  0.75111600  0.75820400  0.72747700  1
  Cu  Cu10  1  0.01831373  0.72553763  0.32256184  1
  Cu  Cu11  1  0.00035330  0.30095725  0.68649016  1
  Cu  Cu12  1  0.50087520  0.71030887  0.31550431  1
  Ni  Ni13  1  0.24888400  0.24179600  0.27252300  1
  Ni  Ni14  1  0.50000000  0.25816600  0.72939900  1
  Cu  Cu15  1  0.76130242  0.21712120  0.28063434  1
