# generated using pymatgen
data_CuNiC28
_symmetry_space_group_name_H-M   'P 1'
_cell_length_a   5.61149700
_cell_length_b   5.72181583
_cell_length_c   7.35410691
_cell_angle_alpha   87.23899783
_cell_angle_beta   88.42011408
_cell_angle_gamma   81.50605689
_symmetry_Int_Tables_number   1
_chemical_formula_structural   CuNiC28
_chemical_formula_sum   'Cu1 Ni1 C28'
_cell_volume   233.21425845
_cell_formula_units_Z   1
loop_
 _symmetry_equiv_pos_site_id
 _symmetry_equiv_pos_as_xyz
  1  'x, y, z'
loop_
 _atom_site_type_symbol
 _atom_site_label
 _atom_site_symmetry_multiplicity
 _atom_site_fract_x
 _atom_site_fract_y
 _atom_site_fract_z
 _atom_site_occupancy
  C  C0  1  0.01496100  0.98259000  0.47004700  1
  C  C1  1  0.15530800  0.85031200  0.27915700  1
  C  C2  1  0.08431300  0.89969800  0.01512200  1
  C  C3  1  0.86711700  0.18885300  0.69900200  1
  C  C4  1  0.86767100  0.19219700  0.01058000  1
  C  C5  1  0.52462100  0.55352100  0.48763800  1
  C  C6  1  0.46027100  0.43002200  0.99670900  1
  C  C7  1  0.39247300  0.25661800  0.57360900  1
  C  C8  1  0.77633900  0.58831500  0.09182100  1
  C  C9  1  0.12003900  0.40446200  0.17789700  1
  C  C10  1  0.57162300  0.14531000  0.29580200  1
  C  C11  1  0.62616500  0.80668200  0.38400600  1
  C  C12  1  0.16135300  0.47202800  0.83888800  1
  C  C13  1  0.87954200  0.61682900  0.84965700  1
  C  C14  1  0.51284600  0.84772600  0.64935100  1
  C  C15  1  0.24337700  0.94264100  0.71728200  1
  Cu  Cu16  1  0.97499190  0.53516646  0.48847026  1
  Ni  Ni17  1  0.51748800  0.98024700  0.99644700  1
  C  C18  1  0.12126500  0.83223700  0.42365700  1
  C  C19  1  0.22449400  0.84199800  0.09259600  1
  C  C20  1  0.89554600  0.20383800  0.56365700  1
  C  C21  1  0.83235500  0.09235800  0.91274200  1
  C  C22  1  0.64583600  0.67901300  0.49912400  1
  C  C23  1  0.34015500  0.31851200  0.99934900  1
  C  C24  1  0.35635600  0.38213100  0.47775900  1
  C  C25  1  0.68373000  0.64018700  0.97660100  1
  C  C26  1  0.95872900  0.43935400  0.23857200  1
  C  C27  1  0.63395000  0.98931400  0.24816600  1
  C  C28  1  0.04362000  0.59171100  0.76682200  1
  C  C29  1  0.41109100  0.97271600  0.72602100  1
