# generated using pymatgen
data_CuNiC34
_symmetry_space_group_name_H-M   'P 1'
_cell_length_a   6.95772699
_cell_length_b   6.83779900
_cell_length_c   10.08460154
_cell_angle_alpha   90.00000000
_cell_angle_beta   104.22004189
_cell_angle_gamma   90.00000000
_symmetry_Int_Tables_number   1
_chemical_formula_structural   CuNiC34
_chemical_formula_sum   'Cu1 Ni1 C34'
_cell_volume   465.07963240
_cell_formula_units_Z   1
loop_
 _symmetry_equiv_pos_site_id
 _symmetry_equiv_pos_as_xyz
  1  'x, y, z'
loop_
 _atom_site_type_symbol
 _atom_site_label
 _atom_site_symmetry_multiplicity
 _atom_site_fract_x
 _atom_site_fract_y
 _atom_site_fract_z
 _atom_site_occupancy
  Cu  Cu0  1  0.88440745  0.00888270  0.60918551  1
  Ni  Ni1  1  0.89683200  0.96548800  0.11742600  1
  C  C2  1  0.54382000  0.00834700  0.83404000  1
  C  C3  1  0.54382000  0.99165300  0.33404000  1
  C  C4  1  0.35814400  0.02017800  0.01375000  1
  C  C5  1  0.35814400  0.97982200  0.51375000  1
  C  C6  1  0.10003200  0.40496900  0.07767800  1
  C  C7  1  0.10003200  0.59503100  0.57767800  1
  C  C8  1  0.68127300  0.38598500  0.97593200  1
  C  C9  1  0.68127300  0.61401500  0.47593200  1
  C  C10  1  0.86596400  0.65123700  0.81425100  1
  C  C11  1  0.86596400  0.34876300  0.31425100  1
  C  C12  1  0.30662500  0.61179500  0.89728300  1
  C  C13  1  0.30662500  0.38820500  0.39728300  1
  C  C14  1  0.47057400  0.37531900  0.69321400  1
  C  C15  1  0.47057400  0.62468100  0.19321400  1
  C  C16  1  0.76207500  0.87848200  0.84270200  1
  C  C17  1  0.76207500  0.12151800  0.34270200  1
  C  C18  1  0.55938800  0.16019500  0.98313500  1
  C  C19  1  0.55938800  0.83980500  0.48313500  1
  C  C20  1  0.34754500  0.85961600  0.86701900  1
  C  C21  1  0.34754500  0.14038400  0.36701900  1
  C  C22  1  0.16835100  0.17306000  0.02929200  1
  C  C23  1  0.16835100  0.82694000  0.52929200  1
  C  C24  1  0.26139300  0.49435700  0.73271200  1
  C  C25  1  0.26139300  0.50564300  0.23271200  1
  C  C26  1  0.44799900  0.11527800  0.66829100  1
  C  C27  1  0.44799900  0.88472200  0.16829100  1
  C  C28  1  0.87703400  0.36571100  0.13587800  1
  C  C29  1  0.87703400  0.63428900  0.63587800  1
  C  C30  1  0.07622500  0.59021000  0.94832100  1
  C  C31  1  0.07622500  0.40979000  0.44832100  1
  C  C32  1  0.69670700  0.45990300  0.80244700  1
  C  C33  1  0.69670700  0.54009700  0.30244700  1
  C  C34  1  0.52231700  0.54271700  0.03593000  1
  C  C35  1  0.52231700  0.45728300  0.53593000  1
