# generated using pymatgen
data_Cu9NiC5
_symmetry_space_group_name_H-M   'P 1'
_cell_length_a   5.34881100
_cell_length_b   7.62226800
_cell_length_c   16.45852700
_cell_angle_alpha   90.00000000
_cell_angle_beta   90.00000000
_cell_angle_gamma   90.00000000
_symmetry_Int_Tables_number   1
_chemical_formula_structural   Cu9NiC5
_chemical_formula_sum   'Cu36 Ni4 C20'
_cell_volume   671.01531308
_cell_formula_units_Z   4
loop_
 _symmetry_equiv_pos_site_id
 _symmetry_equiv_pos_as_xyz
  1  'x, y, z'
loop_
 _atom_site_type_symbol
 _atom_site_label
 _atom_site_symmetry_multiplicity
 _atom_site_fract_x
 _atom_site_fract_y
 _atom_site_fract_z
 _atom_site_occupancy
  C  C0  1  0.01151900  0.75000000  0.98205200  1
  C  C1  1  0.01061400  0.75000000  0.31678800  1
  C  C2  1  0.48938600  0.75000000  0.81678800  1
  C  C3  1  0.48848100  0.75000000  0.48205200  1
  C  C4  1  0.98938600  0.25000000  0.68321200  1
  C  C5  1  0.98848100  0.25000000  0.01794800  1
  C  C6  1  0.51151900  0.25000000  0.51794800  1
  C  C7  1  0.51061400  0.25000000  0.18321200  1
  Ni  Ni8  1  0.01363600  0.75000000  0.64680000  1
  Ni  Ni9  1  0.48636400  0.75000000  0.14680000  1
  Ni  Ni10  1  0.98636400  0.25000000  0.35320000  1
  Ni  Ni11  1  0.51363600  0.25000000  0.85320000  1
  C  C12  1  0.00000000  0.50000000  0.50000000  1
  C  C13  1  0.00055900  0.50130000  0.83255200  1
  C  C14  1  0.99944100  0.49870000  0.16744800  1
  C  C15  1  0.50055900  0.00130000  0.66744800  1
  C  C16  1  0.50000000  0.00000000  0.00000000  1
  C  C17  1  0.49944100  0.99870000  0.33255200  1
  C  C18  1  0.00055900  0.99870000  0.83255200  1
  C  C19  1  0.99944100  0.00130000  0.16744800  1
  C  C20  1  0.00000000  0.00000000  0.50000000  1
  C  C21  1  0.50055900  0.49870000  0.66744800  1
  C  C22  1  0.50000000  0.50000000  0.00000000  1
  C  C23  1  0.49944100  0.50130000  0.33255200  1
  Cu  Cu24  1  0.19965100  0.54779400  0.73350900  1
  Cu  Cu25  1  0.20819500  0.55055100  0.07080900  1
  Cu  Cu26  1  0.19872100  0.53484100  0.40028900  1
  Cu  Cu27  1  0.29180500  0.94944900  0.57080900  1
  Cu  Cu28  1  0.30127900  0.96515900  0.90028900  1
  Cu  Cu29  1  0.30034900  0.95220600  0.23350900  1
  Cu  Cu30  1  0.80127900  0.03484100  0.59971100  1
  Cu  Cu31  1  0.79180500  0.05055100  0.92919100  1
  Cu  Cu32  1  0.80034900  0.04779400  0.26649100  1
  Cu  Cu33  1  0.69965100  0.45220600  0.76649100  1
  Cu  Cu34  1  0.69872100  0.46515900  0.09971100  1
  Cu  Cu35  1  0.70819500  0.44944900  0.42919100  1
  Cu  Cu36  1  0.80127900  0.46515900  0.59971100  1
  Cu  Cu37  1  0.79180500  0.44944900  0.92919100  1
  Cu  Cu38  1  0.80034900  0.45220600  0.26649100  1
  Cu  Cu39  1  0.69965100  0.04779400  0.76649100  1
  Cu  Cu40  1  0.69872100  0.03484100  0.09971100  1
  Cu  Cu41  1  0.70819500  0.05055100  0.42919100  1
  Cu  Cu42  1  0.19965100  0.95220600  0.73350900  1
  Cu  Cu43  1  0.20819500  0.94944900  0.07080900  1
  Cu  Cu44  1  0.19872100  0.96515900  0.40028900  1
  Cu  Cu45  1  0.29180500  0.55055100  0.57080900  1
  Cu  Cu46  1  0.30127900  0.53484100  0.90028900  1
  Cu  Cu47  1  0.30034900  0.54779400  0.23350900  1
  Cu  Cu48  1  0.91928000  0.75000000  0.50797200  1
  Cu  Cu49  1  0.92039900  0.75000000  0.84114900  1
  Cu  Cu50  1  0.90715000  0.75000000  0.17529100  1
  Cu  Cu51  1  0.59285000  0.75000000  0.67529100  1
  Cu  Cu52  1  0.58072000  0.75000000  0.00797200  1
  Cu  Cu53  1  0.57960100  0.75000000  0.34114900  1
  Cu  Cu54  1  0.09285000  0.25000000  0.82470900  1
  Cu  Cu55  1  0.07960100  0.25000000  0.15885100  1
  Cu  Cu56  1  0.08072000  0.25000000  0.49202800  1
  Cu  Cu57  1  0.42039900  0.25000000  0.65885100  1
  Cu  Cu58  1  0.41928000  0.25000000  0.99202800  1
  Cu  Cu59  1  0.40715000  0.25000000  0.32470900  1
