# generated using pymatgen
data_CuC14
_symmetry_space_group_name_H-M   'P 1'
_cell_length_a   7.15492600
_cell_length_b   7.18309949
_cell_length_c   7.23750618
_cell_angle_alpha   91.22303264
_cell_angle_beta   95.46041682
_cell_angle_gamma   90.04769132
_symmetry_Int_Tables_number   1
_chemical_formula_structural   CuC14
_chemical_formula_sum   'Cu1 C14'
_cell_volume   370.19452451
_cell_formula_units_Z   1
loop_
 _symmetry_equiv_pos_site_id
 _symmetry_equiv_pos_as_xyz
  1  'x, y, z'
loop_
 _atom_site_type_symbol
 _atom_site_label
 _atom_site_symmetry_multiplicity
 _atom_site_fract_x
 _atom_site_fract_y
 _atom_site_fract_z
 _atom_site_occupancy
  Cu  Cu0  1  0.83260193  0.93225745  0.50086110  1
  C  C1  1  0.79246800  0.77351000  0.80590700  1
  C  C2  1  0.20502900  0.22873200  0.21085000  1
  C  C3  1  0.90259200  0.25590500  0.63766100  1
  C  C4  1  0.10603100  0.75084500  0.37447400  1
  C  C5  1  0.26937200  0.62647300  0.86673200  1
  C  C6  1  0.73140300  0.37347900  0.12919500  1
  C  C7  1  0.58788300  0.88701300  0.24362900  1
  C  C8  1  0.38873900  0.11948600  0.73932700  1
  C  C9  1  0.59045800  0.44362300  0.74743900  1
  C  C10  1  0.41398500  0.54669000  0.24632600  1
  C  C11  1  0.75651400  0.57096500  0.45766700  1
  C  C12  1  0.24812200  0.42351500  0.54180800  1
  C  C13  1  0.45988400  0.76029300  0.57697100  1
  C  C14  1  0.54779100  0.24330200  0.42319800  1
