# generated using pymatgen
data_Cu15NiC9
_symmetry_space_group_name_H-M   'P 1'
_cell_length_a   7.05760600
_cell_length_b   13.61261300
_cell_length_c   14.18709300
_cell_angle_alpha   90.00000000
_cell_angle_beta   90.00000000
_cell_angle_gamma   90.00000000
_symmetry_Int_Tables_number   1
_chemical_formula_structural   Cu15NiC9
_chemical_formula_sum   'Cu60 Ni4 C36'
_cell_volume   1362.98891319
_cell_formula_units_Z   4
loop_
 _symmetry_equiv_pos_site_id
 _symmetry_equiv_pos_as_xyz
  1  'x, y, z'
loop_
 _atom_site_type_symbol
 _atom_site_label
 _atom_site_symmetry_multiplicity
 _atom_site_fract_x
 _atom_site_fract_y
 _atom_site_fract_z
 _atom_site_occupancy
  Ni  Ni0  1  0.41059000  0.25000000  0.85939700  1
  Ni  Ni1  1  0.91059000  0.75000000  0.64060300  1
  Ni  Ni2  1  0.08941000  0.25000000  0.35939700  1
  Ni  Ni3  1  0.58941000  0.75000000  0.14060300  1
  C  C4  1  0.76399600  0.96277600  0.52928600  1
  C  C5  1  0.23600400  0.03722400  0.47071400  1
  C  C6  1  0.26399600  0.46277600  0.97071400  1
  C  C7  1  0.76399600  0.53722400  0.52928600  1
  C  C8  1  0.73600400  0.53722400  0.02928600  1
  C  C9  1  0.23600400  0.46277600  0.47071400  1
  C  C10  1  0.26399600  0.03722400  0.97071400  1
  C  C11  1  0.73600400  0.96277600  0.02928600  1
  C  C12  1  0.88101800  0.94281200  0.28745700  1
  C  C13  1  0.38101800  0.05718800  0.21254300  1
  C  C14  1  0.11898200  0.44281200  0.71254300  1
  C  C15  1  0.61898200  0.94281200  0.78745700  1
  C  C16  1  0.61898200  0.55718800  0.78745700  1
  C  C17  1  0.38101800  0.44281200  0.21254300  1
  C  C18  1  0.11898200  0.05718800  0.71254300  1
  C  C19  1  0.88101800  0.55718800  0.28745700  1
  C  C20  1  0.11847800  0.86655600  0.85049600  1
  C  C21  1  0.38152200  0.86655600  0.35049600  1
  C  C22  1  0.61909400  0.13714400  0.42558400  1
  C  C23  1  0.88090600  0.13714400  0.92558400  1
  C  C24  1  0.38090600  0.86285600  0.57441600  1
  C  C25  1  0.61847800  0.36655600  0.64950400  1
  C  C26  1  0.38152200  0.63344400  0.35049600  1
  C  C27  1  0.38090600  0.63714400  0.57441600  1
  C  C28  1  0.88152200  0.13344400  0.14950400  1
  C  C29  1  0.11847800  0.63344400  0.85049600  1
  C  C30  1  0.11909400  0.63714400  0.07441600  1
  C  C31  1  0.88152200  0.36655600  0.14950400  1
  C  C32  1  0.11909400  0.86285600  0.07441600  1
  C  C33  1  0.61909400  0.36285600  0.42558400  1
  C  C34  1  0.61847800  0.13344400  0.64950400  1
  C  C35  1  0.88090600  0.36285600  0.92558400  1
  C  C36  1  0.87939300  0.75000000  0.40152000  1
  C  C37  1  0.62060700  0.75000000  0.90152000  1
  C  C38  1  0.37939300  0.25000000  0.09848000  1
  C  C39  1  0.12060700  0.25000000  0.59848000  1
  Cu  Cu40  1  0.05102200  0.10041300  0.22118100  1
  Cu  Cu41  1  0.94897800  0.89958700  0.77881900  1
  Cu  Cu42  1  0.55666800  0.38279800  0.53804700  1
  Cu  Cu43  1  0.86881800  0.75000000  0.30960600  1
  Cu  Cu44  1  0.61432600  0.83328100  0.94589500  1
  Cu  Cu45  1  0.20730200  0.75000000  0.08171800  1
  Cu  Cu46  1  0.55102200  0.60041300  0.27881900  1
  Cu  Cu47  1  0.57601600  0.87477200  0.63386900  1
  Cu  Cu48  1  0.57601600  0.62522800  0.63386900  1
  Cu  Cu49  1  0.63118200  0.75000000  0.80960600  1
  Cu  Cu50  1  0.38567400  0.16671900  0.05410500  1
  Cu  Cu51  1  0.29327100  0.56407800  0.10054500  1
  Cu  Cu52  1  0.94897800  0.60041300  0.77881900  1
  Cu  Cu53  1  0.44897800  0.10041300  0.72118100  1
  Cu  Cu54  1  0.29327100  0.93592200  0.10054500  1
  Cu  Cu55  1  0.70730200  0.25000000  0.41828200  1
  Cu  Cu56  1  0.88567400  0.83328100  0.44589500  1
  Cu  Cu57  1  0.29269800  0.75000000  0.58171800  1
  Cu  Cu58  1  0.70672900  0.43592200  0.89945500  1
  Cu  Cu59  1  0.13118200  0.25000000  0.69039400  1
  Cu  Cu60  1  0.20447400  0.93923200  0.32731700  1
  Cu  Cu61  1  0.94333200  0.11720200  0.03804700  1
  Cu  Cu62  1  0.20447400  0.56076800  0.32731700  1
  Cu  Cu63  1  0.79552600  0.06076800  0.67268300  1
  Cu  Cu64  1  0.07601600  0.37477200  0.86613100  1
  Cu  Cu65  1  0.11432600  0.16671900  0.55410500  1
  Cu  Cu66  1  0.16910800  0.75000000  0.83181000  1
  Cu  Cu67  1  0.42398400  0.12522800  0.36613100  1
  Cu  Cu68  1  0.05102200  0.39958700  0.22118100  1
  Cu  Cu69  1  0.36881800  0.25000000  0.19039400  1
  Cu  Cu70  1  0.61432600  0.66671900  0.94589500  1
  Cu  Cu71  1  0.66910800  0.25000000  0.66819000  1
  Cu  Cu72  1  0.92398400  0.62522800  0.13386900  1
  Cu  Cu73  1  0.20672900  0.56407800  0.60054500  1
  Cu  Cu74  1  0.11432600  0.33328100  0.55410500  1
  Cu  Cu75  1  0.29552600  0.56076800  0.82731700  1
  Cu  Cu76  1  0.29552600  0.93923200  0.82731700  1
  Cu  Cu77  1  0.79327100  0.43592200  0.39945500  1
  Cu  Cu78  1  0.20672900  0.93592200  0.60054500  1
  Cu  Cu79  1  0.38567400  0.33328100  0.05410500  1
  Cu  Cu80  1  0.70672900  0.06407800  0.89945500  1
  Cu  Cu81  1  0.33089200  0.75000000  0.33181000  1
  Cu  Cu82  1  0.05666800  0.88279800  0.96195300  1
  Cu  Cu83  1  0.55102200  0.89958700  0.27881900  1
  Cu  Cu84  1  0.44333200  0.61720200  0.46195300  1
  Cu  Cu85  1  0.94333200  0.38279800  0.03804700  1
  Cu  Cu86  1  0.79327100  0.06407800  0.39945500  1
  Cu  Cu87  1  0.05666800  0.61720200  0.96195300  1
  Cu  Cu88  1  0.79552600  0.43923200  0.67268300  1
  Cu  Cu89  1  0.07601600  0.12522800  0.86613100  1
  Cu  Cu90  1  0.55666800  0.11720200  0.53804700  1
  Cu  Cu91  1  0.44333200  0.88279800  0.46195300  1
  Cu  Cu92  1  0.83089200  0.25000000  0.16819000  1
  Cu  Cu93  1  0.92398400  0.87477200  0.13386900  1
  Cu  Cu94  1  0.42398400  0.37477200  0.36613100  1
  Cu  Cu95  1  0.88567400  0.66671900  0.44589500  1
  Cu  Cu96  1  0.70447400  0.06076800  0.17268300  1
  Cu  Cu97  1  0.70447400  0.43923200  0.17268300  1
  Cu  Cu98  1  0.79269800  0.25000000  0.91828200  1
  Cu  Cu99  1  0.44897800  0.39958700  0.72118100  1
