# generated using pymatgen
data_Cu2Ni2C3
_symmetry_space_group_name_H-M   'P 1'
_cell_length_a   10.10610200
_cell_length_b   12.43761320
_cell_length_c   12.43762715
_cell_angle_alpha   71.31579600
_cell_angle_beta   66.03114296
_cell_angle_gamma   66.03116480
_symmetry_Int_Tables_number   1
_chemical_formula_structural   Cu2Ni2C3
_chemical_formula_sum   'Cu24 Ni24 C36'
_cell_volume   1282.57145776
_cell_formula_units_Z   12
loop_
 _symmetry_equiv_pos_site_id
 _symmetry_equiv_pos_as_xyz
  1  'x, y, z'
loop_
 _atom_site_type_symbol
 _atom_site_label
 _atom_site_symmetry_multiplicity
 _atom_site_fract_x
 _atom_site_fract_y
 _atom_site_fract_z
 _atom_site_occupancy
  C  C0  1  0.66687000  0.58237900  0.08428300  1
  C  C1  1  0.66647900  0.08235800  0.58433300  1
  C  C2  1  0.33343300  0.66564700  0.66758400  1
  C  C3  1  0.33321700  0.16571600  0.16769900  1
  C  C4  1  0.33313000  0.41762100  0.91571700  1
  C  C5  1  0.33352100  0.91764200  0.41566700  1
  C  C6  1  0.66656700  0.33435300  0.33241600  1
  C  C7  1  0.66678300  0.83428400  0.83230100  1
  C  C8  1  0.99596500  0.25454100  0.00658800  1
  C  C9  1  0.99555100  0.75670600  0.50676700  1
  C  C10  1  0.74091700  0.62281400  0.37280100  1
  C  C11  1  0.74296800  0.12190100  0.87402000  1
  C  C12  1  0.26344400  0.49542600  0.24549800  1
  C  C13  1  0.26119700  0.99544200  0.74747900  1
  C  C14  1  0.00403500  0.74545900  0.99341200  1
  C  C15  1  0.00444900  0.24329400  0.49323300  1
  C  C16  1  0.25908300  0.37718600  0.62719900  1
  C  C17  1  0.25703200  0.87809900  0.12598000  1
  C  C18  1  0.73655600  0.50457400  0.75450200  1
  C  C19  1  0.73880300  0.00455800  0.25252100  1
  C  C20  1  0.59082400  0.31145100  0.06136000  1
  C  C21  1  0.59058300  0.81161000  0.56140400  1
  C  C22  1  0.03641100  0.42040100  0.17018400  1
  C  C23  1  0.03637700  0.92045600  0.67037100  1
  C  C24  1  0.37304600  0.14319600  0.89312400  1
  C  C25  1  0.37280700  0.64332300  0.39309900  1
  C  C26  1  0.40917600  0.68854900  0.93864000  1
  C  C27  1  0.40941700  0.18839000  0.43859600  1
  C  C28  1  0.96358900  0.57959900  0.82981600  1
  C  C29  1  0.96362300  0.07954400  0.32962900  1
  C  C30  1  0.62695400  0.85680400  0.10687600  1
  C  C31  1  0.62719300  0.35667700  0.60690100  1
  C  C32  1  0.00000000  0.50000000  0.50000000  1
  C  C33  1  0.00001100  0.75078300  0.24921900  1
  C  C34  1  0.99998900  0.24921700  0.75078100  1
  C  C35  1  0.00000000  0.00000000  0.00000000  1
  Ni  Ni36  1  0.64150200  0.34655900  0.92240300  1
  Cu  Cu37  1  0.65080556  0.85422917  0.40790723  1
  Ni  Ni38  1  0.08946000  0.53291400  0.10861000  1
  Cu  Cu39  1  0.08392684  0.03583887  0.62051927  1
  Ni  Ni40  1  0.26905100  0.25678800  0.83272400  1
  Cu  Cu41  1  0.25875465  0.76202402  0.32900761  1
  Ni  Ni42  1  0.35769200  0.82766800  0.90390600  1
  Cu  Cu43  1  0.36263973  0.33241636  0.38815806  1
  Ni  Ni44  1  0.91042300  0.64127200  0.71733600  1
  Cu  Cu45  1  0.90609154  0.15577614  0.22697555  1
  Cu  Cu46  1  0.74379927  0.92208415  0.98637310  1
  Ni  Ni47  1  0.73100800  0.41721500  0.49325000  1
  Ni  Ni48  1  0.35849800  0.65344100  0.07759700  1
  Ni  Ni49  1  0.35850100  0.15331700  0.57763300  1
  Ni  Ni50  1  0.91054000  0.46708600  0.89139000  1
  Cu  Cu51  1  0.91741686  0.96871600  0.38782382  1
  Cu  Cu52  1  0.73934312  0.74641928  0.15428297  1
  Ni  Ni53  1  0.73100400  0.24310800  0.66749400  1
  Cu  Cu54  1  0.63369655  0.16535135  0.09977481  1
  Cu  Cu55  1  0.62725163  0.66958923  0.59943035  1
  Ni  Ni56  1  0.08957700  0.35872800  0.28266400  1
  Cu  Cu57  1  0.08678920  0.84877230  0.78358707  1
  Ni  Ni58  1  0.26851700  0.08275700  0.00649400  1
  Cu  Cu59  1  0.28369250  0.59141082  0.48999025  1
  Cu  Cu60  1  0.39630399  0.36452515  0.10564855  1
  Cu  Cu61  1  0.40357921  0.85500937  0.60857955  1
  Ni  Ni62  1  0.12431600  0.33082800  0.08085400  1
  Ni  Ni63  1  0.12460800  0.83086500  0.58114900  1
  Cu  Cu64  1  0.47329888  0.19488964  0.93135135  1
  Cu  Cu65  1  0.44822707  0.68254180  0.45247518  1
  Ni  Ni66  1  0.58799100  0.64346900  0.89317600  1
  Ni  Ni67  1  0.58832900  0.14300300  0.39298100  1
  Ni  Ni68  1  0.87568400  0.66917200  0.91914600  1
  Cu  Cu69  1  0.87925892  0.17345796  0.42283864  1
  Ni  Ni70  1  0.53612500  0.81301700  0.06266200  1
  Ni  Ni71  1  0.53649700  0.31267000  0.56271300  1
  Cu  Cu72  1  0.65834972  0.37109035  0.11827255  1
  Cu  Cu73  1  0.64421064  0.87530282  0.61129023  1
  Cu  Cu74  1  0.85014984  0.42958677  0.22664242  1
  Ni  Ni75  1  0.86080400  0.95231500  0.70243700  1
  Ni  Ni76  1  0.48451900  0.55538400  0.30538500  1
  Ni  Ni77  1  0.48443000  0.05526700  0.80544200  1
  Cu  Cu78  1  0.32543623  0.63061344  0.88857620  1
  Ni  Ni79  1  0.34514600  0.13281200  0.38274300  1
  Cu  Cu80  1  0.13759591  0.54924276  0.79726040  1
  Cu  Cu81  1  0.15771620  0.03647956  0.29683911  1
  Cu  Cu82  1  0.50806252  0.44946929  0.69019303  1
  Ni  Ni83  1  0.51557000  0.94473300  0.19455800  1
