# generated using pymatgen
data_Cu25Ni11C30
_symmetry_space_group_name_H-M   'P 1'
_cell_length_a   5.06848360
_cell_length_b   5.01039872
_cell_length_c   28.80463502
_cell_angle_alpha   88.99730409
_cell_angle_beta   89.60333754
_cell_angle_gamma   60.52392560
_symmetry_Int_Tables_number   1
_chemical_formula_structural   Cu25Ni11C30
_chemical_formula_sum   'Cu25 Ni11 C30'
_cell_volume   636.71446581
_cell_formula_units_Z   1
loop_
 _symmetry_equiv_pos_site_id
 _symmetry_equiv_pos_as_xyz
  1  'x, y, z'
loop_
 _atom_site_type_symbol
 _atom_site_label
 _atom_site_symmetry_multiplicity
 _atom_site_fract_x
 _atom_site_fract_y
 _atom_site_fract_z
 _atom_site_occupancy
  C  C0  1  0.16756200  0.16824400  0.99996700  1
  C  C1  1  0.15486700  0.17784500  0.49974300  1
  C  C2  1  0.16649900  0.49854000  0.33399600  1
  C  C3  1  0.16376300  0.50349000  0.83241300  1
  C  C4  1  0.16770700  0.83200000  0.16588400  1
  C  C5  1  0.83610100  0.16593000  0.08319000  1
  C  C6  1  0.83514000  0.49787500  0.41690800  1
  C  C7  1  0.83884500  0.50063400  0.66733800  1
  C  C8  1  0.83471300  0.83974400  0.75018700  1
  C  C9  1  0.51859600  0.15728500  0.41691000  1
  C  C10  1  0.50385400  0.16148100  0.91713500  1
  C  C11  1  0.50301200  0.50268200  0.24942800  1
  C  C12  1  0.50383200  0.50678100  0.74931900  1
  C  C13  1  0.51974500  0.82381400  0.08303400  1
  C  C14  1  0.50476900  0.82353700  0.58369200  1
  C  C15  1  0.16547800  0.16713200  0.25006300  1
  C  C16  1  0.16363900  0.16440700  0.74983900  1
  C  C17  1  0.16498500  0.50110100  0.08300100  1
  C  C18  1  0.16618500  0.50141900  0.58350400  1
  C  C19  1  0.16354000  0.83465000  0.41719100  1
  C  C20  1  0.50183200  0.16508500  0.16551100  1
  C  C21  1  0.16316900  0.83777600  0.91672300  1
  C  C22  1  0.51231500  0.15565200  0.66739100  1
  C  C23  1  0.50100000  0.50193500  0.00064600  1
  C  C24  1  0.50692600  0.49946800  0.49970800  1
  C  C25  1  0.50788800  0.82701700  0.33445500  1
  C  C26  1  0.83934700  0.15781800  0.58329500  1
  C  C27  1  0.50567500  0.83231500  0.83236300  1
  C  C28  1  0.82701200  0.50439300  0.91681100  1
  C  C29  1  0.82631600  0.83746200  0.25018000  1
  Cu  Cu30  1  0.15576803  0.16735799  0.61846911  1
  Cu  Cu31  1  0.20223868  0.16223814  0.11848842  1
  Ni  Ni32  1  0.20367100  0.16281500  0.87729500  1
  Ni  Ni33  1  0.20408500  0.13652300  0.38074700  1
  Cu  Cu34  1  0.18917912  0.51162674  0.21637810  1
  Ni  Ni35  1  0.17871500  0.47602200  0.95318600  1
  Cu  Cu36  1  0.20858474  0.49172299  0.45204947  1
  Cu  Cu37  1  0.20675893  0.43250749  0.71406338  1
  Cu  Cu38  1  0.45800901  0.25135383  0.04671795  1
  Cu  Cu39  1  0.50004690  0.16345938  0.28977004  1
  Ni  Ni40  1  0.20229000  0.79865500  0.28837300  1
  Cu  Cu41  1  0.48626057  0.15964128  0.54829546  1
  Cu  Cu42  1  0.16783706  0.81749987  0.54375553  1
  Cu  Cu43  1  0.23918389  0.83980180  0.04523575  1
  Ni  Ni44  1  0.45706500  0.18019500  0.78769200  1
  Cu  Cu45  1  0.23396159  0.78168828  0.78717849  1
  Ni  Ni46  1  0.45562900  0.53602700  0.37927200  1
  Cu  Cu47  1  0.41713961  0.54200067  0.11522693  1
  Cu  Cu48  1  0.48695063  0.40115551  0.62474173  1
  Cu  Cu49  1  0.53726238  0.48801873  0.88135753  1
  Cu  Cu50  1  0.84547205  0.13723953  0.45134964  1
  Cu  Cu51  1  0.46724178  0.81785778  0.21053826  1
  Cu  Cu52  1  0.80516631  0.19238977  0.21377787  1
  Cu  Cu53  1  0.50922907  0.86979024  0.71171746  1
  Ni  Ni54  1  0.45587600  0.84151000  0.45540700  1
  Ni  Ni55  1  0.81636600  0.20190400  0.71348800  1
  Ni  Ni56  1  0.81158100  0.19763100  0.95342900  1
  Cu  Cu57  1  0.52121474  0.79800141  0.95701336  1
  Cu  Cu58  1  0.82584516  0.56884104  0.05513287  1
  Cu  Cu59  1  0.84324889  0.48155187  0.28915348  1
  Ni  Ni60  1  0.80660600  0.50579500  0.78765200  1
  Cu  Cu61  1  0.79002134  0.47978411  0.54621751  1
  Cu  Cu62  1  0.82706842  0.82470990  0.12037192  1
  Ni  Ni63  1  0.83180200  0.84637200  0.38122200  1
  Cu  Cu64  1  0.74745088  0.81901836  0.62115652  1
  Cu  Cu65  1  0.77771069  0.88376653  0.88013634  1
