# generated using pymatgen
data_Cu7C6
_symmetry_space_group_name_H-M   'P 1'
_cell_length_a   6.51585600
_cell_length_b   8.44785700
_cell_length_c   9.99893139
_cell_angle_alpha   84.72730685
_cell_angle_beta   90.00000000
_cell_angle_gamma   90.00000000
_symmetry_Int_Tables_number   1
_chemical_formula_structural   Cu7C6
_chemical_formula_sum   'Cu28 C24'
_cell_volume   548.06245434
_cell_formula_units_Z   4
loop_
 _symmetry_equiv_pos_site_id
 _symmetry_equiv_pos_as_xyz
  1  'x, y, z'
loop_
 _atom_site_type_symbol
 _atom_site_label
 _atom_site_symmetry_multiplicity
 _atom_site_fract_x
 _atom_site_fract_y
 _atom_site_fract_z
 _atom_site_occupancy
  C  C0  1  0.00000000  0.90269900  0.61504400  1
  C  C1  1  0.00000000  0.90048500  0.11563100  1
  C  C2  1  0.22928400  0.72369700  0.87398400  1
  C  C3  1  0.77071600  0.72369700  0.87398400  1
  C  C4  1  0.23123500  0.72307900  0.37448500  1
  C  C5  1  0.76876500  0.72307900  0.37448500  1
  C  C6  1  0.72637100  0.27790500  0.62780400  1
  C  C7  1  0.27362900  0.27790500  0.62780400  1
  C  C8  1  0.72717900  0.27710600  0.12410000  1
  C  C9  1  0.27282100  0.27710600  0.12410000  1
  C  C10  1  0.50000000  0.09841400  0.88421400  1
  C  C11  1  0.50000000  0.09970700  0.38424100  1
  C  C12  1  0.00000000  0.32882100  0.39605800  1
  C  C13  1  0.50000000  0.66828500  0.60516800  1
  C  C14  1  0.50000000  0.66846400  0.10607900  1
  C  C15  1  0.00000000  0.33175200  0.89455000  1
  C  C16  1  0.00000000  0.58869800  0.63927900  1
  C  C17  1  0.00000000  0.58757700  0.13891600  1
  C  C18  1  0.50000000  0.41313500  0.86137800  1
  C  C19  1  0.50000000  0.41216600  0.36101600  1
  C  C20  1  0.50000000  0.96311000  0.65074000  1
  C  C21  1  0.50000000  0.96303800  0.15044900  1
  C  C22  1  0.00000000  0.03757300  0.84921800  1
  C  C23  1  0.00000000  0.03431000  0.34779800  1
  Cu  Cu24  1  0.46517463  0.92571834  0.53228617  1
  Cu  Cu25  1  0.01527811  0.91226458  0.81639207  1
  Cu  Cu26  1  0.52671389  0.90650873  0.03984013  1
  Cu  Cu27  1  0.49477751  0.84633530  0.73773045  1
  Cu  Cu28  1  0.99346459  0.86186263  0.31960013  1
  Cu  Cu29  1  0.48897738  0.84837836  0.24409291  1
  Cu  Cu30  1  0.17677457  0.70953714  0.60551055  1
  Cu  Cu31  1  0.80034412  0.68921651  0.60202206  1
  Cu  Cu32  1  0.21224994  0.69816569  0.07535784  1
  Cu  Cu33  1  0.79417551  0.66846089  0.08800541  1
  Cu  Cu34  1  0.49837003  0.56583879  0.91495190  1
  Cu  Cu35  1  0.01272724  0.55676389  0.76862762  1
  Cu  Cu36  1  0.50366633  0.56695277  0.39009919  1
  Cu  Cu37  1  0.98781049  0.59176711  0.28860131  1
  Cu  Cu38  1  0.50575532  0.42008989  0.70254477  1
  Cu  Cu39  1  0.00943361  0.42934836  0.59094891  1
  Cu  Cu40  1  0.47677745  0.44115205  0.19627932  1
  Cu  Cu41  1  0.02332756  0.41981301  0.08585221  1
  Cu  Cu42  1  0.31028308  0.29888605  0.89445798  1
  Cu  Cu43  1  0.68843083  0.32748799  0.88783178  1
  Cu  Cu44  1  0.69865127  0.35999660  0.42115551  1
  Cu  Cu45  1  0.27167915  0.29221792  0.43596536  1
  Cu  Cu46  1  0.00977225  0.15883090  0.74991469  1
  Cu  Cu47  1  0.49711357  0.12144693  0.67826646  1
  Cu  Cu48  1  0.98076437  0.15273050  0.23594607  1
  Cu  Cu49  1  0.02362365  0.05373444  0.99546861  1
  Cu  Cu50  1  0.51019840  0.10008709  0.18653052  1
  Cu  Cu51  1  0.95216043  0.05400991  0.44237082  1
