# generated using pymatgen
data_Cu5C4
_symmetry_space_group_name_H-M   'P 1'
_cell_length_a   8.45570892
_cell_length_b   8.45570892
_cell_length_c   6.26280900
_cell_angle_alpha   90.00000000
_cell_angle_beta   90.00000000
_cell_angle_gamma   120.00000722
_symmetry_Int_Tables_number   1
_chemical_formula_structural   Cu5C4
_chemical_formula_sum   'Cu10 C8'
_cell_volume   387.79286667
_cell_formula_units_Z   2
loop_
 _symmetry_equiv_pos_site_id
 _symmetry_equiv_pos_as_xyz
  1  'x, y, z'
loop_
 _atom_site_type_symbol
 _atom_site_label
 _atom_site_symmetry_multiplicity
 _atom_site_fract_x
 _atom_site_fract_y
 _atom_site_fract_z
 _atom_site_occupancy
  Cu  Cu0  1  0.27235839  0.01508784  0.26305468  1
  Cu  Cu1  1  0.77666719  0.01185112  0.73156602  1
  Cu  Cu2  1  0.01441648  0.23026805  0.26066078  1
  Cu  Cu3  1  0.00362394  0.74720288  0.76563268  1
  Cu  Cu4  1  0.75481872  0.72333535  0.23104725  1
  Cu  Cu5  1  0.25536310  0.23119530  0.72757254  1
  Cu  Cu6  1  0.32389363  0.67587296  0.98588163  1
  Cu  Cu7  1  0.68053430  0.31573879  0.97231616  1
  Cu  Cu8  1  0.67599160  0.35096588  0.48999188  1
  Cu  Cu9  1  0.34345704  0.65252717  0.51742940  1
  C  C10  1  0.60142000  0.00000000  0.25000000  1
  C  C11  1  0.39858000  0.00000000  0.75000000  1
  C  C12  1  0.00000000  0.60142000  0.25000000  1
  C  C13  1  0.00000000  0.39858000  0.75000000  1
  C  C14  1  0.39858000  0.39858000  0.25000000  1
  C  C15  1  0.60142000  0.60142000  0.75000000  1
  C  C16  1  0.00000000  0.00000000  0.00000000  1
  C  C17  1  0.00000000  0.00000000  0.50000000  1
