# generated using pymatgen
data_Cu4Ni5
_symmetry_space_group_name_H-M   'P 1'
_cell_length_a   10.10916917
_cell_length_b   10.10916917
_cell_length_c   9.19742200
_cell_angle_alpha   90.00000000
_cell_angle_beta   90.00000000
_cell_angle_gamma   126.15942388
_symmetry_Int_Tables_number   1
_chemical_formula_structural   Cu4Ni5
_chemical_formula_sum   'Cu8 Ni10'
_cell_volume   758.88182546
_cell_formula_units_Z   2
loop_
 _symmetry_equiv_pos_site_id
 _symmetry_equiv_pos_as_xyz
  1  'x, y, z'
loop_
 _atom_site_type_symbol
 _atom_site_label
 _atom_site_symmetry_multiplicity
 _atom_site_fract_x
 _atom_site_fract_y
 _atom_site_fract_z
 _atom_site_occupancy
  Ni  Ni0  1  0.50000000  0.50000000  0.50000000  1
  Ni  Ni1  1  0.00000000  0.00000000  0.00000000  1
  Ni  Ni2  1  0.31455000  0.02243500  0.66420600  1
  Ni  Ni3  1  0.52243500  0.81455000  0.83579400  1
  Ni  Ni4  1  0.18545000  0.47756500  0.16420600  1
  Ni  Ni5  1  0.97756500  0.68545000  0.33579400  1
  Ni  Ni6  1  0.68545000  0.97756500  0.33579400  1
  Ni  Ni7  1  0.47756500  0.18545000  0.16420600  1
  Ni  Ni8  1  0.81455000  0.52243500  0.83579400  1
  Ni  Ni9  1  0.02243500  0.31455000  0.66420600  1
  Cu  Cu10  1  0.88682100  0.88682100  0.61290500  1
  Cu  Cu11  1  0.38682100  0.38682100  0.88709500  1
  Cu  Cu12  1  0.61317900  0.61317900  0.11290500  1
  Cu  Cu13  1  0.11317900  0.11317900  0.38709500  1
  Cu  Cu14  1  0.19813800  0.80186200  0.00000000  1
  Cu  Cu15  1  0.30186200  0.69813800  0.50000000  1
  Cu  Cu16  1  0.80186200  0.19813800  0.00000000  1
  Cu  Cu17  1  0.69813800  0.30186200  0.50000000  1
