# generated using pymatgen
data_CuC4
_symmetry_space_group_name_H-M   'P 1'
_cell_length_a   5.71422300
_cell_length_b   9.69057604
_cell_length_c   9.68113547
_cell_angle_alpha   70.29294539
_cell_angle_beta   90.00234942
_cell_angle_gamma   90.00208429
_symmetry_Int_Tables_number   1
_chemical_formula_structural   CuC4
_chemical_formula_sum   'Cu8 C32'
_cell_volume   504.68530893
_cell_formula_units_Z   8
loop_
 _symmetry_equiv_pos_site_id
 _symmetry_equiv_pos_as_xyz
  1  'x, y, z'
loop_
 _atom_site_type_symbol
 _atom_site_label
 _atom_site_symmetry_multiplicity
 _atom_site_fract_x
 _atom_site_fract_y
 _atom_site_fract_z
 _atom_site_occupancy
  Cu  Cu0  1  0.52034864  0.85717059  0.39346214  1
  Cu  Cu1  1  0.59098779  0.38712170  0.86073425  1
  Cu  Cu2  1  0.07722183  0.13761166  0.13058396  1
  Cu  Cu3  1  0.02330853  0.63224984  0.61450377  1
  Cu  Cu4  1  0.46402329  0.12198421  0.63009884  1
  Cu  Cu5  1  0.44762015  0.63625864  0.11339221  1
  Cu  Cu6  1  0.91476613  0.88194028  0.86886818  1
  Cu  Cu7  1  0.94192982  0.38911890  0.37139629  1
  C  C8  1  0.49996400  0.49999700  0.50000400  1
  C  C9  1  0.99998300  0.00001000  0.50000400  1
  C  C10  1  0.49998400  0.99999700  0.00001100  1
  C  C11  1  0.00002000  0.50000800  0.99999200  1
  C  C12  1  0.49932700  0.24993800  0.25093300  1
  C  C13  1  0.50068200  0.75003100  0.74907700  1
  C  C14  1  0.00063600  0.74991500  0.25089700  1
  C  C15  1  0.99928500  0.25005300  0.74909400  1
  C  C16  1  0.79688200  0.92039100  0.12795300  1
  C  C17  1  0.79714500  0.42164100  0.62726600  1
  C  C18  1  0.29729200  0.07833100  0.37279800  1
  C  C19  1  0.29682600  0.57958600  0.87208800  1
  C  C20  1  0.20301400  0.07972300  0.87198400  1
  C  C21  1  0.20301700  0.57827800  0.37281300  1
  C  C22  1  0.70294900  0.92177000  0.62712400  1
  C  C23  1  0.70295500  0.42028700  0.12798700  1
  C  C24  1  0.20801000  0.87386200  0.67541100  1
  C  C25  1  0.20952400  0.37357000  0.17416800  1
  C  C26  1  0.70948600  0.12638400  0.82586100  1
  C  C27  1  0.70813300  0.62617000  0.32461600  1
  C  C28  1  0.79180400  0.12614600  0.32452700  1
  C  C29  1  0.79069800  0.62647600  0.82584800  1
  C  C30  1  0.29068900  0.87355800  0.17413400  1
  C  C31  1  0.29175800  0.37385900  0.67540600  1
  C  C32  1  0.97506400  0.82789600  0.42006700  1
  C  C33  1  0.97584300  0.32945100  0.91812000  1
  C  C34  1  0.47499500  0.67209000  0.57993300  1
  C  C35  1  0.47583200  0.17055400  0.08184700  1
  C  C36  1  0.02492200  0.17217300  0.57994400  1
  C  C37  1  0.02414900  0.67052900  0.08183300  1
  C  C38  1  0.52502600  0.32783300  0.42001800  1
  C  C39  1  0.52412900  0.82948200  0.91824200  1
