# generated using pymatgen
data_Cu19Ni13C36
_symmetry_space_group_name_H-M   'P 1'
_cell_length_a   9.65174900
_cell_length_b   11.72308700
_cell_length_c   12.18493000
_cell_angle_alpha   90.00000000
_cell_angle_beta   90.00000000
_cell_angle_gamma   90.00000000
_symmetry_Int_Tables_number   1
_chemical_formula_structural   Cu19Ni13C36
_chemical_formula_sum   'Cu19 Ni13 C36'
_cell_volume   1378.70403262
_cell_formula_units_Z   1
loop_
 _symmetry_equiv_pos_site_id
 _symmetry_equiv_pos_as_xyz
  1  'x, y, z'
loop_
 _atom_site_type_symbol
 _atom_site_label
 _atom_site_symmetry_multiplicity
 _atom_site_fract_x
 _atom_site_fract_y
 _atom_site_fract_z
 _atom_site_occupancy
  C  C0  1  0.46762300  0.22343000  0.06669700  1
  C  C1  1  0.96762300  0.77657000  0.93330300  1
  C  C2  1  0.03237700  0.72343000  0.43330300  1
  C  C3  1  0.53237700  0.27657000  0.56669700  1
  C  C4  1  0.53237700  0.77657000  0.93330300  1
  C  C5  1  0.03237700  0.22343000  0.06669700  1
  C  C6  1  0.96762300  0.27657000  0.56669700  1
  C  C7  1  0.46762300  0.72343000  0.43330300  1
  C  C8  1  0.75000000  0.04408800  0.72287800  1
  C  C9  1  0.25000000  0.95591200  0.27712200  1
  C  C10  1  0.75000000  0.54408800  0.77712200  1
  C  C11  1  0.25000000  0.45591200  0.22287800  1
  C  C12  1  0.75000000  0.04786800  0.95965000  1
  C  C13  1  0.25000000  0.95213200  0.04035000  1
  C  C14  1  0.75000000  0.54786800  0.54035000  1
  C  C15  1  0.25000000  0.45213200  0.45965000  1
  C  C16  1  0.75000000  0.26047300  0.83826900  1
  C  C17  1  0.25000000  0.73952700  0.16173100  1
  C  C18  1  0.75000000  0.76047300  0.66173100  1
  C  C19  1  0.25000000  0.23952700  0.33826900  1
  C  C20  1  0.75000000  0.65395300  0.19768900  1
  C  C21  1  0.25000000  0.34604700  0.80231100  1
  C  C22  1  0.75000000  0.15395300  0.30231100  1
  C  C23  1  0.25000000  0.84604700  0.69768900  1
  C  C24  1  0.75000000  0.45552100  0.06929400  1
  C  C25  1  0.25000000  0.54447900  0.93070600  1
  C  C26  1  0.75000000  0.95552100  0.43070600  1
  C  C27  1  0.25000000  0.04447900  0.56929400  1
  C  C28  1  0.60770800  0.46218800  0.26706200  1
  C  C29  1  0.10770800  0.53781200  0.73293800  1
  C  C30  1  0.89229200  0.96218800  0.23293800  1
  C  C31  1  0.39229200  0.03781200  0.76706200  1
  C  C32  1  0.39229200  0.53781200  0.73293800  1
  C  C33  1  0.89229200  0.46218800  0.26706200  1
  C  C34  1  0.10770800  0.03781200  0.76706200  1
  C  C35  1  0.60770800  0.96218800  0.23293800  1
  Cu  Cu36  1  0.74094550  0.18588794  0.95513122  1
  Ni  Ni37  1  0.25000000  0.81255200  0.04669100  1
  Cu  Cu38  1  0.74043248  0.68735453  0.53729657  1
  Ni  Ni39  1  0.25000000  0.31255200  0.45330900  1
  Ni  Ni40  1  0.75000000  0.98176100  0.84185400  1
  Ni  Ni41  1  0.25000000  0.01823900  0.15814600  1
  Ni  Ni42  1  0.75000000  0.48176100  0.65814600  1
  Cu  Cu43  1  0.24574008  0.50278735  0.34216938  1
  Cu  Cu44  1  0.75054043  0.18732872  0.73244455  1
  Ni  Ni45  1  0.25000000  0.81683000  0.27414700  1
  Cu  Cu46  1  0.72677540  0.67094571  0.76655413  1
  Cu  Cu47  1  0.25235354  0.32258161  0.20528125  1
  Cu  Cu48  1  0.76394077  0.59484149  0.07354061  1
  Cu  Cu49  1  0.24781759  0.39781635  0.93843500  1
  Cu  Cu50  1  0.75495719  0.10037793  0.42889671  1
  Cu  Cu51  1  0.23627043  0.90954430  0.58033896  1
  Cu  Cu52  1  0.62433551  0.40695108  0.14303427  1
  Cu  Cu53  1  0.09673636  0.58740725  0.86431260  1
  Cu  Cu54  1  0.89350404  0.91022579  0.36042683  1
  Ni  Ni55  1  0.38321000  0.09207900  0.64451000  1
  Cu  Cu56  1  0.38503933  0.58214719  0.84062465  1
  Cu  Cu57  1  0.86878470  0.40795250  0.15401856  1
  Ni  Ni58  1  0.11679000  0.09207900  0.64451000  1
  Ni  Ni59  1  0.61679000  0.90792100  0.35549000  1
  Ni  Ni60  1  0.61633300  0.60063600  0.26841700  1
  Cu  Cu61  1  0.09356563  0.38991510  0.74293337  1
  Ni  Ni62  1  0.88366700  0.10063600  0.23158300  1
  Ni  Ni63  1  0.38366700  0.89936400  0.76841700  1
  Cu  Cu64  1  0.41249006  0.38580747  0.73285536  1
  Cu  Cu65  1  0.88848022  0.60396666  0.27860476  1
  Ni  Ni66  1  0.11633300  0.89936400  0.76841700  1
  Cu  Cu67  1  0.61679164  0.10121001  0.21398269  1
