# generated using pymatgen
data_Cu17Ni7C18
_symmetry_space_group_name_H-M   'P 1'
_cell_length_a   10.32237031
_cell_length_b   10.32237031
_cell_length_c   7.44264400
_cell_angle_alpha   90.00000000
_cell_angle_beta   90.00000000
_cell_angle_gamma   120.00000196
_symmetry_Int_Tables_number   1
_chemical_formula_structural   Cu17Ni7C18
_chemical_formula_sum   'Cu17 Ni7 C18'
_cell_volume   686.77857627
_cell_formula_units_Z   1
loop_
 _symmetry_equiv_pos_site_id
 _symmetry_equiv_pos_as_xyz
  1  'x, y, z'
loop_
 _atom_site_type_symbol
 _atom_site_label
 _atom_site_symmetry_multiplicity
 _atom_site_fract_x
 _atom_site_fract_y
 _atom_site_fract_z
 _atom_site_occupancy
  C  C0  1  0.74135100  0.04671300  0.50000000  1
  C  C1  1  0.30536200  0.25864900  0.50000000  1
  C  C2  1  0.95328700  0.69463800  0.50000000  1
  C  C3  1  0.92392600  0.28688700  0.00000000  1
  C  C4  1  0.36296200  0.07607400  0.00000000  1
  C  C5  1  0.71311300  0.63703800  0.00000000  1
  C  C6  1  0.00000000  0.00000000  0.24030300  1
  C  C7  1  0.66666700  0.33333300  0.75116800  1
  C  C8  1  0.66666700  0.33333300  0.24883200  1
  C  C9  1  0.00000000  0.00000000  0.75969700  1
  C  C10  1  0.07512200  0.65042300  0.00000000  1
  C  C11  1  0.57530100  0.92487800  0.00000000  1
  C  C12  1  0.34957700  0.42469900  0.00000000  1
  C  C13  1  0.58736800  0.67776400  0.50000000  1
  C  C14  1  0.09039600  0.41263200  0.50000000  1
  C  C15  1  0.32223600  0.90960400  0.50000000  1
  C  C16  1  0.33333300  0.66666700  0.25034000  1
  C  C17  1  0.33333300  0.66666700  0.74966000  1
  Cu  Cu18  1  0.73013062  0.19550963  0.00637947  1
  Ni  Ni19  1  0.44441200  0.25273000  0.00000000  1
  Ni  Ni20  1  0.80831800  0.55558800  0.00000000  1
  Cu  Cu21  1  0.92819558  0.14294582  0.49511737  1
  Cu  Cu22  1  0.21335165  0.05934659  0.49854014  1
  Cu  Cu23  1  0.83380232  0.75384746  0.49524328  1
  Cu  Cu24  1  0.95859363  0.39696072  0.17820952  1
  Ni  Ni25  1  0.41942000  0.02862800  0.16888000  1
  Cu  Cu26  1  0.60976763  0.58845143  0.17898408  1
  Cu  Cu27  1  0.68663008  0.92270304  0.68590687  1
  Ni  Ni28  1  0.23970100  0.31030100  0.68376300  1
  Cu  Cu29  1  0.06353882  0.73896661  0.67988706  1
  Ni  Ni30  1  0.68969900  0.92940100  0.31623700  1
  Cu  Cu31  1  0.24970539  0.34144599  0.35454255  1
  Cu  Cu32  1  0.07860791  0.76050193  0.31853568  1
  Cu  Cu33  1  0.00010834  0.41229842  0.84105278  1
  Cu  Cu34  1  0.40924800  0.03188068  0.86057005  1
  Cu  Cu35  1  0.59465134  0.58061555  0.81602558  1
  Cu  Cu36  1  0.98758699  0.16771593  0.99967686  1
  Cu  Cu37  1  0.19591405  0.01711933  0.00216568  1
  Ni  Ni38  1  0.81801900  0.80954200  0.00000000  1
  Cu  Cu39  1  0.66744030  0.16264608  0.49597214  1
  Ni  Ni40  1  0.49607500  0.33421000  0.50000000  1
  Cu  Cu41  1  0.83595412  0.51140400  0.50251247  1
