# generated using pymatgen
data_CuNiC
_symmetry_space_group_name_H-M   'P 1'
_cell_length_a   4.92595500
_cell_length_b   5.07782897
_cell_length_c   7.77747848
_cell_angle_alpha   98.10229449
_cell_angle_beta   104.15507179
_cell_angle_gamma   104.88223731
_symmetry_Int_Tables_number   1
_chemical_formula_structural   CuNiC
_chemical_formula_sum   'Cu5 Ni5 C5'
_cell_volume   177.94387864
_cell_formula_units_Z   5
loop_
 _symmetry_equiv_pos_site_id
 _symmetry_equiv_pos_as_xyz
  1  'x, y, z'
loop_
 _atom_site_type_symbol
 _atom_site_label
 _atom_site_symmetry_multiplicity
 _atom_site_fract_x
 _atom_site_fract_y
 _atom_site_fract_z
 _atom_site_occupancy
  C  C0  1  0.32272100  0.75773000  0.40452500  1
  C  C1  1  0.67727900  0.24227000  0.59547500  1
  C  C2  1  0.00000000  0.50000000  0.00000000  1
  C  C3  1  0.67753500  0.87891600  0.88083800  1
  C  C4  1  0.32246500  0.12108400  0.11916200  1
  Cu  Cu5  1  0.07492158  0.13349730  0.90232292  1
  Cu  Cu6  1  0.32591604  0.77184998  0.99190983  1
  Ni  Ni7  1  0.05953200  0.12731500  0.52330400  1
  Cu  Cu8  1  0.48032849  0.87544237  0.66677476  1
  Ni  Ni9  1  0.24093100  0.45051700  0.20811000  1
  Ni  Ni10  1  0.75906900  0.54948300  0.79189000  1
  Cu  Cu11  1  0.47570967  0.12426165  0.33081784  1
  Cu  Cu12  1  0.94914838  0.86313557  0.49187308  1
  Ni  Ni13  1  0.66362900  0.23802600  0.01861000  1
  Ni  Ni14  1  0.94368800  0.83593400  0.10829700  1
