# generated using pymatgen
data_Cu11Ni16C9
_symmetry_space_group_name_H-M   'P 1'
_cell_length_a   14.24087058
_cell_length_b   14.24087058
_cell_length_c   15.89528118
_cell_angle_alpha   56.20730552
_cell_angle_beta   56.20730552
_cell_angle_gamma   37.19468317
_symmetry_Int_Tables_number   1
_chemical_formula_structural   Cu11Ni16C9
_chemical_formula_sum   'Cu22 Ni32 C18'
_cell_volume   1577.91809861
_cell_formula_units_Z   2
loop_
 _symmetry_equiv_pos_site_id
 _symmetry_equiv_pos_as_xyz
  1  'x, y, z'
loop_
 _atom_site_type_symbol
 _atom_site_label
 _atom_site_symmetry_multiplicity
 _atom_site_fract_x
 _atom_site_fract_y
 _atom_site_fract_z
 _atom_site_occupancy
  C  C0  1  0.17617800  0.65162600  0.66241700  1
  C  C1  1  0.34837400  0.82382200  0.83758300  1
  C  C2  1  0.82382200  0.34837400  0.33758300  1
  C  C3  1  0.65162600  0.17617800  0.16241700  1
  C  C4  1  0.50000000  0.00000000  0.00000000  1
  C  C5  1  0.00000000  0.50000000  0.50000000  1
  C  C6  1  0.85160200  0.26025100  0.80315400  1
  C  C7  1  0.27138500  0.50607500  0.95140900  1
  C  C8  1  0.49392500  0.72861500  0.54859100  1
  C  C9  1  0.72861500  0.49392500  0.04859100  1
  C  C10  1  0.26877500  0.17106300  0.32837800  1
  C  C11  1  0.73122500  0.82893700  0.67162200  1
  C  C12  1  0.82893700  0.73122500  0.17162200  1
  C  C13  1  0.17106300  0.26877500  0.82837800  1
  C  C14  1  0.14839800  0.73974900  0.19684600  1
  C  C15  1  0.50607500  0.27138500  0.45140900  1
  C  C16  1  0.73974900  0.14839800  0.69684600  1
  C  C17  1  0.26025100  0.85160200  0.30315400  1
  Ni  Ni18  1  0.37357400  0.67443900  0.95085300  1
  Ni  Ni19  1  0.23944500  0.83273900  0.80583700  1
  Cu  Cu20  1  0.55978366  0.16629902  0.12146474  1
  Cu  Cu21  1  0.61746349  0.79962495  0.06193218  1
  Cu  Cu22  1  0.79632430  0.45781932  0.37065317  1
  Ni  Ni23  1  0.47189500  0.32538500  0.23486000  1
  Ni  Ni24  1  0.01134400  0.34619200  0.54531900  1
  Ni  Ni25  1  0.83273900  0.23944500  0.30583700  1
  Cu  Cu26  1  0.32509243  0.04900079  0.04352577  1
  Ni  Ni27  1  0.32177900  0.97446700  0.72428700  1
  Ni  Ni28  1  0.36678400  0.20830400  0.94489600  1
  Cu  Cu29  1  0.66170447  0.54613908  0.25521535  1
  Cu  Cu30  1  0.65273550  0.12854098  0.65377348  1
  Ni  Ni31  1  0.97381500  0.16814800  0.40959800  1
  Cu  Cu32  1  0.20425235  0.34572421  0.18882088  1
  Ni  Ni33  1  0.02618500  0.83185200  0.59040200  1
  Ni  Ni34  1  0.50039100  0.62528700  0.12701100  1
  Ni  Ni35  1  0.97446700  0.32177900  0.22428700  1
  Cu  Cu36  1  0.78958917  0.62809657  0.56297532  1
  Ni  Ni37  1  0.66158200  0.01360500  0.52484800  1
  Cu  Cu38  1  0.80037124  0.65532792  0.79495285  1
  Ni  Ni39  1  0.03555900  0.44264800  0.61855100  1
  Ni  Ni40  1  0.45777300  0.81512100  0.86847100  1
  Cu  Cu41  1  0.76782004  0.14439507  0.20926528  1
  Ni  Ni42  1  0.35855100  0.85765100  0.35140000  1
  Cu  Cu43  1  0.01060961  0.66887867  0.01714753  1
  Ni  Ni44  1  0.98639500  0.33841800  0.97515200  1
  Cu  Cu45  1  0.19702198  0.54119577  0.62686645  1
  Ni  Ni46  1  0.64865200  0.80808300  0.29665500  1
  Ni  Ni47  1  0.37471300  0.49960900  0.37298900  1
  Cu  Cu48  1  0.17851774  0.74216208  0.70393400  1
  Cu  Cu49  1  0.99916534  0.65652472  0.44584973  1
  Cu  Cu50  1  0.67682765  0.03610521  0.27547464  1
  Ni  Ni51  1  0.83185200  0.02618500  0.09040200  1
  Ni  Ni52  1  0.13243200  0.86756800  0.25000000  1
  Cu  Cu53  1  0.51168303  0.67914715  0.76574029  1
  Ni  Ni54  1  0.96444100  0.55735200  0.38144900  1
  Ni  Ni55  1  0.49960900  0.37471300  0.87298900  1
  Ni  Ni56  1  0.35134800  0.19191700  0.70334500  1
  Ni  Ni57  1  0.16814800  0.97381500  0.90959800  1
  Ni  Ni58  1  0.55735200  0.96444100  0.88144900  1
  Ni  Ni59  1  0.62642600  0.32556100  0.04914700  1
  Cu  Cu60  1  0.65079091  0.99007513  0.95471671  1
  Ni  Ni61  1  0.14234900  0.64144900  0.14860000  1
  Ni  Ni62  1  0.67443900  0.37357400  0.45085300  1
  Ni  Ni63  1  0.20830400  0.36678400  0.44489600  1
  Cu  Cu64  1  0.44396614  0.04432252  0.11729594  1
  Ni  Ni65  1  0.32556100  0.62642600  0.54914700  1
  Cu  Cu66  1  0.64214354  0.49402763  0.61982176  1
  Ni  Ni67  1  0.02553300  0.67822100  0.77571300  1
  Cu  Cu68  1  0.33029531  0.45532156  0.74756315  1
  Cu  Cu69  1  0.35388120  0.96927212  0.47100020  1
  Cu  Cu70  1  0.87864215  0.35577294  0.85061968  1
  Ni  Ni71  1  0.86756800  0.13243200  0.75000000  1
