# generated using pymatgen
data_Cu9NiC4
_symmetry_space_group_name_H-M   'P 1'
_cell_length_a   5.79395600
_cell_length_b   8.43885600
_cell_length_c   11.66078005
_cell_angle_alpha   49.39658955
_cell_angle_beta   90.00000000
_cell_angle_gamma   90.00000000
_symmetry_Int_Tables_number   1
_chemical_formula_structural   Cu9NiC4
_chemical_formula_sum   'Cu18 Ni2 C8'
_cell_volume   432.87370244
_cell_formula_units_Z   2
loop_
 _symmetry_equiv_pos_site_id
 _symmetry_equiv_pos_as_xyz
  1  'x, y, z'
loop_
 _atom_site_type_symbol
 _atom_site_label
 _atom_site_symmetry_multiplicity
 _atom_site_fract_x
 _atom_site_fract_y
 _atom_site_fract_z
 _atom_site_occupancy
  Ni  Ni0  1  0.23674100  0.00000000  0.25000000  1
  Ni  Ni1  1  0.76325900  0.00000000  0.75000000  1
  C  C2  1  0.68992800  0.79132200  0.55558400  1
  C  C3  1  0.24473900  0.61059300  0.85874900  1
  C  C4  1  0.75526100  0.61059300  0.35874900  1
  C  C5  1  0.31007200  0.79132200  0.05558400  1
  C  C6  1  0.68992800  0.20867800  0.94441600  1
  C  C7  1  0.75526100  0.38940700  0.14125100  1
  C  C8  1  0.31007200  0.20867800  0.44441600  1
  C  C9  1  0.24473900  0.38940700  0.64125100  1
  Cu  Cu10  1  0.53111900  0.50000000  0.75000000  1
  Cu  Cu11  1  0.46888100  0.50000000  0.25000000  1
  Cu  Cu12  1  0.90675200  0.20649100  0.80430700  1
  Cu  Cu13  1  0.04672800  0.27364500  0.53803700  1
  Cu  Cu14  1  0.04672800  0.72635500  0.96196300  1
  Cu  Cu15  1  0.90675200  0.79350900  0.69569300  1
  Cu  Cu16  1  0.09324800  0.79350900  0.19569300  1
  Cu  Cu17  1  0.95327200  0.72635500  0.46196300  1
  Cu  Cu18  1  0.95327200  0.27364500  0.03803700  1
  Cu  Cu19  1  0.09324800  0.20649100  0.30430700  1
  Cu  Cu20  1  0.47911600  0.28737000  0.05630100  1
  Cu  Cu21  1  0.59173900  0.89286800  0.13426600  1
  Cu  Cu22  1  0.59173900  0.10713200  0.36573400  1
  Cu  Cu23  1  0.47911600  0.71263000  0.44369900  1
  Cu  Cu24  1  0.52088400  0.28737000  0.55630100  1
  Cu  Cu25  1  0.40826100  0.10713200  0.86573400  1
  Cu  Cu26  1  0.40826100  0.89286800  0.63426600  1
  Cu  Cu27  1  0.52088400  0.71263000  0.94369900  1
