# generated using pymatgen
data_Cu2NiC28
_symmetry_space_group_name_H-M   'P 1'
_cell_length_a   8.43521700
_cell_length_b   10.14728986
_cell_length_c   11.98278171
_cell_angle_alpha   107.18790843
_cell_angle_beta   102.14392461
_cell_angle_gamma   98.45851441
_symmetry_Int_Tables_number   1
_chemical_formula_structural   Cu2NiC28
_chemical_formula_sum   'Cu4 Ni2 C56'
_cell_volume   933.57528774
_cell_formula_units_Z   2
loop_
 _symmetry_equiv_pos_site_id
 _symmetry_equiv_pos_as_xyz
  1  'x, y, z'
loop_
 _atom_site_type_symbol
 _atom_site_label
 _atom_site_symmetry_multiplicity
 _atom_site_fract_x
 _atom_site_fract_y
 _atom_site_fract_z
 _atom_site_occupancy
  Ni  Ni0  1  0.45162100  0.21163700  0.65377800  1
  Cu  Cu1  1  0.55047940  0.77293236  0.32937588  1
  Cu  Cu2  1  0.44968336  0.25362758  0.02950224  1
  Ni  Ni3  1  0.54210600  0.73957800  0.96643400  1
  Cu  Cu4  1  0.23947996  0.62111917  0.48007501  1
  Cu  Cu5  1  0.75327023  0.39632975  0.52880215  1
  C  C6  1  0.32631600  0.18947800  0.25876000  1
  C  C7  1  0.67368400  0.81052200  0.74124000  1
  C  C8  1  0.18362700  0.98332600  0.98373700  1
  C  C9  1  0.81637300  0.01667400  0.01626300  1
  C  C10  1  0.96277900  0.20705500  0.28193200  1
  C  C11  1  0.03722100  0.79294500  0.71806800  1
  C  C12  1  0.09234400  0.29266100  0.06820400  1
  C  C13  1  0.90765600  0.70733900  0.93179600  1
  C  C14  1  0.05156000  0.90672900  0.20029900  1
  C  C15  1  0.94844000  0.09327100  0.79970100  1
  C  C16  1  0.05696000  0.08503600  0.11243500  1
  C  C17  1  0.94304000  0.91496400  0.88756500  1
  C  C18  1  0.30113700  0.31749900  0.17154200  1
  C  C19  1  0.69886300  0.68250100  0.82845800  1
  C  C20  1  0.11085600  0.70641300  0.60816500  1
  C  C21  1  0.88914400  0.29358700  0.39183500  1
  C  C22  1  0.16324100  0.14997800  0.93489200  1
  C  C23  1  0.83675900  0.85002200  0.06510800  1
  C  C24  1  0.01005300  0.66035400  0.80691500  1
  C  C25  1  0.98994700  0.33964600  0.19308500  1
  C  C26  1  0.04887000  0.77421900  0.25212400  1
  C  C27  1  0.95113000  0.22578100  0.74787600  1
  C  C28  1  0.36645700  0.07230600  0.09954500  1
  C  C29  1  0.63354300  0.92769400  0.90045500  1
  C  C30  1  0.12207100  0.42726800  0.02220600  1
  C  C31  1  0.87792900  0.57273200  0.97779400  1
  C  C32  1  0.24116400  0.88646000  0.85967900  1
  C  C33  1  0.75883600  0.11354000  0.14032100  1
  C  C34  1  0.12243400  0.83191300  0.04556700  1
  C  C35  1  0.87756600  0.16808700  0.95443300  1
  C  C36  1  0.26473100  0.01316000  0.27555500  1
  C  C37  1  0.73526900  0.98684000  0.72444500  1
  C  C38  1  0.19071300  0.26405600  0.35087800  1
  C  C39  1  0.80928700  0.73594400  0.64912200  1
  C  C40  1  0.04353900  0.96911600  0.70186600  1
  C  C41  1  0.95646100  0.03088400  0.29813400  1
  C  C42  1  0.48725700  0.74225600  0.64423000  1
  C  C43  1  0.51274300  0.25774400  0.35577000  1
  C  C44  1  0.32295600  0.43283700  0.58308100  1
  C  C45  1  0.67704400  0.56716300  0.41691900  1
  C  C46  1  0.51463500  0.14819200  0.83021600  1
  C  C47  1  0.48536500  0.85180800  0.16978400  1
  C  C48  1  0.30259200  0.53113500  0.83027900  1
  C  C49  1  0.69740800  0.46886500  0.16972100  1
  C  C50  1  0.99618000  0.54055400  0.31407100  1
  C  C51  1  0.00382000  0.45944600  0.68592900  1
  C  C52  1  0.52811500  0.56924900  0.38027500  1
  C  C53  1  0.47188500  0.43075100  0.61972500  1
  C  C54  1  0.37724000  0.73745800  0.12939800  1
  C  C55  1  0.62276000  0.26254200  0.87060200  1
  C  C56  1  0.37006900  0.43366700  0.84159700  1
  C  C57  1  0.62993100  0.56633300  0.15840300  1
  C  C58  1  0.34012800  0.91210500  0.48382100  1
  C  C59  1  0.65987200  0.08789500  0.51617900  1
  C  C60  1  0.26102200  0.00121800  0.52067900  1
  C  C61  1  0.73897800  0.99878200  0.47932100  1
