# generated using pymatgen
data_Cu2C9
_symmetry_space_group_name_H-M   'P 1'
_cell_length_a   9.75752600
_cell_length_b   9.76247055
_cell_length_c   14.10735485
_cell_angle_alpha   90.28309779
_cell_angle_beta   89.90743226
_cell_angle_gamma   119.83000216
_symmetry_Int_Tables_number   1
_chemical_formula_structural   Cu2C9
_chemical_formula_sum   'Cu16 C72'
_cell_volume   1165.76651236
_cell_formula_units_Z   8
loop_
 _symmetry_equiv_pos_site_id
 _symmetry_equiv_pos_as_xyz
  1  'x, y, z'
loop_
 _atom_site_type_symbol
 _atom_site_label
 _atom_site_symmetry_multiplicity
 _atom_site_fract_x
 _atom_site_fract_y
 _atom_site_fract_z
 _atom_site_occupancy
  C  C0  1  0.33114100  0.09676300  0.55570500  1
  C  C1  1  0.90805200  0.67609800  0.06152700  1
  C  C2  1  0.77717500  0.09380200  0.05717200  1
  C  C3  1  0.90732100  0.23559000  0.55936600  1
  C  C4  1  0.22493800  0.91938400  0.94207300  1
  C  C5  1  0.66876000  0.89950200  0.44025200  1
  C  C6  1  0.68142500  0.77288700  0.93915200  1
  C  C7  1  0.00703400  0.95277200  0.49037200  1
  C  C8  1  0.00394900  0.56646800  0.25806200  1
  C  C9  1  0.00336900  0.43684800  0.75032000  1
  C  C10  1  0.43100300  0.00210500  0.75140500  1
  C  C11  1  0.56605100  0.00030800  0.24701000  1
  C  C12  1  0.42911900  0.43281500  0.24935900  1
  C  C13  1  0.56390500  0.55732200  0.74413000  1
  Cu  Cu14  1  0.31176837  0.24111569  0.82722500  1
  Cu  Cu15  1  0.31210925  0.08683986  0.34007527  1
  Cu  Cu16  1  0.78428087  0.69330433  0.34215838  1
  Cu  Cu17  1  0.66081727  0.32323302  0.12777485  1
  Cu  Cu18  1  0.66044835  0.35453057  0.63503982  1
  Cu  Cu19  1  0.90257646  0.67907175  0.84945864  1
  Cu  Cu20  1  0.10050975  0.80154968  0.65079564  1
  Cu  Cu21  1  0.76536473  0.09689129  0.83476689  1
  Cu  Cu22  1  0.23241127  0.92174084  0.16229100  1
  Cu  Cu23  1  0.91707202  0.22202242  0.33211230  1
  Cu  Cu24  1  0.07801526  0.30520473  0.13794044  1
  Cu  Cu25  1  0.34575019  0.66653996  0.36946330  1
  Cu  Cu26  1  0.34139014  0.67155528  0.87433423  1
  Cu  Cu27  1  0.20700280  0.27800492  0.67049432  1
  Cu  Cu28  1  0.67846155  0.89827405  0.65565859  1
  Cu  Cu29  1  0.66273112  0.74177574  0.15023077  1
  C  C30  1  0.21295800  0.20395900  0.57771500  1
  C  C31  1  0.34257300  0.26018500  0.32931600  1
  C  C32  1  0.23434100  0.98589400  0.06931400  1
  C  C33  1  0.33576000  0.08634400  0.84146300  1
  C  C34  1  0.47367200  0.38262800  0.82022900  1
  C  C35  1  0.52879800  0.34418100  0.18076600  1
  C  C36  1  0.61516500  0.54173900  0.33208800  1
  C  C37  1  0.75498700  0.75206600  0.06368600  1
  C  C38  1  0.74359000  0.66083900  0.83978900  1
  C  C39  1  0.51163200  0.18757600  0.66671300  1
  C  C40  1  0.46782200  0.08731100  0.32995900  1
  C  C41  1  0.67378800  0.48216000  0.67623600  1
  C  C42  1  0.67457000  0.35219600  0.02689800  1
  C  C43  1  0.67241800  0.33522800  0.52355000  1
  C  C44  1  0.82228000  0.48862300  0.17567600  1
  C  C45  1  0.61930600  0.10062000  0.82147100  1
  C  C46  1  0.67148500  0.18716300  0.16707600  1
  C  C47  1  0.91312000  0.65599300  0.33582500  1
  C  C48  1  0.00558500  0.79676100  0.75573800  1
  C  C49  1  0.00100200  0.79460300  0.57491400  1
  C  C50  1  0.99751700  0.75366200  0.93278500  1
  C  C51  1  0.90227400  0.52126500  0.82070700  1
  C  C52  1  0.81489200  0.32279000  0.67005400  1
  C  C53  1  0.07989100  0.73889100  0.16533300  1
  C  C54  1  0.90839600  0.38109200  0.32904800  1
  C  C55  1  0.74180500  0.08221500  0.33396700  1
  C  C56  1  0.20357600  0.99656400  0.25006100  1
  C  C57  1  0.22395500  0.01924800  0.43030100  1
  C  C58  1  0.77106700  0.99017900  0.57075100  1
  C  C59  1  0.25741900  0.91548800  0.66307500  1
  C  C60  1  0.07812500  0.61617500  0.66977100  1
  C  C61  1  0.91624600  0.25947900  0.83295300  1
  C  C62  1  0.18865300  0.67003700  0.32611500  1
  C  C63  1  0.09069600  0.47266000  0.18092600  1
  C  C64  1  0.99188800  0.22722800  0.07773800  1
  C  C65  1  0.98182500  0.21836300  0.43669100  1
  C  C66  1  0.00850100  0.20968600  0.25721800  1
  C  C67  1  0.08342200  0.33996300  0.66017500  1
  C  C68  1  0.32902600  0.81738600  0.83160400  1
  C  C69  1  0.37857000  0.89796100  0.18046800  1
  C  C70  1  0.18550300  0.52464300  0.81864800  1
  C  C71  1  0.33179400  0.66334600  0.97378700  1
  C  C72  1  0.32907400  0.65608900  0.47561600  1
  C  C73  1  0.32977800  0.51718300  0.32178100  1
  C  C74  1  0.52745900  0.90927500  0.67220600  1
  C  C75  1  0.49062700  0.81319200  0.33385100  1
  C  C76  1  0.25754000  0.34314000  0.16387500  1
  C  C77  1  0.20103700  0.20916000  0.75660000  1
  C  C78  1  0.24138900  0.24948100  0.93639900  1
  C  C79  1  0.38141800  0.46281200  0.67023700  1
  C  C80  1  0.48422100  0.66842300  0.82574000  1
  C  C81  1  0.52130400  0.61944800  0.17517300  1
  C  C82  1  0.66422800  0.91647600  0.15486800  1
  C  C83  1  0.76023500  0.00460100  0.92846000  1
  C  C84  1  0.79347600  0.99944800  0.75047400  1
  C  C85  1  0.65543500  0.73914400  0.66766400  1
  C  C86  1  0.79884700  0.80478500  0.41808400  1
  C  C87  1  0.79828900  0.78856300  0.23985100  1
