# generated using pymatgen
data_Cu15NiC32
_symmetry_space_group_name_H-M   'P 1'
_cell_length_a   15.80455000
_cell_length_b   15.80455000
_cell_length_c   9.95923700
_cell_angle_alpha   90.00000000
_cell_angle_beta   90.00000000
_cell_angle_gamma   90.00000000
_symmetry_Int_Tables_number   1
_chemical_formula_structural   Cu15NiC32
_chemical_formula_sum   'Cu30 Ni2 C64'
_cell_volume   2487.65606996
_cell_formula_units_Z   2
loop_
 _symmetry_equiv_pos_site_id
 _symmetry_equiv_pos_as_xyz
  1  'x, y, z'
loop_
 _atom_site_type_symbol
 _atom_site_label
 _atom_site_symmetry_multiplicity
 _atom_site_fract_x
 _atom_site_fract_y
 _atom_site_fract_z
 _atom_site_occupancy
  Cu  Cu0  1  0.70939409  0.07867470  0.63534480  1
  Cu  Cu1  1  0.55748845  0.05720219  0.16087024  1
  Cu  Cu2  1  0.93402395  0.57902223  0.85403063  1
  Cu  Cu3  1  0.07145303  0.42971148  0.14717802  1
  Cu  Cu4  1  0.29740652  0.91532964  0.66304244  1
  Cu  Cu5  1  0.79982548  0.58013812  0.63056078  1
  Cu  Cu6  1  0.70771000  0.08657317  0.37194353  1
  Cu  Cu7  1  0.78627023  0.59775858  0.34569858  1
  Cu  Cu8  1  0.06028950  0.13889841  0.47895140  1
  Cu  Cu9  1  0.94400924  0.86743266  0.50228228  1
  Cu  Cu10  1  0.91846298  0.70974093  0.63944543  1
  Cu  Cu11  1  0.29335329  0.91590202  0.36144660  1
  Cu  Cu12  1  0.57761871  0.07545077  0.82436671  1
  Ni  Ni13  1  0.20764200  0.41863800  0.35765100  1
  Cu  Cu14  1  0.08192815  0.29638070  0.35985335  1
  Cu  Cu15  1  0.54109248  0.37837321  0.50487533  1
  Cu  Cu16  1  0.58461429  0.19925166  0.35851393  1
  Cu  Cu17  1  0.92042926  0.59967889  0.14498823  1
  Cu  Cu18  1  0.85861230  0.04888874  0.50219708  1
  Cu  Cu19  1  0.42530279  0.79189005  0.37674467  1
  Cu  Cu20  1  0.37102699  0.45337646  0.48617076  1
  Cu  Cu21  1  0.20394103  0.43627225  0.64749734  1
  Cu  Cu22  1  0.13773446  0.94782706  0.48935186  1
  Ni  Ni23  1  0.58136200  0.20764200  0.64234900  1
  Cu  Cu24  1  0.07203846  0.29055065  0.64375981  1
  Cu  Cu25  1  0.92379238  0.70511279  0.34667944  1
  Cu  Cu26  1  0.40384472  0.92121635  0.16966900  1
  Cu  Cu27  1  0.06011645  0.43093559  0.82777668  1
  Cu  Cu28  1  0.44378999  0.63342134  0.48388510  1
  Cu  Cu29  1  0.43333110  0.92985490  0.83157882  1
  Cu  Cu30  1  0.42362880  0.78590354  0.64299319  1
  Cu  Cu31  1  0.63007495  0.53969619  0.49311177  1
  C  C32  1  0.45867000  0.82810500  0.50000000  1
  C  C33  1  0.31023200  0.43129100  0.36369700  1
  C  C34  1  0.81023200  0.06870900  0.63630300  1
  C  C35  1  0.17189500  0.45867000  0.50000000  1
  C  C36  1  0.00000000  0.50000000  0.16819200  1
  C  C37  1  0.68976800  0.56870900  0.63630300  1
  C  C38  1  0.82810500  0.54133000  0.50000000  1
  C  C39  1  0.96194900  0.65921100  0.77005900  1
  C  C40  1  0.00000000  0.50000000  0.83180800  1
  C  C41  1  0.84078900  0.53805100  0.22994100  1
  C  C42  1  0.18283500  0.31716500  0.64858800  1
  C  C43  1  0.15921100  0.46194900  0.22994100  1
  C  C44  1  0.93129100  0.81023200  0.36369700  1
  C  C45  1  0.96194900  0.65921100  0.22994100  1
  C  C46  1  0.68283500  0.18283500  0.35141200  1
  C  C47  1  0.31716500  0.81716500  0.35141200  1
  C  C48  1  0.46194900  0.84078900  0.22994100  1
  C  C49  1  0.39223000  0.55079000  0.50000000  1
  C  C50  1  0.60777000  0.44921000  0.50000000  1
  C  C51  1  0.43129100  0.68976800  0.36369700  1
  C  C52  1  0.18283500  0.31716500  0.35141200  1
  C  C53  1  0.53805100  0.15921100  0.22994100  1
  C  C54  1  0.50000000  0.00000000  0.16819200  1
  C  C55  1  0.56870900  0.31023200  0.36369700  1
  C  C56  1  0.03805100  0.34078900  0.22994100  1
  C  C57  1  0.84078900  0.53805100  0.77005900  1
  C  C58  1  0.89223000  0.94921000  0.50000000  1
  C  C59  1  0.15921100  0.46194900  0.77005900  1
  C  C60  1  0.53805100  0.15921100  0.77005900  1
  C  C61  1  0.44921000  0.39223000  0.50000000  1
  C  C62  1  0.34078900  0.96194900  0.22994100  1
  C  C63  1  0.65921100  0.03805100  0.22994100  1
  C  C64  1  0.81716500  0.68283500  0.64858800  1
  C  C65  1  0.10777000  0.05079000  0.50000000  1
  C  C66  1  0.34078900  0.96194900  0.77005900  1
  C  C67  1  0.81023200  0.06870900  0.36369700  1
  C  C68  1  0.05079000  0.89223000  0.50000000  1
  C  C69  1  0.50000000  0.00000000  0.83180800  1
  C  C70  1  0.06870900  0.18976800  0.63630300  1
  C  C71  1  0.46194900  0.84078900  0.77005900  1
  C  C72  1  0.40783100  0.90783100  0.00000000  1
  C  C73  1  0.59216900  0.09216900  0.00000000  1
  C  C74  1  0.18976800  0.93129100  0.63630300  1
  C  C75  1  0.56870900  0.31023200  0.63630300  1
  C  C76  1  0.90783100  0.59216900  0.00000000  1
  C  C77  1  0.93129100  0.81023200  0.63630300  1
  C  C78  1  0.43129100  0.68976800  0.63630300  1
  C  C79  1  0.68283500  0.18283500  0.64858800  1
  C  C80  1  0.31023200  0.43129100  0.63630300  1
  C  C81  1  0.06870900  0.18976800  0.36369700  1
  C  C82  1  0.65921100  0.03805100  0.77005900  1
  C  C83  1  0.18976800  0.93129100  0.36369700  1
  C  C84  1  0.04133000  0.32810500  0.50000000  1
  C  C85  1  0.03805100  0.34078900  0.77005900  1
  C  C86  1  0.32810500  0.95867000  0.50000000  1
  C  C87  1  0.09216900  0.40783100  0.00000000  1
  C  C88  1  0.31716500  0.81716500  0.64858800  1
  C  C89  1  0.94921000  0.10777000  0.50000000  1
  C  C90  1  0.67189500  0.04133000  0.50000000  1
  C  C91  1  0.68976800  0.56870900  0.36369700  1
  C  C92  1  0.54133000  0.17189500  0.50000000  1
  C  C93  1  0.81716500  0.68283500  0.35141200  1
  C  C94  1  0.55079000  0.60777000  0.50000000  1
  C  C95  1  0.95867000  0.67189500  0.50000000  1
