# generated using pymatgen
data_Cu3C11
_symmetry_space_group_name_H-M   'P 1'
_cell_length_a   5.72448935
_cell_length_b   5.64094575
_cell_length_c   9.29208632
_cell_angle_alpha   90.42190806
_cell_angle_beta   89.79212665
_cell_angle_gamma   119.51840664
_symmetry_Int_Tables_number   1
_chemical_formula_structural   Cu3C11
_chemical_formula_sum   'Cu6 C22'
_cell_volume   261.10064545
_cell_formula_units_Z   2
loop_
 _symmetry_equiv_pos_site_id
 _symmetry_equiv_pos_as_xyz
  1  'x, y, z'
loop_
 _atom_site_type_symbol
 _atom_site_label
 _atom_site_symmetry_multiplicity
 _atom_site_fract_x
 _atom_site_fract_y
 _atom_site_fract_z
 _atom_site_occupancy
  C  C0  1  0.33240400  0.66502700  0.89272800  1
  C  C1  1  0.99645700  0.99901500  0.99835900  1
  C  C2  1  0.00354300  0.00255800  0.49835900  1
  C  C3  1  0.66759600  0.33262300  0.39272800  1
  C  C4  1  0.32890600  0.66179300  0.49327200  1
  C  C5  1  0.67109400  0.33288600  0.99327200  1
  Cu  Cu6  1  0.16888825  0.83918554  0.21259683  1
  Cu  Cu7  1  0.17765844  0.36184477  0.22262663  1
  Cu  Cu8  1  0.65843425  0.79575894  0.21517366  1
  Cu  Cu9  1  0.31106597  0.17185235  0.74921860  1
  Cu  Cu10  1  0.80990918  0.65512670  0.71141698  1
  Cu  Cu11  1  0.84115296  0.14851702  0.72325413  1
  C  C12  1  0.15687000  0.83829400  0.60535600  1
  C  C13  1  0.03512400  0.52119100  0.33054500  1
  C  C14  1  0.31418900  0.65562800  0.10505500  1
  C  C15  1  0.02127700  0.01249300  0.31164400  1
  C  C16  1  0.97872300  0.99121600  0.81164400  1
  C  C17  1  0.15183900  0.32202800  0.60395600  1
  C  C18  1  0.47852600  0.96259000  0.33175900  1
  C  C19  1  0.47244600  0.50726600  0.33566500  1
  C  C20  1  0.32025200  0.15898700  0.10171300  1
  C  C21  1  0.67974700  0.83873400  0.60171300  1
  C  C22  1  0.52147400  0.48406300  0.83175900  1
  C  C23  1  0.52755400  0.03482000  0.83566500  1
  C  C24  1  0.68581100  0.34143800  0.60505500  1
  C  C25  1  0.84312900  0.68142300  0.10535600  1
  C  C26  1  0.96487600  0.48606700  0.83054500  1
  C  C27  1  0.84816100  0.17018900  0.10395600  1
