# generated using pymatgen
data_Cu12Ni3C7
_symmetry_space_group_name_H-M   'P 1'
_cell_length_a   5.06848360
_cell_length_b   5.01039872
_cell_length_c   28.80463502
_cell_angle_alpha   88.99730409
_cell_angle_beta   89.60333754
_cell_angle_gamma   60.52392560
_symmetry_Int_Tables_number   1
_chemical_formula_structural   Cu12Ni3C7
_chemical_formula_sum   'Cu36 Ni9 C21'
_cell_volume   636.71446581
_cell_formula_units_Z   3
loop_
 _symmetry_equiv_pos_site_id
 _symmetry_equiv_pos_as_xyz
  1  'x, y, z'
loop_
 _atom_site_type_symbol
 _atom_site_label
 _atom_site_symmetry_multiplicity
 _atom_site_fract_x
 _atom_site_fract_y
 _atom_site_fract_z
 _atom_site_occupancy
  Ni  Ni0  1  0.16756200  0.16824400  0.99996700  1
  Ni  Ni1  1  0.15486700  0.17784500  0.49974300  1
  Ni  Ni2  1  0.16649900  0.49854000  0.33399600  1
  Ni  Ni3  1  0.16376300  0.50349000  0.83241300  1
  Ni  Ni4  1  0.16770700  0.83200000  0.16588400  1
  Ni  Ni5  1  0.83610100  0.16593000  0.08319000  1
  Ni  Ni6  1  0.83514000  0.49787500  0.41690800  1
  Ni  Ni7  1  0.83884500  0.50063400  0.66733800  1
  Ni  Ni8  1  0.83471300  0.83974400  0.75018700  1
  C  C9  1  0.51859600  0.15728500  0.41691000  1
  C  C10  1  0.50385400  0.16148100  0.91713500  1
  C  C11  1  0.50301200  0.50268200  0.24942800  1
  C  C12  1  0.50383200  0.50678100  0.74931900  1
  C  C13  1  0.51974500  0.82381400  0.08303400  1
  C  C14  1  0.50476900  0.82353700  0.58369200  1
  C  C15  1  0.16547800  0.16713200  0.25006300  1
  C  C16  1  0.16363900  0.16440700  0.74983900  1
  C  C17  1  0.16498500  0.50110100  0.08300100  1
  C  C18  1  0.16618500  0.50141900  0.58350400  1
  C  C19  1  0.16354000  0.83465000  0.41719100  1
  C  C20  1  0.50183200  0.16508500  0.16551100  1
  C  C21  1  0.16316900  0.83777600  0.91672300  1
  C  C22  1  0.51231500  0.15565200  0.66739100  1
  C  C23  1  0.50100000  0.50193500  0.00064600  1
  C  C24  1  0.50692600  0.49946800  0.49970800  1
  C  C25  1  0.50788800  0.82701700  0.33445500  1
  C  C26  1  0.83934700  0.15781800  0.58329500  1
  C  C27  1  0.50567500  0.83231500  0.83236300  1
  C  C28  1  0.82701200  0.50439300  0.91681100  1
  C  C29  1  0.82631600  0.83746200  0.25018000  1
  Cu  Cu30  1  0.18490200  0.18183100  0.62091300  1
  Cu  Cu31  1  0.20605300  0.15687300  0.11876300  1
  Cu  Cu32  1  0.20367100  0.16281500  0.87729500  1
  Cu  Cu33  1  0.20408500  0.13652300  0.38074700  1
  Cu  Cu34  1  0.18167100  0.51182200  0.21312800  1
  Cu  Cu35  1  0.17871500  0.47602200  0.95318600  1
  Cu  Cu36  1  0.20978000  0.49023700  0.45356500  1
  Cu  Cu37  1  0.20209900  0.45985600  0.71281600  1
  Cu  Cu38  1  0.45458600  0.20689700  0.04495600  1
  Cu  Cu39  1  0.50652600  0.14896000  0.28916300  1
  Cu  Cu40  1  0.20229000  0.79865500  0.28837300  1
  Cu  Cu41  1  0.46756200  0.19443200  0.54482100  1
  Cu  Cu42  1  0.18875400  0.81003600  0.54654300  1
  Cu  Cu43  1  0.20562000  0.80388200  0.04700700  1
  Cu  Cu44  1  0.45706500  0.18019500  0.78769200  1
  Cu  Cu45  1  0.19761700  0.82113500  0.78665000  1
  Cu  Cu46  1  0.45562900  0.53602700  0.37927200  1
  Cu  Cu47  1  0.45562700  0.50547500  0.12112700  1
  Cu  Cu48  1  0.50462200  0.48354000  0.62263000  1
  Cu  Cu49  1  0.50718700  0.51242500  0.87838600  1
  Cu  Cu50  1  0.83220800  0.15311900  0.45322600  1
  Cu  Cu51  1  0.49252000  0.84493200  0.20983300  1
  Cu  Cu52  1  0.81058400  0.16041700  0.21379000  1
  Cu  Cu53  1  0.49700700  0.83840100  0.71071200  1
  Cu  Cu54  1  0.45587600  0.84151000  0.45540700  1
  Cu  Cu55  1  0.81636600  0.20190400  0.71348800  1
  Cu  Cu56  1  0.81158100  0.19763100  0.95342900  1
  Cu  Cu57  1  0.49183500  0.83400500  0.95669400  1
  Cu  Cu58  1  0.82942500  0.51700000  0.04713500  1
  Cu  Cu59  1  0.82009700  0.52697300  0.28705300  1
  Cu  Cu60  1  0.80660600  0.50579500  0.78765200  1
  Cu  Cu61  1  0.82237500  0.50155900  0.54312600  1
  Cu  Cu62  1  0.83174200  0.81949500  0.11881500  1
  Cu  Cu63  1  0.83180200  0.84637200  0.38122200  1
  Cu  Cu64  1  0.82468000  0.81843700  0.62129800  1
  Cu  Cu65  1  0.82008700  0.82021900  0.87966800  1
