# generated using pymatgen
data_Cu4NiC2
_symmetry_space_group_name_H-M   'P 1'
_cell_length_a   5.92225500
_cell_length_b   6.88820700
_cell_length_c   14.05330600
_cell_angle_alpha   90.00000000
_cell_angle_beta   90.00000000
_cell_angle_gamma   90.00000000
_symmetry_Int_Tables_number   1
_chemical_formula_structural   Cu4NiC2
_chemical_formula_sum   'Cu16 Ni4 C8'
_cell_volume   573.28660681
_cell_formula_units_Z   4
loop_
 _symmetry_equiv_pos_site_id
 _symmetry_equiv_pos_as_xyz
  1  'x, y, z'
loop_
 _atom_site_type_symbol
 _atom_site_label
 _atom_site_symmetry_multiplicity
 _atom_site_fract_x
 _atom_site_fract_y
 _atom_site_fract_z
 _atom_site_occupancy
  Ni  Ni0  1  0.32325800  0.00000000  0.00000000  1
  Ni  Ni1  1  0.67674200  0.50000000  0.50000000  1
  Ni  Ni2  1  0.02663900  0.00000000  0.50000000  1
  Ni  Ni3  1  0.97336100  0.50000000  0.00000000  1
  C  C4  1  0.98628300  0.00000000  0.24697100  1
  C  C5  1  0.98628300  0.00000000  0.75302900  1
  C  C6  1  0.01371700  0.50000000  0.25302900  1
  C  C7  1  0.01371700  0.50000000  0.74697100  1
  C  C8  1  0.50000000  0.25000000  0.25000000  1
  C  C9  1  0.50000000  0.75000000  0.75000000  1
  C  C10  1  0.50000000  0.75000000  0.25000000  1
  C  C11  1  0.50000000  0.25000000  0.75000000  1
  Cu  Cu12  1  0.83573000  0.25000600  0.34573800  1
  Cu  Cu13  1  0.83573000  0.74999400  0.65426200  1
  Cu  Cu14  1  0.16427000  0.75000600  0.15426200  1
  Cu  Cu15  1  0.16427000  0.24999400  0.84573800  1
  Cu  Cu16  1  0.16427000  0.24999400  0.15426200  1
  Cu  Cu17  1  0.16427000  0.75000600  0.84573800  1
  Cu  Cu18  1  0.83573000  0.74999400  0.34573800  1
  Cu  Cu19  1  0.83573000  0.25000600  0.65426200  1
  Cu  Cu20  1  0.66206100  0.00000000  0.15281200  1
  Cu  Cu21  1  0.66206100  0.00000000  0.84718800  1
  Cu  Cu22  1  0.33793900  0.50000000  0.34718800  1
  Cu  Cu23  1  0.33793900  0.50000000  0.65281200  1
  Cu  Cu24  1  0.32991700  0.00000000  0.34177700  1
  Cu  Cu25  1  0.32991700  0.00000000  0.65822300  1
  Cu  Cu26  1  0.67008300  0.50000000  0.15822300  1
  Cu  Cu27  1  0.67008300  0.50000000  0.84177700  1
