# generated using pymatgen
data_Cu4NiC4
_symmetry_space_group_name_H-M   'P 1'
_cell_length_a   7.17636200
_cell_length_b   7.75276300
_cell_length_c   14.74935400
_cell_angle_alpha   90.00000000
_cell_angle_beta   90.00000000
_cell_angle_gamma   90.00000000
_symmetry_Int_Tables_number   1
_chemical_formula_structural   Cu4NiC4
_chemical_formula_sum   'Cu16 Ni4 C16'
_cell_volume   820.60440711
_cell_formula_units_Z   4
loop_
 _symmetry_equiv_pos_site_id
 _symmetry_equiv_pos_as_xyz
  1  'x, y, z'
loop_
 _atom_site_type_symbol
 _atom_site_label
 _atom_site_symmetry_multiplicity
 _atom_site_fract_x
 _atom_site_fract_y
 _atom_site_fract_z
 _atom_site_occupancy
  Ni  Ni0  1  0.15897000  0.52212900  0.75000000  1
  Ni  Ni1  1  0.84103000  0.47787100  0.25000000  1
  Ni  Ni2  1  0.34103000  0.02212900  0.25000000  1
  Ni  Ni3  1  0.65897000  0.97787100  0.75000000  1
  C  C4  1  0.32819800  0.17611800  0.62799800  1
  C  C5  1  0.67180200  0.82388200  0.37200200  1
  C  C6  1  0.17180200  0.67611800  0.37200200  1
  C  C7  1  0.67180200  0.82388200  0.12799800  1
  C  C8  1  0.82819800  0.32388200  0.62799800  1
  C  C9  1  0.32819800  0.17611800  0.87200200  1
  C  C10  1  0.82819800  0.32388200  0.87200200  1
  C  C11  1  0.17180200  0.67611800  0.12799800  1
  C  C12  1  0.01477000  0.18641300  0.09742400  1
  C  C13  1  0.98523000  0.81358700  0.90257600  1
  C  C14  1  0.48523000  0.68641300  0.90257600  1
  C  C15  1  0.98523000  0.81358700  0.59742400  1
  C  C16  1  0.51477000  0.31358700  0.09742400  1
  C  C17  1  0.01477000  0.18641300  0.40257600  1
  C  C18  1  0.51477000  0.31358700  0.40257600  1
  C  C19  1  0.48523000  0.68641300  0.59742400  1
  Cu  Cu20  1  0.01822800  0.08660200  0.75000000  1
  Cu  Cu21  1  0.98177200  0.91339800  0.25000000  1
  Cu  Cu22  1  0.48177200  0.58660200  0.25000000  1
  Cu  Cu23  1  0.51822800  0.41339800  0.75000000  1
  Cu  Cu24  1  0.28326100  0.86362200  0.75000000  1
  Cu  Cu25  1  0.71673900  0.13637800  0.25000000  1
  Cu  Cu26  1  0.21673900  0.36362200  0.25000000  1
  Cu  Cu27  1  0.78326100  0.63637800  0.75000000  1
  Cu  Cu28  1  0.16626400  0.46611200  0.53691000  1
  Cu  Cu29  1  0.83373600  0.53388800  0.46309000  1
  Cu  Cu30  1  0.33373600  0.96611200  0.46309000  1
  Cu  Cu31  1  0.83373600  0.53388800  0.03691000  1
  Cu  Cu32  1  0.66626400  0.03388800  0.53691000  1
  Cu  Cu33  1  0.16626400  0.46611200  0.96309000  1
  Cu  Cu34  1  0.66626400  0.03388800  0.96309000  1
  Cu  Cu35  1  0.33373600  0.96611200  0.03691000  1
