# generated using pymatgen
data_Cu11Ni7C16
_symmetry_space_group_name_H-M   'P 1'
_cell_length_a   10.42292171
_cell_length_b   10.42292171
_cell_length_c   8.28653121
_cell_angle_alpha   66.60891563
_cell_angle_beta   66.60891563
_cell_angle_gamma   74.91326505
_symmetry_Int_Tables_number   1
_chemical_formula_structural   Cu11Ni7C16
_chemical_formula_sum   'Cu22 Ni14 C32'
_cell_volume   752.68565196
_cell_formula_units_Z   2
loop_
 _symmetry_equiv_pos_site_id
 _symmetry_equiv_pos_as_xyz
  1  'x, y, z'
loop_
 _atom_site_type_symbol
 _atom_site_label
 _atom_site_symmetry_multiplicity
 _atom_site_fract_x
 _atom_site_fract_y
 _atom_site_fract_z
 _atom_site_occupancy
  C  C0  1  0.98114600  0.48753500  0.29699600  1
  C  C1  1  0.73594700  0.73594700  0.29736200  1
  C  C2  1  0.52602100  0.52602100  0.97223400  1
  C  C3  1  0.48753500  0.98114600  0.29699600  1
  C  C4  1  0.02453000  0.02453000  0.98371800  1
  C  C5  1  0.61513800  0.11113700  0.72678500  1
  C  C6  1  0.11113700  0.61513800  0.72678500  1
  C  C7  1  0.36641600  0.36641600  0.70878100  1
  C  C8  1  0.81382900  0.56369400  0.00521000  1
  C  C9  1  0.50775200  0.25569000  0.33919200  1
  C  C10  1  0.25569000  0.50775200  0.33919200  1
  C  C11  1  0.76119400  0.00510900  0.37739000  1
  C  C12  1  0.92982300  0.17491600  0.64241500  1
  C  C13  1  0.68176100  0.42843600  0.62837000  1
  C  C14  1  0.42843600  0.68176100  0.62837000  1
  C  C15  1  0.56369400  0.81382900  0.00521000  1
  C  C16  1  0.31450600  0.06292400  0.01444800  1
  C  C17  1  0.06292400  0.31450600  0.01444800  1
  C  C18  1  0.00510900  0.76119400  0.37739000  1
  C  C19  1  0.17491600  0.92982300  0.64241500  1
  C  C20  1  0.99990400  0.74607200  0.01578100  1
  C  C21  1  0.70728300  0.70728300  0.65820300  1
  C  C22  1  0.74607200  0.99990400  0.01578100  1
  C  C23  1  0.95822500  0.46591900  0.66178100  1
  C  C24  1  0.46591900  0.95822500  0.66178100  1
  C  C25  1  0.54335800  0.54335800  0.32424300  1
  C  C26  1  0.20824500  0.20824500  0.66631900  1
  C  C27  1  0.79699700  0.28179200  0.34547800  1
  C  C28  1  0.04001600  0.04001600  0.33706700  1
  C  C29  1  0.50149400  0.24971800  0.98846800  1
  C  C30  1  0.24971800  0.50149400  0.98846800  1
  C  C31  1  0.28179200  0.79699700  0.34547800  1
  Cu  Cu32  1  0.95801077  0.67861756  0.22890389  1
  Cu  Cu33  1  0.66074262  0.65938639  0.57485162  1
  Cu  Cu34  1  0.90543653  0.39376177  0.57300324  1
  Cu  Cu35  1  0.60008350  0.35330828  0.88656577  1
  Cu  Cu36  1  0.37191773  0.56182594  0.90786507  1
  Cu  Cu37  1  0.84916933  0.08517839  0.92949453  1
  Ni  Ni38  1  0.46273200  0.18194900  0.17818500  1
  Ni  Ni39  1  0.18194900  0.46273200  0.17818500  1
  Ni  Ni40  1  0.70072100  0.94298100  0.21118400  1
  Cu  Cu41  1  0.67105833  0.69623573  0.83244890  1
  Cu  Cu42  1  0.92582174  0.42651544  0.86414246  1
  Cu  Cu43  1  0.97858940  0.68046922  0.93220963  1
  Cu  Cu44  1  0.99765373  0.98196753  0.25173022  1
  Cu  Cu45  1  0.46740642  0.49310506  0.22213908  1
  Ni  Ni46  1  0.40619900  0.90636700  0.58275800  1
  Cu  Cu47  1  0.14643624  0.15082694  0.58958849  1
  Cu  Cu48  1  0.74686114  0.21561028  0.27202684  1
  Cu  Cu49  1  0.19549715  0.73153721  0.28326437  1
  Ni  Ni50  1  0.80482200  0.80482200  0.53977000  1
  Cu  Cu51  1  0.57484639  0.05170237  0.54073552  1
  Cu  Cu52  1  0.04988049  0.57952923  0.53325225  1
  Ni  Ni53  1  0.64076400  0.64076400  0.20986200  1
  Ni  Ni54  1  0.30421100  0.30421100  0.54592000  1
  Cu  Cu55  1  0.89006611  0.38095763  0.22731145  1
  Cu  Cu56  1  0.08753487  0.85516795  0.92533223  1
  Cu  Cu57  1  0.51517497  0.49113507  0.53882668  1
  Ni  Ni58  1  0.43069900  0.93071600  0.84889500  1
  Cu  Cu59  1  0.17866022  0.16007256  0.83786597  1
  Ni  Ni60  1  0.75506100  0.24584600  0.53822600  1
  Ni  Ni61  1  0.45599600  0.21151200  0.87787400  1
  Ni  Ni62  1  0.21151200  0.45599600  0.87787400  1
  Ni  Ni63  1  0.68433500  0.96747800  0.91948200  1
  Ni  Ni64  1  0.13227500  0.13227500  0.20792400  1
  Cu  Cu65  1  0.39058221  0.87412779  0.22912395  1
  Cu  Cu66  1  0.99152484  0.99885172  0.52701988  1
  Ni  Ni67  1  0.24584600  0.75506100  0.53822600  1
