# generated using pymatgen
data_Cu10NiC6
_symmetry_space_group_name_H-M   'P 1'
_cell_length_a   7.20454800
_cell_length_b   6.65140400
_cell_length_c   20.41310849
_cell_angle_alpha   80.32674282
_cell_angle_beta   90.00000000
_cell_angle_gamma   90.00000000
_symmetry_Int_Tables_number   1
_chemical_formula_structural   Cu10NiC6
_chemical_formula_sum   'Cu40 Ni4 C24'
_cell_volume   964.29540187
_cell_formula_units_Z   4
loop_
 _symmetry_equiv_pos_site_id
 _symmetry_equiv_pos_as_xyz
  1  'x, y, z'
loop_
 _atom_site_type_symbol
 _atom_site_label
 _atom_site_symmetry_multiplicity
 _atom_site_fract_x
 _atom_site_fract_y
 _atom_site_fract_z
 _atom_site_occupancy
  C  C0  1  0.62968900  0.04999200  0.62239500  1
  C  C1  1  0.87031100  0.04999200  0.12239500  1
  C  C2  1  0.37031100  0.95000800  0.37760500  1
  C  C3  1  0.12968900  0.95000800  0.87760500  1
  C  C4  1  0.46684800  0.81739800  0.77335800  1
  C  C5  1  0.35547200  0.42970800  0.41127600  1
  C  C6  1  0.85547200  0.57029200  0.08872400  1
  C  C7  1  0.80751100  0.18433500  0.95486100  1
  C  C8  1  0.14452800  0.42970800  0.91127600  1
  C  C9  1  0.96684800  0.18260200  0.72664200  1
  C  C10  1  0.30751100  0.81566500  0.54513900  1
  C  C11  1  0.03315200  0.81739800  0.27335800  1
  C  C12  1  0.53315200  0.18260200  0.22664200  1
  C  C13  1  0.69248900  0.18433500  0.45486100  1
  C  C14  1  0.64452800  0.57029200  0.58872400  1
  C  C15  1  0.19248900  0.81566500  0.04513900  1
  C  C16  1  0.48178900  0.33079500  0.77133200  1
  C  C17  1  0.98178900  0.66920500  0.72866800  1
  C  C18  1  0.11843500  0.32666600  0.57578300  1
  C  C19  1  0.61843500  0.67333400  0.92421700  1
  C  C20  1  0.38156500  0.32666600  0.07578300  1
  C  C21  1  0.51821100  0.66920500  0.22866800  1
  C  C22  1  0.88156500  0.67333400  0.42421700  1
  C  C23  1  0.01821100  0.33079500  0.27133200  1
  Cu  Cu24  1  0.00012983  0.01382252  0.76374489  1
  Cu  Cu25  1  0.16514612  0.66262329  0.59453325  1
  Ni  Ni26  1  0.23927100  0.89165400  0.47416700  1
  Cu  Cu27  1  0.66687148  0.30073026  0.92201147  1
  Cu  Cu28  1  0.85610194  0.69620400  0.29306011  1
  Cu  Cu29  1  0.20812013  0.88053495  0.98046669  1
  Cu  Cu30  1  0.80496483  0.52052361  0.55716563  1
  Cu  Cu31  1  0.14769025  0.47911469  0.45227765  1
  Cu  Cu32  1  0.76840818  0.11701301  0.53404870  1
  Cu  Cu33  1  0.30542421  0.46794129  0.95048999  1
  Cu  Cu34  1  0.52034395  0.00079739  0.71033312  1
  Cu  Cu35  1  0.14870910  0.31642639  0.71078427  1
  Cu  Cu36  1  0.09984831  0.90542981  0.33577861  1
  Cu  Cu37  1  0.67157214  0.30012801  0.25655087  1
  Ni  Ni38  1  0.60200300  0.08952100  0.16480500  1
  Cu  Cu39  1  0.19031573  0.27275543  0.86698348  1
  Cu  Cu40  1  0.48538397  0.68342412  0.52422089  1
  Cu  Cu41  1  0.32220665  0.28980159  0.35935738  1
  Cu  Cu42  1  0.75382108  0.13553949  0.03175972  1
  Cu  Cu43  1  0.52848114  0.39206968  0.62362443  1
  Cu  Cu44  1  0.67044802  0.71397214  0.64199861  1
  Cu  Cu45  1  0.89261857  0.07026039  0.67267251  1
  Cu  Cu46  1  0.02391418  0.66581936  0.04941599  1
  Cu  Cu47  1  0.36362758  0.31031866  0.20071302  1
  Cu  Cu48  1  0.50635558  0.99223689  0.28363557  1
  Cu  Cu49  1  0.37595621  0.97711387  0.57427120  1
  Cu  Cu50  1  0.97366493  0.00492866  0.21283986  1
  Cu  Cu51  1  0.06894656  0.64971371  0.86249978  1
  Cu  Cu52  1  0.29828167  0.66801636  0.74129020  1
  Cu  Cu53  1  0.62623774  0.99989990  0.42135291  1
  Cu  Cu54  1  0.79326159  0.34800996  0.76299934  1
  Cu  Cu55  1  0.63187746  0.67332393  0.79417963  1
  Cu  Cu56  1  0.84972041  0.01251591  0.91826874  1
  Cu  Cu57  1  0.00214026  0.33326106  0.96097673  1
  Cu  Cu58  1  0.50726738  0.32448962  0.46334566  1
  Cu  Cu59  1  0.46411572  0.63515691  0.37421429  1
  Ni  Ni60  1  0.81740000  0.72191000  0.13683500  1
  Cu  Cu61  1  0.69410102  0.55236404  0.04630848  1
  Ni  Ni62  1  0.32809800  0.67565100  0.08790000  1
  Cu  Cu63  1  0.18025830  0.71847639  0.24658741  1
  Cu  Cu64  1  0.12417585  0.00401240  0.07429106  1
  Cu  Cu65  1  0.95647595  0.38271432  0.13164966  1
  Cu  Cu66  1  0.81694975  0.30792998  0.40523111  1
  Cu  Cu67  1  0.40049308  0.88858096  0.83901875  1
