# generated using pymatgen
data_Cu29C15
_symmetry_space_group_name_H-M   'P 1'
_cell_length_a   9.75752600
_cell_length_b   9.76247055
_cell_length_c   14.10735485
_cell_angle_alpha   90.28309779
_cell_angle_beta   89.90743226
_cell_angle_gamma   119.83000216
_symmetry_Int_Tables_number   1
_chemical_formula_structural   Cu29C15
_chemical_formula_sum   'Cu58 C30'
_cell_volume   1165.76651236
_cell_formula_units_Z   2
loop_
 _symmetry_equiv_pos_site_id
 _symmetry_equiv_pos_as_xyz
  1  'x, y, z'
loop_
 _atom_site_type_symbol
 _atom_site_label
 _atom_site_symmetry_multiplicity
 _atom_site_fract_x
 _atom_site_fract_y
 _atom_site_fract_z
 _atom_site_occupancy
  C  C0  1  0.33114100  0.09676300  0.55570500  1
  C  C1  1  0.90805200  0.67609800  0.06152700  1
  C  C2  1  0.77717500  0.09380200  0.05717200  1
  C  C3  1  0.90732100  0.23559000  0.55936600  1
  C  C4  1  0.22493800  0.91938400  0.94207300  1
  C  C5  1  0.66876000  0.89950200  0.44025200  1
  C  C6  1  0.68142500  0.77288700  0.93915200  1
  C  C7  1  0.00703400  0.95277200  0.49037200  1
  C  C8  1  0.00394900  0.56646800  0.25806200  1
  C  C9  1  0.00336900  0.43684800  0.75032000  1
  C  C10  1  0.43100300  0.00210500  0.75140500  1
  C  C11  1  0.56605100  0.00030800  0.24701000  1
  C  C12  1  0.42911900  0.43281500  0.24935900  1
  C  C13  1  0.56390500  0.55732200  0.74413000  1
  C  C14  1  0.31206300  0.23284300  0.84882000  1
  C  C15  1  0.31256100  0.08908400  0.34076200  1
  C  C16  1  0.77593000  0.69376700  0.33824500  1
  C  C17  1  0.67261300  0.34072100  0.13192200  1
  C  C18  1  0.66765800  0.32969600  0.62869900  1
  C  C19  1  0.91133200  0.68239900  0.84184800  1
  C  C20  1  0.08296100  0.77718300  0.65758900  1
  C  C21  1  0.77118800  0.09157700  0.83888700  1
  C  C22  1  0.22640900  0.90748900  0.16017600  1
  C  C23  1  0.91233300  0.22480100  0.34453900  1
  C  C24  1  0.08620100  0.31329400  0.16142800  1
  C  C25  1  0.33762800  0.66632300  0.37101200  1
  C  C26  1  0.33657900  0.66983400  0.86884700  1
  C  C27  1  0.22152800  0.30279100  0.66043700  1
  C  C28  1  0.68264100  0.90934400  0.65936300  1
  C  C29  1  0.68100100  0.76676200  0.15394000  1
  Cu  Cu30  1  0.20350904  0.19468751  0.56602861  1
  Cu  Cu31  1  0.33698292  0.25697414  0.31553464  1
  Cu  Cu32  1  0.23909954  0.01060239  0.07608660  1
  Cu  Cu33  1  0.32822851  0.06842499  0.85126376  1
  Cu  Cu34  1  0.45153955  0.36679163  0.81271392  1
  Cu  Cu35  1  0.55530643  0.36015240  0.19799336  1
  Cu  Cu36  1  0.63346495  0.54993204  0.34546290  1
  Cu  Cu37  1  0.73433158  0.74556255  0.05766822  1
  Cu  Cu38  1  0.73953198  0.66508632  0.82905259  1
  Cu  Cu39  1  0.45749455  0.14393511  0.66307401  1
  Cu  Cu40  1  0.46322826  0.07713658  0.33232418  1
  Cu  Cu41  1  0.65660812  0.45116090  0.66439215  1
  Cu  Cu42  1  0.66870271  0.34539751  0.03802358  1
  Cu  Cu43  1  0.68265681  0.35971002  0.51917942  1
  Cu  Cu44  1  0.82494340  0.46786885  0.15688744  1
  Cu  Cu45  1  0.59260603  0.08770655  0.82890084  1
  Cu  Cu46  1  0.65978950  0.18447024  0.17515113  1
  Cu  Cu47  1  0.92846652  0.64928907  0.32862018  1
  Cu  Cu48  1  0.01140373  0.79177477  0.74453119  1
  Cu  Cu49  1  0.97992997  0.79069568  0.59340916  1
  Cu  Cu50  1  0.99667135  0.76265409  0.93052653  1
  Cu  Cu51  1  0.90873852  0.53780163  0.82095332  1
  Cu  Cu52  1  0.80579957  0.31996681  0.67437735  1
  Cu  Cu53  1  0.08451209  0.73115383  0.16997830  1
  Cu  Cu54  1  0.92776083  0.39173036  0.32113407  1
  Cu  Cu55  1  0.74325528  0.06905488  0.34192622  1
  Cu  Cu56  1  0.19416838  0.99103755  0.26493215  1
  Cu  Cu57  1  0.25075755  0.04344486  0.42814511  1
  Cu  Cu58  1  0.77252733  0.98259324  0.55835952  1
  Cu  Cu59  1  0.26067685  0.90840140  0.68402467  1
  Cu  Cu60  1  0.10872902  0.62720341  0.69572231  1
  Cu  Cu61  1  0.94010266  0.25099159  0.83597861  1
  Cu  Cu62  1  0.17104533  0.64754327  0.33525094  1
  Cu  Cu63  1  0.09859466  0.47099742  0.18113347  1
  Cu  Cu64  1  0.02781555  0.24778313  0.06411135  1
  Cu  Cu65  1  0.95507575  0.19486596  0.43699052  1
  Cu  Cu66  1  0.96576066  0.19163222  0.26387944  1
  Cu  Cu67  1  0.10326813  0.35763141  0.65279182  1
  Cu  Cu68  1  0.32690164  0.83194863  0.83102163  1
  Cu  Cu69  1  0.38202587  0.90155518  0.17054546  1
  Cu  Cu70  1  0.16839542  0.50811705  0.81355012  1
  Cu  Cu71  1  0.33781522  0.65802907  0.97598131  1
  Cu  Cu72  1  0.30119128  0.63404315  0.47668266  1
  Cu  Cu73  1  0.34588716  0.52792066  0.31782261  1
  Cu  Cu74  1  0.52825388  0.90607925  0.67785894  1
  Cu  Cu75  1  0.48205704  0.77421121  0.33209832  1
  Cu  Cu76  1  0.24882269  0.33020437  0.15777100  1
  Cu  Cu77  1  0.20186858  0.20620960  0.77052339  1
  Cu  Cu78  1  0.24007626  0.26117865  0.94968190  1
  Cu  Cu79  1  0.35806245  0.47416746  0.66730132  1
  Cu  Cu80  1  0.49179124  0.68581431  0.83284163  1
  Cu  Cu81  1  0.52200331  0.64241218  0.18813803  1
  Cu  Cu82  1  0.68010181  0.89785482  0.16400166  1
  Cu  Cu83  1  0.75897224  0.01275345  0.92692114  1
  Cu  Cu84  1  0.79920563  0.00353515  0.75265151  1
  Cu  Cu85  1  0.65235435  0.73184117  0.67217236  1
  Cu  Cu86  1  0.76034280  0.78990603  0.40996793  1
  Cu  Cu87  1  0.80500823  0.81331965  0.25118596  1
