# generated using pymatgen
data_Cu15C23
_symmetry_space_group_name_H-M   'P 1'
_cell_length_a   6.82875200
_cell_length_b   8.27597696
_cell_length_c   17.91497764
_cell_angle_alpha   86.68925291
_cell_angle_beta   99.46337213
_cell_angle_gamma   113.89821716
_symmetry_Int_Tables_number   1
_chemical_formula_structural   Cu15C23
_chemical_formula_sum   'Cu15 C23'
_cell_volume   913.01484665
_cell_formula_units_Z   1
loop_
 _symmetry_equiv_pos_site_id
 _symmetry_equiv_pos_as_xyz
  1  'x, y, z'
loop_
 _atom_site_type_symbol
 _atom_site_label
 _atom_site_symmetry_multiplicity
 _atom_site_fract_x
 _atom_site_fract_y
 _atom_site_fract_z
 _atom_site_occupancy
  C  C0  1  0.77220600  0.73746700  0.53424200  1
  C  C1  1  0.22708100  0.26201200  0.46591900  1
  Cu  Cu2  1  0.73167835  0.23704274  0.03261108  1
  Cu  Cu3  1  0.27594322  0.80461517  0.92188976  1
  Cu  Cu4  1  0.71901402  0.79485873  0.36485811  1
  Cu  Cu5  1  0.20812130  0.16352779  0.63228181  1
  Cu  Cu6  1  0.69321933  0.62050988  0.82735394  1
  Cu  Cu7  1  0.32145443  0.36818765  0.17552623  1
  Cu  Cu8  1  0.81473494  0.66105822  0.70683216  1
  Cu  Cu9  1  0.17342356  0.31600394  0.29486604  1
  Cu  Cu10  1  0.89573293  0.82806245  0.24115596  1
  Cu  Cu11  1  0.16091032  0.22651915  0.75121285  1
  Cu  Cu12  1  0.95223381  0.77513508  0.38923287  1
  Cu  Cu13  1  0.06451681  0.23967024  0.61938699  1
  Cu  Cu14  1  0.62378912  0.70662172  0.67559077  1
  Cu  Cu15  1  0.38113389  0.29722232  0.31378417  1
  Cu  Cu16  1  0.46291151  0.94421646  0.95571124  1
  C  C17  1  0.89980900  0.82113600  0.13705300  1
  C  C18  1  0.10324600  0.17947900  0.86330900  1
  C  C19  1  0.67466800  0.61848300  0.93319700  1
  C  C20  1  0.32638800  0.39609200  0.06709400  1
  C  C21  1  0.66001200  0.83646900  0.26961600  1
  C  C22  1  0.34099200  0.16363900  0.73043000  1
  C  C23  1  0.05156400  0.77075200  0.30601400  1
  C  C24  1  0.94791800  0.22722600  0.69427700  1
  C  C25  1  0.51249600  0.69268300  0.76801500  1
  C  C26  1  0.48729200  0.30880500  0.23179300  1
  C  C27  1  0.59181200  0.79912600  0.43465300  1
  C  C28  1  0.40864600  0.20133000  0.56544900  1
  C  C29  1  0.54070700  0.74832400  0.59990900  1
  C  C30  1  0.45885200  0.25165200  0.40011100  1
  C  C31  1  0.01108600  0.72919300  0.47241700  1
  C  C32  1  0.98798800  0.27024900  0.52777400  1
  C  C33  1  0.90391700  0.62331200  0.79602100  1
  C  C34  1  0.09894000  0.38134200  0.20467900  1
  C  C35  1  0.95705800  0.67161700  0.63075700  1
  C  C36  1  0.04218800  0.32732000  0.36935100  1
  C  C37  1  0.60072200  0.09845300  0.99086800  1
