# generated using pymatgen
data_Cu6Ni3C26
_symmetry_space_group_name_H-M   'P 1'
_cell_length_a   5.97374389
_cell_length_b   5.97374389
_cell_length_c   24.69447778
_cell_angle_alpha   83.10688743
_cell_angle_beta   83.10688743
_cell_angle_gamma   60.01657020
_symmetry_Int_Tables_number   1
_chemical_formula_structural   Cu6Ni3C26
_chemical_formula_sum   'Cu12 Ni6 C52'
_cell_volume   755.93498636
_cell_formula_units_Z   2
loop_
 _symmetry_equiv_pos_site_id
 _symmetry_equiv_pos_as_xyz
  1  'x, y, z'
loop_
 _atom_site_type_symbol
 _atom_site_label
 _atom_site_symmetry_multiplicity
 _atom_site_fract_x
 _atom_site_fract_y
 _atom_site_fract_z
 _atom_site_occupancy
  C  C0  1  0.97135300  0.97135300  0.07406500  1
  C  C1  1  0.22441100  0.22441100  0.32602100  1
  C  C2  1  0.63067900  0.63067900  0.12233400  1
  C  C3  1  0.17568200  0.17568200  0.47334700  1
  C  C4  1  0.57297200  0.57297200  0.27472800  1
  C  C5  1  0.50000000  0.50000000  0.50000000  1
  C  C6  1  0.82431800  0.82431800  0.52665300  1
  C  C7  1  0.42702800  0.42702800  0.72527200  1
  C  C8  1  0.02864700  0.02864700  0.92593500  1
  C  C9  1  0.77558900  0.77558900  0.67397900  1
  C  C10  1  0.36932100  0.36932100  0.87766600  1
  C  C11  1  0.50000000  0.50000000  0.00000000  1
  Ni  Ni12  1  0.09563600  0.59829700  0.20066800  1
  Cu  Cu13  1  0.31260281  0.30106492  0.09339115  1
  Cu  Cu14  1  0.12461590  0.06722426  0.20453234  1
  Ni  Ni15  1  0.59829700  0.09563600  0.20066800  1
  Ni  Ni16  1  0.69577000  0.69577000  0.40217600  1
  Cu  Cu17  1  0.23375808  0.69567910  0.39637071  1
  Cu  Cu18  1  0.29134071  0.80058857  0.60445177  1
  Cu  Cu19  1  0.08966742  0.11228834  0.69745739  1
  Cu  Cu20  1  0.89521712  0.90842133  0.29806079  1
  Ni  Ni21  1  0.69255800  0.20639300  0.40217400  1
  Cu  Cu22  1  0.82489323  0.30802231  0.60083557  1
  Cu  Cu23  1  0.30111798  0.30781688  0.59614088  1
  Ni  Ni24  1  0.00000000  0.50000000  0.00000000  1
  Cu  Cu25  1  0.91831805  0.87969667  0.80675974  1
  Cu  Cu26  1  0.41595270  0.91028082  0.79798567  1
  Cu  Cu27  1  0.85723217  0.41314401  0.79974791  1
  Cu  Cu28  1  0.67036600  0.69022119  0.90510300  1
  Ni  Ni29  1  0.50000000  0.00000000  0.00000000  1
  C  C30  1  0.98402900  0.43000600  0.15398300  1
  C  C31  1  0.43279400  0.43279400  0.15285300  1
  C  C32  1  0.03301200  0.58680900  0.35162000  1
  C  C33  1  0.43000600  0.98402900  0.15398300  1
  C  C34  1  0.25237200  0.25237200  0.24306900  1
  C  C35  1  0.21597100  0.76829500  0.24766200  1
  C  C36  1  0.76726600  0.76726600  0.24790600  1
  C  C37  1  0.58680900  0.03301200  0.35162000  1
  C  C38  1  0.03109100  0.03109100  0.35213900  1
  C  C39  1  0.36550600  0.82793900  0.44264300  1
  C  C40  1  0.94671400  0.94671400  0.15810500  1
  C  C41  1  0.54781100  0.54781100  0.35699600  1
  C  C42  1  0.76829500  0.21597100  0.24766200  1
  C  C43  1  0.14775700  0.14775700  0.55669500  1
  C  C44  1  0.82793900  0.36550600  0.44264300  1
  C  C45  1  0.36447600  0.36447600  0.44227200  1
  C  C46  1  0.17206100  0.63449400  0.55735700  1
  C  C47  1  0.63552400  0.63552400  0.55772800  1
  C  C48  1  0.23170500  0.78402900  0.75233800  1
  C  C49  1  0.63449400  0.17206100  0.55735700  1
  C  C50  1  0.45218900  0.45218900  0.64300400  1
  C  C51  1  0.85224300  0.85224300  0.44330500  1
  C  C52  1  0.05328600  0.05328600  0.84189500  1
  C  C53  1  0.96890900  0.96890900  0.64786100  1
  C  C54  1  0.41319100  0.96698800  0.64838000  1
  C  C55  1  0.56720600  0.56720600  0.84714700  1
  C  C56  1  0.01597100  0.56999400  0.84601700  1
  C  C57  1  0.78402900  0.23170500  0.75233800  1
  C  C58  1  0.23273400  0.23273400  0.75209400  1
  C  C59  1  0.74762800  0.74762800  0.75693100  1
  C  C60  1  0.33616800  0.33616800  0.95932800  1
  C  C61  1  0.15287000  0.61249200  0.05104600  1
  C  C62  1  0.56999400  0.01597100  0.84601700  1
  C  C63  1  0.96698800  0.41319100  0.64838000  1
  C  C64  1  0.61249200  0.15287000  0.05104600  1
  C  C65  1  0.16547800  0.16547800  0.04851900  1
  C  C66  1  0.83452200  0.83452200  0.95148100  1
  C  C67  1  0.38750800  0.84713000  0.94895400  1
  C  C68  1  0.84713000  0.38750800  0.94895400  1
  C  C69  1  0.66383200  0.66383200  0.04067200  1
