# generated using pymatgen
data_Cu4NiC
_symmetry_space_group_name_H-M   'P 1'
_cell_length_a   7.04896300
_cell_length_b   8.61973492
_cell_length_c   9.87723836
_cell_angle_alpha   97.32880490
_cell_angle_beta   106.37528906
_cell_angle_gamma   101.57590944
_symmetry_Int_Tables_number   1
_chemical_formula_structural   Cu4NiC
_chemical_formula_sum   'Cu24 Ni6 C6'
_cell_volume   553.15604318
_cell_formula_units_Z   6
loop_
 _symmetry_equiv_pos_site_id
 _symmetry_equiv_pos_as_xyz
  1  'x, y, z'
loop_
 _atom_site_type_symbol
 _atom_site_label
 _atom_site_symmetry_multiplicity
 _atom_site_fract_x
 _atom_site_fract_y
 _atom_site_fract_z
 _atom_site_occupancy
  C  C0  1  0.53254900  0.61367500  0.78380100  1
  C  C1  1  0.46745100  0.38632500  0.21619900  1
  C  C2  1  0.03807500  0.19369500  0.98971300  1
  C  C3  1  0.96192500  0.80630500  0.01028700  1
  C  C4  1  0.24877500  0.80374400  0.58852700  1
  C  C5  1  0.75122500  0.19625600  0.41147300  1
  Ni  Ni6  1  0.79655600  0.90284100  0.65933300  1
  Ni  Ni7  1  0.20344400  0.09715900  0.34066700  1
  Ni  Ni8  1  0.99299700  0.50422600  0.74428200  1
  Ni  Ni9  1  0.00700300  0.49577400  0.25571800  1
  Ni  Ni10  1  0.47945800  0.20676000  0.87712900  1
  Ni  Ni11  1  0.52054200  0.79324000  0.12287100  1
  Cu  Cu12  1  0.93320900  0.79841600  0.57376800  1
  Cu  Cu13  1  0.06679100  0.20158400  0.42623200  1
  Cu  Cu14  1  0.14033700  0.37286100  0.18125500  1
  Cu  Cu15  1  0.85966300  0.62713900  0.81874500  1
  Cu  Cu16  1  0.73061600  0.19627700  0.95555500  1
  Cu  Cu17  1  0.26938400  0.80372300  0.04444500  1
  Cu  Cu18  1  0.95521800  0.63908600  0.15032300  1
  Cu  Cu19  1  0.04478200  0.36091400  0.84967700  1
  Cu  Cu20  1  0.25158500  0.93738100  0.42513300  1
  Cu  Cu21  1  0.74841500  0.06261900  0.57486700  1
  Cu  Cu22  1  0.77436300  0.37888600  0.26115100  1
  Cu  Cu23  1  0.22563700  0.62111400  0.73884900  1
  Cu  Cu24  1  0.94150100  0.97855100  0.84147200  1
  Cu  Cu25  1  0.05849900  0.02144900  0.15852800  1
  Cu  Cu26  1  0.51678000  0.62640900  0.20789900  1
  Cu  Cu27  1  0.48322000  0.37359100  0.79210100  1
  Cu  Cu28  1  0.65337400  0.97081300  0.24916400  1
  Cu  Cu29  1  0.34662600  0.02918700  0.75083600  1
  Cu  Cu30  1  0.15929300  0.59535300  0.42826900  1
  Cu  Cu31  1  0.84070700  0.40464700  0.57173100  1
  Cu  Cu32  1  0.36615200  0.23100500  0.01425800  1
  Cu  Cu33  1  0.63384800  0.76899500  0.98574200  1
  Cu  Cu34  1  0.56032700  0.77474000  0.64704100  1
  Cu  Cu35  1  0.43967300  0.22526000  0.35295900  1
