# generated using pymatgen
data_Cu5Ni3
_symmetry_space_group_name_H-M   'P 1'
_cell_length_a   10.13229257
_cell_length_b   10.13229257
_cell_length_c   10.44175000
_cell_angle_alpha   90.00000000
_cell_angle_beta   90.00000000
_cell_angle_gamma   118.00077133
_symmetry_Int_Tables_number   1
_chemical_formula_structural   Cu5Ni3
_chemical_formula_sum   'Cu5 Ni3'
_cell_volume   946.49985634
_cell_formula_units_Z   1
loop_
 _symmetry_equiv_pos_site_id
 _symmetry_equiv_pos_as_xyz
  1  'x, y, z'
loop_
 _atom_site_type_symbol
 _atom_site_label
 _atom_site_symmetry_multiplicity
 _atom_site_fract_x
 _atom_site_fract_y
 _atom_site_fract_z
 _atom_site_occupancy
  Cu  Cu0  1  0.66475800  0.67284308  0.17580407  1
  Ni  Ni1  1  0.78338500  0.21661500  0.00000000  1
  Cu  Cu2  1  0.28228837  0.73549438  0.50681231  1
  Cu  Cu3  1  0.33474023  0.33165952  0.81751026  1
  Cu  Cu4  1  0.81932162  0.82953731  0.68728615  1
  Ni  Ni5  1  0.21661500  0.78338500  0.00000000  1
  Cu  Cu6  1  0.17996938  0.18202425  0.30806245  1
  Ni  Ni7  1  0.71661500  0.28338500  0.50000000  1
