# generated using pymatgen
data_Cu15NiC10
_symmetry_space_group_name_H-M   'P 1'
_cell_length_a   8.64252444
_cell_length_b   8.64252483
_cell_length_c   8.64252432
_cell_angle_alpha   80.65567228
_cell_angle_beta   80.65567549
_cell_angle_gamma   80.65567069
_symmetry_Int_Tables_number   1
_chemical_formula_structural   Cu15NiC10
_chemical_formula_sum   'Cu30 Ni2 C20'
_cell_volume   622.35750795
_cell_formula_units_Z   2
loop_
 _symmetry_equiv_pos_site_id
 _symmetry_equiv_pos_as_xyz
  1  'x, y, z'
loop_
 _atom_site_type_symbol
 _atom_site_label
 _atom_site_symmetry_multiplicity
 _atom_site_fract_x
 _atom_site_fract_y
 _atom_site_fract_z
 _atom_site_occupancy
  Ni  Ni0  1  0.49796200  0.49796200  0.49796200  1
  Ni  Ni1  1  0.99796200  0.99796200  0.99796200  1
  C  C2  1  0.24639400  0.24639400  0.24639400  1
  C  C3  1  0.74639400  0.74639400  0.74639400  1
  C  C4  1  0.74318200  0.60622700  0.08082900  1
  C  C5  1  0.25012400  0.68028600  0.81921600  1
  C  C6  1  0.75012400  0.31921600  0.18028600  1
  C  C7  1  0.31921600  0.18028600  0.75012400  1
  C  C8  1  0.10622700  0.24318200  0.58082900  1
  C  C9  1  0.24318200  0.58082900  0.10622700  1
  C  C10  1  0.58082900  0.10622700  0.24318200  1
  C  C11  1  0.81921600  0.25012400  0.68028600  1
  C  C12  1  0.08082900  0.74318200  0.60622700  1
  C  C13  1  0.60622700  0.08082900  0.74318200  1
  C  C14  1  0.91873400  0.25651900  0.39359800  1
  C  C15  1  0.25651900  0.39359800  0.91873400  1
  C  C16  1  0.39359800  0.91873400  0.25651900  1
  C  C17  1  0.89359800  0.75651900  0.41873400  1
  C  C18  1  0.75651900  0.41873400  0.89359800  1
  C  C19  1  0.41873400  0.89359800  0.75651900  1
  C  C20  1  0.68028600  0.81921600  0.25012400  1
  C  C21  1  0.18028600  0.75012400  0.31921600  1
  Cu  Cu22  1  0.75676500  0.75563200  0.10220100  1
  Cu  Cu23  1  0.75563200  0.10220100  0.75676500  1
  Cu  Cu24  1  0.48737600  0.20330400  0.72160800  1
  Cu  Cu25  1  0.72160800  0.48737600  0.20330400  1
  Cu  Cu26  1  0.10220100  0.75676500  0.75563200  1
  Cu  Cu27  1  0.70330400  0.98737600  0.22160800  1
  Cu  Cu28  1  0.22160800  0.70330400  0.98737600  1
  Cu  Cu29  1  0.98737600  0.22160800  0.70330400  1
  Cu  Cu30  1  0.24296000  0.24401800  0.89791900  1
  Cu  Cu31  1  0.89791900  0.24296000  0.24401800  1
  Cu  Cu32  1  0.24401800  0.89791900  0.24296000  1
  Cu  Cu33  1  0.74401800  0.74296000  0.39791900  1
  Cu  Cu34  1  0.39791900  0.74401800  0.74296000  1
  Cu  Cu35  1  0.74296000  0.39791900  0.74401800  1
  Cu  Cu36  1  0.60220100  0.25563200  0.25676500  1
  Cu  Cu37  1  0.25563200  0.25676500  0.60220100  1
  Cu  Cu38  1  0.79613000  0.27845800  0.51221300  1
  Cu  Cu39  1  0.27845800  0.51221300  0.79613000  1
  Cu  Cu40  1  0.51221300  0.79613000  0.27845800  1
  Cu  Cu41  1  0.01221300  0.77845800  0.29613000  1
  Cu  Cu42  1  0.77845800  0.29613000  0.01221300  1
  Cu  Cu43  1  0.29613000  0.01221300  0.77845800  1
  Cu  Cu44  1  0.07596000  0.24961700  0.42376700  1
  Cu  Cu45  1  0.24961700  0.42376700  0.07596000  1
  Cu  Cu46  1  0.42376700  0.07596000  0.24961700  1
  Cu  Cu47  1  0.92376700  0.74961700  0.57596000  1
  Cu  Cu48  1  0.74961700  0.57596000  0.92376700  1
  Cu  Cu49  1  0.57596000  0.92376700  0.74961700  1
  Cu  Cu50  1  0.20330400  0.72160800  0.48737600  1
  Cu  Cu51  1  0.25676500  0.60220100  0.25563200  1
