# generated using pymatgen
data_Cu3NiC24
_symmetry_space_group_name_H-M   'P 1'
_cell_length_a   5.21243000
_cell_length_b   8.43028700
_cell_length_c   8.55500264
_cell_angle_alpha   72.25926021
_cell_angle_beta   90.00000000
_cell_angle_gamma   90.00000000
_symmetry_Int_Tables_number   1
_chemical_formula_structural   Cu3NiC24
_chemical_formula_sum   'Cu3 Ni1 C24'
_cell_volume   358.04917470
_cell_formula_units_Z   1
loop_
 _symmetry_equiv_pos_site_id
 _symmetry_equiv_pos_as_xyz
  1  'x, y, z'
loop_
 _atom_site_type_symbol
 _atom_site_label
 _atom_site_symmetry_multiplicity
 _atom_site_fract_x
 _atom_site_fract_y
 _atom_site_fract_z
 _atom_site_occupancy
  C  C0  1  0.33547900  0.09445400  0.01977600  1
  C  C1  1  0.82323700  0.26673900  0.49927700  1
  C  C2  1  0.66452100  0.59445400  0.01977600  1
  C  C3  1  0.17676300  0.76673900  0.49927700  1
  Ni  Ni4  1  0.17181000  0.00007500  0.74968900  1
  Cu  Cu5  1  0.34320795  0.32430111  0.28374449  1
  Cu  Cu6  1  0.78991897  0.50853959  0.74221312  1
  Cu  Cu7  1  0.68703059  0.81597170  0.28509828  1
  C  C8  1  0.82301200  0.22011300  0.13497700  1
  C  C9  1  0.31989700  0.37229200  0.63032200  1
  C  C10  1  0.17698800  0.72011300  0.13497700  1
  C  C11  1  0.68010300  0.87229200  0.63032200  1
  C  C12  1  0.68470600  0.05225800  0.11534800  1
  C  C13  1  0.83762700  0.03072600  0.65732400  1
  C  C14  1  0.13206100  0.19136400  0.17097900  1
  C  C15  1  0.68036400  0.26976300  0.28704400  1
  C  C16  1  0.26950200  0.20421300  0.78627900  1
  C  C17  1  0.19868300  0.32772500  0.47015000  1
  C  C18  1  0.31529400  0.55225800  0.11534800  1
  C  C19  1  0.62743500  0.41448400  0.60608700  1
  C  C20  1  0.77091400  0.37772100  0.97062000  1
  C  C21  1  0.16237300  0.53072600  0.65732400  1
  C  C22  1  0.86793900  0.69136400  0.17097900  1
  C  C23  1  0.31963600  0.76976300  0.28704400  1
  C  C24  1  0.73049800  0.70421300  0.78627900  1
  C  C25  1  0.80131700  0.82772500  0.47015000  1
  C  C26  1  0.37256500  0.91448400  0.60608700  1
  C  C27  1  0.22908600  0.87772100  0.97062000  1
