# generated using pymatgen
data_Cu7NiC5
_symmetry_space_group_name_H-M   'P 1'
_cell_length_a   5.72465064
_cell_length_b   5.72455476
_cell_length_c   5.95849544
_cell_angle_alpha   61.30531567
_cell_angle_beta   61.30784399
_cell_angle_gamma   60.00245352
_symmetry_Int_Tables_number   1
_chemical_formula_structural   Cu7NiC5
_chemical_formula_sum   'Cu7 Ni1 C5'
_cell_volume   140.74111107
_cell_formula_units_Z   1
loop_
 _symmetry_equiv_pos_site_id
 _symmetry_equiv_pos_as_xyz
  1  'x, y, z'
loop_
 _atom_site_type_symbol
 _atom_site_label
 _atom_site_symmetry_multiplicity
 _atom_site_fract_x
 _atom_site_fract_y
 _atom_site_fract_z
 _atom_site_occupancy
  C  C0  1  0.50000000  0.50000000  0.50000000  1
  C  C1  1  0.50000000  0.00000000  0.00000000  1
  C  C2  1  0.00000000  0.50000000  0.00000000  1
  C  C3  1  0.50000000  0.50000000  0.00000000  1
  C  C4  1  0.00000000  0.00000000  0.00000000  1
  Ni  Ni5  1  0.24850700  0.24842400  0.79261200  1
  Cu  Cu6  1  0.73353514  0.27803959  0.73702656  1
  Cu  Cu7  1  0.27287906  0.70802902  0.78116695  1
  Cu  Cu8  1  0.71091229  0.74167826  0.79030284  1
  Cu  Cu9  1  0.31563865  0.20718093  0.20171304  1
  Cu  Cu10  1  0.77664378  0.26171836  0.20960418  1
  Cu  Cu11  1  0.29051479  0.73957997  0.20032540  1
  Cu  Cu12  1  0.74874157  0.75873228  0.23260075  1
