# generated using pymatgen
data_Cu5NiC14
_symmetry_space_group_name_H-M   'P 1'
_cell_length_a   8.23332430
_cell_length_b   8.23332430
_cell_length_c   8.23332430
_cell_angle_alpha   109.47122063
_cell_angle_beta   109.47122063
_cell_angle_gamma   109.47122063
_symmetry_Int_Tables_number   1
_chemical_formula_structural   Cu5NiC14
_chemical_formula_sum   'Cu5 Ni1 C14'
_cell_volume   429.63907722
_cell_formula_units_Z   1
loop_
 _symmetry_equiv_pos_site_id
 _symmetry_equiv_pos_as_xyz
  1  'x, y, z'
loop_
 _atom_site_type_symbol
 _atom_site_label
 _atom_site_symmetry_multiplicity
 _atom_site_fract_x
 _atom_site_fract_y
 _atom_site_fract_z
 _atom_site_occupancy
  C  C0  1  0.25000000  0.75000000  0.50000000  1
  C  C1  1  0.75000000  0.50000000  0.25000000  1
  C  C2  1  0.25000000  0.50000000  0.75000000  1
  C  C3  1  0.50000000  0.75000000  0.25000000  1
  C  C4  1  0.50000000  0.25000000  0.75000000  1
  C  C5  1  0.75000000  0.25000000  0.50000000  1
  C  C6  1  0.32196000  0.32196000  0.32196000  1
  C  C7  1  0.00000000  0.00000000  0.32196000  1
  C  C8  1  0.32196000  0.00000000  0.00000000  1
  C  C9  1  0.00000000  0.32196000  0.00000000  1
  C  C10  1  0.67804000  0.00000000  0.00000000  1
  C  C11  1  0.00000000  0.67804000  0.00000000  1
  C  C12  1  0.00000000  0.00000000  0.67804000  1
  C  C13  1  0.67804000  0.67804000  0.67804000  1
  Ni  Ni14  1  0.65590100  0.65590100  0.00000000  1
  Cu  Cu15  1  0.30694796  0.96569583  0.31394130  1
  Cu  Cu16  1  0.65955450  0.97679089  0.64006673  1
  Cu  Cu17  1  0.03321889  0.65264026  0.66487893  1
  Cu  Cu18  1  0.00198786  0.34989640  0.34713639  1
  Cu  Cu19  1  0.32921389  0.35115353  0.96987877  1
