# generated using pymatgen
data_Cu2C9
_symmetry_space_group_name_H-M   'P 1'
_cell_length_a   10.84177300
_cell_length_b   8.61016500
_cell_length_c   11.76450132
_cell_angle_alpha   66.74881062
_cell_angle_beta   90.00000000
_cell_angle_gamma   90.00000000
_symmetry_Int_Tables_number   1
_chemical_formula_structural   Cu2C9
_chemical_formula_sum   'Cu8 C36'
_cell_volume   1009.01649324
_cell_formula_units_Z   4
loop_
 _symmetry_equiv_pos_site_id
 _symmetry_equiv_pos_as_xyz
  1  'x, y, z'
loop_
 _atom_site_type_symbol
 _atom_site_label
 _atom_site_symmetry_multiplicity
 _atom_site_fract_x
 _atom_site_fract_y
 _atom_site_fract_z
 _atom_site_occupancy
  C  C0  1  0.89981600  0.59362500  0.21621600  1
  C  C1  1  0.60018400  0.59362500  0.71621600  1
  C  C2  1  0.10018400  0.40637500  0.78378400  1
  C  C3  1  0.39981600  0.40637500  0.28378400  1
  C  C4  1  0.98602000  0.11124500  0.35866500  1
  C  C5  1  0.51398000  0.11124500  0.85866500  1
  C  C6  1  0.01398000  0.88875500  0.64133500  1
  C  C7  1  0.48602000  0.88875500  0.14133500  1
  C  C8  1  0.02114500  0.10687900  0.25844100  1
  C  C9  1  0.47885500  0.10687900  0.75844100  1
  C  C10  1  0.97885500  0.89312100  0.74155900  1
  C  C11  1  0.52114500  0.89312100  0.24155900  1
  C  C12  1  0.07146600  0.09849500  0.17579100  1
  C  C13  1  0.42853400  0.09849500  0.67579100  1
  C  C14  1  0.92853400  0.90150500  0.82420900  1
  C  C15  1  0.57146600  0.90150500  0.32420900  1
  C  C16  1  0.75379400  0.62580800  0.22392100  1
  C  C17  1  0.74620600  0.62580800  0.72392100  1
  C  C18  1  0.24620600  0.37419200  0.77607900  1
  C  C19  1  0.25379400  0.37419200  0.27607900  1
  C  C20  1  0.85991000  0.14449300  0.35632400  1
  C  C21  1  0.64009000  0.14449300  0.85632400  1
  C  C22  1  0.14009000  0.85550700  0.64367600  1
  C  C23  1  0.35991000  0.85550700  0.14367600  1
  C  C24  1  0.98889700  0.55745500  0.34428800  1
  C  C25  1  0.51110300  0.55745500  0.84428800  1
  C  C26  1  0.01110300  0.44254500  0.65571200  1
  C  C27  1  0.48889700  0.44254500  0.15571200  1
  C  C28  1  0.95156700  0.55972400  0.10286600  1
  C  C29  1  0.54843300  0.55972400  0.60286600  1
  C  C30  1  0.04843300  0.44027600  0.89713400  1
  C  C31  1  0.45156700  0.44027600  0.39713400  1
  C  C32  1  0.83212700  0.15784200  0.45522700  1
  C  C33  1  0.66787300  0.15784200  0.95522700  1
  C  C34  1  0.16787300  0.84215800  0.54477300  1
  C  C35  1  0.33212700  0.84215800  0.04477300  1
  Cu  Cu36  1  0.66450470  0.21053872  0.43681786  1
  Cu  Cu37  1  0.82302419  0.20839448  0.94945187  1
  Cu  Cu38  1  0.33887104  0.78118793  0.54381704  1
  Cu  Cu39  1  0.18044450  0.78975006  0.03134474  1
  Cu  Cu40  1  0.59634947  0.52988824  0.09141360  1
  Cu  Cu41  1  0.89303513  0.52272236  0.58903286  1
  Cu  Cu42  1  0.38907104  0.46923245  0.90192794  1
  Cu  Cu43  1  0.11345652  0.47056933  0.39074866  1
