# generated using pymatgen
data_Cu2C
_symmetry_space_group_name_H-M   'P 1'
_cell_length_a   8.90865100
_cell_length_b   8.90865100
_cell_length_c   6.40628400
_cell_angle_alpha   90.00000000
_cell_angle_beta   90.00000000
_cell_angle_gamma   90.00000000
_symmetry_Int_Tables_number   1
_chemical_formula_structural   Cu2C
_chemical_formula_sum   'Cu20 C10'
_cell_volume   508.42872466
_cell_formula_units_Z   10
loop_
 _symmetry_equiv_pos_site_id
 _symmetry_equiv_pos_as_xyz
  1  'x, y, z'
loop_
 _atom_site_type_symbol
 _atom_site_label
 _atom_site_symmetry_multiplicity
 _atom_site_fract_x
 _atom_site_fract_y
 _atom_site_fract_z
 _atom_site_occupancy
  C  C0  1  0.68263200  0.18263200  0.00000000  1
  C  C1  1  0.31736800  0.81736800  0.00000000  1
  C  C2  1  0.81736800  0.68263200  0.00000000  1
  C  C3  1  0.18263200  0.31736800  0.00000000  1
  Cu  Cu4  1  0.93802524  0.21007637  0.27541250  1
  Cu  Cu5  1  0.71063404  0.42882496  0.27428196  1
  Cu  Cu6  1  0.50419480  0.02768345  0.24955442  1
  Cu  Cu7  1  0.55644653  0.70710995  0.71324631  1
  Cu  Cu8  1  0.31060255  0.58474711  0.73653590  1
  Cu  Cu9  1  0.81792145  0.91074267  0.28814706  1
  Cu  Cu10  1  0.92075253  0.18489516  0.69733758  1
  Cu  Cu11  1  0.32877233  0.58058498  0.28449131  1
  Cu  Cu12  1  0.07304978  0.76845267  0.27641424  1
  Cu  Cu13  1  0.69550026  0.47329610  0.67841003  1
  Cu  Cu14  1  0.42637002  0.28872703  0.69248728  1
  Cu  Cu15  1  0.05662150  0.78935159  0.73501005  1
  Cu  Cu16  1  0.21074523  0.06613530  0.69853186  1
  Cu  Cu17  1  0.78837880  0.95954829  0.69613413  1
  Cu  Cu18  1  0.19723776  0.05161749  0.30071611  1
  Cu  Cu19  1  0.99794530  0.51302938  0.69935378  1
  Cu  Cu20  1  0.99646508  0.48181414  0.28267016  1
  Cu  Cu21  1  0.55949619  0.72662876  0.28923573  1
  Cu  Cu22  1  0.45025397  0.31173050  0.30700166  1
  Cu  Cu23  1  0.51311028  0.99266975  0.71626004  1
  C  C24  1  0.67869800  0.17869800  0.50000000  1
  C  C25  1  0.82130200  0.67869800  0.50000000  1
  C  C26  1  0.17869800  0.32130200  0.50000000  1
  C  C27  1  0.00000000  0.00000000  0.00000000  1
  C  C28  1  0.32130200  0.82130200  0.50000000  1
  C  C29  1  0.50000000  0.50000000  0.00000000  1
