# generated using pymatgen
data_Cu27Ni
_symmetry_space_group_name_H-M   'P 1'
_cell_length_a   8.36703500
_cell_length_b   8.36703500
_cell_length_c   4.55547600
_cell_angle_alpha   90.00000000
_cell_angle_beta   90.00000000
_cell_angle_gamma   90.00000000
_symmetry_Int_Tables_number   1
_chemical_formula_structural   Cu27Ni
_chemical_formula_sum   'Cu27 Ni1'
_cell_volume   318.91645968
_cell_formula_units_Z   1
loop_
 _symmetry_equiv_pos_site_id
 _symmetry_equiv_pos_as_xyz
  1  'x, y, z'
loop_
 _atom_site_type_symbol
 _atom_site_label
 _atom_site_symmetry_multiplicity
 _atom_site_fract_x
 _atom_site_fract_y
 _atom_site_fract_z
 _atom_site_occupancy
  Cu  Cu0  1  0.88784472  0.09390183  0.52293446  1
  Cu  Cu1  1  0.10030508  0.89405071  0.45123411  1
  Cu  Cu2  1  0.42005999  0.41463173  0.00600197  1
  Cu  Cu3  1  0.58416080  0.61374730  0.99730149  1
  Ni  Ni4  1  0.97327000  0.36196600  0.50000000  1
  Cu  Cu5  1  0.03150730  0.63971445  0.48911457  1
  Cu  Cu6  1  0.46155777  0.14154228  0.95771175  1
  Cu  Cu7  1  0.51702785  0.85477642  0.01455042  1
  Cu  Cu8  1  0.37001799  0.98916502  0.50646359  1
  Cu  Cu9  1  0.60442699  0.02160662  0.42602459  1
  Cu  Cu10  1  0.14376029  0.48152322  0.02374593  1
  Cu  Cu11  1  0.84289860  0.52501335  0.04620192  1
  Cu  Cu12  1  0.24831545  0.44825815  0.51190958  1
  Cu  Cu13  1  0.72313823  0.54605995  0.46763617  1
  Cu  Cu14  1  0.73563286  0.05812704  0.00150059  1
  Cu  Cu15  1  0.25787900  0.95767744  0.00780333  1
  Cu  Cu16  1  0.43308106  0.27547057  0.46697367  1
  Cu  Cu17  1  0.54742559  0.71516713  0.51578297  1
  Cu  Cu18  1  0.06805118  0.74804265  0.01497886  1
  Cu  Cu19  1  0.95018181  0.25535505  0.98882993  1
  Cu  Cu20  1  0.65711546  0.32732175  0.24245208  1
  Cu  Cu21  1  0.31038164  0.69007268  0.23010171  1
  Cu  Cu22  1  0.19315661  0.19001667  0.78915074  1
  Cu  Cu23  1  0.80189278  0.81972181  0.74523232  1
  Cu  Cu24  1  0.27772939  0.69832212  0.75480327  1
  Cu  Cu25  1  0.66333624  0.31904230  0.76205335  1
  Cu  Cu26  1  0.82186127  0.84061588  0.28250623  1
  Cu  Cu27  1  0.20219950  0.17581593  0.22810768  1
