# generated using pymatgen
data_Cu7C4
_symmetry_space_group_name_H-M   'P 1'
_cell_length_a   8.26300700
_cell_length_b   6.95884800
_cell_length_c   8.78623573
_cell_angle_alpha   68.47919067
_cell_angle_beta   90.00000000
_cell_angle_gamma   90.00000000
_symmetry_Int_Tables_number   1
_chemical_formula_structural   Cu7C4
_chemical_formula_sum   'Cu28 C16'
_cell_volume   469.99588828
_cell_formula_units_Z   4
loop_
 _symmetry_equiv_pos_site_id
 _symmetry_equiv_pos_as_xyz
  1  'x, y, z'
loop_
 _atom_site_type_symbol
 _atom_site_label
 _atom_site_symmetry_multiplicity
 _atom_site_fract_x
 _atom_site_fract_y
 _atom_site_fract_z
 _atom_site_occupancy
  C  C0  1  0.95161200  0.86963600  0.84326400  1
  C  C1  1  0.04838800  0.13036400  0.15673600  1
  C  C2  1  0.54838800  0.36963600  0.34326400  1
  C  C3  1  0.45161200  0.63036400  0.65673600  1
  C  C4  1  0.41998500  0.12070800  0.11369700  1
  C  C5  1  0.91998500  0.37929200  0.38630300  1
  C  C6  1  0.08001500  0.62070800  0.61369700  1
  C  C7  1  0.58001500  0.87929200  0.88630300  1
  C  C8  1  0.22987300  0.68523300  0.25678400  1
  C  C9  1  0.77012700  0.31476700  0.74321600  1
  C  C10  1  0.27012700  0.18523300  0.75678400  1
  C  C11  1  0.76422200  0.43114800  0.03562500  1
  C  C12  1  0.73577800  0.93114800  0.53562500  1
  C  C13  1  0.23577800  0.56885200  0.96437500  1
  C  C14  1  0.26422200  0.06885200  0.46437500  1
  C  C15  1  0.72987300  0.81476700  0.24321600  1
  Cu  Cu16  1  0.75046670  0.55990946  0.30894643  1
  Cu  Cu17  1  0.11638361  0.16243826  0.41508877  1
  Cu  Cu18  1  0.23232078  0.33192576  0.04390074  1
  Cu  Cu19  1  0.38025288  0.14594559  0.33924977  1
  Cu  Cu20  1  0.58704767  0.89642508  0.66809799  1
  Cu  Cu21  1  0.75304126  0.67104582  0.97470428  1
  Cu  Cu22  1  0.91142604  0.82284529  0.58529033  1
  Cu  Cu23  1  0.35835521  0.69376000  0.90775831  1
  Cu  Cu24  1  0.23506891  0.84859547  0.55759476  1
  Cu  Cu25  1  0.64212216  0.88285699  0.38045387  1
  Cu  Cu26  1  0.11343964  0.65007324  0.79661656  1
  Cu  Cu27  1  0.92030697  0.90721032  0.21166916  1
  Cu  Cu28  1  0.21800254  0.91889226  0.18319442  1
  Cu  Cu29  1  0.59898743  0.84875281  0.11704500  1
  Cu  Cu30  1  0.09512306  0.61045659  0.36244859  1
  Cu  Cu31  1  0.75005267  0.17909417  0.44841567  1
  Cu  Cu32  1  0.62653470  0.39456376  0.69469156  1
  Cu  Cu33  1  0.25430425  0.39093287  0.68696407  1
  Cu  Cu34  1  0.85081631  0.36383401  0.88518157  1
  Cu  Cu35  1  0.39330715  0.54344219  0.33307398  1
  Cu  Cu36  1  0.14785273  0.63318251  0.09959202  1
  Cu  Cu37  1  0.93184172  0.37939904  0.61470806  1
  Cu  Cu38  1  0.42456299  0.12193780  0.90616545  1
  Cu  Cu39  1  0.75223701  0.04998592  0.80131591  1
  Cu  Cu40  1  0.10658593  0.06949596  0.80817549  1
  Cu  Cu41  1  0.90720795  0.37098075  0.15855698  1
  Cu  Cu42  1  0.32884907  0.15508260  0.59317605  1
  Cu  Cu43  1  0.62670884  0.36075897  0.07161682  1
