# generated using pymatgen
data_Cu7C20
_symmetry_space_group_name_H-M   'P 1'
_cell_length_a   7.91418394
_cell_length_b   7.91418394
_cell_length_c   7.91418376
_cell_angle_alpha   98.97805357
_cell_angle_beta   98.97805357
_cell_angle_gamma   98.97804931
_symmetry_Int_Tables_number   1
_chemical_formula_structural   Cu7C20
_chemical_formula_sum   'Cu7 C20'
_cell_volume   475.28720235
_cell_formula_units_Z   1
loop_
 _symmetry_equiv_pos_site_id
 _symmetry_equiv_pos_as_xyz
  1  'x, y, z'
loop_
 _atom_site_type_symbol
 _atom_site_label
 _atom_site_symmetry_multiplicity
 _atom_site_fract_x
 _atom_site_fract_y
 _atom_site_fract_z
 _atom_site_occupancy
  Cu  Cu0  1  0.98910189  0.00636585  0.00934873  1
  Cu  Cu1  1  0.47292435  0.86381207  0.76586311  1
  Cu  Cu2  1  0.88188359  0.68467133  0.46145712  1
  Cu  Cu3  1  0.73812167  0.44790936  0.85630641  1
  Cu  Cu4  1  0.49846706  0.12082954  0.25327592  1
  Cu  Cu5  1  0.09686454  0.25885324  0.52591201  1
  Cu  Cu6  1  0.29084538  0.52707739  0.11161019  1
  C  C7  1  0.37982400  0.37982400  0.37982400  1
  C  C8  1  0.62017600  0.62017600  0.62017600  1
  C  C9  1  0.00866500  0.33420100  0.22298000  1
  C  C10  1  0.33420100  0.22298000  0.00866500  1
  C  C11  1  0.22298000  0.00866500  0.33420100  1
  C  C12  1  0.99133500  0.66579900  0.77702000  1
  C  C13  1  0.66579900  0.77702000  0.99133500  1
  C  C14  1  0.77702000  0.99133500  0.66579900  1
  C  C15  1  0.68672200  0.14469300  0.98775300  1
  C  C16  1  0.14469300  0.98775300  0.68672200  1
  C  C17  1  0.98775300  0.68672200  0.14469300  1
  C  C18  1  0.31327800  0.85530700  0.01224700  1
  C  C19  1  0.85530700  0.01224700  0.31327800  1
  C  C20  1  0.01224700  0.31327800  0.85530700  1
  C  C21  1  0.21777000  0.67768100  0.46369100  1
  C  C22  1  0.67768100  0.46369100  0.21777000  1
  C  C23  1  0.46369100  0.21777000  0.67768100  1
  C  C24  1  0.78223000  0.32231900  0.53630900  1
  C  C25  1  0.32231900  0.53630900  0.78223000  1
  C  C26  1  0.53630900  0.78223000  0.32231900  1
