# generated using pymatgen
data_CuNi2C33
_symmetry_space_group_name_H-M   'P 1'
_cell_length_a   14.24087058
_cell_length_b   14.24087058
_cell_length_c   15.89528118
_cell_angle_alpha   56.20730552
_cell_angle_beta   56.20730552
_cell_angle_gamma   37.19468317
_symmetry_Int_Tables_number   1
_chemical_formula_structural   CuNi2C33
_chemical_formula_sum   'Cu2 Ni4 C66'
_cell_volume   1577.91809861
_cell_formula_units_Z   2
loop_
 _symmetry_equiv_pos_site_id
 _symmetry_equiv_pos_as_xyz
  1  'x, y, z'
loop_
 _atom_site_type_symbol
 _atom_site_label
 _atom_site_symmetry_multiplicity
 _atom_site_fract_x
 _atom_site_fract_y
 _atom_site_fract_z
 _atom_site_occupancy
  Ni  Ni0  1  0.17617800  0.65162600  0.66241700  1
  Ni  Ni1  1  0.34837400  0.82382200  0.83758300  1
  Ni  Ni2  1  0.82382200  0.34837400  0.33758300  1
  Cu  Cu3  1  0.64073841  0.17580756  0.18243173  1
  Cu  Cu4  1  0.51775459  0.98535452  0.99879327  1
  Ni  Ni5  1  0.00000000  0.50000000  0.50000000  1
  C  C6  1  0.85160200  0.26025100  0.80315400  1
  C  C7  1  0.27138500  0.50607500  0.95140900  1
  C  C8  1  0.49392500  0.72861500  0.54859100  1
  C  C9  1  0.72861500  0.49392500  0.04859100  1
  C  C10  1  0.26877500  0.17106300  0.32837800  1
  C  C11  1  0.73122500  0.82893700  0.67162200  1
  C  C12  1  0.82893700  0.73122500  0.17162200  1
  C  C13  1  0.17106300  0.26877500  0.82837800  1
  C  C14  1  0.14839800  0.73974900  0.19684600  1
  C  C15  1  0.50607500  0.27138500  0.45140900  1
  C  C16  1  0.73974900  0.14839800  0.69684600  1
  C  C17  1  0.26025100  0.85160200  0.30315400  1
  C  C18  1  0.37357400  0.67443900  0.95085300  1
  C  C19  1  0.23944500  0.83273900  0.80583700  1
  C  C20  1  0.54222700  0.18487900  0.13152900  1
  C  C21  1  0.63321600  0.79169600  0.05510400  1
  C  C22  1  0.81512100  0.45777300  0.36847100  1
  C  C23  1  0.47189500  0.32538500  0.23486000  1
  C  C24  1  0.01134400  0.34619200  0.54531900  1
  C  C25  1  0.83273900  0.23944500  0.30583700  1
  C  C26  1  0.34619200  0.01134400  0.04531900  1
  C  C27  1  0.32177900  0.97446700  0.72428700  1
  C  C28  1  0.36678400  0.20830400  0.94489600  1
  C  C29  1  0.67461500  0.52810500  0.26514000  1
  C  C30  1  0.64144900  0.14234900  0.64860000  1
  C  C31  1  0.97381500  0.16814800  0.40959800  1
  C  C32  1  0.19191700  0.35134800  0.20334500  1
  C  C33  1  0.02618500  0.83185200  0.59040200  1
  C  C34  1  0.50039100  0.62528700  0.12701100  1
  C  C35  1  0.97446700  0.32177900  0.22428700  1
  C  C36  1  0.79169600  0.63321600  0.55510400  1
  C  C37  1  0.66158200  0.01360500  0.52484800  1
  C  C38  1  0.80808300  0.64865200  0.79665500  1
  C  C39  1  0.03555900  0.44264800  0.61855100  1
  C  C40  1  0.45777300  0.81512100  0.86847100  1
  C  C41  1  0.76055500  0.16726100  0.19416300  1
  C  C42  1  0.35855100  0.85765100  0.35140000  1
  C  C43  1  0.01360500  0.66158200  0.02484800  1
  C  C44  1  0.98639500  0.33841800  0.97515200  1
  C  C45  1  0.18487900  0.54222700  0.63152900  1
  C  C46  1  0.64865200  0.80808300  0.29665500  1
  C  C47  1  0.37471300  0.49960900  0.37298900  1
  C  C48  1  0.16726100  0.76055500  0.69416300  1
  C  C49  1  0.98865600  0.65380800  0.45468100  1
  C  C50  1  0.67822100  0.02553300  0.27571300  1
  C  C51  1  0.83185200  0.02618500  0.09040200  1
  C  C52  1  0.13243200  0.86756800  0.25000000  1
  C  C53  1  0.52810500  0.67461500  0.76514000  1
  C  C54  1  0.96444100  0.55735200  0.38144900  1
  C  C55  1  0.49960900  0.37471300  0.87298900  1
  C  C56  1  0.35134800  0.19191700  0.70334500  1
  C  C57  1  0.16814800  0.97381500  0.90959800  1
  C  C58  1  0.55735200  0.96444100  0.88144900  1
  C  C59  1  0.62642600  0.32556100  0.04914700  1
  C  C60  1  0.65380800  0.98865600  0.95468100  1
  C  C61  1  0.14234900  0.64144900  0.14860000  1
  C  C62  1  0.67443900  0.37357400  0.45085300  1
  C  C63  1  0.20830400  0.36678400  0.44489600  1
  C  C64  1  0.44264800  0.03555900  0.11855100  1
  C  C65  1  0.32556100  0.62642600  0.54914700  1
  C  C66  1  0.62528700  0.50039100  0.62701100  1
  C  C67  1  0.02553300  0.67822100  0.77571300  1
  C  C68  1  0.32538500  0.47189500  0.73486000  1
  C  C69  1  0.33841800  0.98639500  0.47515200  1
  C  C70  1  0.85765100  0.35855100  0.85140000  1
  C  C71  1  0.86756800  0.13243200  0.75000000  1
