# generated using pymatgen
data_Cu5NiC13
_symmetry_space_group_name_H-M   'P 1'
_cell_length_a   5.13613633
_cell_length_b   14.73274944
_cell_length_c   3.13556824
_cell_angle_alpha   89.23815207
_cell_angle_beta   89.99945408
_cell_angle_gamma   92.50102634
_symmetry_Int_Tables_number   1
_chemical_formula_structural   Cu5NiC13
_chemical_formula_sum   'Cu5 Ni1 C13'
_cell_volume   237.01959149
_cell_formula_units_Z   1
loop_
 _symmetry_equiv_pos_site_id
 _symmetry_equiv_pos_as_xyz
  1  'x, y, z'
loop_
 _atom_site_type_symbol
 _atom_site_label
 _atom_site_symmetry_multiplicity
 _atom_site_fract_x
 _atom_site_fract_y
 _atom_site_fract_z
 _atom_site_occupancy
  C  C0  1  0.50388961  0.33918239  0.54190530  1
  C  C1  1  0.02796406  0.98574297  0.99227866  1
  C  C2  1  0.02221088  0.35973332  0.03893359  1
  C  C3  1  0.01022169  0.66967235  0.00140843  1
  C  C4  1  0.48259731  0.05379285  0.48794723  1
  C  C5  1  0.44308778  0.52696965  0.51625073  1
  C  C6  1  0.46571028  0.82031797  0.49590782  1
  Cu  Cu7  1  0.11954691  0.60977117  0.51183919  1
  Cu  Cu8  1  0.25431988  0.93035721  0.49912054  1
  Cu  Cu9  1  0.34429211  0.09079314  0.94552051  1
  Cu  Cu10  1  0.28379006  0.77197185  0.95353719  1
  Cu  Cu11  1  0.35607478  0.42606607  0.01868680  1
  Ni  Ni12  1  0.84043040  0.03530004  0.48905697  1
  C  C13  1  0.16517900  0.27605364  0.54303382  1
  C  C14  1  0.67310926  0.27751303  0.04861075  1
  C  C15  1  0.67024285  0.59434167  0.01035068  1
  C  C16  1  0.70759252  0.88654699  0.99520475  1
  C  C17  1  0.81813533  0.42443584  0.53375229  1
  C  C18  1  0.79484843  0.74334492  0.49949393  1
