# generated using pymatgen
data_CuC39
_symmetry_space_group_name_H-M   'P 1'
_cell_length_a   7.79804079
_cell_length_b   7.79804079
_cell_length_c   7.79804022
_cell_angle_alpha   90.00967828
_cell_angle_beta   90.00967828
_cell_angle_gamma   90.00967390
_symmetry_Int_Tables_number   1
_chemical_formula_structural   CuC39
_chemical_formula_sum   'Cu1 C39'
_cell_volume   474.19443950
_cell_formula_units_Z   1
loop_
 _symmetry_equiv_pos_site_id
 _symmetry_equiv_pos_as_xyz
  1  'x, y, z'
loop_
 _atom_site_type_symbol
 _atom_site_label
 _atom_site_symmetry_multiplicity
 _atom_site_fract_x
 _atom_site_fract_y
 _atom_site_fract_z
 _atom_site_occupancy
  C  C0  1  0.74866500  0.25143400  0.74866500  1
  C  C1  1  0.74859900  0.25133400  0.25133400  1
  C  C2  1  0.74866500  0.74866500  0.25143400  1
  C  C3  1  0.25133400  0.25133400  0.74859900  1
  C  C4  1  0.25120400  0.25120400  0.25120400  1
  C  C5  1  0.25143400  0.74866500  0.74866500  1
  C  C6  1  0.25133400  0.74859900  0.25133400  1
  Cu  Cu7  1  0.76920343  0.73249649  0.74758013  1
  C  C8  1  0.50049500  0.99951500  0.99951500  1
  C  C9  1  0.50048800  0.99940600  0.50048800  1
  C  C10  1  0.50048800  0.50048800  0.99940600  1
  C  C11  1  0.99952100  0.99952100  0.99952100  1
  C  C12  1  0.99951500  0.99951500  0.50049500  1
  C  C13  1  0.99951500  0.50049500  0.99951500  1
  C  C14  1  0.99940600  0.50048800  0.50048800  1
  C  C15  1  0.50045000  0.50045000  0.50045000  1
  C  C16  1  0.74899200  0.99780800  0.99780800  1
  C  C17  1  0.75099700  0.99774800  0.50230200  1
  C  C18  1  0.75099700  0.50230200  0.99774800  1
  C  C19  1  0.74595700  0.50241400  0.50241400  1
  C  C20  1  0.25102200  0.99972800  0.99972800  1
  C  C21  1  0.24899900  0.99977600  0.50017200  1
  C  C22  1  0.24899900  0.50017200  0.99977600  1
  C  C23  1  0.25400700  0.50009700  0.50009700  1
  C  C24  1  0.50017200  0.24899900  0.99977600  1
  C  C25  1  0.50009700  0.25400700  0.50009700  1
  C  C26  1  0.50230200  0.75099700  0.99774800  1
  C  C27  1  0.50241400  0.74595700  0.50241400  1
  C  C28  1  0.99972800  0.25102200  0.99972800  1
  C  C29  1  0.99977600  0.24899900  0.50017200  1
  C  C30  1  0.99780800  0.74899200  0.99780800  1
  C  C31  1  0.99774800  0.75099700  0.50230200  1
  C  C32  1  0.50230200  0.99774800  0.75099700  1
  C  C33  1  0.50017200  0.99977600  0.24899900  1
  C  C34  1  0.50241400  0.50241400  0.74595700  1
  C  C35  1  0.50009700  0.50009700  0.25400700  1
  C  C36  1  0.99780800  0.99780800  0.74899200  1
  C  C37  1  0.99972800  0.99972800  0.25102200  1
  C  C38  1  0.99774800  0.50230200  0.75099700  1
  C  C39  1  0.99977600  0.50017200  0.24899900  1
