# generated using pymatgen
data_Cu3NiC2
_symmetry_space_group_name_H-M   'P 1'
_cell_length_a   15.80455000
_cell_length_b   15.80455000
_cell_length_c   9.95923700
_cell_angle_alpha   90.00000000
_cell_angle_beta   90.00000000
_cell_angle_gamma   90.00000000
_symmetry_Int_Tables_number   1
_chemical_formula_structural   Cu3NiC2
_chemical_formula_sum   'Cu48 Ni16 C32'
_cell_volume   2487.65606996
_cell_formula_units_Z   16
loop_
 _symmetry_equiv_pos_site_id
 _symmetry_equiv_pos_as_xyz
  1  'x, y, z'
loop_
 _atom_site_type_symbol
 _atom_site_label
 _atom_site_symmetry_multiplicity
 _atom_site_fract_x
 _atom_site_fract_y
 _atom_site_fract_z
 _atom_site_occupancy
  C  C0  1  0.70764200  0.08136200  0.64234900  1
  C  C1  1  0.57199200  0.07199200  0.15638600  1
  C  C2  1  0.92800800  0.57199200  0.84361400  1
  C  C3  1  0.07199200  0.42800800  0.15638600  1
  C  C4  1  0.29235800  0.91863800  0.64234900  1
  C  C5  1  0.79235800  0.58136200  0.64234900  1
  C  C6  1  0.70764200  0.08136200  0.35765100  1
  C  C7  1  0.79235800  0.58136200  0.35765100  1
  C  C8  1  0.04833100  0.13383000  0.50000000  1
  C  C9  1  0.95166900  0.86617000  0.50000000  1
  C  C10  1  0.91863800  0.70764200  0.64234900  1
  C  C11  1  0.29235800  0.91863800  0.35765100  1
  C  C12  1  0.57199200  0.07199200  0.84361400  1
  C  C13  1  0.20764200  0.41863800  0.35765100  1
  C  C14  1  0.08136200  0.29235800  0.35765100  1
  C  C15  1  0.54833100  0.36617000  0.50000000  1
  C  C16  1  0.58136200  0.20764200  0.35765100  1
  C  C17  1  0.92800800  0.57199200  0.15638600  1
  C  C18  1  0.86617000  0.04833100  0.50000000  1
  C  C19  1  0.41863800  0.79235800  0.35765100  1
  C  C20  1  0.36617000  0.45166900  0.50000000  1
  C  C21  1  0.20764200  0.41863800  0.64234900  1
  C  C22  1  0.13383000  0.95166900  0.50000000  1
  C  C23  1  0.58136200  0.20764200  0.64234900  1
  C  C24  1  0.08136200  0.29235800  0.64234900  1
  C  C25  1  0.91863800  0.70764200  0.35765100  1
  C  C26  1  0.42800800  0.92800800  0.15638600  1
  C  C27  1  0.07199200  0.42800800  0.84361400  1
  C  C28  1  0.45166900  0.63383000  0.50000000  1
  C  C29  1  0.42800800  0.92800800  0.84361400  1
  C  C30  1  0.41863800  0.79235800  0.64234900  1
  C  C31  1  0.63383000  0.54833100  0.50000000  1
  Cu  Cu32  1  0.45650154  0.82490307  0.50303586  1
  Cu  Cu33  1  0.30877076  0.42986874  0.38778288  1
  Cu  Cu34  1  0.81428852  0.06465416  0.62563681  1
  Cu  Cu35  1  0.16522053  0.46162588  0.49286792  1
  Ni  Ni36  1  0.00000000  0.50000000  0.16819200  1
  Ni  Ni37  1  0.68976800  0.56870900  0.63630300  1
  Ni  Ni38  1  0.82810500  0.54133000  0.50000000  1
  Cu  Cu39  1  0.96110044  0.66948343  0.76595916  1
  Ni  Ni40  1  0.00000000  0.50000000  0.83180800  1
  Cu  Cu41  1  0.84099709  0.53915713  0.23584069  1
  Ni  Ni42  1  0.18283500  0.31716500  0.64858800  1
  Cu  Cu43  1  0.15663571  0.45483526  0.25790146  1
  Cu  Cu44  1  0.93212768  0.81696634  0.37212300  1
  Cu  Cu45  1  0.96373904  0.65923175  0.23700070  1
  Cu  Cu46  1  0.67931206  0.18111634  0.34825253  1
  Cu  Cu47  1  0.31314169  0.81319401  0.33747339  1
  Cu  Cu48  1  0.47360418  0.83672075  0.21685656  1
  Cu  Cu49  1  0.38050295  0.55669363  0.52144663  1
  Cu  Cu50  1  0.60654139  0.44997962  0.49505186  1
  Cu  Cu51  1  0.43544931  0.68746385  0.36895215  1
  Cu  Cu52  1  0.18655133  0.31639144  0.38705590  1
  Cu  Cu53  1  0.53934709  0.15653930  0.25386961  1
  Cu  Cu54  1  0.51108264  0.00065702  0.17246799  1
  Cu  Cu55  1  0.55884024  0.29904621  0.37752458  1
  Ni  Ni56  1  0.03805100  0.34078900  0.22994100  1
  Cu  Cu57  1  0.84552372  0.53411556  0.76494515  1
  Cu  Cu58  1  0.88667043  0.95425520  0.50968490  1
  Ni  Ni59  1  0.15921100  0.46194900  0.77005900  1
  Cu  Cu60  1  0.54606916  0.16204940  0.76770457  1
  Cu  Cu61  1  0.45079988  0.39187200  0.51367026  1
  Cu  Cu62  1  0.34222363  0.95441296  0.23688048  1
  Ni  Ni63  1  0.65921100  0.03805100  0.22994100  1
  Cu  Cu64  1  0.81791153  0.68762101  0.65388955  1
  Ni  Ni65  1  0.10777000  0.05079000  0.50000000  1
  Ni  Ni66  1  0.34078900  0.96194900  0.77005900  1
  Cu  Cu67  1  0.81515640  0.06717439  0.36801550  1
  Cu  Cu68  1  0.05878166  0.89849309  0.50310199  1
  Cu  Cu69  1  0.49812763  0.98820988  0.83491132  1
  Cu  Cu70  1  0.07691186  0.17646715  0.62717052  1
  Cu  Cu71  1  0.46035330  0.84743945  0.76144591  1
  Cu  Cu72  1  0.40910635  0.90722335  0.01038852  1
  Cu  Cu73  1  0.60810856  0.10055055  0.00769253  1
  Cu  Cu74  1  0.18722485  0.94264462  0.64077353  1
  Ni  Ni75  1  0.56870900  0.31023200  0.63630300  1
  Cu  Cu76  1  0.90647305  0.58838413  0.99701645  1
  Cu  Cu77  1  0.93209252  0.80235599  0.63270275  1
  Cu  Cu78  1  0.44011412  0.68314727  0.62991851  1
  Cu  Cu79  1  0.67656029  0.18435982  0.63560023  1
  Cu  Cu80  1  0.30971275  0.43353327  0.63538444  1
  Cu  Cu81  1  0.06586012  0.18487342  0.34757210  1
  Cu  Cu82  1  0.66647253  0.04086679  0.75986712  1
  Cu  Cu83  1  0.17837604  0.93009530  0.35905437  1
  Ni  Ni84  1  0.04133000  0.32810500  0.50000000  1
  Cu  Cu85  1  0.03464265  0.33206730  0.76027788  1
  Cu  Cu86  1  0.32693446  0.96167822  0.49833297  1
  Cu  Cu87  1  0.08869275  0.41038190  0.99761236  1
  Cu  Cu88  1  0.32252911  0.82422541  0.63773620  1
  Ni  Ni89  1  0.94921000  0.10777000  0.50000000  1
  Ni  Ni90  1  0.67189500  0.04133000  0.50000000  1
  Ni  Ni91  1  0.68976800  0.56870900  0.36369700  1
  Cu  Cu92  1  0.53258245  0.16619980  0.49468974  1
  Cu  Cu93  1  0.82657021  0.69325040  0.35128156  1
  Ni  Ni94  1  0.55079000  0.60777000  0.50000000  1
  Cu  Cu95  1  0.96444869  0.67422342  0.49443853  1
