# generated using pymatgen
data_Cu24NiC11
_symmetry_space_group_name_H-M   'P 1'
_cell_length_a   8.34544509
_cell_length_b   8.34544509
_cell_length_c   8.34544489
_cell_angle_alpha   61.95934290
_cell_angle_beta   61.95934290
_cell_angle_gamma   61.95934831
_symmetry_Int_Tables_number   1
_chemical_formula_structural   Cu24NiC11
_chemical_formula_sum   'Cu24 Ni1 C11'
_cell_volume   429.00947989
_cell_formula_units_Z   1
loop_
 _symmetry_equiv_pos_site_id
 _symmetry_equiv_pos_as_xyz
  1  'x, y, z'
loop_
 _atom_site_type_symbol
 _atom_site_label
 _atom_site_symmetry_multiplicity
 _atom_site_fract_x
 _atom_site_fract_y
 _atom_site_fract_z
 _atom_site_occupancy
  C  C0  1  0.00055100  0.00055100  0.00055100  1
  C  C1  1  0.50027400  0.50027400  0.50027400  1
  Ni  Ni2  1  0.86028400  0.86028400  0.86028400  1
  C  C3  1  0.35774900  0.35774900  0.35774900  1
  C  C4  1  0.14198300  0.14198300  0.14198300  1
  C  C5  1  0.64181600  0.64181600  0.64181600  1
  C  C6  1  0.45872800  0.75021400  0.04487200  1
  C  C7  1  0.75021400  0.04487200  0.45872800  1
  C  C8  1  0.04487200  0.45872800  0.75021400  1
  C  C9  1  0.95041500  0.54709600  0.24806000  1
  C  C10  1  0.24806000  0.95041500  0.54709600  1
  C  C11  1  0.54709600  0.24806000  0.95041500  1
  Cu  Cu12  1  0.66688500  0.89782300  0.49842100  1
  Cu  Cu13  1  0.89782300  0.49842100  0.66688500  1
  Cu  Cu14  1  0.49842100  0.66688500  0.89782300  1
  Cu  Cu15  1  0.25373900  0.90440900  0.05451000  1
  Cu  Cu16  1  0.61586100  0.82467300  0.00233900  1
  Cu  Cu17  1  0.43963900  0.60269700  0.25208200  1
  Cu  Cu18  1  0.90440900  0.05451000  0.25373900  1
  Cu  Cu19  1  0.60269700  0.25208200  0.43963900  1
  Cu  Cu20  1  0.99083100  0.39607100  0.17143900  1
  Cu  Cu21  1  0.25208200  0.43963900  0.60269700  1
  Cu  Cu22  1  0.93720400  0.75475000  0.08734900  1
  Cu  Cu23  1  0.17143900  0.99083100  0.39607100  1
  Cu  Cu24  1  0.82467300  0.00233900  0.61586100  1
  Cu  Cu25  1  0.05451000  0.25373900  0.90440900  1
  Cu  Cu26  1  0.74450700  0.56786100  0.39771200  1
  Cu  Cu27  1  0.00233900  0.61586100  0.82467300  1
  Cu  Cu28  1  0.39771200  0.74450700  0.56786100  1
  Cu  Cu29  1  0.08734900  0.93720400  0.75475000  1
  Cu  Cu30  1  0.56786100  0.39771200  0.74450700  1
  Cu  Cu31  1  0.39607100  0.17143900  0.99083100  1
  Cu  Cu32  1  0.75475000  0.08734900  0.93720400  1
  Cu  Cu33  1  0.51379600  0.32201600  0.10132000  1
  Cu  Cu34  1  0.10132000  0.51379600  0.32201600  1
  Cu  Cu35  1  0.32201600  0.10132000  0.51379600  1
