# generated using pymatgen
data_CuC
_symmetry_space_group_name_H-M   'P 1'
_cell_length_a   6.68264900
_cell_length_b   7.08101500
_cell_length_c   7.99330900
_cell_angle_alpha   90.00000000
_cell_angle_beta   90.00000000
_cell_angle_gamma   90.00000000
_symmetry_Int_Tables_number   1
_chemical_formula_structural   CuC
_chemical_formula_sum   'Cu20 C20'
_cell_volume   378.24288477
_cell_formula_units_Z   20
loop_
 _symmetry_equiv_pos_site_id
 _symmetry_equiv_pos_as_xyz
  1  'x, y, z'
loop_
 _atom_site_type_symbol
 _atom_site_label
 _atom_site_symmetry_multiplicity
 _atom_site_fract_x
 _atom_site_fract_y
 _atom_site_fract_z
 _atom_site_occupancy
  Cu  Cu0  1  0.74806955  0.50780262  0.02497277  1
  Cu  Cu1  1  0.21875192  0.49464220  0.00515672  1
  Cu  Cu2  1  0.49658068  0.75832583  0.07301011  1
  Cu  Cu3  1  0.70873117  0.94360503  0.14843985  1
  Cu  Cu4  1  0.23098852  0.97531966  0.14720258  1
  Cu  Cu5  1  0.51588944  0.23800114  0.20742777  1
  Cu  Cu6  1  0.00393837  0.73284588  0.26985121  1
  Cu  Cu7  1  0.74374965  0.46242918  0.33120209  1
  Cu  Cu8  1  0.22069335  0.47356396  0.34044644  1
  Cu  Cu9  1  0.00226020  0.29126859  0.40210971  1
  Cu  Cu10  1  0.21948106  0.01328876  0.48665909  1
  Cu  Cu11  1  0.74826385  0.00846963  0.52159824  1
  Cu  Cu12  1  0.97518859  0.76503065  0.57578978  1
  Cu  Cu13  1  0.78888559  0.53299440  0.66796177  1
  Cu  Cu14  1  0.25147869  0.52604989  0.65321741  1
  Cu  Cu15  1  0.03793320  0.26938224  0.69582489  1
  Cu  Cu16  1  0.48735214  0.73955783  0.81100090  1
  Cu  Cu17  1  0.72840303  0.03009285  0.85774595  1
  Cu  Cu18  1  0.27080224  0.02220721  0.86264965  1
  Cu  Cu19  1  0.52089312  0.24220856  0.89846149  1
  C  C20  1  0.00000000  0.23234400  0.10280500  1
  C  C21  1  0.50000000  0.73234400  0.39719500  1
  C  C22  1  0.50000000  0.26765600  0.60280500  1
  C  C23  1  0.00000000  0.76765600  0.89719500  1
  C  C24  1  0.74042800  0.21758600  0.02402100  1
  C  C25  1  0.25957200  0.21758600  0.02402100  1
  C  C26  1  0.00000000  0.46851400  0.21618400  1
  C  C27  1  0.50000000  0.52324000  0.23690800  1
  C  C28  1  0.00000000  0.02324000  0.26309200  1
  C  C29  1  0.50000000  0.96851400  0.28381600  1
  C  C30  1  0.75957200  0.71758600  0.47597900  1
  C  C31  1  0.24042800  0.71758600  0.47597900  1
  C  C32  1  0.75957200  0.28241400  0.52402100  1
  C  C33  1  0.24042800  0.28241400  0.52402100  1
  C  C34  1  0.50000000  0.03148600  0.71618400  1
  C  C35  1  0.00000000  0.97676000  0.73690800  1
  C  C36  1  0.50000000  0.47676000  0.76309200  1
  C  C37  1  0.00000000  0.53148600  0.78381600  1
  C  C38  1  0.74042800  0.78241400  0.97597900  1
  C  C39  1  0.25957200  0.78241400  0.97597900  1
