# generated using pymatgen
data_Cu2C15
_symmetry_space_group_name_H-M   'P 1'
_cell_length_a   7.20454800
_cell_length_b   6.65140400
_cell_length_c   20.41310849
_cell_angle_alpha   80.32674282
_cell_angle_beta   90.00000000
_cell_angle_gamma   90.00000000
_symmetry_Int_Tables_number   1
_chemical_formula_structural   Cu2C15
_chemical_formula_sum   'Cu8 C60'
_cell_volume   964.29540187
_cell_formula_units_Z   4
loop_
 _symmetry_equiv_pos_site_id
 _symmetry_equiv_pos_as_xyz
  1  'x, y, z'
loop_
 _atom_site_type_symbol
 _atom_site_label
 _atom_site_symmetry_multiplicity
 _atom_site_fract_x
 _atom_site_fract_y
 _atom_site_fract_z
 _atom_site_occupancy
  C  C0  1  0.62968900  0.04999200  0.62239500  1
  C  C1  1  0.87031100  0.04999200  0.12239500  1
  C  C2  1  0.37031100  0.95000800  0.37760500  1
  C  C3  1  0.12968900  0.95000800  0.87760500  1
  C  C4  1  0.46684800  0.81739800  0.77335800  1
  C  C5  1  0.35547200  0.42970800  0.41127600  1
  C  C6  1  0.85547200  0.57029200  0.08872400  1
  C  C7  1  0.80751100  0.18433500  0.95486100  1
  C  C8  1  0.14452800  0.42970800  0.91127600  1
  C  C9  1  0.96684800  0.18260200  0.72664200  1
  C  C10  1  0.30751100  0.81566500  0.54513900  1
  C  C11  1  0.03315200  0.81739800  0.27335800  1
  C  C12  1  0.53315200  0.18260200  0.22664200  1
  C  C13  1  0.69248900  0.18433500  0.45486100  1
  C  C14  1  0.64452800  0.57029200  0.58872400  1
  C  C15  1  0.19248900  0.81566500  0.04513900  1
  Cu  Cu16  1  0.48038397  0.34389753  0.76741988  1
  Cu  Cu17  1  0.99249887  0.66512926  0.72973469  1
  Cu  Cu18  1  0.11858108  0.33950326  0.56398354  1
  Cu  Cu19  1  0.59898130  0.69473862  0.90365963  1
  Cu  Cu20  1  0.39176313  0.32073396  0.07250820  1
  Cu  Cu21  1  0.49781799  0.62162147  0.23546582  1
  Cu  Cu22  1  0.86845283  0.66853809  0.41716937  1
  Cu  Cu23  1  0.04979730  0.28516083  0.27315332  1
  C  C24  1  0.01575300  0.99427600  0.77988700  1
  C  C25  1  0.17190200  0.67565100  0.58790000  1
  C  C26  1  0.23927100  0.89165400  0.47416700  1
  C  C27  1  0.67190200  0.32434900  0.91210000  1
  C  C28  1  0.86034400  0.68518000  0.29722200  1
  C  C29  1  0.26072900  0.89165400  0.97416700  1
  C  C30  1  0.81325300  0.52950300  0.54790200  1
  C  C31  1  0.18674700  0.47049700  0.45209800  1
  C  C32  1  0.76072900  0.10834600  0.52583300  1
  C  C33  1  0.31325300  0.47049700  0.95209800  1
  C  C34  1  0.51575300  0.00572400  0.72011300  1
  C  C35  1  0.13965600  0.31482000  0.70277800  1
  C  C36  1  0.10200300  0.91047900  0.33519500  1
  C  C37  1  0.67880600  0.32040700  0.25199000  1
  C  C38  1  0.60200300  0.08952100  0.16480500  1
  C  C39  1  0.18260000  0.27809000  0.86316500  1
  C  C40  1  0.49428000  0.68194400  0.53538300  1
  C  C41  1  0.31740000  0.27809000  0.36316500  1
  C  C42  1  0.73927100  0.10834600  0.02583300  1
  C  C43  1  0.55549200  0.37073600  0.62538700  1
  C  C44  1  0.68260000  0.72191000  0.63683500  1
  C  C45  1  0.89799700  0.08952100  0.66480500  1
  C  C46  1  0.00572000  0.68194400  0.03538300  1
  C  C47  1  0.36034400  0.31482000  0.20277800  1
  C  C48  1  0.48424700  0.99427600  0.27988700  1
  C  C49  1  0.36738900  0.99591000  0.57917900  1
  C  C50  1  0.98424700  0.00572400  0.22011300  1
  C  C51  1  0.05549200  0.62926400  0.87461300  1
  C  C52  1  0.32119400  0.67959300  0.74801000  1
  C  C53  1  0.63261100  0.00409000  0.42082100  1
  C  C54  1  0.82119400  0.32040700  0.75199000  1
  C  C55  1  0.63965600  0.68518000  0.79722200  1
  C  C56  1  0.86738900  0.00409000  0.92082100  1
  C  C57  1  0.99428000  0.31805600  0.96461700  1
  C  C58  1  0.50572000  0.31805600  0.46461700  1
  C  C59  1  0.44450800  0.62926400  0.37461300  1
  C  C60  1  0.81740000  0.72191000  0.13683500  1
  C  C61  1  0.68674700  0.52950300  0.04790200  1
  C  C62  1  0.32809800  0.67565100  0.08790000  1
  C  C63  1  0.17880600  0.67959300  0.24801000  1
  C  C64  1  0.13261100  0.99591000  0.07917900  1
  C  C65  1  0.94450800  0.37073600  0.12538700  1
  C  C66  1  0.82809800  0.32434900  0.41210000  1
  C  C67  1  0.39799700  0.91047900  0.83519500  1
