# generated using pymatgen
data_Cu5Ni5C36
_symmetry_space_group_name_H-M   'P 1'
_cell_length_a   9.00639400
_cell_length_b   5.20542400
_cell_length_c   9.90617088
_cell_angle_alpha   79.64678434
_cell_angle_beta   90.00000000
_cell_angle_gamma   90.00000000
_symmetry_Int_Tables_number   1
_chemical_formula_structural   Cu5Ni5C36
_chemical_formula_sum   'Cu5 Ni5 C36'
_cell_volume   456.86062112
_cell_formula_units_Z   1
loop_
 _symmetry_equiv_pos_site_id
 _symmetry_equiv_pos_as_xyz
  1  'x, y, z'
loop_
 _atom_site_type_symbol
 _atom_site_label
 _atom_site_symmetry_multiplicity
 _atom_site_fract_x
 _atom_site_fract_y
 _atom_site_fract_z
 _atom_site_occupancy
  C  C0  1  0.91558900  0.01103000  0.74166500  1
  C  C1  1  0.91947600  0.48371800  0.25954500  1
  C  C2  1  0.58220400  0.75818300  0.50317500  1
  C  C3  1  0.58351300  0.49935000  0.25727100  1
  C  C4  1  0.41558900  0.98897000  0.25833500  1
  C  C5  1  0.41947600  0.51628200  0.74045500  1
  C  C6  1  0.08220400  0.24181700  0.49682500  1
  C  C7  1  0.08351300  0.50065000  0.74272900  1
  Cu  Cu8  1  0.94138741  0.28921067  0.99855504  1
  Cu  Cu9  1  0.91815878  0.72320592  0.48943155  1
  Ni  Ni10  1  0.74879100  0.98809400  0.25523900  1
  Ni  Ni11  1  0.57336000  0.24547600  0.99772600  1
  Ni  Ni12  1  0.74379600  0.51360800  0.74242200  1
  Ni  Ni13  1  0.42773500  0.25108700  0.50514700  1
  Ni  Ni14  1  0.41878600  0.74647800  0.99770400  1
  Cu  Cu15  1  0.23407866  0.99896123  0.73768665  1
  Cu  Cu16  1  0.23361942  0.51658237  0.24410274  1
  Cu  Cu17  1  0.06615253  0.75629047  0.00198030  1
  C  C18  1  0.75332200  0.23809700  0.50565900  1
  C  C19  1  0.74387600  0.75738800  0.99121800  1
  C  C20  1  0.24387600  0.24261200  0.00878200  1
  C  C21  1  0.25332200  0.76190300  0.49434100  1
  C  C22  1  0.90256100  0.11242800  0.38434300  1
  C  C23  1  0.90746200  0.88290400  0.11750800  1
  C  C24  1  0.75155500  0.15356500  0.88218400  1
  C  C25  1  0.77048300  0.86232300  0.61969900  1
  C  C26  1  0.90634900  0.38724100  0.62058800  1
  C  C27  1  0.91491800  0.61587800  0.87476700  1
  C  C28  1  0.76225500  0.63580900  0.37155700  1
  C  C29  1  0.59818300  0.12881900  0.37950500  1
  C  C30  1  0.57567300  0.88209500  0.12081900  1
  C  C31  1  0.74591500  0.35160200  0.11896100  1
  C  C32  1  0.40256100  0.88757200  0.61565700  1
  C  C33  1  0.40746200  0.11709600  0.88249200  1
  C  C34  1  0.57483800  0.60034000  0.87972800  1
  C  C35  1  0.59506200  0.38800700  0.61363900  1
  C  C36  1  0.27048300  0.13767700  0.38030100  1
  C  C37  1  0.40634900  0.61275900  0.37941200  1
  C  C38  1  0.41491800  0.38412200  0.12523300  1
  C  C39  1  0.25155500  0.84643500  0.11781600  1
  C  C40  1  0.24591500  0.64839800  0.88103900  1
  C  C41  1  0.07567300  0.11790500  0.87918100  1
  C  C42  1  0.09818300  0.87118100  0.62049500  1
  C  C43  1  0.26225500  0.36419100  0.62844300  1
  C  C44  1  0.09506200  0.61199300  0.38636100  1
  C  C45  1  0.07483800  0.39966000  0.12027200  1
