# generated using pymatgen
data_Cu29Ni7
_symmetry_space_group_name_H-M   'P 1'
_cell_length_a   14.99678400
_cell_length_b   8.49984800
_cell_length_c   19.00802097
_cell_angle_alpha   77.46757855
_cell_angle_beta   90.00000000
_cell_angle_gamma   90.00000000
_symmetry_Int_Tables_number   1
_chemical_formula_structural   Cu29Ni7
_chemical_formula_sum   'Cu58 Ni14'
_cell_volume   2365.22879052
_cell_formula_units_Z   2
loop_
 _symmetry_equiv_pos_site_id
 _symmetry_equiv_pos_as_xyz
  1  'x, y, z'
loop_
 _atom_site_type_symbol
 _atom_site_label
 _atom_site_symmetry_multiplicity
 _atom_site_fract_x
 _atom_site_fract_y
 _atom_site_fract_z
 _atom_site_occupancy
  Ni  Ni0  1  0.97715900  0.62380900  0.36118700  1
  Cu  Cu1  1  0.52406976  0.24925966  0.62069502  1
  Cu  Cu2  1  0.24447370  0.77876811  0.34403573  1
  Ni  Ni3  1  0.02284100  0.37619100  0.63881300  1
  Cu  Cu4  1  0.68123894  0.77351623  0.64224624  1
  Cu  Cu5  1  0.74954885  0.23827648  0.16186673  1
  Cu  Cu6  1  0.17313960  0.20020734  0.85375520  1
  Cu  Cu7  1  0.12171275  0.37160163  0.56138288  1
  Ni  Ni8  1  0.52197100  0.99674800  0.12583100  1
  Cu  Cu9  1  0.75483741  0.24715130  0.65289474  1
  Cu  Cu10  1  0.73759649  0.84093504  0.33498723  1
  Cu  Cu11  1  0.58218567  0.14034866  0.88616329  1
  Ni  Ni12  1  0.20925700  0.99139000  0.09851800  1
  Cu  Cu13  1  0.08527529  0.85370819  0.61041194  1
  Cu  Cu14  1  0.35602205  0.69565244  0.42226943  1
  Cu  Cu15  1  0.83816822  0.29272012  0.08954978  1
  Cu  Cu16  1  0.81511781  0.80074014  0.13515353  1
  Ni  Ni17  1  0.32574600  0.95067100  0.04506800  1
  Cu  Cu18  1  0.49601333  0.12365605  0.19315209  1
  Cu  Cu19  1  0.23635268  0.15912857  0.14692241  1
  Cu  Cu20  1  0.51936793  0.85571021  0.79180553  1
  Cu  Cu21  1  0.25763587  0.60019713  0.78240734  1
  Cu  Cu22  1  0.88717992  0.62823256  0.43681915  1
  Cu  Cu23  1  0.29185091  0.35971844  0.85846438  1
  Cu  Cu24  1  0.16566125  0.96023519  0.54743517  1
  Ni  Ni25  1  0.41419000  0.25956500  0.43257600  1
  Cu  Cu26  1  0.76481241  0.39464100  0.71279546  1
  Cu  Cu27  1  0.15720825  0.72759551  0.91972164  1
  Ni  Ni28  1  0.62146400  0.61534300  0.93602000  1
  Cu  Cu29  1  0.00164341  0.12389316  0.69951300  1
  Ni  Ni30  1  0.67425400  0.04932900  0.95493200  1
  Cu  Cu31  1  0.91486727  0.16511178  0.37142162  1
  Cu  Cu32  1  0.49331729  0.01146114  0.87061035  1
  Cu  Cu33  1  0.47676516  0.36355345  0.14177024  1
  Cu  Cu34  1  0.49881055  0.61369505  0.31246076  1
  Cu  Cu35  1  0.21232560  0.36737427  0.35059859  1
  Cu  Cu36  1  0.74835416  0.61834841  0.89545622  1
  Cu  Cu37  1  0.59218745  0.73740653  0.57800273  1
  Cu  Cu38  1  0.76202368  0.84901729  0.82436764  1
  Cu  Cu39  1  0.02094334  0.99346317  0.37282824  1
  Cu  Cu40  1  0.75197267  0.62857698  0.38897055  1
  Ni  Ni41  1  0.00815400  0.58320700  0.81268400  1
  Cu  Cu42  1  0.78660892  0.62955010  0.64118811  1
  Cu  Cu43  1  0.51710794  0.33974819  0.39192840  1
  Cu  Cu44  1  0.96528658  0.99034573  0.63527439  1
  Cu  Cu45  1  0.50643291  0.43327662  0.69120063  1
  Cu  Cu46  1  0.03267985  0.64488444  0.10968416  1
  Cu  Cu47  1  0.37241299  0.38479923  0.06347563  1
  Cu  Cu48  1  0.08465399  0.24622108  0.93698735  1
  Cu  Cu49  1  0.72095831  0.61761627  0.14790881  1
  Cu  Cu50  1  0.99466277  0.42536718  0.18673914  1
  Cu  Cu51  1  0.74110275  0.41887983  0.21585646  1
  Cu  Cu52  1  0.27087146  0.96968921  0.59187714  1
  Cu  Cu53  1  0.91965250  0.71744831  0.06921091  1
  Ni  Ni54  1  0.52284100  0.62380900  0.86118700  1
  Cu  Cu55  1  0.25589875  0.15361997  0.66869443  1
  Cu  Cu56  1  0.04002087  0.77118693  0.87246253  1
  Cu  Cu57  1  0.45434340  0.65123904  0.61634797  1
  Cu  Cu58  1  0.23933973  0.81389962  0.84201720  1
  Cu  Cu59  1  0.32864814  0.20884943  0.35744878  1
  Cu  Cu60  1  0.79382298  0.99887478  0.90541051  1
  Ni  Ni61  1  0.41701100  0.84058200  0.12093800  1
  Cu  Cu62  1  0.99530894  0.83067534  0.30519093  1
  Cu  Cu63  1  0.98278750  0.37413795  0.87187855  1
  Cu  Cu64  1  0.24151646  0.36513801  0.11012935  1
  Cu  Cu65  1  0.45904649  0.75136674  0.36882820  1
  Ni  Ni66  1  0.82574600  0.04932900  0.45493200  1
  Ni  Ni67  1  0.64914000  0.29450100  0.57856300  1
  Cu  Cu68  1  0.70446037  0.99610847  0.40757781  1
  Cu  Cu69  1  0.24384421  0.57663091  0.28027437  1
  Cu  Cu70  1  0.95844511  0.24749152  0.11590383  1
  Ni  Ni71  1  0.24736300  0.37887900  0.60991500  1
