# generated using pymatgen
data_Cu7NiC10
_symmetry_space_group_name_H-M   'P 1'
_cell_length_a   10.10916917
_cell_length_b   10.10916917
_cell_length_c   9.19742200
_cell_angle_alpha   90.00000000
_cell_angle_beta   90.00000000
_cell_angle_gamma   126.15942388
_symmetry_Int_Tables_number   1
_chemical_formula_structural   Cu7NiC10
_chemical_formula_sum   'Cu7 Ni1 C10'
_cell_volume   758.88182546
_cell_formula_units_Z   1
loop_
 _symmetry_equiv_pos_site_id
 _symmetry_equiv_pos_as_xyz
  1  'x, y, z'
loop_
 _atom_site_type_symbol
 _atom_site_label
 _atom_site_symmetry_multiplicity
 _atom_site_fract_x
 _atom_site_fract_y
 _atom_site_fract_z
 _atom_site_occupancy
  C  C0  1  0.50000000  0.50000000  0.50000000  1
  C  C1  1  0.00000000  0.00000000  0.00000000  1
  C  C2  1  0.31455000  0.02243500  0.66420600  1
  C  C3  1  0.52243500  0.81455000  0.83579400  1
  C  C4  1  0.18545000  0.47756500  0.16420600  1
  C  C5  1  0.97756500  0.68545000  0.33579400  1
  C  C6  1  0.68545000  0.97756500  0.33579400  1
  C  C7  1  0.47756500  0.18545000  0.16420600  1
  C  C8  1  0.81455000  0.52243500  0.83579400  1
  C  C9  1  0.02243500  0.31455000  0.66420600  1
  Cu  Cu10  1  0.88784621  0.87899812  0.61030327  1
  Cu  Cu11  1  0.36609926  0.35388922  0.88967022  1
  Cu  Cu12  1  0.60901981  0.63360727  0.08541463  1
  Cu  Cu13  1  0.09689357  0.11890000  0.40821659  1
  Cu  Cu14  1  0.18535624  0.78248118  0.01080515  1
  Cu  Cu15  1  0.32204377  0.71119170  0.51162173  1
  Cu  Cu16  1  0.81733235  0.22324703  0.99770463  1
  Ni  Ni17  1  0.69813800  0.30186200  0.50000000  1
