# generated using pymatgen
data_Cu5NiC7
_symmetry_space_group_name_H-M   'P 1'
_cell_length_a   5.05048000
_cell_length_b   6.59346119
_cell_length_c   6.59346119
_cell_angle_alpha   80.69176797
_cell_angle_beta   67.48088957
_cell_angle_gamma   67.48088957
_symmetry_Int_Tables_number   1
_chemical_formula_structural   Cu5NiC7
_chemical_formula_sum   'Cu5 Ni1 C7'
_cell_volume   187.32792539
_cell_formula_units_Z   1
loop_
 _symmetry_equiv_pos_site_id
 _symmetry_equiv_pos_as_xyz
  1  'x, y, z'
loop_
 _atom_site_type_symbol
 _atom_site_label
 _atom_site_symmetry_multiplicity
 _atom_site_fract_x
 _atom_site_fract_y
 _atom_site_fract_z
 _atom_site_occupancy
  C  C0  1  0.00000000  0.00000000  0.00000000  1
  Cu  Cu1  1  0.00087837  0.68845619  0.32531896  1
  Cu  Cu2  1  0.99392068  0.31992777  0.67372239  1
  Ni  Ni3  1  0.34357300  0.65642700  0.65642700  1
  Cu  Cu4  1  0.66725105  0.35713680  0.38154835  1
  Cu  Cu5  1  0.33957886  0.16061318  0.19229700  1
  Cu  Cu6  1  0.73992773  0.80899429  0.81257480  1
  C  C7  1  0.50000000  0.24502300  0.75497700  1
  C  C8  1  0.50000000  0.75497700  0.24502300  1
  C  C9  1  0.00000000  0.50000000  0.00000000  1
  C  C10  1  0.50000000  0.50000000  0.00000000  1
  C  C11  1  0.00000000  0.00000000  0.50000000  1
  C  C12  1  0.50000000  0.00000000  0.50000000  1
