# generated using pymatgen
data_Cu4NiC2
_symmetry_space_group_name_H-M   'P 1'
_cell_length_a   6.38565914
_cell_length_b   6.38565914
_cell_length_c   7.00273821
_cell_angle_alpha   75.72854624
_cell_angle_beta   75.72854624
_cell_angle_gamma   70.73913718
_symmetry_Int_Tables_number   1
_chemical_formula_structural   Cu4NiC2
_chemical_formula_sum   'Cu8 Ni2 C4'
_cell_volume   256.95178268
_cell_formula_units_Z   2
loop_
 _symmetry_equiv_pos_site_id
 _symmetry_equiv_pos_as_xyz
  1  'x, y, z'
loop_
 _atom_site_type_symbol
 _atom_site_label
 _atom_site_symmetry_multiplicity
 _atom_site_fract_x
 _atom_site_fract_y
 _atom_site_fract_z
 _atom_site_occupancy
  Ni  Ni0  1  0.77750600  0.77750600  0.11834700  1
  Ni  Ni1  1  0.22249400  0.22249400  0.88165300  1
  C  C2  1  0.63663100  0.63663100  0.73397400  1
  C  C3  1  0.36336900  0.36336900  0.26602600  1
  C  C4  1  0.98849200  0.98849200  0.77061100  1
  C  C5  1  0.01150800  0.01150800  0.22938900  1
  Cu  Cu6  1  0.70441200  0.70441200  0.46578500  1
  Cu  Cu7  1  0.29558800  0.29558800  0.53421500  1
  Cu  Cu8  1  0.54492100  0.54492100  0.19560500  1
  Cu  Cu9  1  0.45507900  0.45507900  0.80439500  1
  Cu  Cu10  1  0.10890500  0.49173000  0.15416100  1
  Cu  Cu11  1  0.49173000  0.10890500  0.15416100  1
  Cu  Cu12  1  0.89109500  0.50827000  0.84583900  1
  Cu  Cu13  1  0.50827000  0.89109500  0.84583900  1
