# generated using pymatgen
data_Cu5Ni3C8
_symmetry_space_group_name_H-M   'P 1'
_cell_length_a   7.05791828
_cell_length_b   6.91317670
_cell_length_c   5.97023510
_cell_angle_alpha   65.96444465
_cell_angle_beta   63.45239900
_cell_angle_gamma   50.58315635
_symmetry_Int_Tables_number   1
_chemical_formula_structural   Cu5Ni3C8
_chemical_formula_sum   'Cu5 Ni3 C8'
_cell_volume   198.07621440
_cell_formula_units_Z   1
loop_
 _symmetry_equiv_pos_site_id
 _symmetry_equiv_pos_as_xyz
  1  'x, y, z'
loop_
 _atom_site_type_symbol
 _atom_site_label
 _atom_site_symmetry_multiplicity
 _atom_site_fract_x
 _atom_site_fract_y
 _atom_site_fract_z
 _atom_site_occupancy
  C  C0  1  0.11488100  0.11488100  0.38511900  1
  C  C1  1  0.38511900  0.38511900  0.11488100  1
  C  C2  1  0.13511900  0.13511900  0.86488100  1
  C  C3  1  0.86488100  0.86488100  0.13511900  1
  Ni  Ni4  1  0.82222600  0.56412100  0.56504400  1
  Cu  Cu5  1  0.06349062  0.55810385  0.56810122  1
  Cu  Cu6  1  0.56265726  0.05716966  0.83228831  1
  Ni  Ni7  1  0.56412100  0.82222600  0.04860900  1
  Cu  Cu8  1  0.41737996  0.68175558  0.66573778  1
  Ni  Ni9  1  0.68587900  0.42777400  0.20139100  1
  Cu  Cu10  1  0.71649654  0.18276156  0.40924793  1
  Cu  Cu11  1  0.21080158  0.66125733  0.71221487  1
  C  C12  1  0.76471200  0.23528800  0.23528800  1
  C  C13  1  0.48528800  0.01471200  0.01471200  1
  C  C14  1  0.23528800  0.76471200  0.76471200  1
  C  C15  1  0.01471200  0.48528800  0.48528800  1
