# generated using pymatgen
data_Cu2Ni
_symmetry_space_group_name_H-M   'P 1'
_cell_length_a   15.80455000
_cell_length_b   15.80455000
_cell_length_c   9.95923700
_cell_angle_alpha   90.00000000
_cell_angle_beta   90.00000000
_cell_angle_gamma   90.00000000
_symmetry_Int_Tables_number   1
_chemical_formula_structural   Cu2Ni
_chemical_formula_sum   'Cu64 Ni32'
_cell_volume   2487.65606996
_cell_formula_units_Z   32
loop_
 _symmetry_equiv_pos_site_id
 _symmetry_equiv_pos_as_xyz
  1  'x, y, z'
loop_
 _atom_site_type_symbol
 _atom_site_label
 _atom_site_symmetry_multiplicity
 _atom_site_fract_x
 _atom_site_fract_y
 _atom_site_fract_z
 _atom_site_occupancy
  Ni  Ni0  1  0.70764200  0.08136200  0.64234900  1
  Ni  Ni1  1  0.57199200  0.07199200  0.15638600  1
  Ni  Ni2  1  0.92800800  0.57199200  0.84361400  1
  Ni  Ni3  1  0.07199200  0.42800800  0.15638600  1
  Ni  Ni4  1  0.29235800  0.91863800  0.64234900  1
  Ni  Ni5  1  0.79235800  0.58136200  0.64234900  1
  Ni  Ni6  1  0.70764200  0.08136200  0.35765100  1
  Ni  Ni7  1  0.79235800  0.58136200  0.35765100  1
  Ni  Ni8  1  0.04833100  0.13383000  0.50000000  1
  Ni  Ni9  1  0.95166900  0.86617000  0.50000000  1
  Ni  Ni10  1  0.91863800  0.70764200  0.64234900  1
  Ni  Ni11  1  0.29235800  0.91863800  0.35765100  1
  Ni  Ni12  1  0.57199200  0.07199200  0.84361400  1
  Ni  Ni13  1  0.20764200  0.41863800  0.35765100  1
  Ni  Ni14  1  0.08136200  0.29235800  0.35765100  1
  Ni  Ni15  1  0.54833100  0.36617000  0.50000000  1
  Ni  Ni16  1  0.58136200  0.20764200  0.35765100  1
  Ni  Ni17  1  0.92800800  0.57199200  0.15638600  1
  Ni  Ni18  1  0.86617000  0.04833100  0.50000000  1
  Ni  Ni19  1  0.41863800  0.79235800  0.35765100  1
  Ni  Ni20  1  0.36617000  0.45166900  0.50000000  1
  Ni  Ni21  1  0.20764200  0.41863800  0.64234900  1
  Ni  Ni22  1  0.13383000  0.95166900  0.50000000  1
  Ni  Ni23  1  0.58136200  0.20764200  0.64234900  1
  Ni  Ni24  1  0.08136200  0.29235800  0.64234900  1
  Ni  Ni25  1  0.91863800  0.70764200  0.35765100  1
  Ni  Ni26  1  0.42800800  0.92800800  0.15638600  1
  Ni  Ni27  1  0.07199200  0.42800800  0.84361400  1
  Ni  Ni28  1  0.45166900  0.63383000  0.50000000  1
  Ni  Ni29  1  0.42800800  0.92800800  0.84361400  1
  Ni  Ni30  1  0.41863800  0.79235800  0.64234900  1
  Ni  Ni31  1  0.63383000  0.54833100  0.50000000  1
  Cu  Cu32  1  0.45867000  0.82810500  0.50000000  1
  Cu  Cu33  1  0.31023200  0.43129100  0.36369700  1
  Cu  Cu34  1  0.81023200  0.06870900  0.63630300  1
  Cu  Cu35  1  0.17189500  0.45867000  0.50000000  1
  Cu  Cu36  1  0.00000000  0.50000000  0.16819200  1
  Cu  Cu37  1  0.68976800  0.56870900  0.63630300  1
  Cu  Cu38  1  0.82810500  0.54133000  0.50000000  1
  Cu  Cu39  1  0.96194900  0.65921100  0.77005900  1
  Cu  Cu40  1  0.00000000  0.50000000  0.83180800  1
  Cu  Cu41  1  0.84078900  0.53805100  0.22994100  1
  Cu  Cu42  1  0.18283500  0.31716500  0.64858800  1
  Cu  Cu43  1  0.15921100  0.46194900  0.22994100  1
  Cu  Cu44  1  0.93129100  0.81023200  0.36369700  1
  Cu  Cu45  1  0.96194900  0.65921100  0.22994100  1
  Cu  Cu46  1  0.68283500  0.18283500  0.35141200  1
  Cu  Cu47  1  0.31716500  0.81716500  0.35141200  1
  Cu  Cu48  1  0.46194900  0.84078900  0.22994100  1
  Cu  Cu49  1  0.39223000  0.55079000  0.50000000  1
  Cu  Cu50  1  0.60777000  0.44921000  0.50000000  1
  Cu  Cu51  1  0.43129100  0.68976800  0.36369700  1
  Cu  Cu52  1  0.18283500  0.31716500  0.35141200  1
  Cu  Cu53  1  0.53805100  0.15921100  0.22994100  1
  Cu  Cu54  1  0.50000000  0.00000000  0.16819200  1
  Cu  Cu55  1  0.56870900  0.31023200  0.36369700  1
  Cu  Cu56  1  0.03805100  0.34078900  0.22994100  1
  Cu  Cu57  1  0.84078900  0.53805100  0.77005900  1
  Cu  Cu58  1  0.89223000  0.94921000  0.50000000  1
  Cu  Cu59  1  0.15921100  0.46194900  0.77005900  1
  Cu  Cu60  1  0.53805100  0.15921100  0.77005900  1
  Cu  Cu61  1  0.44921000  0.39223000  0.50000000  1
  Cu  Cu62  1  0.34078900  0.96194900  0.22994100  1
  Cu  Cu63  1  0.65921100  0.03805100  0.22994100  1
  Cu  Cu64  1  0.81716500  0.68283500  0.64858800  1
  Cu  Cu65  1  0.10777000  0.05079000  0.50000000  1
  Cu  Cu66  1  0.34078900  0.96194900  0.77005900  1
  Cu  Cu67  1  0.81023200  0.06870900  0.36369700  1
  Cu  Cu68  1  0.05079000  0.89223000  0.50000000  1
  Cu  Cu69  1  0.50000000  0.00000000  0.83180800  1
  Cu  Cu70  1  0.06870900  0.18976800  0.63630300  1
  Cu  Cu71  1  0.46194900  0.84078900  0.77005900  1
  Cu  Cu72  1  0.40783100  0.90783100  0.00000000  1
  Cu  Cu73  1  0.59216900  0.09216900  0.00000000  1
  Cu  Cu74  1  0.18976800  0.93129100  0.63630300  1
  Cu  Cu75  1  0.56870900  0.31023200  0.63630300  1
  Cu  Cu76  1  0.90783100  0.59216900  0.00000000  1
  Cu  Cu77  1  0.93129100  0.81023200  0.63630300  1
  Cu  Cu78  1  0.43129100  0.68976800  0.63630300  1
  Cu  Cu79  1  0.68283500  0.18283500  0.64858800  1
  Cu  Cu80  1  0.31023200  0.43129100  0.63630300  1
  Cu  Cu81  1  0.06870900  0.18976800  0.36369700  1
  Cu  Cu82  1  0.65921100  0.03805100  0.77005900  1
  Cu  Cu83  1  0.18976800  0.93129100  0.36369700  1
  Cu  Cu84  1  0.04133000  0.32810500  0.50000000  1
  Cu  Cu85  1  0.03805100  0.34078900  0.77005900  1
  Cu  Cu86  1  0.32810500  0.95867000  0.50000000  1
  Cu  Cu87  1  0.09216900  0.40783100  0.00000000  1
  Cu  Cu88  1  0.31716500  0.81716500  0.64858800  1
  Cu  Cu89  1  0.94921000  0.10777000  0.50000000  1
  Cu  Cu90  1  0.67189500  0.04133000  0.50000000  1
  Cu  Cu91  1  0.68976800  0.56870900  0.36369700  1
  Cu  Cu92  1  0.54133000  0.17189500  0.50000000  1
  Cu  Cu93  1  0.81716500  0.68283500  0.35141200  1
  Cu  Cu94  1  0.55079000  0.60777000  0.50000000  1
  Cu  Cu95  1  0.95867000  0.67189500  0.50000000  1
