# generated using pymatgen
data_Cu17Ni3C74
_symmetry_space_group_name_H-M   'P 1'
_cell_length_a   10.55572800
_cell_length_b   11.25574872
_cell_length_c   11.64479662
_cell_angle_alpha   89.92288467
_cell_angle_beta   89.99348062
_cell_angle_gamma   89.96016795
_symmetry_Int_Tables_number   1
_chemical_formula_structural   Cu17Ni3C74
_chemical_formula_sum   'Cu17 Ni3 C74'
_cell_volume   1383.54722207
_cell_formula_units_Z   1
loop_
 _symmetry_equiv_pos_site_id
 _symmetry_equiv_pos_as_xyz
  1  'x, y, z'
loop_
 _atom_site_type_symbol
 _atom_site_label
 _atom_site_symmetry_multiplicity
 _atom_site_fract_x
 _atom_site_fract_y
 _atom_site_fract_z
 _atom_site_occupancy
  Cu  Cu0  1  0.98277987  0.97653924  0.83869061  1
  Ni  Ni1  1  0.99255500  0.99995100  0.16960400  1
  Cu  Cu2  1  0.11351708  0.36948625  0.99136344  1
  Cu  Cu3  1  0.14462479  0.12723654  0.49746412  1
  Cu  Cu4  1  0.15709556  0.59831366  0.73765027  1
  Cu  Cu5  1  0.11653205  0.59858589  0.24674746  1
  Cu  Cu6  1  0.37309103  0.09603945  0.76663141  1
  Cu  Cu7  1  0.36517255  0.10724777  0.22848660  1
  Cu  Cu8  1  0.35771132  0.62615956  0.51305702  1
  Cu  Cu9  1  0.37047731  0.87013606  0.99829648  1
  Cu  Cu10  1  0.49203486  0.50272340  0.81298765  1
  Cu  Cu11  1  0.49185301  0.52207804  0.18387834  1
  Ni  Ni12  1  0.64279000  0.12931700  0.00408800  1
  Cu  Cu13  1  0.62640582  0.40363073  0.50813366  1
  Cu  Cu14  1  0.65038706  0.89000062  0.75484523  1
  Cu  Cu15  1  0.64897299  0.90704373  0.24218845  1
  Ni  Ni16  1  0.85781300  0.39993000  0.77216500  1
  Cu  Cu17  1  0.85724881  0.39604076  0.22964804  1
  Cu  Cu18  1  0.87043183  0.88728733  0.50663401  1
  Cu  Cu19  1  0.87037976  0.63059330  0.00464935  1
  C  C20  1  0.11530800  0.25488600  0.75414500  1
  C  C21  1  0.11623400  0.25481600  0.24524600  1
  C  C22  1  0.15165800  0.85688300  0.36285800  1
  C  C23  1  0.15100100  0.85743600  0.63609700  1
  C  C24  1  0.21512900  0.11114300  0.99983400  1
  C  C25  1  0.28562100  0.60871900  0.00027800  1
  C  C26  1  0.34857300  0.35568800  0.36477100  1
  C  C27  1  0.34719600  0.35425300  0.63568000  1
  C  C28  1  0.38518300  0.76139700  0.75635300  1
  C  C29  1  0.38478200  0.75591200  0.24371700  1
  C  C30  1  0.61544900  0.24432700  0.75445200  1
  C  C31  1  0.61562200  0.23850500  0.24529300  1
  C  C32  1  0.65056000  0.64621100  0.36482900  1
  C  C33  1  0.64949600  0.64488000  0.63471900  1
  C  C34  1  0.71706500  0.39050800  0.99990300  1
  C  C35  1  0.78820800  0.89177900  0.00021600  1
  C  C36  1  0.84909600  0.14761300  0.63495600  1
  C  C37  1  0.84994600  0.14700300  0.36597600  1
  C  C38  1  0.88451000  0.73769900  0.75483900  1
  C  C39  1  0.88484200  0.73750100  0.24565800  1
  C  C40  1  0.02145800  0.81096400  0.71457400  1
  C  C41  1  0.02330400  0.80913900  0.28416500  1
  C  C42  1  0.10317400  0.88942100  0.49916400  1
  C  C43  1  0.17074600  0.18344300  0.87774200  1
  C  C44  1  0.17166500  0.18495000  0.12108300  1
  C  C45  1  0.22865700  0.25265600  0.35118000  1
  C  C46  1  0.22620400  0.25221100  0.64702600  1
  C  C47  1  0.27312900  0.75428900  0.35083300  1
  C  C48  1  0.27135700  0.75402800  0.64906900  1
  C  C49  1  0.32574600  0.68162700  0.87735300  1
  C  C50  1  0.32685400  0.68418200  0.12158400  1
  C  C51  1  0.39666200  0.38999800  0.50059300  1
  C  C52  1  0.41997500  0.90092700  0.80261900  1
  C  C53  1  0.47373800  0.30475600  0.71634800  1
  C  C54  1  0.47719300  0.30779000  0.28670000  1
  C  C55  1  0.52429600  0.69018200  0.72003500  1
  C  C56  1  0.52699900  0.69331600  0.27760800  1
  C  C57  1  0.58377500  0.09887200  0.19775100  1
  C  C58  1  0.59483800  0.61548100  0.49942100  1
  C  C59  1  0.66345300  0.32062600  0.87768800  1
  C  C60  1  0.66448900  0.32269000  0.12323800  1
  C  C61  1  0.73020900  0.25066600  0.35240500  1
  C  C62  1  0.72802900  0.25023800  0.64755700  1
  C  C63  1  0.77046100  0.75016700  0.35371200  1
  C  C64  1  0.76858400  0.74981100  0.64780600  1
  C  C65  1  0.82764800  0.81643800  0.87706500  1
  C  C66  1  0.82871800  0.81778500  0.12402900  1
  C  C67  1  0.84817400  0.03355300  0.99969000  1
  C  C68  1  0.87990900  0.40528500  0.99892600  1
  C  C69  1  0.90601000  0.11779100  0.50084600  1
  C  C70  1  0.92051800  0.59819500  0.79940900  1
  C  C71  1  0.91936700  0.59772700  0.20108800  1
  C  C72  1  0.97159700  0.19478300  0.72254600  1
  C  C73  1  0.97384500  0.19317300  0.27889000  1
  C  C74  1  0.08075600  0.54943700  0.49964600  1
  C  C75  1  0.42512500  0.04994100  0.49951400  1
  C  C76  1  0.08730000  0.39423100  0.79727200  1
  C  C77  1  0.08668600  0.39405800  0.20252300  1
  C  C78  1  0.12903000  0.58243000  0.00217400  1
  C  C79  1  0.15457500  0.97283600  0.00049500  1
  C  C80  1  0.18214100  0.99219700  0.30930600  1
  C  C81  1  0.17907400  0.99440300  0.68723700  1
  C  C82  1  0.31971800  0.48928400  0.69137300  1
  C  C83  1  0.32074200  0.49076200  0.30897300  1
  C  C84  1  0.35201300  0.47344600  0.00108600  1
  C  C85  1  0.37168000  0.08738200  0.99924100  1
  C  C86  1  0.41671100  0.89453800  0.20002000  1
  C  C87  1  0.58643400  0.10574400  0.79967000  1
  C  C88  1  0.62531300  0.90552200  0.00089700  1
  C  C89  1  0.65154400  0.52836900  0.99899200  1
  C  C90  1  0.68087200  0.50674500  0.68354000  1
  C  C91  1  0.68122600  0.50809200  0.31593100  1
  C  C92  1  0.81446100  0.01057300  0.68428400  1
  C  C93  1  0.81818800  0.00837600  0.31877400  1
