# generated using pymatgen
data_CuNi3C4
_symmetry_space_group_name_H-M   'P 1'
_cell_length_a   7.61976088
_cell_length_b   7.61976088
_cell_length_c   7.61976088
_cell_angle_alpha   130.18212981
_cell_angle_beta   130.18212981
_cell_angle_gamma   73.11576786
_symmetry_Int_Tables_number   1
_chemical_formula_structural   CuNi3C4
_chemical_formula_sum   'Cu1 Ni3 C4'
_cell_volume   252.15498964
_cell_formula_units_Z   1
loop_
 _symmetry_equiv_pos_site_id
 _symmetry_equiv_pos_as_xyz
  1  'x, y, z'
loop_
 _atom_site_type_symbol
 _atom_site_label
 _atom_site_symmetry_multiplicity
 _atom_site_fract_x
 _atom_site_fract_y
 _atom_site_fract_z
 _atom_site_occupancy
  C  C0  1  0.50000000  0.50000000  0.00000000  1
  C  C1  1  0.25000000  0.75000000  0.50000000  1
  C  C2  1  0.00000000  0.00000000  0.00000000  1
  C  C3  1  0.75000000  0.25000000  0.50000000  1
  Ni  Ni4  1  0.14589000  0.12500000  0.52089000  1
  Cu  Cu5  1  0.88920943  0.42765647  0.05101762  1
  Ni  Ni6  1  0.37500000  0.85411000  0.97911000  1
  Ni  Ni7  1  0.60411000  0.62500000  0.47911000  1
