# generated using pymatgen
data_Cu2NiC2
_symmetry_space_group_name_H-M   'P 1'
_cell_length_a   7.47167003
_cell_length_b   7.47167003
_cell_length_c   8.08886353
_cell_angle_alpha   63.70403318
_cell_angle_beta   63.70403318
_cell_angle_gamma   59.37421136
_symmetry_Int_Tables_number   1
_chemical_formula_structural   Cu2NiC2
_chemical_formula_sum   'Cu4 Ni2 C4'
_cell_volume   334.25988095
_cell_formula_units_Z   2
loop_
 _symmetry_equiv_pos_site_id
 _symmetry_equiv_pos_as_xyz
  1  'x, y, z'
loop_
 _atom_site_type_symbol
 _atom_site_label
 _atom_site_symmetry_multiplicity
 _atom_site_fract_x
 _atom_site_fract_y
 _atom_site_fract_z
 _atom_site_occupancy
  C  C0  1  0.17956900  0.98358800  0.49741200  1
  C  C1  1  0.81117400  0.67621600  0.50593800  1
  C  C2  1  0.98358800  0.17956900  0.99741200  1
  C  C3  1  0.67621600  0.81117400  0.00593800  1
  Cu  Cu4  1  0.30486866  0.14558637  0.10594244  1
  Ni  Ni5  1  0.97908800  0.78199000  0.12026000  1
  Cu  Cu6  1  0.64252985  0.42881797  0.15571420  1
  Cu  Cu7  1  0.12392147  0.30874398  0.59753493  1
  Ni  Ni8  1  0.78199000  0.97908800  0.62026000  1
  Cu  Cu9  1  0.45272614  0.61574846  0.64044923  1
