# generated using pymatgen
data_CuC6
_symmetry_space_group_name_H-M   'P 1'
_cell_length_a   5.72448935
_cell_length_b   5.64094575
_cell_length_c   9.29208632
_cell_angle_alpha   90.42190806
_cell_angle_beta   89.79212665
_cell_angle_gamma   119.51840664
_symmetry_Int_Tables_number   1
_chemical_formula_structural   CuC6
_chemical_formula_sum   'Cu4 C24'
_cell_volume   261.10064545
_cell_formula_units_Z   4
loop_
 _symmetry_equiv_pos_site_id
 _symmetry_equiv_pos_as_xyz
  1  'x, y, z'
loop_
 _atom_site_type_symbol
 _atom_site_label
 _atom_site_symmetry_multiplicity
 _atom_site_fract_x
 _atom_site_fract_y
 _atom_site_fract_z
 _atom_site_occupancy
  Cu  Cu0  1  0.30855275  0.67393387  0.89549771  1
  Cu  Cu1  1  0.99271816  0.98761604  0.99621136  1
  Cu  Cu2  1  0.04694637  0.01882023  0.47936154  1
  Cu  Cu3  1  0.66216312  0.31431178  0.38038491  1
  C  C4  1  0.32890600  0.66179300  0.49327200  1
  C  C5  1  0.67109400  0.33288600  0.99327200  1
  C  C6  1  0.17033400  0.83203400  0.21336000  1
  C  C7  1  0.16963600  0.33947600  0.21405600  1
  C  C8  1  0.66119400  0.82905700  0.21645200  1
  C  C9  1  0.33880600  0.16786400  0.71645200  1
  C  C10  1  0.82966600  0.66169900  0.71336000  1
  C  C11  1  0.83036400  0.16984000  0.71405600  1
  C  C12  1  0.15687000  0.83829400  0.60535600  1
  C  C13  1  0.03512400  0.52119100  0.33054500  1
  C  C14  1  0.31418900  0.65562800  0.10505500  1
  C  C15  1  0.02127700  0.01249300  0.31164400  1
  C  C16  1  0.97872300  0.99121600  0.81164400  1
  C  C17  1  0.15183900  0.32202800  0.60395600  1
  C  C18  1  0.47852600  0.96259000  0.33175900  1
  C  C19  1  0.47244600  0.50726600  0.33566500  1
  C  C20  1  0.32025200  0.15898700  0.10171300  1
  C  C21  1  0.67974700  0.83873400  0.60171300  1
  C  C22  1  0.52147400  0.48406300  0.83175900  1
  C  C23  1  0.52755400  0.03482000  0.83566500  1
  C  C24  1  0.68581100  0.34143800  0.60505500  1
  C  C25  1  0.84312900  0.68142300  0.10535600  1
  C  C26  1  0.96487600  0.48606700  0.83054500  1
  C  C27  1  0.84816100  0.17018900  0.10395600  1
