# generated using pymatgen
data_CuC4
_symmetry_space_group_name_H-M   'P 1'
_cell_length_a   5.22651600
_cell_length_b   5.38720600
_cell_length_c   7.45329900
_cell_angle_alpha   90.00000000
_cell_angle_beta   90.00000000
_cell_angle_gamma   90.00000000
_symmetry_Int_Tables_number   1
_chemical_formula_structural   CuC4
_chemical_formula_sum   'Cu4 C16'
_cell_volume   209.85745943
_cell_formula_units_Z   4
loop_
 _symmetry_equiv_pos_site_id
 _symmetry_equiv_pos_as_xyz
  1  'x, y, z'
loop_
 _atom_site_type_symbol
 _atom_site_label
 _atom_site_symmetry_multiplicity
 _atom_site_fract_x
 _atom_site_fract_y
 _atom_site_fract_z
 _atom_site_occupancy
  Cu  Cu0  1  0.94302618  0.90432502  0.75178074  1
  Cu  Cu1  1  0.47344449  0.57043474  0.23832233  1
  Cu  Cu2  1  0.52007272  0.44126253  0.75943858  1
  Cu  Cu3  1  0.98211805  0.07158616  0.22998706  1
  C  C4  1  0.00000000  0.50000000  0.00000000  1
  C  C5  1  0.50000000  0.00000000  0.00000000  1
  C  C6  1  0.50000000  0.00000000  0.50000000  1
  C  C7  1  0.00000000  0.50000000  0.50000000  1
  C  C8  1  0.70600900  0.29388700  0.45477400  1
  C  C9  1  0.20600900  0.20611300  0.54522600  1
  C  C10  1  0.79399100  0.79388700  0.04522600  1
  C  C11  1  0.29399100  0.70611300  0.95477400  1
  C  C12  1  0.29399100  0.70611300  0.54522600  1
  C  C13  1  0.79399100  0.79388700  0.45477400  1
  C  C14  1  0.20600900  0.20611300  0.95477400  1
  C  C15  1  0.70600900  0.29388700  0.04522600  1
  C  C16  1  0.08577900  0.47703900  0.25000000  1
  C  C17  1  0.58577900  0.02296100  0.75000000  1
  C  C18  1  0.41422100  0.97703900  0.25000000  1
  C  C19  1  0.91422100  0.52296100  0.75000000  1
