# generated using pymatgen
data_Cu7NiC68
_symmetry_space_group_name_H-M   'P 1'
_cell_length_a   10.64768200
_cell_length_b   10.56880300
_cell_length_c   11.00651213
_cell_angle_alpha   88.88391100
_cell_angle_beta   90.00000000
_cell_angle_gamma   90.00000000
_symmetry_Int_Tables_number   1
_chemical_formula_structural   Cu7NiC68
_chemical_formula_sum   'Cu7 Ni1 C68'
_cell_volume   1238.36363522
_cell_formula_units_Z   1
loop_
 _symmetry_equiv_pos_site_id
 _symmetry_equiv_pos_as_xyz
  1  'x, y, z'
loop_
 _atom_site_type_symbol
 _atom_site_label
 _atom_site_symmetry_multiplicity
 _atom_site_fract_x
 _atom_site_fract_y
 _atom_site_fract_z
 _atom_site_occupancy
  C  C0  1  0.59217900  0.93934700  0.32374900  1
  C  C1  1  0.85579800  0.28845300  0.47230000  1
  C  C2  1  0.09217900  0.06065300  0.67625100  1
  C  C3  1  0.71573900  0.56091800  0.83402200  1
  C  C4  1  0.44528900  0.19422700  0.97409100  1
  C  C5  1  0.94528900  0.80577300  0.02590900  1
  C  C6  1  0.35579800  0.71154700  0.52770000  1
  C  C7  1  0.21573900  0.43908200  0.16597800  1
  Cu  Cu8  1  0.80818911  0.18494192  0.08513008  1
  Cu  Cu9  1  0.99796807  0.67138280  0.43768457  1
  Cu  Cu10  1  0.06923512  0.42200686  0.82038941  1
  Cu  Cu11  1  0.57039456  0.58147359  0.17216695  1
  Cu  Cu12  1  0.23806539  0.06898934  0.30404445  1
  Cu  Cu13  1  0.75009321  0.92805924  0.69740960  1
  Ni  Ni14  1  0.30015200  0.81908700  0.91124900  1
  Cu  Cu15  1  0.49231401  0.32173700  0.56491252  1
  C  C16  1  0.87355200  0.47727900  0.16541900  1
  C  C17  1  0.68477500  0.62274600  0.48616800  1
  C  C18  1  0.61430900  0.87586600  0.99005300  1
  C  C19  1  0.76672000  0.24413700  0.78630800  1
  C  C20  1  0.26672000  0.75586300  0.21369200  1
  C  C21  1  0.93375500  0.96260200  0.34555800  1
  C  C22  1  0.43375500  0.03739800  0.65444200  1
  C  C23  1  0.53916000  0.28175100  0.26989800  1
  C  C24  1  0.11430900  0.12413400  0.00994700  1
  C  C25  1  0.37355200  0.52272100  0.83458100  1
  C  C26  1  0.03916000  0.71824900  0.73010200  1
  C  C27  1  0.18477500  0.37725400  0.51383200  1
  C  C28  1  0.66811100  0.73379700  0.56429100  1
  C  C29  1  0.63358500  0.77240000  0.08195400  1
  C  C30  1  0.89195000  0.29663600  0.74844600  1
  C  C31  1  0.26914800  0.89442100  0.21948100  1
  C  C32  1  0.35990600  0.94396300  0.72320300  1
  C  C33  1  0.15624300  0.17172300  0.13125700  1
  C  C34  1  0.07881700  0.76246800  0.59935800  1
  C  C35  1  0.61095900  0.18972700  0.18843000  1
  C  C36  1  0.75380000  0.51985500  0.10666500  1
  C  C37  1  0.85335200  0.91839600  0.46281200  1
  C  C38  1  0.23481400  0.71690300  0.08662200  1
  C  C39  1  0.36383300  0.65638400  0.78398200  1
  C  C40  1  0.60766200  0.51631600  0.53579000  1
  C  C41  1  0.13358500  0.22760000  0.91804600  1
  C  C42  1  0.76914800  0.10557900  0.78051900  1
  C  C43  1  0.17165800  0.69622000  0.29701400  1
  C  C44  1  0.97838700  0.08677100  0.01660900  1
  C  C45  1  0.96187100  0.43394500  0.04547500  1
  C  C46  1  0.16811100  0.26620300  0.43570900  1
  C  C47  1  0.96524300  0.53194800  0.94656800  1
  C  C48  1  0.47838700  0.91322900  0.98339100  1
  C  C49  1  0.86383300  0.34361600  0.21601800  1
  C  C50  1  0.55396300  0.98999900  0.61162000  1
  C  C51  1  0.93790200  0.83696400  0.28789600  1
  C  C52  1  0.25380000  0.48014500  0.89333500  1
  C  C53  1  0.73481400  0.28309700  0.91337800  1
  C  C54  1  0.84570400  0.01793100  0.55549900  1
  C  C55  1  0.67165800  0.30378000  0.70298600  1
  C  C56  1  0.34570400  0.98206900  0.44450100  1
  C  C57  1  0.90069500  0.75441200  0.74656300  1
  C  C58  1  0.32013900  0.41969600  0.51799900  1
  C  C59  1  0.65624300  0.82827700  0.86874300  1
  C  C60  1  0.35335200  0.08160400  0.53718800  1
  C  C61  1  0.85990600  0.05603700  0.27679700  1
  C  C62  1  0.39195000  0.70336400  0.25155400  1
  C  C63  1  0.57881700  0.23753200  0.40064200  1
  C  C64  1  0.40069500  0.24558800  0.25343700  1
  C  C65  1  0.10766200  0.48368400  0.46421000  1
  C  C66  1  0.18975200  0.01354300  0.97419000  1
  C  C67  1  0.05396300  0.01000100  0.38838000  1
  C  C68  1  0.14264800  0.34187600  0.63988900  1
  C  C69  1  0.82013900  0.58030400  0.48200100  1
  C  C70  1  0.43790200  0.16303600  0.71210400  1
  C  C71  1  0.68975200  0.98645700  0.02581000  1
  C  C72  1  0.11095900  0.81027300  0.81157000  1
  C  C73  1  0.64264800  0.65812400  0.36011100  1
  C  C74  1  0.46524300  0.46805200  0.05343200  1
  C  C75  1  0.46187100  0.56605500  0.95452500  1
