# generated using pymatgen
data_Cu4NiC11
_symmetry_space_group_name_H-M   'P 1'
_cell_length_a   9.81485754
_cell_length_b   8.40622600
_cell_length_c   11.52614471
_cell_angle_alpha   90.00000000
_cell_angle_beta   101.24791489
_cell_angle_gamma   90.00000000
_symmetry_Int_Tables_number   1
_chemical_formula_structural   Cu4NiC11
_chemical_formula_sum   'Cu16 Ni4 C44'
_cell_volume   932.70909771
_cell_formula_units_Z   4
loop_
 _symmetry_equiv_pos_site_id
 _symmetry_equiv_pos_as_xyz
  1  'x, y, z'
loop_
 _atom_site_type_symbol
 _atom_site_label
 _atom_site_symmetry_multiplicity
 _atom_site_fract_x
 _atom_site_fract_y
 _atom_site_fract_z
 _atom_site_occupancy
  Ni  Ni0  1  0.03761400  0.01537300  0.78355500  1
  Ni  Ni1  1  0.46238600  0.51537300  0.71644500  1
  Ni  Ni2  1  0.53761400  0.48462700  0.28355500  1
  Ni  Ni3  1  0.96238600  0.98462700  0.21644500  1
  Cu  Cu4  1  0.18178200  0.39566200  0.82844600  1
  Cu  Cu5  1  0.06343500  0.38850900  0.24135900  1
  Cu  Cu6  1  0.31821800  0.89566200  0.67155400  1
  Cu  Cu7  1  0.26035300  0.00452700  0.42619600  1
  Cu  Cu8  1  0.28400700  0.36952100  0.45216000  1
  Cu  Cu9  1  0.21599300  0.86952100  0.04784000  1
  Cu  Cu10  1  0.23964700  0.50452700  0.07380400  1
  Cu  Cu11  1  0.43656500  0.88850900  0.25864100  1
  Cu  Cu12  1  0.56343500  0.11149100  0.74135900  1
  Cu  Cu13  1  0.76035300  0.49547300  0.92619600  1
  Cu  Cu14  1  0.78400700  0.13047900  0.95216000  1
  Cu  Cu15  1  0.71599300  0.63047900  0.54784000  1
  Cu  Cu16  1  0.73964700  0.99547300  0.57380400  1
  Cu  Cu17  1  0.68178200  0.10433800  0.32844600  1
  Cu  Cu18  1  0.93656500  0.61149100  0.75864100  1
  Cu  Cu19  1  0.81821800  0.60433800  0.17155400  1
  C  C20  1  0.08932000  0.55072400  0.77004000  1
  C  C21  1  0.15334100  0.40904800  0.96551700  1
  C  C22  1  0.11246600  0.25030500  0.77469400  1
  C  C23  1  0.20373200  0.94736700  0.93071800  1
  C  C24  1  0.16989300  0.93328100  0.66843300  1
  C  C25  1  0.07324700  0.22034100  0.20594700  1
  C  C26  1  0.12470400  0.93475200  0.37428000  1
  C  C27  1  0.13157800  0.42586800  0.37446900  1
  C  C28  1  0.10942000  0.88294900  0.12231200  1
  C  C29  1  0.13207400  0.51204900  0.16278900  1
  C  C30  1  0.25497000  0.17962100  0.47220400  1
  C  C31  1  0.33010700  0.43328100  0.83156700  1
  C  C32  1  0.29626800  0.44736700  0.56928200  1
  C  C33  1  0.38753400  0.75030500  0.72530600  1
  C  C34  1  0.34665900  0.90904800  0.53448300  1
  C  C35  1  0.41068000  0.05072400  0.72996000  1
  C  C36  1  0.24503000  0.67962100  0.02779600  1
  C  C37  1  0.36792600  0.01204900  0.33721100  1
  C  C38  1  0.39058000  0.38294900  0.37768800  1
  C  C39  1  0.36842200  0.92586800  0.12553100  1
  C  C40  1  0.37529600  0.43475200  0.12572000  1
  C  C41  1  0.42675300  0.72034100  0.29405300  1
  C  C42  1  0.57324700  0.27965900  0.70594700  1
  C  C43  1  0.62470400  0.56524800  0.87428000  1
  C  C44  1  0.63157800  0.07413200  0.87446900  1
  C  C45  1  0.60942000  0.61705100  0.62231200  1
  C  C46  1  0.63207400  0.98795100  0.66278900  1
  C  C47  1  0.75497000  0.32037900  0.97220400  1
  C  C48  1  0.58932000  0.94927600  0.27004000  1
  C  C49  1  0.65334100  0.09095200  0.46551700  1
  C  C50  1  0.61246600  0.24969500  0.27469500  1
  C  C51  1  0.70373200  0.55263300  0.43071800  1
  C  C52  1  0.66989300  0.56671900  0.16843300  1
  C  C53  1  0.74503000  0.82037900  0.52779600  1
  C  C54  1  0.86792600  0.48795100  0.83721100  1
  C  C55  1  0.89058000  0.11705100  0.87768800  1
  C  C56  1  0.86842200  0.57413200  0.62553100  1
  C  C57  1  0.87529600  0.06524800  0.62572000  1
  C  C58  1  0.92675300  0.77965900  0.79405300  1
  C  C59  1  0.83010700  0.06671900  0.33156700  1
  C  C60  1  0.79626800  0.05263300  0.06928200  1
  C  C61  1  0.88753400  0.74969500  0.22530500  1
  C  C62  1  0.84665900  0.59095200  0.03448300  1
  C  C63  1  0.91068000  0.44927600  0.22996000  1
