# generated using pymatgen
data_CuC3
_symmetry_space_group_name_H-M   'P 1'
_cell_length_a   6.79100800
_cell_length_b   11.08923467
_cell_length_c   14.31725521
_cell_angle_alpha   100.72742970
_cell_angle_beta   89.99916656
_cell_angle_gamma   107.82848094
_symmetry_Int_Tables_number   1
_chemical_formula_structural   CuC3
_chemical_formula_sum   'Cu20 C60'
_cell_volume   1006.60260831
_cell_formula_units_Z   20
loop_
 _symmetry_equiv_pos_site_id
 _symmetry_equiv_pos_as_xyz
  1  'x, y, z'
loop_
 _atom_site_type_symbol
 _atom_site_label
 _atom_site_symmetry_multiplicity
 _atom_site_fract_x
 _atom_site_fract_y
 _atom_site_fract_z
 _atom_site_occupancy
  C  C0  1  0.72819100  0.22469500  0.65478200  1
  C  C1  1  0.50340600  0.77534600  0.84522800  1
  C  C2  1  0.27180500  0.77530600  0.34521800  1
  C  C3  1  0.49658800  0.22465400  0.15477400  1
  C  C4  1  0.72038000  0.43512800  0.91611300  1
  C  C5  1  0.28533100  0.56491100  0.58387400  1
  C  C6  1  0.27962500  0.56487500  0.08389000  1
  C  C7  1  0.71466400  0.43508900  0.41612400  1
  C  C8  1  0.99857000  0.73426500  0.94644300  1
  C  C9  1  0.26431200  0.26571500  0.55357200  1
  C  C10  1  0.00142800  0.26573300  0.05355900  1
  C  C11  1  0.73568500  0.73428600  0.44642800  1
  C  C12  1  0.22716200  0.43734900  0.81754600  1
  C  C13  1  0.78979700  0.56263500  0.68246300  1
  C  C14  1  0.77284000  0.56265000  0.18245600  1
  C  C15  1  0.21020100  0.43736400  0.31753500  1
  C  C16  1  0.48581300  0.12190000  0.88295900  1
  C  C17  1  0.36383500  0.87811000  0.61704800  1
  C  C18  1  0.51418500  0.87810000  0.11704200  1
  C  C19  1  0.63616300  0.12189100  0.38295200  1
  Cu  Cu20  1  0.98105457  0.81339079  0.03779137  1
  Cu  Cu21  1  0.19706210  0.15841222  0.47132868  1
  Cu  Cu22  1  0.99543364  0.16934963  0.97008064  1
  Cu  Cu23  1  0.79128950  0.81693404  0.53260556  1
  Cu  Cu24  1  0.29466394  0.35643092  0.78790589  1
  Cu  Cu25  1  0.93159730  0.65411716  0.73950720  1
  Cu  Cu26  1  0.67647394  0.62544736  0.24410377  1
  Cu  Cu27  1  0.03365529  0.35315883  0.25673671  1
  Cu  Cu28  1  0.26978517  0.07392225  0.86717290  1
  Cu  Cu29  1  0.18229419  0.90609981  0.62740471  1
  Cu  Cu30  1  0.73771795  0.90030947  0.14367157  1
  Cu  Cu31  1  0.80137150  0.07067027  0.36212212  1
  Cu  Cu32  1  0.94494874  0.01261944  0.66892264  1
  Cu  Cu33  1  0.89926432  0.98835883  0.83801575  1
  Cu  Cu34  1  0.08810660  0.99015701  0.30927174  1
  Cu  Cu35  1  0.08644155  0.00209193  0.18506564  1
  Cu  Cu36  1  0.09723347  0.12698607  0.68598651  1
  Cu  Cu37  1  0.99163890  0.88661050  0.83525007  1
  Cu  Cu38  1  0.86837034  0.85777543  0.32361325  1
  Cu  Cu39  1  0.99986992  0.13216372  0.18787848  1
  C  C40  1  0.52257900  0.21581900  0.98058700  1
  C  C41  1  0.30666600  0.78418300  0.51942500  1
  C  C42  1  0.47742000  0.78417900  0.01941200  1
  C  C43  1  0.69333300  0.21581600  0.48057700  1
  C  C44  1  0.77290800  0.68094500  0.90263600  1
  C  C45  1  0.09198700  0.31906100  0.59737900  1
  C  C46  1  0.22709500  0.31905700  0.09736500  1
  C  C47  1  0.90801100  0.68093900  0.40261900  1
  C  C48  1  0.15336300  0.80645300  0.88242900  1
  C  C49  1  0.34688500  0.19351600  0.61757300  1
  C  C50  1  0.84664100  0.19355000  0.11756900  1
  C  C51  1  0.65311400  0.80648300  0.38242700  1
  C  C52  1  0.36067200  0.47656000  0.91381400  1
  C  C53  1  0.88411800  0.52337100  0.58620600  1
  C  C54  1  0.63933600  0.52344100  0.08618600  1
  C  C55  1  0.11587600  0.47662900  0.41379200  1
  C  C56  1  0.26655300  0.55599300  0.76886500  1
  C  C57  1  0.71045700  0.44403900  0.73118400  1
  C  C58  1  0.73344900  0.44400700  0.23113600  1
  C  C59  1  0.28954300  0.55596300  0.26881600  1
  C  C60  1  0.05108900  0.61668000  0.97067200  1
  C  C61  1  0.43441100  0.38329400  0.52932500  1
  C  C62  1  0.94891400  0.38332100  0.02932600  1
  C  C63  1  0.56559000  0.61670200  0.47067400  1
  C  C64  1  0.56839900  0.00819800  0.87755800  1
  C  C65  1  0.56000500  0.99186500  0.62239300  1
  C  C66  1  0.43160100  0.99180000  0.12244100  1
  C  C67  1  0.43999300  0.00813200  0.37760800  1
  C  C68  1  0.57529300  0.20932900  0.80991900  1
  C  C69  1  0.36603500  0.79066000  0.69005900  1
  C  C70  1  0.42470800  0.79067100  0.19008100  1
  C  C71  1  0.63396500  0.20934000  0.30994400  1
  C  C72  1  0.99626100  0.36976500  0.82488400  1
  C  C73  1  0.62654000  0.63026100  0.67508700  1
  C  C74  1  0.00374500  0.63023500  0.17511700  1
  C  C75  1  0.37346000  0.36974200  0.32491300  1
  C  C76  1  0.97711600  0.10143100  0.69692600  1
  C  C77  1  0.87563300  0.89856800  0.80309500  1
  C  C78  1  0.02288500  0.89856700  0.30307400  1
  C  C79  1  0.12436600  0.10143000  0.19690400  1
