# generated using pymatgen
data_Cu9Ni3C44
_symmetry_space_group_name_H-M   'P 1'
_cell_length_a   6.19559800
_cell_length_b   10.11075500
_cell_length_c   20.81000100
_cell_angle_alpha   90.00000000
_cell_angle_beta   90.00000000
_cell_angle_gamma   90.00000000
_symmetry_Int_Tables_number   1
_chemical_formula_structural   Cu9Ni3C44
_chemical_formula_sum   'Cu9 Ni3 C44'
_cell_volume   1303.58369227
_cell_formula_units_Z   1
loop_
 _symmetry_equiv_pos_site_id
 _symmetry_equiv_pos_as_xyz
  1  'x, y, z'
loop_
 _atom_site_type_symbol
 _atom_site_label
 _atom_site_symmetry_multiplicity
 _atom_site_fract_x
 _atom_site_fract_y
 _atom_site_fract_z
 _atom_site_occupancy
  C  C0  1  0.49080000  0.25000000  0.66288400  1
  C  C1  1  0.50920000  0.25000000  0.16288400  1
  C  C2  1  0.50920000  0.75000000  0.33711600  1
  C  C3  1  0.49080000  0.75000000  0.83711600  1
  Cu  Cu4  1  0.93388224  0.75757551  0.51023955  1
  Cu  Cu5  1  0.00630691  0.63989886  0.17687599  1
  Ni  Ni6  1  0.05856000  0.75000000  0.01032300  1
  Cu  Cu7  1  0.99560187  0.12693052  0.82928672  1
  Ni  Ni8  1  0.94144000  0.25000000  0.98967700  1
  Cu  Cu9  1  0.00239303  0.89292549  0.16769881  1
  Cu  Cu10  1  0.00929419  0.62503186  0.67500875  1
  Cu  Cu11  1  0.95987834  0.88938932  0.67438912  1
  Ni  Ni12  1  0.99481700  0.37520600  0.82897800  1
  Cu  Cu13  1  0.98875875  0.11361603  0.32486881  1
  Cu  Cu14  1  0.08536661  0.25001540  0.48420491  1
  Cu  Cu15  1  0.99110332  0.37218330  0.32776705  1
  C  C16  1  0.69703700  0.75000000  0.13428900  1
  C  C17  1  0.69658900  0.25000000  0.46249500  1
  C  C18  1  0.85562500  0.07892300  0.92392600  1
  C  C19  1  0.85562500  0.42107700  0.92392600  1
  C  C20  1  0.85562500  0.57892300  0.57607400  1
  C  C21  1  0.14437500  0.92107700  0.07607400  1
  C  C22  1  0.30341100  0.25000000  0.96249500  1
  C  C23  1  0.14437500  0.07892300  0.42392600  1
  C  C24  1  0.14437500  0.42107700  0.42392600  1
  C  C25  1  0.30296300  0.75000000  0.63428900  1
  C  C26  1  0.30341100  0.75000000  0.53750500  1
  C  C27  1  0.69658900  0.75000000  0.03750500  1
  C  C28  1  0.30296300  0.25000000  0.86571100  1
  C  C29  1  0.14437500  0.57892300  0.07607400  1
  C  C30  1  0.85562500  0.92107700  0.57607400  1
  C  C31  1  0.69703700  0.25000000  0.36571100  1
  C  C32  1  0.34783000  0.38457600  0.61360800  1
  C  C33  1  0.72794600  0.25000000  0.60295500  1
  C  C34  1  0.63350200  0.61669100  0.78703000  1
  C  C35  1  0.25195900  0.75000000  0.77658200  1
  C  C36  1  0.27205400  0.75000000  0.39704500  1
  C  C37  1  0.74804100  0.75000000  0.27658200  1
  C  C38  1  0.65217000  0.88457600  0.38639200  1
  C  C39  1  0.65217000  0.11542400  0.11360800  1
  C  C40  1  0.36649800  0.38330900  0.21297000  1
  C  C41  1  0.65217000  0.38457600  0.11360800  1
  C  C42  1  0.36649800  0.88330900  0.28703000  1
  C  C43  1  0.63350200  0.88330900  0.78703000  1
  C  C44  1  0.36649800  0.61669100  0.28703000  1
  C  C45  1  0.25195900  0.25000000  0.72341800  1
  C  C46  1  0.63350200  0.11669100  0.71297000  1
  C  C47  1  0.63350200  0.38330900  0.71297000  1
  C  C48  1  0.36649800  0.11669100  0.21297000  1
  C  C49  1  0.65217000  0.61542400  0.38639200  1
  C  C50  1  0.34783000  0.61542400  0.88639200  1
  C  C51  1  0.27205400  0.25000000  0.10295500  1
  C  C52  1  0.34783000  0.88457600  0.88639200  1
  C  C53  1  0.74804100  0.25000000  0.22341800  1
  C  C54  1  0.72794600  0.75000000  0.89704500  1
  C  C55  1  0.34783000  0.11542400  0.61360800  1
