# generated using pymatgen
data_Cu7Ni
_symmetry_space_group_name_H-M   'P 1'
_cell_length_a   6.64772858
_cell_length_b   6.64772858
_cell_length_c   5.25756300
_cell_angle_alpha   90.00000000
_cell_angle_beta   90.00000000
_cell_angle_gamma   120.00000581
_symmetry_Int_Tables_number   1
_chemical_formula_structural   Cu7Ni
_chemical_formula_sum   'Cu7 Ni1'
_cell_volume   201.21560134
_cell_formula_units_Z   1
loop_
 _symmetry_equiv_pos_site_id
 _symmetry_equiv_pos_as_xyz
  1  'x, y, z'
loop_
 _atom_site_type_symbol
 _atom_site_label
 _atom_site_symmetry_multiplicity
 _atom_site_fract_x
 _atom_site_fract_y
 _atom_site_fract_z
 _atom_site_occupancy
  Ni  Ni0  1  0.00000000  0.00000000  0.50000000  1
  Cu  Cu1  1  0.00462800  0.50231400  0.50000000  1
  Cu  Cu2  1  0.49768600  0.50231400  0.50000000  1
  Cu  Cu3  1  0.49768600  0.99537200  0.50000000  1
  Cu  Cu4  1  0.17019800  0.34039600  0.00000000  1
  Cu  Cu5  1  0.17019800  0.82980200  0.00000000  1
  Cu  Cu6  1  0.65960400  0.82980200  0.00000000  1
  Cu  Cu7  1  0.66666700  0.33333300  0.00000000  1
