# generated using pymatgen
data_Cu10NiC2
_symmetry_space_group_name_H-M   'P 1'
_cell_length_a   12.38595776
_cell_length_b   12.38595776
_cell_length_c   5.38947800
_cell_angle_alpha   90.00000000
_cell_angle_beta   90.00000000
_cell_angle_gamma   119.99999871
_symmetry_Int_Tables_number   1
_chemical_formula_structural   Cu10NiC2
_chemical_formula_sum   'Cu30 Ni3 C6'
_cell_volume   716.03875689
_cell_formula_units_Z   3
loop_
 _symmetry_equiv_pos_site_id
 _symmetry_equiv_pos_as_xyz
  1  'x, y, z'
loop_
 _atom_site_type_symbol
 _atom_site_label
 _atom_site_symmetry_multiplicity
 _atom_site_fract_x
 _atom_site_fract_y
 _atom_site_fract_z
 _atom_site_occupancy
  Ni  Ni0  1  0.00000000  0.50000000  0.00000000  1
  Ni  Ni1  1  0.50000000  0.50000000  0.00000000  1
  Ni  Ni2  1  0.50000000  0.00000000  0.00000000  1
  C  C3  1  0.81396300  0.35756600  0.49041600  1
  C  C4  1  0.64243400  0.45639700  0.49041600  1
  C  C5  1  0.54360300  0.18603700  0.49041600  1
  C  C6  1  0.18603700  0.64243400  0.50958400  1
  C  C7  1  0.35756600  0.54360300  0.50958400  1
  C  C8  1  0.45639700  0.81396300  0.50958400  1
  Cu  Cu9  1  0.68786900  0.22782000  0.55281500  1
  Cu  Cu10  1  0.77218000  0.46004900  0.55281500  1
  Cu  Cu11  1  0.53995100  0.31213100  0.55281500  1
  Cu  Cu12  1  0.31213100  0.77218000  0.44718500  1
  Cu  Cu13  1  0.22782000  0.53995100  0.44718500  1
  Cu  Cu14  1  0.46004900  0.68786900  0.44718500  1
  Cu  Cu15  1  0.51641000  0.15826600  0.21835300  1
  Cu  Cu16  1  0.84173400  0.35814400  0.21835300  1
  Cu  Cu17  1  0.64185600  0.48359000  0.21835300  1
  Cu  Cu18  1  0.48359000  0.84173400  0.78164700  1
  Cu  Cu19  1  0.15826600  0.64185600  0.78164700  1
  Cu  Cu20  1  0.35814400  0.51641000  0.78164700  1
  Cu  Cu21  1  0.37531200  0.46343700  0.32492200  1
  Cu  Cu22  1  0.53656300  0.91187500  0.32492200  1
  Cu  Cu23  1  0.08812500  0.62468800  0.32492200  1
  Cu  Cu24  1  0.62468800  0.53656300  0.67507800  1
  Cu  Cu25  1  0.46343700  0.08812500  0.67507800  1
  Cu  Cu26  1  0.91187500  0.37531200  0.67507800  1
  Cu  Cu27  1  0.30272600  0.23401900  0.86778700  1
  Cu  Cu28  1  0.76598100  0.06870700  0.86778700  1
  Cu  Cu29  1  0.93129300  0.69727400  0.86778700  1
  Cu  Cu30  1  0.69727400  0.76598100  0.13221300  1
  Cu  Cu31  1  0.23401900  0.93129300  0.13221300  1
  Cu  Cu32  1  0.06870700  0.30272600  0.13221300  1
  Cu  Cu33  1  0.79759700  0.04334200  0.66940600  1
  Cu  Cu34  1  0.95665800  0.75425500  0.66940600  1
  Cu  Cu35  1  0.24574500  0.20240300  0.66940600  1
  Cu  Cu36  1  0.20240300  0.95665800  0.33059400  1
  Cu  Cu37  1  0.04334200  0.24574500  0.33059400  1
  Cu  Cu38  1  0.75425500  0.79759700  0.33059400  1
