# generated using pymatgen
data_Cu11Ni3C10
_symmetry_space_group_name_H-M   'P 1'
_cell_length_a   7.39154300
_cell_length_b   9.42046534
_cell_length_c   9.94798749
_cell_angle_alpha   81.13778708
_cell_angle_beta   77.75685920
_cell_angle_gamma   70.45298253
_symmetry_Int_Tables_number   1
_chemical_formula_structural   Cu11Ni3C10
_chemical_formula_sum   'Cu22 Ni6 C20'
_cell_volume   635.32481847
_cell_formula_units_Z   2
loop_
 _symmetry_equiv_pos_site_id
 _symmetry_equiv_pos_as_xyz
  1  'x, y, z'
loop_
 _atom_site_type_symbol
 _atom_site_label
 _atom_site_symmetry_multiplicity
 _atom_site_fract_x
 _atom_site_fract_y
 _atom_site_fract_z
 _atom_site_occupancy
  C  C0  1  0.06283000  0.48669400  0.15871200  1
  C  C1  1  0.56780900  0.52405500  0.66110300  1
  C  C2  1  0.24564600  0.73485500  0.87961000  1
  C  C3  1  0.65477200  0.84837000  0.73132600  1
  C  C4  1  0.75435400  0.26514500  0.12039000  1
  C  C5  1  0.34522800  0.15163000  0.26867400  1
  C  C6  1  0.72286900  0.73593700  0.40354400  1
  C  C7  1  0.43219100  0.47594500  0.33889700  1
  C  C8  1  0.27713100  0.26406300  0.59645600  1
  C  C9  1  0.93717000  0.51330600  0.84128800  1
  C  C10  1  0.87038300  0.12598700  0.76885200  1
  C  C11  1  0.12961700  0.87401300  0.23114800  1
  C  C12  1  0.41153400  0.33987200  0.94696700  1
  C  C13  1  0.90214400  0.34724500  0.45469100  1
  C  C14  1  0.82016100  0.86423700  0.03207500  1
  C  C15  1  0.17983900  0.13576300  0.96792500  1
  C  C16  1  0.58846600  0.66012800  0.05303300  1
  C  C17  1  0.28104500  0.88981000  0.54881100  1
  C  C18  1  0.71895500  0.11019000  0.45118900  1
  C  C19  1  0.09785600  0.65275500  0.54530900  1
  Cu  Cu20  1  0.98433561  0.74629890  0.12073022  1
  Cu  Cu21  1  0.57386545  0.65659107  0.90438954  1
  Ni  Ni22  1  0.89838500  0.64700800  0.61872100  1
  Cu  Cu23  1  0.00982228  0.23057145  0.87933065  1
  Cu  Cu24  1  0.87816793  0.31660686  0.60678934  1
  Cu  Cu25  1  0.07443506  0.66397601  0.39649545  1
  Cu  Cu26  1  0.60293741  0.33365152  0.87045892  1
  Cu  Cu27  1  0.90363880  0.81405653  0.88676246  1
  Cu  Cu28  1  0.76279946  0.51958096  0.07739419  1
  Ni  Ni29  1  0.42544200  0.32721000  0.09898200  1
  Cu  Cu30  1  0.32614776  0.88753191  0.39597136  1
  Cu  Cu31  1  0.10999250  0.18671381  0.13099127  1
  Cu  Cu32  1  0.46379419  0.77964963  0.61530853  1
  Cu  Cu33  1  0.24042527  0.47453236  0.89177695  1
  Cu  Cu34  1  0.64533314  0.09980733  0.60172069  1
  Cu  Cu35  1  0.80958050  0.95830624  0.39443210  1
  Ni  Ni36  1  0.88826900  0.19169300  0.40850700  1
  Cu  Cu37  1  0.18877248  0.03832218  0.62007387  1
  Ni  Ni38  1  0.23078000  0.96816200  0.95241500  1
  Cu  Cu39  1  0.36224405  0.66658626  0.15180976  1
  Ni  Ni40  1  0.53941300  0.21441400  0.39429500  1
  Cu  Cu41  1  0.26161262  0.53161356  0.56798224  1
  Cu  Cu42  1  0.10866743  0.82690469  0.59692382  1
  Cu  Cu43  1  0.36173185  0.19713401  0.90819295  1
  Cu  Cu44  1  0.78417806  0.02000084  0.03826301  1
  Ni  Ni45  1  0.62357600  0.81589800  0.08634500  1
  Cu  Cu46  1  0.09466499  0.34619444  0.39935675  1
  Cu  Cu47  1  0.70845377  0.48868479  0.44434157  1
