# generated using pymatgen
data_Cu2Ni2C
_symmetry_space_group_name_H-M   'P 1'
_cell_length_a   6.58915089
_cell_length_b   12.02408233
_cell_length_c   12.91074800
_cell_angle_alpha   90.00000000
_cell_angle_beta   90.00000000
_cell_angle_gamma   24.15873853
_symmetry_Int_Tables_number   1
_chemical_formula_structural   Cu2Ni2C
_chemical_formula_sum   'Cu8 Ni8 C4'
_cell_volume   418.63789225
_cell_formula_units_Z   4
loop_
 _symmetry_equiv_pos_site_id
 _symmetry_equiv_pos_as_xyz
  1  'x, y, z'
loop_
 _atom_site_type_symbol
 _atom_site_label
 _atom_site_symmetry_multiplicity
 _atom_site_fract_x
 _atom_site_fract_y
 _atom_site_fract_z
 _atom_site_occupancy
  Ni  Ni0  1  0.00000000  0.46280900  0.85809200  1
  Ni  Ni1  1  0.00000000  0.53719100  0.14190800  1
  Ni  Ni2  1  0.00000000  0.03719100  0.35809200  1
  Ni  Ni3  1  0.00000000  0.96280900  0.64190800  1
  Ni  Ni4  1  0.00000000  0.14104600  0.95056400  1
  Ni  Ni5  1  0.00000000  0.85895400  0.04943600  1
  Ni  Ni6  1  0.00000000  0.35895400  0.45056400  1
  Ni  Ni7  1  0.00000000  0.64104600  0.54943600  1
  C  C8  1  0.00000000  0.26323600  0.67897500  1
  C  C9  1  0.00000000  0.73676400  0.32102500  1
  C  C10  1  0.00000000  0.23676300  0.17897500  1
  C  C11  1  0.00000000  0.76323600  0.82102500  1
  Cu  Cu12  1  0.00000000  0.43756200  0.63911000  1
  Cu  Cu13  1  0.00000000  0.56243800  0.36089000  1
  Cu  Cu14  1  0.00000000  0.06243800  0.13911000  1
  Cu  Cu15  1  0.00000000  0.93756200  0.86089000  1
  Cu  Cu16  1  0.00000000  0.15383200  0.55063200  1
  Cu  Cu17  1  0.00000000  0.84616800  0.44936800  1
  Cu  Cu18  1  0.00000000  0.34616800  0.05063200  1
  Cu  Cu19  1  0.00000000  0.65383200  0.94936800  1
