# generated using pymatgen
data_Cu
_symmetry_space_group_name_H-M   'P 1'
_cell_length_a   10.13229257
_cell_length_b   10.13229257
_cell_length_c   10.44175000
_cell_angle_alpha   90.00000000
_cell_angle_beta   90.00000000
_cell_angle_gamma   118.00077133
_symmetry_Int_Tables_number   1
_chemical_formula_structural   Cu
_chemical_formula_sum   Cu8
_cell_volume   946.49985634
_cell_formula_units_Z   8
loop_
 _symmetry_equiv_pos_site_id
 _symmetry_equiv_pos_as_xyz
  1  'x, y, z'
loop_
 _atom_site_type_symbol
 _atom_site_label
 _atom_site_symmetry_multiplicity
 _atom_site_fract_x
 _atom_site_fract_y
 _atom_site_fract_z
 _atom_site_occupancy
  Cu  Cu0  1  0.68293208  0.69517835  0.16550068  1
  Cu  Cu1  1  0.76168490  0.22410235  0.97972083  1
  Cu  Cu2  1  0.30227631  0.72758575  0.49154153  1
  Cu  Cu3  1  0.32607490  0.32637044  0.82970575  1
  Cu  Cu4  1  0.82206159  0.82227250  0.68752810  1
  Cu  Cu5  1  0.23867184  0.80037738  0.00014495  1
  Cu  Cu6  1  0.19105204  0.16050557  0.31066030  1
  Cu  Cu7  1  0.71375682  0.29090544  0.50580518  1
