# generated using pymatgen
data_Cu16Ni4C7
_symmetry_space_group_name_H-M   'P 1'
_cell_length_a   7.91418394
_cell_length_b   7.91418394
_cell_length_c   7.91418376
_cell_angle_alpha   98.97805357
_cell_angle_beta   98.97805357
_cell_angle_gamma   98.97804931
_symmetry_Int_Tables_number   1
_chemical_formula_structural   Cu16Ni4C7
_chemical_formula_sum   'Cu16 Ni4 C7'
_cell_volume   475.28720235
_cell_formula_units_Z   1
loop_
 _symmetry_equiv_pos_site_id
 _symmetry_equiv_pos_as_xyz
  1  'x, y, z'
loop_
 _atom_site_type_symbol
 _atom_site_label
 _atom_site_symmetry_multiplicity
 _atom_site_fract_x
 _atom_site_fract_y
 _atom_site_fract_z
 _atom_site_occupancy
  C  C0  1  0.00000000  0.00000000  0.00000000  1
  C  C1  1  0.45434300  0.87884300  0.72431000  1
  C  C2  1  0.87884300  0.72431000  0.45434300  1
  C  C3  1  0.72431000  0.45434300  0.87884300  1
  C  C4  1  0.54565700  0.12115700  0.27569000  1
  C  C5  1  0.12115700  0.27569000  0.54565700  1
  C  C6  1  0.27569000  0.54565700  0.12115700  1
  Cu  Cu7  1  0.38365928  0.35615358  0.38156951  1
  Cu  Cu8  1  0.61543497  0.62399233  0.62273710  1
  Ni  Ni9  1  0.00866500  0.33420100  0.22298000  1
  Cu  Cu10  1  0.33977148  0.21421607  0.00478893  1
  Cu  Cu11  1  0.19014171  0.99918965  0.29366398  1
  Cu  Cu12  1  0.00484806  0.68842036  0.77279142  1
  Ni  Ni13  1  0.66579900  0.77702000  0.99133500  1
  Cu  Cu14  1  0.79610389  0.99259699  0.67335564  1
  Ni  Ni15  1  0.68672200  0.14469300  0.98775300  1
  Cu  Cu16  1  0.13411441  0.00001276  0.66541793  1
  Cu  Cu17  1  0.98226014  0.68585535  0.13972840  1
  Cu  Cu18  1  0.30718330  0.83856885  0.02378167  1
  Cu  Cu19  1  0.84656505  0.02929673  0.30994095  1
  Cu  Cu20  1  0.01894116  0.32073395  0.86062441  1
  Cu  Cu21  1  0.24135875  0.69028527  0.47207877  1
  Cu  Cu22  1  0.64132250  0.48506487  0.19970537  1
  Ni  Ni23  1  0.46369100  0.21777000  0.67768100  1
  Cu  Cu24  1  0.77947868  0.31892148  0.53115659  1
  Cu  Cu25  1  0.33191979  0.52952065  0.77837929  1
  Cu  Cu26  1  0.50981478  0.77698848  0.33424962  1
