# generated using pymatgen
data_Cu12Ni2C5
_symmetry_space_group_name_H-M   'P 1'
_cell_length_a   8.69466315
_cell_length_b   8.70133165
_cell_length_c   22.16916423
_cell_angle_alpha   90.27233940
_cell_angle_beta   89.75367632
_cell_angle_gamma   119.91582281
_symmetry_Int_Tables_number   1
_chemical_formula_structural   Cu12Ni2C5
_chemical_formula_sum   'Cu72 Ni12 C30'
_cell_volume   1453.71813847
_cell_formula_units_Z   6
loop_
 _symmetry_equiv_pos_site_id
 _symmetry_equiv_pos_as_xyz
  1  'x, y, z'
loop_
 _atom_site_type_symbol
 _atom_site_label
 _atom_site_symmetry_multiplicity
 _atom_site_fract_x
 _atom_site_fract_y
 _atom_site_fract_z
 _atom_site_occupancy
  Ni  Ni0  1  0.99727051  0.63602892  0.25341520  1
  Ni  Ni1  1  0.36871963  0.00486752  0.75074943  1
  Ni  Ni2  1  0.66209316  0.95817387  0.58637431  1
  Ni  Ni3  1  0.03856131  0.33524521  0.08707052  1
  Ni  Ni4  1  0.32882967  0.29995948  0.91933192  1
  Ni  Ni5  1  0.69718362  0.67065436  0.41943312  1
  Ni  Ni6  1  0.02534752  0.00043215  0.49969032  1
  Ni  Ni7  1  0.00315861  0.97670371  0.00124540  1
  Ni  Ni8  1  0.69002154  0.33152190  0.83105466  1
  Ni  Ni9  1  0.66536101  0.31049101  0.33473221  1
  Ni  Ni10  1  0.35675823  0.66509638  0.17121684  1
  Ni  Ni11  1  0.33487185  0.64424839  0.66478957  1
  C  C12  1  0.99823768  0.00807250  0.84757552  1
  C  C13  1  0.99875705  0.99824305  0.15308118  1
  C  C14  1  0.66786803  0.33229776  0.98151440  1
  C  C15  1  0.32726960  0.67075069  0.02235184  1
  C  C16  1  0.33092347  0.67470677  0.51856967  1
  C  C17  1  0.33395584  0.66303357  0.80952851  1
  C  C18  1  0.98554587  0.99695654  0.34952738  1
  C  C19  1  0.00311992  0.99725869  0.64523522  1
  C  C20  1  0.65912687  0.33239217  0.68277297  1
  C  C21  1  0.66776603  0.34515218  0.18886973  1
  C  C22  1  0.66672873  0.33137895  0.48198436  1
  C  C23  1  0.33272679  0.66666968  0.31851964  1
  C  C24  1  0.69404841  0.70168576  0.25405809  1
  C  C25  1  0.00117438  0.29804167  0.25253763  1
  C  C26  1  0.29422743  0.28853692  0.74357258  1
  C  C27  1  0.71436405  0.01189974  0.74104842  1
  C  C28  1  0.37669184  0.05700237  0.58393674  1
  C  C29  1  0.67658420  0.62001154  0.58307299  1
  C  C30  1  0.95241477  0.62394865  0.08854229  1
  C  C31  1  0.38035201  0.33354164  0.08702888  1
  C  C32  1  0.03762627  0.37273905  0.91681667  1
  C  C33  1  0.33134976  0.96085638  0.91348418  1
  C  C34  1  0.62729875  0.96628314  0.41573197  1
  C  C35  1  0.03729933  0.66906718  0.41323055  1
  C  C36  1  0.29982427  0.00251500  0.25424162  1
  C  C37  1  0.98641797  0.70083713  0.74383819  1
  C  C38  1  0.94838027  0.32971444  0.58441512  1
  C  C39  1  0.66379940  0.04632588  0.08948339  1
  C  C40  1  0.63162290  0.67199303  0.91671194  1
  C  C41  1  0.32678581  0.36671570  0.41458104  1
  Cu  Cu42  1  0.20945149  0.02996569  0.30630115  1
  Cu  Cu43  1  0.82416489  0.78891670  0.30815916  1
  Cu  Cu44  1  0.97537271  0.16952063  0.30411921  1
  Cu  Cu45  1  0.22545477  0.18304321  0.80386559  1
  Cu  Cu46  1  0.96089616  0.77450290  0.80092264  1
  Cu  Cu47  1  0.81871145  0.03426050  0.79942236  1
  Cu  Cu48  1  0.80585324  0.98438611  0.68572997  1
  Cu  Cu49  1  0.16856378  0.18137907  0.69255500  1
  Cu  Cu50  1  0.01563172  0.81948594  0.69273629  1
  Cu  Cu51  1  0.77722428  0.81647739  0.19773560  1
  Cu  Cu52  1  0.03608673  0.22955421  0.19247367  1
  Cu  Cu53  1  0.18836578  0.96328289  0.19931399  1
  Cu  Cu54  1  0.86290733  0.35117710  0.63872240  1
  Cu  Cu55  1  0.49307069  0.13471622  0.64091775  1
  Cu  Cu56  1  0.65590955  0.50522923  0.63770896  1
  Cu  Cu57  1  0.86340801  0.50910916  0.14526943  1
  Cu  Cu58  1  0.65047145  0.14021065  0.14279491  1
  Cu  Cu59  1  0.49569481  0.34305117  0.14060180  1
  Cu  Cu60  1  0.45301306  0.31224206  0.02555638  1
  Cu  Cu61  1  0.84977783  0.53378842  0.03081525  1
  Cu  Cu62  1  0.68709183  0.14540843  0.03283553  1
  Cu  Cu63  1  0.47046846  0.17046355  0.52791498  1
  Cu  Cu64  1  0.69896698  0.53694858  0.52341041  1
  Cu  Cu65  1  0.83872070  0.30205602  0.52962933  1
  Cu  Cu66  1  0.54582383  0.68825961  0.97212514  1
  Cu  Cu67  1  0.14580239  0.45319382  0.97566989  1
  Cu  Cu68  1  0.31995881  0.85231044  0.96965845  1
  Cu  Cu69  1  0.55922077  0.84996570  0.47388629  1
  Cu  Cu70  1  0.29504806  0.44088285  0.47009633  1
  Cu  Cu71  1  0.15205294  0.69970350  0.46938965  1
  Cu  Cu72  1  0.12669532  0.64024875  0.35719314  1
  Cu  Cu73  1  0.50030407  0.86589891  0.36329685  1
  Cu  Cu74  1  0.36165767  0.48844598  0.36300325  1
  Cu  Cu75  1  0.13908945  0.48462272  0.86182943  1
  Cu  Cu76  1  0.35151219  0.87724207  0.85447312  1
  Cu  Cu77  1  0.52293687  0.64922642  0.86259867  1
  Cu  Cu78  1  0.01312762  0.83480717  0.40469129  1
  Cu  Cu79  1  0.81394137  0.98525777  0.40467677  1
  Cu  Cu80  1  0.17222281  0.18757465  0.40433086  1
  Cu  Cu81  1  0.02163721  0.18781873  0.91224649  1
  Cu  Cu82  1  0.16355680  0.97900586  0.91185796  1
  Cu  Cu83  1  0.80841599  0.82636615  0.91197049  1
  Cu  Cu84  1  0.96469985  0.16652888  0.58844247  1
  Cu  Cu85  1  0.19010383  0.03566604  0.59082659  1
  Cu  Cu86  1  0.84240826  0.81175360  0.58951726  1
  Cu  Cu87  1  0.97349023  0.80877906  0.09192439  1
  Cu  Cu88  1  0.82612410  0.03010860  0.09221474  1
  Cu  Cu89  1  0.18901752  0.17234104  0.09141155  1
  Cu  Cu90  1  0.69328231  0.17917542  0.73632115  1
  Cu  Cu91  1  0.48223935  0.31003835  0.73704446  1
  Cu  Cu92  1  0.83194587  0.52182592  0.73679560  1
  Cu  Cu93  1  0.68103031  0.51636579  0.24579113  1
  Cu  Cu94  1  0.83180108  0.31828908  0.24638620  1
  Cu  Cu95  1  0.47729390  0.16103804  0.24630970  1
  Cu  Cu96  1  0.64378608  0.50730529  0.91917760  1
  Cu  Cu97  1  0.85359470  0.35379073  0.91889085  1
  Cu  Cu98  1  0.49301137  0.15123510  0.91716421  1
  Cu  Cu99  1  0.64497605  0.15069429  0.42590997  1
  Cu  Cu100  1  0.49246843  0.35452137  0.42081253  1
  Cu  Cu101  1  0.84719869  0.50284056  0.42180449  1
  Cu  Cu102  1  0.36322178  0.50327283  0.08585881  1
  Cu  Cu103  1  0.13820443  0.63813940  0.08581777  1
  Cu  Cu104  1  0.50525872  0.86905156  0.08646682  1
  Cu  Cu105  1  0.35893404  0.86895915  0.57852720  1
  Cu  Cu106  1  0.51032210  0.64430749  0.57942946  1
  Cu  Cu107  1  0.12658669  0.48716872  0.57980777  1
  Cu  Cu108  1  0.31768201  0.84159820  0.26168253  1
  Cu  Cu109  1  0.50997057  0.68000156  0.26514791  1
  Cu  Cu110  1  0.16283359  0.48806226  0.26286287  1
  Cu  Cu111  1  0.31081576  0.47265653  0.74764884  1
  Cu  Cu112  1  0.15184186  0.68815575  0.74732988  1
  Cu  Cu113  1  0.52301032  0.84837178  0.74520318  1
