# generated using pymatgen
data_Cu3NiC24
_symmetry_space_group_name_H-M   'P 1'
_cell_length_a   7.64650728
_cell_length_b   7.64650728
_cell_length_c   10.72818916
_cell_angle_alpha   72.14267351
_cell_angle_beta   72.14267351
_cell_angle_gamma   42.55578317
_symmetry_Int_Tables_number   1
_chemical_formula_structural   Cu3NiC24
_chemical_formula_sum   'Cu3 Ni1 C24'
_cell_volume   400.59707168
_cell_formula_units_Z   1
loop_
 _symmetry_equiv_pos_site_id
 _symmetry_equiv_pos_as_xyz
  1  'x, y, z'
loop_
 _atom_site_type_symbol
 _atom_site_label
 _atom_site_symmetry_multiplicity
 _atom_site_fract_x
 _atom_site_fract_y
 _atom_site_fract_z
 _atom_site_occupancy
  C  C0  1  0.79271600  0.20728400  0.25000000  1
  C  C1  1  0.20728400  0.79271600  0.75000000  1
  Cu  Cu2  1  0.37803502  0.81808436  0.03946517  1
  Ni  Ni3  1  0.16777900  0.63529000  0.46159500  1
  Cu  Cu4  1  0.67035103  0.13353663  0.96878680  1
  Cu  Cu5  1  0.81105146  0.37091739  0.55772730  1
  C  C6  1  0.00000000  0.50000000  0.00000000  1
  C  C7  1  0.50000000  0.00000000  0.50000000  1
  C  C8  1  0.12976400  0.19859400  0.57406600  1
  C  C9  1  0.80140600  0.87023600  0.92593400  1
  C  C10  1  0.87023600  0.80140600  0.42593400  1
  C  C11  1  0.19859400  0.12976400  0.07406600  1
  C  C12  1  0.67855800  0.58966500  0.08353100  1
  C  C13  1  0.41033500  0.32144200  0.41646900  1
  C  C14  1  0.32144200  0.41033500  0.91646900  1
  C  C15  1  0.58966500  0.67855800  0.58353100  1
  C  C16  1  0.84427500  0.37331900  0.38321400  1
  C  C17  1  0.62668100  0.15572500  0.11678600  1
  C  C18  1  0.15572500  0.62668100  0.61678600  1
  C  C19  1  0.37331900  0.84427500  0.88321400  1
  C  C20  1  0.20855100  0.75660600  0.12486900  1
  C  C21  1  0.24339400  0.79144900  0.37513100  1
  C  C22  1  0.79144900  0.24339400  0.87513100  1
  C  C23  1  0.75660600  0.20855100  0.62486900  1
  C  C24  1  0.01538100  0.54839600  0.15284200  1
  C  C25  1  0.45160400  0.98461900  0.34715800  1
  C  C26  1  0.98461900  0.45160400  0.84715800  1
  C  C27  1  0.54839600  0.01538100  0.65284200  1
