# generated using pymatgen
data_CuC5
_symmetry_space_group_name_H-M   'P 1'
_cell_length_a   3.98756600
_cell_length_b   6.15135729
_cell_length_c   6.15135729
_cell_angle_alpha   60.23977996
_cell_angle_beta   71.08768103
_cell_angle_gamma   71.08768103
_symmetry_Int_Tables_number   1
_chemical_formula_structural   CuC5
_chemical_formula_sum   'Cu1 C5'
_cell_volume   121.44226102
_cell_formula_units_Z   1
loop_
 _symmetry_equiv_pos_site_id
 _symmetry_equiv_pos_as_xyz
  1  'x, y, z'
loop_
 _atom_site_type_symbol
 _atom_site_label
 _atom_site_symmetry_multiplicity
 _atom_site_fract_x
 _atom_site_fract_y
 _atom_site_fract_z
 _atom_site_occupancy
  Cu  Cu0  1  0.00928952  0.01896632  0.96019378  1
  C  C1  1  0.33142400  0.46033200  0.87682100  1
  C  C2  1  0.66857600  0.53966800  0.12317900  1
  C  C3  1  0.66857700  0.12317900  0.53966700  1
  C  C4  1  0.33142300  0.87682100  0.46033300  1
  C  C5  1  0.00000000  0.50000000  0.50000000  1
