# generated using pymatgen
data_CuNiC2
_symmetry_space_group_name_H-M   'P 1'
_cell_length_a   10.67279246
_cell_length_b   10.67279246
_cell_length_c   10.67279246
_cell_angle_alpha   99.13243832
_cell_angle_beta   99.13243832
_cell_angle_gamma   133.04447499
_symmetry_Int_Tables_number   1
_chemical_formula_structural   CuNiC2
_chemical_formula_sum   'Cu10 Ni10 C20'
_cell_volume   814.92583432
_cell_formula_units_Z   10
loop_
 _symmetry_equiv_pos_site_id
 _symmetry_equiv_pos_as_xyz
  1  'x, y, z'
loop_
 _atom_site_type_symbol
 _atom_site_label
 _atom_site_symmetry_multiplicity
 _atom_site_fract_x
 _atom_site_fract_y
 _atom_site_fract_z
 _atom_site_occupancy
  Ni  Ni0  1  0.84996800  0.54891900  0.90163100  1
  Ni  Ni1  1  0.64728800  0.94833700  0.09836900  1
  Ni  Ni2  1  0.79891900  0.39728800  0.19895100  1
  Ni  Ni3  1  0.19833700  0.59996800  0.80104900  1
  Ni  Ni4  1  0.60271200  0.80166300  0.40163100  1
  Ni  Ni5  1  0.40003200  0.20108100  0.59836900  1
  Ni  Ni6  1  0.05166300  0.15003200  0.69895100  1
  Ni  Ni7  1  0.45108100  0.35271200  0.30104900  1
  Ni  Ni8  1  0.00000000  0.00000000  0.00000000  1
  Ni  Ni9  1  0.25000000  0.75000000  0.50000000  1
  Cu  Cu10  1  0.75000000  0.25000000  0.50000000  1
  Cu  Cu11  1  0.50000000  0.50000000  0.00000000  1
  Cu  Cu12  1  0.70149500  0.10078600  0.80042100  1
  Cu  Cu13  1  0.30036500  0.90107400  0.19957900  1
  Cu  Cu14  1  0.35078600  0.05036500  0.89929100  1
  Cu  Cu15  1  0.15107400  0.45149500  0.10070900  1
  Cu  Cu16  1  0.89921400  0.69963500  0.60070900  1
  Cu  Cu17  1  0.09892600  0.29850500  0.39929100  1
  Cu  Cu18  1  0.94963500  0.84892600  0.30042100  1
  Cu  Cu19  1  0.54850500  0.64921400  0.69957900  1
  C  C20  1  0.72882400  0.17609700  0.65090000  1
  C  C21  1  0.52519700  0.07792400  0.34910000  1
  C  C22  1  0.42609700  0.27519700  0.94727400  1
  C  C23  1  0.32792400  0.47882400  0.05272600  1
  C  C24  1  0.72480300  0.67207600  0.15090000  1
  C  C25  1  0.52117600  0.57390300  0.84910000  1
  C  C26  1  0.92207600  0.27117600  0.44727400  1
  C  C27  1  0.82390300  0.47480300  0.55272600  1
  C  C28  1  0.92487500  0.28026100  0.95236100  1
  C  C29  1  0.32790000  0.97251400  0.04763900  1
  C  C30  1  0.53026100  0.07790000  0.85538600  1
  C  C31  1  0.22251400  0.67487500  0.14461400  1
  C  C32  1  0.92210000  0.77748600  0.45236100  1
  C  C33  1  0.32512500  0.46973900  0.54763900  1
  C  C34  1  0.02748600  0.07512500  0.35538600  1
  C  C35  1  0.71973900  0.67210000  0.64461400  1
  C  C36  1  0.12500000  0.87500000  0.75000000  1
  C  C37  1  0.12500000  0.37500000  0.25000000  1
  C  C38  1  0.12500000  0.87500000  0.25000000  1
  C  C39  1  0.62500000  0.87500000  0.75000000  1
