# generated using pymatgen
data_Cu10Ni2C3
_symmetry_space_group_name_H-M   'P 1'
_cell_length_a   8.90865100
_cell_length_b   8.90865100
_cell_length_c   6.40628400
_cell_angle_alpha   90.00000000
_cell_angle_beta   90.00000000
_cell_angle_gamma   90.00000000
_symmetry_Int_Tables_number   1
_chemical_formula_structural   Cu10Ni2C3
_chemical_formula_sum   'Cu20 Ni4 C6'
_cell_volume   508.42872466
_cell_formula_units_Z   2
loop_
 _symmetry_equiv_pos_site_id
 _symmetry_equiv_pos_as_xyz
  1  'x, y, z'
loop_
 _atom_site_type_symbol
 _atom_site_label
 _atom_site_symmetry_multiplicity
 _atom_site_fract_x
 _atom_site_fract_y
 _atom_site_fract_z
 _atom_site_occupancy
  Ni  Ni0  1  0.68263200  0.18263200  0.00000000  1
  Ni  Ni1  1  0.31736800  0.81736800  0.00000000  1
  Ni  Ni2  1  0.81736800  0.68263200  0.00000000  1
  Ni  Ni3  1  0.18263200  0.31736800  0.00000000  1
  Cu  Cu4  1  0.93870000  0.20678300  0.29262400  1
  Cu  Cu5  1  0.70678300  0.43870000  0.29262400  1
  Cu  Cu6  1  0.50000000  0.00000000  0.28376200  1
  Cu  Cu7  1  0.56130000  0.70678300  0.70737600  1
  Cu  Cu8  1  0.29321700  0.56130000  0.70737600  1
  Cu  Cu9  1  0.79321700  0.93870000  0.29262400  1
  Cu  Cu10  1  0.93870000  0.20678300  0.70737600  1
  Cu  Cu11  1  0.29321700  0.56130000  0.29262400  1
  Cu  Cu12  1  0.06130000  0.79321700  0.29262400  1
  Cu  Cu13  1  0.70678300  0.43870000  0.70737600  1
  Cu  Cu14  1  0.43870000  0.29321700  0.70737600  1
  Cu  Cu15  1  0.06130000  0.79321700  0.70737600  1
  Cu  Cu16  1  0.20678300  0.06130000  0.70737600  1
  Cu  Cu17  1  0.79321700  0.93870000  0.70737600  1
  Cu  Cu18  1  0.20678300  0.06130000  0.29262400  1
  Cu  Cu19  1  0.00000000  0.50000000  0.71623800  1
  Cu  Cu20  1  0.00000000  0.50000000  0.28376200  1
  Cu  Cu21  1  0.56130000  0.70678300  0.29262400  1
  Cu  Cu22  1  0.43870000  0.29321700  0.29262400  1
  Cu  Cu23  1  0.50000000  0.00000000  0.71623800  1
  C  C24  1  0.67869800  0.17869800  0.50000000  1
  C  C25  1  0.82130200  0.67869800  0.50000000  1
  C  C26  1  0.17869800  0.32130200  0.50000000  1
  C  C27  1  0.00000000  0.00000000  0.00000000  1
  C  C28  1  0.32130200  0.82130200  0.50000000  1
  C  C29  1  0.50000000  0.50000000  0.00000000  1
