# generated using pymatgen
data_Cu11Ni4C15
_symmetry_space_group_name_H-M   'P 1'
_cell_length_a   4.85058900
_cell_length_b   5.81328469
_cell_length_c   13.68611776
_cell_angle_alpha   78.50804397
_cell_angle_beta   88.76880177
_cell_angle_gamma   88.44977622
_symmetry_Int_Tables_number   1
_chemical_formula_structural   Cu11Ni4C15
_chemical_formula_sum   'Cu11 Ni4 C15'
_cell_volume   377.99305810
_cell_formula_units_Z   1
loop_
 _symmetry_equiv_pos_site_id
 _symmetry_equiv_pos_as_xyz
  1  'x, y, z'
loop_
 _atom_site_type_symbol
 _atom_site_label
 _atom_site_symmetry_multiplicity
 _atom_site_fract_x
 _atom_site_fract_y
 _atom_site_fract_z
 _atom_site_occupancy
  C  C0  1  0.47261000  0.49874500  0.01255700  1
  C  C1  1  0.50272200  0.69948200  0.40037400  1
  C  C2  1  0.49964500  0.30650600  0.59917800  1
  C  C3  1  0.49578200  0.09413200  0.20079200  1
  C  C4  1  0.54577400  0.91261700  0.79263700  1
  C  C5  1  0.99470200  0.60201200  0.20187400  1
  C  C6  1  0.99879000  0.19808900  0.39998900  1
  C  C7  1  0.98188800  0.38803600  0.80232100  1
  C  C8  1  0.01624800  0.79990700  0.60156000  1
  C  C9  1  0.98750300  0.99724000  0.98947500  1
  C  C10  1  0.80467700  0.07820900  0.85670300  1
  C  C11  1  0.68379300  0.79216800  0.26270700  1
  C  C12  1  0.69358200  0.00522200  0.65790500  1
  C  C13  1  0.30231800  0.39917300  0.14663100  1
  C  C14  1  0.31806600  0.60780200  0.53595700  1
  Ni  Ni15  1  0.79496300  0.28293700  0.26091700  1
  Cu  Cu16  1  0.76800196  0.52455360  0.66617519  1
  Ni  Ni17  1  0.80425300  0.67485000  0.05942300  1
  Cu  Cu18  1  0.80260119  0.90088977  0.44570486  1
  Cu  Cu19  1  0.66901280  0.17281643  0.05843505  1
  Cu  Cu20  1  0.69106585  0.36620793  0.46049413  1
  Cu  Cu21  1  0.69285662  0.54400582  0.86002430  1
  Cu  Cu22  1  0.33131431  0.00168810  0.34158496  1
  Ni  Ni23  1  0.32043400  0.83073400  0.93075400  1
  Cu  Cu24  1  0.29663794  0.23567190  0.72994591  1
  Cu  Cu25  1  0.21879123  0.11977349  0.54170294  1
  Cu  Cu26  1  0.22887883  0.46373305  0.34313012  1
  Cu  Cu27  1  0.19945069  0.92061992  0.13224791  1
  Cu  Cu28  1  0.21416823  0.35374681  0.93880084  1
  Ni  Ni29  1  0.20549000  0.71347200  0.74687400  1
