# generated using pymatgen
data_CuC3
_symmetry_space_group_name_H-M   'P 1'
_cell_length_a   9.26143400
_cell_length_b   9.26255039
_cell_length_c   9.26250564
_cell_angle_alpha   109.47092429
_cell_angle_beta   109.45737173
_cell_angle_gamma   109.47538169
_symmetry_Int_Tables_number   1
_chemical_formula_structural   CuC3
_chemical_formula_sum   'Cu10 C30'
_cell_volume   611.74285685
_cell_formula_units_Z   10
loop_
 _symmetry_equiv_pos_site_id
 _symmetry_equiv_pos_as_xyz
  1  'x, y, z'
loop_
 _atom_site_type_symbol
 _atom_site_label
 _atom_site_symmetry_multiplicity
 _atom_site_fract_x
 _atom_site_fract_y
 _atom_site_fract_z
 _atom_site_occupancy
  C  C0  1  0.46716200  0.24995400  0.71705700  1
  C  C1  1  0.53263300  0.75006300  0.28269200  1
  C  C2  1  0.03289000  0.75010700  0.78293400  1
  C  C3  1  0.25012100  0.28271500  0.03275300  1
  C  C4  1  0.74986800  0.21722200  0.46730400  1
  C  C5  1  0.28289500  0.03277600  0.24998500  1
  Cu  Cu6  1  0.70964428  0.92887077  0.74055232  1
  Cu  Cu7  1  0.46148079  0.96663819  0.00465442  1
  Cu  Cu8  1  0.73802828  0.70872207  0.95060787  1
  Cu  Cu9  1  0.25774657  0.80804872  0.55847810  1
  Cu  Cu10  1  0.97746482  0.27039457  0.21732306  1
  Cu  Cu11  1  0.52819810  0.52929320  0.53423671  1
  Cu  Cu12  1  0.98494587  0.01629921  0.51877783  1
  Cu  Cu13  1  0.23012825  0.47701687  0.77388395  1
  Cu  Cu14  1  0.76260391  0.51665439  0.24935458  1
  Cu  Cu15  1  0.98638524  0.49693557  0.96461489  1
  C  C16  1  0.72891500  0.45709400  0.96818400  1
  C  C17  1  0.51107800  0.04292000  0.77181800  1
  C  C18  1  0.26017800  0.03113800  0.98886000  1
  C  C19  1  0.45782800  0.72833000  0.48860900  1
  C  C20  1  0.23980100  0.22826400  0.77096800  1
  C  C21  1  0.04250500  0.53150100  0.27069800  1
  C  C22  1  0.77109500  0.73921700  0.72817100  1
  C  C23  1  0.98893900  0.76077600  0.53184900  1
  C  C24  1  0.72822900  0.27056600  0.23985300  1
  C  C25  1  0.46851200  0.51071000  0.73913500  1
  C  C26  1  0.96932900  0.22942800  0.95767300  1
  C  C27  1  0.22848400  0.98931100  0.45741700  1
  C  C28  1  0.77133000  0.01123600  0.54189800  1
  C  C29  1  0.03187100  0.77109800  0.04259500  1
  C  C30  1  0.53069700  0.48879700  0.26014400  1
  C  C31  1  0.27155800  0.72935400  0.76081600  1
  C  C32  1  0.01073200  0.23924800  0.46861400  1
  C  C33  1  0.22953700  0.26016900  0.27136600  1
  C  C34  1  0.76022900  0.77165100  0.22946700  1
  C  C35  1  0.95730700  0.46886200  0.72904400  1
  C  C36  1  0.54229000  0.27131500  0.51113200  1
  C  C37  1  0.73914500  0.96847600  0.01096900  1
  C  C38  1  0.27108300  0.54250600  0.03178300  1
  C  C39  1  0.48881300  0.95777700  0.22870400  1
