# generated using pymatgen
data_Cu7NiC20
_symmetry_space_group_name_H-M   'P 1'
_cell_length_a   6.19559800
_cell_length_b   10.11075500
_cell_length_c   20.81000100
_cell_angle_alpha   90.00000000
_cell_angle_beta   90.00000000
_cell_angle_gamma   90.00000000
_symmetry_Int_Tables_number   1
_chemical_formula_structural   Cu7NiC20
_chemical_formula_sum   'Cu14 Ni2 C40'
_cell_volume   1303.58369227
_cell_formula_units_Z   2
loop_
 _symmetry_equiv_pos_site_id
 _symmetry_equiv_pos_as_xyz
  1  'x, y, z'
loop_
 _atom_site_type_symbol
 _atom_site_label
 _atom_site_symmetry_multiplicity
 _atom_site_fract_x
 _atom_site_fract_y
 _atom_site_fract_z
 _atom_site_occupancy
  C  C0  1  0.49080000  0.25000000  0.66288400  1
  C  C1  1  0.50920000  0.25000000  0.16288400  1
  C  C2  1  0.50920000  0.75000000  0.33711600  1
  C  C3  1  0.49080000  0.75000000  0.83711600  1
  C  C4  1  0.94144000  0.75000000  0.51032300  1
  C  C5  1  0.00518300  0.62479400  0.17102200  1
  C  C6  1  0.05856000  0.75000000  0.01032300  1
  C  C7  1  0.99481700  0.12479400  0.82897800  1
  C  C8  1  0.94144000  0.25000000  0.98967700  1
  C  C9  1  0.00518300  0.87520600  0.17102200  1
  C  C10  1  0.99481700  0.62479400  0.67102200  1
  C  C11  1  0.99481700  0.87520600  0.67102200  1
  C  C12  1  0.99481700  0.37520600  0.82897800  1
  C  C13  1  0.00518300  0.12479400  0.32897800  1
  C  C14  1  0.05856000  0.25000000  0.48967700  1
  C  C15  1  0.00518300  0.37520600  0.32897800  1
  Cu  Cu16  1  0.69516840  0.75911143  0.13661157  1
  Cu  Cu17  1  0.71313198  0.23397623  0.46784501  1
  Cu  Cu18  1  0.86356711  0.07312490  0.92011890  1
  Cu  Cu19  1  0.83872621  0.43002513  0.91241948  1
  Cu  Cu20  1  0.87287727  0.58454005  0.56578397  1
  Cu  Cu21  1  0.15547245  0.90141795  0.07721419  1
  Cu  Cu22  1  0.29576739  0.25642393  0.95273260  1
  Cu  Cu23  1  0.13576961  0.09340016  0.42434223  1
  Cu  Cu24  1  0.14538843  0.42898175  0.41287490  1
  Ni  Ni25  1  0.30296300  0.75000000  0.63428900  1
  Cu  Cu26  1  0.32309703  0.76558772  0.52789790  1
  Cu  Cu27  1  0.67535537  0.74294196  0.03532683  1
  Cu  Cu28  1  0.31435091  0.25518310  0.86129691  1
  Ni  Ni29  1  0.14437500  0.57892300  0.07607400  1
  Cu  Cu30  1  0.85976538  0.92504112  0.56919145  1
  Cu  Cu31  1  0.70414813  0.26950536  0.36805724  1
  C  C32  1  0.34783000  0.38457600  0.61360800  1
  C  C33  1  0.72794600  0.25000000  0.60295500  1
  C  C34  1  0.63350200  0.61669100  0.78703000  1
  C  C35  1  0.25195900  0.75000000  0.77658200  1
  C  C36  1  0.27205400  0.75000000  0.39704500  1
  C  C37  1  0.74804100  0.75000000  0.27658200  1
  C  C38  1  0.65217000  0.88457600  0.38639200  1
  C  C39  1  0.65217000  0.11542400  0.11360800  1
  C  C40  1  0.36649800  0.38330900  0.21297000  1
  C  C41  1  0.65217000  0.38457600  0.11360800  1
  C  C42  1  0.36649800  0.88330900  0.28703000  1
  C  C43  1  0.63350200  0.88330900  0.78703000  1
  C  C44  1  0.36649800  0.61669100  0.28703000  1
  C  C45  1  0.25195900  0.25000000  0.72341800  1
  C  C46  1  0.63350200  0.11669100  0.71297000  1
  C  C47  1  0.63350200  0.38330900  0.71297000  1
  C  C48  1  0.36649800  0.11669100  0.21297000  1
  C  C49  1  0.65217000  0.61542400  0.38639200  1
  C  C50  1  0.34783000  0.61542400  0.88639200  1
  C  C51  1  0.27205400  0.25000000  0.10295500  1
  C  C52  1  0.34783000  0.88457600  0.88639200  1
  C  C53  1  0.74804100  0.25000000  0.22341800  1
  C  C54  1  0.72794600  0.75000000  0.89704500  1
  C  C55  1  0.34783000  0.11542400  0.61360800  1
