# generated using pymatgen
data_Cu3NiC
_symmetry_space_group_name_H-M   'P 1'
_cell_length_a   7.44230001
_cell_length_b   7.44230001
_cell_length_c   6.27409460
_cell_angle_alpha   76.86127952
_cell_angle_beta   76.86127952
_cell_angle_gamma   87.09468157
_symmetry_Int_Tables_number   1
_chemical_formula_structural   Cu3NiC
_chemical_formula_sum   'Cu12 Ni4 C4'
_cell_volume   329.55268178
_cell_formula_units_Z   4
loop_
 _symmetry_equiv_pos_site_id
 _symmetry_equiv_pos_as_xyz
  1  'x, y, z'
loop_
 _atom_site_type_symbol
 _atom_site_label
 _atom_site_symmetry_multiplicity
 _atom_site_fract_x
 _atom_site_fract_y
 _atom_site_fract_z
 _atom_site_occupancy
  Ni  Ni0  1  0.90468000  0.09532000  0.25000000  1
  Ni  Ni1  1  0.32249000  0.67751000  0.25000000  1
  Ni  Ni2  1  0.67751000  0.32249000  0.75000000  1
  Ni  Ni3  1  0.09532000  0.90468000  0.75000000  1
  C  C4  1  0.79838000  0.61944000  0.25030000  1
  C  C5  1  0.38056000  0.20162000  0.24970000  1
  C  C6  1  0.61944000  0.79838000  0.75030000  1
  C  C7  1  0.20162000  0.38056000  0.74970000  1
  Cu  Cu8  1  0.76849000  0.99859000  0.66034000  1
  Cu  Cu9  1  0.38337000  0.85693000  0.85759000  1
  Cu  Cu10  1  0.66928000  0.63900000  0.01392000  1
  Cu  Cu11  1  0.99859000  0.76849000  0.16034000  1
  Cu  Cu12  1  0.14307000  0.61663000  0.64241000  1
  Cu  Cu13  1  0.63900000  0.66928000  0.51392000  1
  Cu  Cu14  1  0.36100000  0.33072000  0.48608000  1
  Cu  Cu15  1  0.61663000  0.14307000  0.14241000  1
  Cu  Cu16  1  0.85693000  0.38337000  0.35759000  1
  Cu  Cu17  1  0.33072000  0.36100000  0.98608000  1
  Cu  Cu18  1  0.23151000  0.00141000  0.33966000  1
  Cu  Cu19  1  0.00141000  0.23151000  0.83966000  1
