# generated using pymatgen
data_Cu2C3
_symmetry_space_group_name_H-M   'P 1'
_cell_length_a   3.82482800
_cell_length_b   6.47318937
_cell_length_c   6.47318937
_cell_angle_alpha   70.91721415
_cell_angle_beta   72.81630868
_cell_angle_gamma   72.81630868
_symmetry_Int_Tables_number   1
_chemical_formula_structural   Cu2C3
_chemical_formula_sum   'Cu2 C3'
_cell_volume   141.14748517
_cell_formula_units_Z   1
loop_
 _symmetry_equiv_pos_site_id
 _symmetry_equiv_pos_as_xyz
  1  'x, y, z'
loop_
 _atom_site_type_symbol
 _atom_site_label
 _atom_site_symmetry_multiplicity
 _atom_site_fract_x
 _atom_site_fract_y
 _atom_site_fract_z
 _atom_site_occupancy
  Cu  Cu0  1  0.81594307  0.66761896  0.71862422  1
  Cu  Cu1  1  0.19414395  0.29816901  0.31764877  1
  C  C2  1  0.00000000  0.00000000  0.00000000  1
  C  C3  1  0.50000000  0.21708900  0.78291100  1
  C  C4  1  0.50000000  0.78291100  0.21708900  1
