# generated using pymatgen
data_Cu13Ni11C16
_symmetry_space_group_name_H-M   'P 1'
_cell_length_a   7.82215600
_cell_length_b   7.61789100
_cell_length_c   7.75283745
_cell_angle_alpha   89.95441664
_cell_angle_beta   90.00000000
_cell_angle_gamma   90.00000000
_symmetry_Int_Tables_number   1
_chemical_formula_structural   Cu13Ni11C16
_chemical_formula_sum   'Cu13 Ni11 C16'
_cell_volume   461.97850432
_cell_formula_units_Z   1
loop_
 _symmetry_equiv_pos_site_id
 _symmetry_equiv_pos_as_xyz
  1  'x, y, z'
loop_
 _atom_site_type_symbol
 _atom_site_label
 _atom_site_symmetry_multiplicity
 _atom_site_fract_x
 _atom_site_fract_y
 _atom_site_fract_z
 _atom_site_occupancy
  C  C0  1  0.24660600  0.24928000  0.24939100  1
  C  C1  1  0.24669100  0.24920400  0.75065800  1
  C  C2  1  0.75308800  0.24899500  0.75062200  1
  C  C3  1  0.24669100  0.75079600  0.24934200  1
  C  C4  1  0.24660600  0.75072000  0.75060900  1
  C  C5  1  0.75308800  0.75100500  0.24937800  1
  C  C6  1  0.75561700  0.24899000  0.24870600  1
  C  C7  1  0.75561700  0.75101000  0.75129400  1
  C  C8  1  0.50292400  0.00000000  0.50000000  1
  C  C9  1  0.99837500  0.50000000  0.00000000  1
  C  C10  1  0.99865600  0.50000000  0.50000000  1
  C  C11  1  0.50147000  0.50000000  0.00000000  1
  C  C12  1  0.50163000  0.50000000  0.50000000  1
  C  C13  1  0.99938600  0.00000000  0.00000000  1
  C  C14  1  0.00012500  0.00000000  0.50000000  1
  C  C15  1  0.50102600  0.00000000  0.00000000  1
  Cu  Cu16  1  0.00389521  0.27900912  0.99677210  1
  Ni  Ni17  1  0.99609200  0.25741400  0.49750600  1
  Ni  Ni18  1  0.50396100  0.26081800  0.00258600  1
  Ni  Ni19  1  0.50338300  0.24059100  0.49888700  1
  Cu  Cu20  1  0.99529549  0.72968205  0.98565855  1
  Cu  Cu21  1  0.98734120  0.74025974  0.48479273  1
  Cu  Cu22  1  0.50261559  0.72968098  0.02216216  1
  Cu  Cu23  1  0.50373548  0.74640097  0.50629529  1
  Cu  Cu24  1  0.26072598  0.96918088  0.00253701  1
  Cu  Cu25  1  0.25999679  0.01215159  0.50532818  1
  Ni  Ni26  1  0.74954700  0.00000000  0.00000000  1
  Cu  Cu27  1  0.76540250  0.99679414  0.50232241  1
  Ni  Ni28  1  0.24983400  0.50000000  0.00000000  1
  Ni  Ni29  1  0.25075500  0.50000000  0.50000000  1
  Cu  Cu30  1  0.77745662  0.50495558  0.99941083  1
  Ni  Ni31  1  0.74945900  0.50000000  0.50000000  1
  Cu  Cu32  1  0.01131474  0.01046006  0.25306235  1
  Cu  Cu33  1  0.98699702  0.97667547  0.74132241  1
  Ni  Ni34  1  0.50459000  0.00322100  0.25054500  1
  Ni  Ni35  1  0.50459000  0.99677900  0.74945500  1
  Cu  Cu36  1  0.97861686  0.51691084  0.26370960  1
  Ni  Ni37  1  0.99475700  0.50221600  0.75043700  1
  Ni  Ni38  1  0.50376800  0.49785200  0.26564100  1
  Cu  Cu39  1  0.51664009  0.48436684  0.72231817  1
