# generated using pymatgen
data_Cu3NiC2
_symmetry_space_group_name_H-M   'P 1'
_cell_length_a   4.03803085
_cell_length_b   4.03803085
_cell_length_c   4.03803085
_cell_angle_alpha   60.00000000
_cell_angle_beta   60.00000000
_cell_angle_gamma   60.00000000
_symmetry_Int_Tables_number   1
_chemical_formula_structural   Cu3NiC2
_chemical_formula_sum   'Cu3 Ni1 C2'
_cell_volume   46.55795556
_cell_formula_units_Z   1
loop_
 _symmetry_equiv_pos_site_id
 _symmetry_equiv_pos_as_xyz
  1  'x, y, z'
loop_
 _atom_site_type_symbol
 _atom_site_label
 _atom_site_symmetry_multiplicity
 _atom_site_fract_x
 _atom_site_fract_y
 _atom_site_fract_z
 _atom_site_occupancy
  C  C0  1  0.00000000  0.00000000  0.00000000  1
  C  C1  1  0.50000000  0.50000000  0.50000000  1
  Cu  Cu2  1  0.65057794  0.58598592  0.13293706  1
  Cu  Cu3  1  0.64241649  0.08816366  0.62415020  1
  Ni  Ni4  1  0.13036000  0.62321300  0.62321300  1
  Cu  Cu5  1  0.62197433  0.69017664  0.56919051  1
