# generated using pymatgen
data_CuC3
_symmetry_space_group_name_H-M   'P 1'
_cell_length_a   5.87796700
_cell_length_b   7.95150028
_cell_length_c   9.69124456
_cell_angle_alpha   100.93401398
_cell_angle_beta   89.77266665
_cell_angle_gamma   100.93891277
_symmetry_Int_Tables_number   1
_chemical_formula_structural   CuC3
_chemical_formula_sum   'Cu12 C36'
_cell_volume   436.41111554
_cell_formula_units_Z   12
loop_
 _symmetry_equiv_pos_site_id
 _symmetry_equiv_pos_as_xyz
  1  'x, y, z'
loop_
 _atom_site_type_symbol
 _atom_site_label
 _atom_site_symmetry_multiplicity
 _atom_site_fract_x
 _atom_site_fract_y
 _atom_site_fract_z
 _atom_site_occupancy
  C  C0  1  0.65831900  0.65525300  0.50035800  1
  C  C1  1  0.34168100  0.34474700  0.49964200  1
  C  C2  1  0.91798700  0.66453800  0.00686000  1
  C  C3  1  0.08201300  0.33546200  0.99314000  1
  C  C4  1  0.41855100  0.66431900  0.00605400  1
  C  C5  1  0.58144900  0.33568100  0.99394600  1
  C  C6  1  0.24995000  0.00022100  0.00033500  1
  C  C7  1  0.75005000  0.99977900  0.99966500  1
  C  C8  1  0.16926900  0.65977900  0.49927100  1
  C  C9  1  0.83073100  0.34022100  0.50072900  1
  C  C10  1  0.00000000  0.00000000  0.50000000  1
  C  C11  1  0.50000000  0.00000000  0.50000000  1
  Cu  Cu12  1  0.20217132  0.81299104  0.27288749  1
  Cu  Cu13  1  0.67924148  0.86261761  0.30582408  1
  Cu  Cu14  1  0.95625021  0.81622501  0.69176905  1
  Cu  Cu15  1  0.83706709  0.48527900  0.27818926  1
  Cu  Cu16  1  0.44200283  0.80931797  0.69729086  1
  Cu  Cu17  1  0.08471332  0.53923418  0.73015195  1
  Cu  Cu18  1  0.36400459  0.51668209  0.29816378  1
  Cu  Cu19  1  0.04465267  0.18065541  0.29482272  1
  Cu  Cu20  1  0.64689973  0.48571889  0.72256541  1
  Cu  Cu21  1  0.58589376  0.18018858  0.29569816  1
  Cu  Cu22  1  0.83413792  0.16456879  0.72196609  1
  Cu  Cu23  1  0.31525249  0.16528545  0.69610693  1
  C  C24  1  0.19818800  0.78083900  0.11425700  1
  C  C25  1  0.21586600  0.86907500  0.39361600  1
  C  C26  1  0.72092700  0.88341900  0.39949900  1
  C  C27  1  0.69760200  0.78079800  0.11343800  1
  C  C28  1  0.96889100  0.80861400  0.59682500  1
  C  C29  1  0.96830100  0.85463200  0.90400500  1
  C  C30  1  0.89756700  0.52089100  0.39470500  1
  C  C31  1  0.86512500  0.46477000  0.10156700  1
  C  C32  1  0.46730500  0.85496300  0.90394000  1
  C  C33  1  0.13487500  0.53523000  0.89843300  1
  C  C34  1  0.43605200  0.81165600  0.60170900  1
  C  C35  1  0.10243300  0.47910900  0.60529500  1
  C  C36  1  0.03110900  0.19138600  0.40317500  1
  C  C37  1  0.36382000  0.46453800  0.09995900  1
  C  C38  1  0.36884400  0.54584200  0.39348700  1
  C  C39  1  0.03169900  0.14536800  0.09599500  1
  C  C40  1  0.63618000  0.53546200  0.90004100  1
  C  C41  1  0.63115600  0.45415800  0.60651300  1
  C  C42  1  0.56394800  0.18834400  0.39829100  1
  C  C43  1  0.53269500  0.14503700  0.09606000  1
  C  C44  1  0.80181200  0.21916100  0.88574300  1
  C  C45  1  0.78413400  0.13092500  0.60638400  1
  C  C46  1  0.27907300  0.11658100  0.60050100  1
  C  C47  1  0.30239800  0.21920200  0.88656200  1
