# generated using pymatgen
data_Cu4C9
_symmetry_space_group_name_H-M   'P 1'
_cell_length_a   6.73519100
_cell_length_b   10.03715110
_cell_length_c   10.77612072
_cell_angle_alpha   89.17702285
_cell_angle_beta   103.34339062
_cell_angle_gamma   101.29686787
_symmetry_Int_Tables_number   1
_chemical_formula_structural   Cu4C9
_chemical_formula_sum   'Cu16 C36'
_cell_volume   694.72620237
_cell_formula_units_Z   4
loop_
 _symmetry_equiv_pos_site_id
 _symmetry_equiv_pos_as_xyz
  1  'x, y, z'
loop_
 _atom_site_type_symbol
 _atom_site_label
 _atom_site_symmetry_multiplicity
 _atom_site_fract_x
 _atom_site_fract_y
 _atom_site_fract_z
 _atom_site_occupancy
  C  C0  1  0.76813900  0.01207900  0.59227400  1
  C  C1  1  0.23186100  0.98792100  0.40772600  1
  C  C2  1  0.24236300  0.61932300  0.50557200  1
  C  C3  1  0.75763700  0.38067700  0.49442800  1
  C  C4  1  0.66819400  0.48288600  0.87653600  1
  C  C5  1  0.33180600  0.51711400  0.12346400  1
  C  C6  1  0.64891400  0.87815200  0.95303600  1
  C  C7  1  0.35108600  0.12184800  0.04696400  1
  Cu  Cu8  1  0.30622886  0.26070485  0.56092640  1
  Cu  Cu9  1  0.73010040  0.71023526  0.46249834  1
  Cu  Cu10  1  0.86800070  0.20479397  0.84540093  1
  Cu  Cu11  1  0.16611684  0.78612366  0.16018833  1
  Cu  Cu12  1  0.07211279  0.52343263  0.78337578  1
  Cu  Cu13  1  0.88217389  0.43405127  0.20574075  1
  Cu  Cu14  1  0.21394894  0.93625503  0.72144341  1
  Cu  Cu15  1  0.81130807  0.07708299  0.27624129  1
  Cu  Cu16  1  0.43840390  0.15095168  0.73490276  1
  Cu  Cu17  1  0.59136933  0.87901430  0.26246019  1
  Cu  Cu18  1  0.90879136  0.72336672  0.67061623  1
  Cu  Cu19  1  0.09909223  0.27356383  0.32566496  1
  Cu  Cu20  1  0.14325638  0.76771411  0.91892173  1
  Cu  Cu21  1  0.93791978  0.22979717  0.10998219  1
  Cu  Cu22  1  0.13298447  0.30862589  0.77053558  1
  Cu  Cu23  1  0.82088236  0.68046685  0.25581385  1
  C  C24  1  0.87560200  0.74452500  0.80299900  1
  C  C25  1  0.07463100  0.82089200  0.64448200  1
  C  C26  1  0.28295100  0.30259900  0.42030900  1
  C  C27  1  0.71704900  0.69740100  0.57969100  1
  C  C28  1  0.01184600  0.42255400  0.31008200  1
  C  C29  1  0.92536900  0.17910800  0.35551800  1
  C  C30  1  0.66690100  0.98149700  0.30772700  1
  C  C31  1  0.33309900  0.01850300  0.69227300  1
  C  C32  1  0.36016200  0.84286100  0.17239600  1
  C  C33  1  0.63983800  0.15713900  0.82760400  1
  C  C34  1  0.68292100  0.77019400  0.19507900  1
  C  C35  1  0.31707900  0.22980600  0.80492100  1
  C  C36  1  0.77578000  0.55317600  0.18201800  1
  C  C37  1  0.22422000  0.44682400  0.81798200  1
  C  C38  1  0.53820200  0.76801700  0.38282000  1
  C  C39  1  0.46179800  0.23198300  0.61718000  1
  C  C40  1  0.84022300  0.66959200  0.39086000  1
  C  C41  1  0.15977700  0.33040800  0.60914000  1
  C  C42  1  0.05507300  0.75310500  0.24817400  1
  C  C43  1  0.94492700  0.24689500  0.75182600  1
  C  C44  1  0.18710000  0.65402200  0.90016600  1
  C  C45  1  0.81290000  0.34597800  0.09983400  1
  C  C46  1  0.21136400  0.89680800  0.86484100  1
  C  C47  1  0.78863600  0.10319200  0.13515900  1
  C  C48  1  0.96990900  0.21573900  0.97531300  1
  C  C49  1  0.03009100  0.78426100  0.02468700  1
  C  C50  1  0.98815400  0.57744600  0.68991800  1
  C  C51  1  0.12439800  0.25547500  0.19700100  1
