# generated using pymatgen
data_Cu15NiC84
_symmetry_space_group_name_H-M   'P 1'
_cell_length_a   7.05760600
_cell_length_b   13.61261300
_cell_length_c   14.18709300
_cell_angle_alpha   90.00000000
_cell_angle_beta   90.00000000
_cell_angle_gamma   90.00000000
_symmetry_Int_Tables_number   1
_chemical_formula_structural   Cu15NiC84
_chemical_formula_sum   'Cu15 Ni1 C84'
_cell_volume   1362.98891319
_cell_formula_units_Z   1
loop_
 _symmetry_equiv_pos_site_id
 _symmetry_equiv_pos_as_xyz
  1  'x, y, z'
loop_
 _atom_site_type_symbol
 _atom_site_label
 _atom_site_symmetry_multiplicity
 _atom_site_fract_x
 _atom_site_fract_y
 _atom_site_fract_z
 _atom_site_occupancy
  C  C0  1  0.41059000  0.25000000  0.85939700  1
  C  C1  1  0.91059000  0.75000000  0.64060300  1
  C  C2  1  0.08941000  0.25000000  0.35939700  1
  C  C3  1  0.58941000  0.75000000  0.14060300  1
  C  C4  1  0.76399600  0.96277600  0.52928600  1
  C  C5  1  0.23600400  0.03722400  0.47071400  1
  C  C6  1  0.26399600  0.46277600  0.97071400  1
  C  C7  1  0.76399600  0.53722400  0.52928600  1
  C  C8  1  0.73600400  0.53722400  0.02928600  1
  C  C9  1  0.23600400  0.46277600  0.47071400  1
  C  C10  1  0.26399600  0.03722400  0.97071400  1
  C  C11  1  0.73600400  0.96277600  0.02928600  1
  C  C12  1  0.88101800  0.94281200  0.28745700  1
  C  C13  1  0.38101800  0.05718800  0.21254300  1
  C  C14  1  0.11898200  0.44281200  0.71254300  1
  C  C15  1  0.61898200  0.94281200  0.78745700  1
  C  C16  1  0.61898200  0.55718800  0.78745700  1
  C  C17  1  0.38101800  0.44281200  0.21254300  1
  C  C18  1  0.11898200  0.05718800  0.71254300  1
  C  C19  1  0.88101800  0.55718800  0.28745700  1
  Cu  Cu20  1  0.13421567  0.86864817  0.86573009  1
  Cu  Cu21  1  0.39760797  0.87315361  0.34316887  1
  Cu  Cu22  1  0.59090386  0.12272801  0.42578917  1
  Cu  Cu23  1  0.87062489  0.14452517  0.92188478  1
  Cu  Cu24  1  0.37775040  0.86813354  0.57438194  1
  Cu  Cu25  1  0.63247289  0.37560203  0.66890923  1
  Cu  Cu26  1  0.38997958  0.65210018  0.34536129  1
  Cu  Cu27  1  0.39054939  0.63354368  0.58000988  1
  Cu  Cu28  1  0.87925264  0.13300543  0.14913391  1
  Cu  Cu29  1  0.13213604  0.63462751  0.85186563  1
  Cu  Cu30  1  0.12640565  0.64733976  0.07916547  1
  Cu  Cu31  1  0.86459120  0.36913041  0.15036357  1
  Cu  Cu32  1  0.13241639  0.86672021  0.07950270  1
  Cu  Cu33  1  0.63239858  0.36040756  0.42113796  1
  Cu  Cu34  1  0.61446899  0.15617180  0.65568000  1
  Ni  Ni35  1  0.88090600  0.36285600  0.92558400  1
  C  C36  1  0.87939300  0.75000000  0.40152000  1
  C  C37  1  0.62060700  0.75000000  0.90152000  1
  C  C38  1  0.37939300  0.25000000  0.09848000  1
  C  C39  1  0.12060700  0.25000000  0.59848000  1
  C  C40  1  0.05102200  0.10041300  0.22118100  1
  C  C41  1  0.94897800  0.89958700  0.77881900  1
  C  C42  1  0.55666800  0.38279800  0.53804700  1
  C  C43  1  0.86881800  0.75000000  0.30960600  1
  C  C44  1  0.61432600  0.83328100  0.94589500  1
  C  C45  1  0.20730200  0.75000000  0.08171800  1
  C  C46  1  0.55102200  0.60041300  0.27881900  1
  C  C47  1  0.57601600  0.87477200  0.63386900  1
  C  C48  1  0.57601600  0.62522800  0.63386900  1
  C  C49  1  0.63118200  0.75000000  0.80960600  1
  C  C50  1  0.38567400  0.16671900  0.05410500  1
  C  C51  1  0.29327100  0.56407800  0.10054500  1
  C  C52  1  0.94897800  0.60041300  0.77881900  1
  C  C53  1  0.44897800  0.10041300  0.72118100  1
  C  C54  1  0.29327100  0.93592200  0.10054500  1
  C  C55  1  0.70730200  0.25000000  0.41828200  1
  C  C56  1  0.88567400  0.83328100  0.44589500  1
  C  C57  1  0.29269800  0.75000000  0.58171800  1
  C  C58  1  0.70672900  0.43592200  0.89945500  1
  C  C59  1  0.13118200  0.25000000  0.69039400  1
  C  C60  1  0.20447400  0.93923200  0.32731700  1
  C  C61  1  0.94333200  0.11720200  0.03804700  1
  C  C62  1  0.20447400  0.56076800  0.32731700  1
  C  C63  1  0.79552600  0.06076800  0.67268300  1
  C  C64  1  0.07601600  0.37477200  0.86613100  1
  C  C65  1  0.11432600  0.16671900  0.55410500  1
  C  C66  1  0.16910800  0.75000000  0.83181000  1
  C  C67  1  0.42398400  0.12522800  0.36613100  1
  C  C68  1  0.05102200  0.39958700  0.22118100  1
  C  C69  1  0.36881800  0.25000000  0.19039400  1
  C  C70  1  0.61432600  0.66671900  0.94589500  1
  C  C71  1  0.66910800  0.25000000  0.66819000  1
  C  C72  1  0.92398400  0.62522800  0.13386900  1
  C  C73  1  0.20672900  0.56407800  0.60054500  1
  C  C74  1  0.11432600  0.33328100  0.55410500  1
  C  C75  1  0.29552600  0.56076800  0.82731700  1
  C  C76  1  0.29552600  0.93923200  0.82731700  1
  C  C77  1  0.79327100  0.43592200  0.39945500  1
  C  C78  1  0.20672900  0.93592200  0.60054500  1
  C  C79  1  0.38567400  0.33328100  0.05410500  1
  C  C80  1  0.70672900  0.06407800  0.89945500  1
  C  C81  1  0.33089200  0.75000000  0.33181000  1
  C  C82  1  0.05666800  0.88279800  0.96195300  1
  C  C83  1  0.55102200  0.89958700  0.27881900  1
  C  C84  1  0.44333200  0.61720200  0.46195300  1
  C  C85  1  0.94333200  0.38279800  0.03804700  1
  C  C86  1  0.79327100  0.06407800  0.39945500  1
  C  C87  1  0.05666800  0.61720200  0.96195300  1
  C  C88  1  0.79552600  0.43923200  0.67268300  1
  C  C89  1  0.07601600  0.12522800  0.86613100  1
  C  C90  1  0.55666800  0.11720200  0.53804700  1
  C  C91  1  0.44333200  0.88279800  0.46195300  1
  C  C92  1  0.83089200  0.25000000  0.16819000  1
  C  C93  1  0.92398400  0.87477200  0.13386900  1
  C  C94  1  0.42398400  0.37477200  0.36613100  1
  C  C95  1  0.88567400  0.66671900  0.44589500  1
  C  C96  1  0.70447400  0.06076800  0.17268300  1
  C  C97  1  0.70447400  0.43923200  0.17268300  1
  C  C98  1  0.79269800  0.25000000  0.91828200  1
  C  C99  1  0.44897800  0.39958700  0.72118100  1
