# generated using pymatgen
data_CuC6
_symmetry_space_group_name_H-M   'P 1'
_cell_length_a   10.10610200
_cell_length_b   12.43761320
_cell_length_c   12.43762715
_cell_angle_alpha   71.31579600
_cell_angle_beta   66.03114296
_cell_angle_gamma   66.03116480
_symmetry_Int_Tables_number   1
_chemical_formula_structural   CuC6
_chemical_formula_sum   'Cu12 C72'
_cell_volume   1282.57145776
_cell_formula_units_Z   12
loop_
 _symmetry_equiv_pos_site_id
 _symmetry_equiv_pos_as_xyz
  1  'x, y, z'
loop_
 _atom_site_type_symbol
 _atom_site_label
 _atom_site_symmetry_multiplicity
 _atom_site_fract_x
 _atom_site_fract_y
 _atom_site_fract_z
 _atom_site_occupancy
  C  C0  1  0.66687000  0.58237900  0.08428300  1
  C  C1  1  0.66647900  0.08235800  0.58433300  1
  C  C2  1  0.33343300  0.66564700  0.66758400  1
  C  C3  1  0.33321700  0.16571600  0.16769900  1
  C  C4  1  0.33313000  0.41762100  0.91571700  1
  C  C5  1  0.33352100  0.91764200  0.41566700  1
  C  C6  1  0.66656700  0.33435300  0.33241600  1
  C  C7  1  0.66678300  0.83428400  0.83230100  1
  C  C8  1  0.99596500  0.25454100  0.00658800  1
  C  C9  1  0.99555100  0.75670600  0.50676700  1
  C  C10  1  0.74091700  0.62281400  0.37280100  1
  C  C11  1  0.74296800  0.12190100  0.87402000  1
  C  C12  1  0.26344400  0.49542600  0.24549800  1
  C  C13  1  0.26119700  0.99544200  0.74747900  1
  C  C14  1  0.00403500  0.74545900  0.99341200  1
  C  C15  1  0.00444900  0.24329400  0.49323300  1
  C  C16  1  0.25908300  0.37718600  0.62719900  1
  C  C17  1  0.25703200  0.87809900  0.12598000  1
  C  C18  1  0.73655600  0.50457400  0.75450200  1
  C  C19  1  0.73880300  0.00455800  0.25252100  1
  Cu  Cu20  1  0.58407398  0.30124664  0.07485470  1
  Cu  Cu21  1  0.57250391  0.80111574  0.57019296  1
  Cu  Cu22  1  0.04223168  0.41494987  0.17282090  1
  Cu  Cu23  1  0.02543039  0.93471500  0.67304855  1
  Cu  Cu24  1  0.37823518  0.16257068  0.90680409  1
  Cu  Cu25  1  0.39121139  0.61051065  0.40535790  1
  Cu  Cu26  1  0.44072034  0.68138854  0.93841183  1
  Cu  Cu27  1  0.39804317  0.19206566  0.44616303  1
  Cu  Cu28  1  0.97269255  0.57044517  0.83270448  1
  Cu  Cu29  1  0.96041827  0.06520049  0.34605812  1
  Cu  Cu30  1  0.62014089  0.84824958  0.09675536  1
  Cu  Cu31  1  0.63038175  0.33271165  0.63422983  1
  C  C32  1  0.00000000  0.50000000  0.50000000  1
  C  C33  1  0.00001100  0.75078300  0.24921900  1
  C  C34  1  0.99998900  0.24921700  0.75078100  1
  C  C35  1  0.00000000  0.00000000  0.00000000  1
  C  C36  1  0.64150200  0.34655900  0.92240300  1
  C  C37  1  0.64149900  0.84668300  0.42236700  1
  C  C38  1  0.08946000  0.53291400  0.10861000  1
  C  C39  1  0.08947700  0.03285100  0.60870500  1
  C  C40  1  0.26905100  0.25678800  0.83272400  1
  C  C41  1  0.26899600  0.75689200  0.33250600  1
  C  C42  1  0.35769200  0.82766800  0.90390600  1
  C  C43  1  0.35864600  0.32745100  0.40349300  1
  C  C44  1  0.91042300  0.64127200  0.71733600  1
  C  C45  1  0.91076900  0.14070500  0.21694200  1
  C  C46  1  0.73148300  0.91724300  0.99350600  1
  C  C47  1  0.73100800  0.41721500  0.49325000  1
  C  C48  1  0.35849800  0.65344100  0.07759700  1
  C  C49  1  0.35850100  0.15331700  0.57763300  1
  C  C50  1  0.91054000  0.46708600  0.89139000  1
  C  C51  1  0.91052300  0.96714900  0.39129500  1
  C  C52  1  0.73094900  0.74321200  0.16727600  1
  C  C53  1  0.73100400  0.24310800  0.66749400  1
  C  C54  1  0.64230800  0.17233200  0.09609400  1
  C  C55  1  0.64135400  0.67254900  0.59650700  1
  C  C56  1  0.08957700  0.35872800  0.28266400  1
  C  C57  1  0.08923100  0.85929500  0.78305800  1
  C  C58  1  0.26851700  0.08275700  0.00649400  1
  C  C59  1  0.26899200  0.58278500  0.50675000  1
  C  C60  1  0.41200900  0.35653100  0.10682400  1
  C  C61  1  0.41167100  0.85699700  0.60701900  1
  C  C62  1  0.12431600  0.33082800  0.08085400  1
  C  C63  1  0.12460800  0.83086500  0.58114900  1
  C  C64  1  0.46387500  0.18698300  0.93733800  1
  C  C65  1  0.46350300  0.68733000  0.43728700  1
  C  C66  1  0.58799100  0.64346900  0.89317600  1
  C  C67  1  0.58832900  0.14300300  0.39298100  1
  C  C68  1  0.87568400  0.66917200  0.91914600  1
  C  C69  1  0.87539200  0.16913500  0.41885100  1
  C  C70  1  0.53612500  0.81301700  0.06266200  1
  C  C71  1  0.53649700  0.31267000  0.56271300  1
  C  C72  1  0.65472500  0.36717800  0.11728600  1
  C  C73  1  0.65485400  0.86718800  0.61725700  1
  C  C74  1  0.86071200  0.45240100  0.20245400  1
  C  C75  1  0.86080400  0.95231500  0.70243700  1
  C  C76  1  0.48451900  0.55538400  0.30538500  1
  C  C77  1  0.48443000  0.05526700  0.80544200  1
  C  C78  1  0.34527500  0.63282200  0.88271400  1
  C  C79  1  0.34514600  0.13281200  0.38274300  1
  C  C80  1  0.13928800  0.54759900  0.79754600  1
  C  C81  1  0.13919600  0.04768500  0.29756300  1
  C  C82  1  0.51548100  0.44461600  0.69461500  1
  C  C83  1  0.51557000  0.94473300  0.19455800  1
