# generated using pymatgen
data_Cu8Ni2C25
_symmetry_space_group_name_H-M   'P 1'
_cell_length_a   12.13643592
_cell_length_b   13.03396156
_cell_length_c   12.19790796
_cell_angle_alpha   94.44518266
_cell_angle_beta   86.77790521
_cell_angle_gamma   88.85756098
_symmetry_Int_Tables_number   1
_chemical_formula_structural   Cu8Ni2C25
_chemical_formula_sum   'Cu24 Ni6 C75'
_cell_volume   1920.11891963
_cell_formula_units_Z   3
loop_
 _symmetry_equiv_pos_site_id
 _symmetry_equiv_pos_as_xyz
  1  'x, y, z'
loop_
 _atom_site_type_symbol
 _atom_site_label
 _atom_site_symmetry_multiplicity
 _atom_site_fract_x
 _atom_site_fract_y
 _atom_site_fract_z
 _atom_site_occupancy
  Cu  Cu0  1  0.08427507  0.77492560  0.14458568  1
  Cu  Cu1  1  0.96624384  0.88406454  0.65492002  1
  Ni  Ni2  1  0.02080730  0.10705329  0.14390907  1
  Cu  Cu3  1  0.83366253  0.15756264  0.33524647  1
  Cu  Cu4  1  0.95455298  0.94998392  0.96514727  1
  Cu  Cu5  1  0.14717739  0.80901755  0.82791375  1
  Cu  Cu6  1  0.01789806  0.58421193  0.88701021  1
  Cu  Cu7  1  0.48074956  0.61392726  0.26480003  1
  Cu  Cu8  1  0.69179794  0.48714937  0.60318384  1
  Ni  Ni9  1  0.06775025  0.52317667  0.16010717  1
  Cu  Cu10  1  0.56503335  0.13603434  0.39586203  1
  Cu  Cu11  1  0.38991963  0.95665287  0.47795401  1
  Cu  Cu12  1  0.31980463  0.82756101  0.94450765  1
  Ni  Ni13  1  0.56723915  0.21710352  0.79582035  1
  Cu  Cu14  1  0.86091166  0.66198590  0.50217177  1
  Cu  Cu15  1  0.14023982  0.18532719  0.50500215  1
  Cu  Cu16  1  0.13287039  0.90994619  0.40314296  1
  Cu  Cu17  1  0.30366193  0.06650104  0.05673548  1
  Cu  Cu18  1  0.41413676  0.53230780  0.50709656  1
  Cu  Cu19  1  0.72742654  0.35426601  0.84018464  1
  Cu  Cu20  1  0.26412737  0.49293905  0.77578727  1
  Ni  Ni21  1  0.48430145  0.96934969  0.74689180  1
  Ni  Ni22  1  0.50526786  0.31157141  0.55743924  1
  Ni  Ni23  1  0.81345434  0.39653040  0.23097718  1
  Cu  Cu24  1  0.71769098  0.61097495  0.88341143  1
  Cu  Cu25  1  0.21532272  0.40813905  0.36934274  1
  Cu  Cu26  1  0.71746870  0.64876481  0.28302398  1
  Cu  Cu27  1  0.58427878  0.75886018  0.99180882  1
  Cu  Cu28  1  0.33553064  0.49227965  0.02978874  1
  Cu  Cu29  1  0.39818992  0.31067777  0.19092608  1
  C  C30  1  0.14747004  0.30977177  0.43757850  1
  C  C31  1  0.16290866  0.06760264  0.15991546  1
  C  C32  1  0.81350384  0.67119147  0.19018026  1
  C  C33  1  0.05772917  0.70958529  0.88603088  1
  C  C34  1  0.80416033  0.53649649  0.53597496  1
  C  C35  1  0.67300061  0.49189870  0.88440907  1
  C  C36  1  0.38682029  0.15766628  0.14490151  1
  C  C37  1  0.98220026  0.63201930  0.43438461  1
  C  C38  1  0.58778022  0.68148711  0.25600976  1
  C  C39  1  0.97960691  0.05518228  0.01282240  1
  C  C40  1  0.86038001  0.60606630  0.84821285  1
  C  C41  1  0.34429048  0.94709887  0.04516459  1
  C  C42  1  0.22094977  0.53822321  0.09377722  1
  C  C43  1  0.35280192  0.36143648  0.05065561  1
  C  C44  1  0.70150088  0.21168307  0.75139396  1
  C  C45  1  0.50141615  0.29978821  0.70420894  1
  C  C46  1  0.46691594  0.52282111  0.36710638  1
  C  C47  1  0.63494953  0.73992836  0.84891535  1
  C  C48  1  0.44620962  0.55029617  0.11927544  1
  C  C49  1  0.06184239  0.67277072  0.18902991  1
  C  C50  1  0.05951716  0.33795640  0.96752368  1
  C  C51  1  0.26119163  0.12532830  0.96361560  1
  C  C52  1  0.09705277  0.06374866  0.42085140  1
  C  C53  1  0.13381882  0.46820482  0.28909563  1
  C  C54  1  0.11063385  0.37022272  0.04757538  1
  C  C55  1  0.21301601  0.78696760  0.06830622  1
  C  C56  1  0.25807333  0.35342134  0.76801836  1
  C  C57  1  0.82551651  0.28990128  0.32223642  1
  C  C58  1  0.89324927  0.75138309  0.61581520  1
  C  C59  1  0.11262995  0.51928467  0.79394732  1
  C  C60  1  0.85162373  0.34638331  0.88332737  1
  C  C61  1  0.26534824  0.74223809  0.84768476  1
  C  C62  1  0.43013241  0.75011070  0.99681079  1
  C  C63  1  0.27209924  0.50360049  0.46177796  1
  C  C64  1  0.04380453  0.87313045  0.49780257  1
  C  C65  1  0.57207096  0.16548989  0.55443673  1
  C  C66  1  0.45461859  0.05588257  0.39735417  1
  C  C67  1  0.76099186  0.35203690  0.11905312  1
  C  C68  1  0.72791953  0.50559205  0.29477315  1
  C  C69  1  0.66655398  0.59320070  0.71294761  1
  C  C70  1  0.67596955  0.66013746  0.01517356  1
  C  C71  1  0.73535826  0.39678019  0.68201060  1
  C  C72  1  0.93668717  0.45602214  0.19731440  1
  C  C73  1  0.04542416  0.20783609  0.61811762  1
  C  C74  1  0.80612100  0.92776240  0.97323693  1
  C  C75  1  0.36029604  0.68913574  0.29101402  1
  C  C76  1  0.92383825  0.07588438  0.25312879  1
  C  C77  1  0.32397404  0.34580677  0.28605729  1
  C  C78  1  0.90991770  0.97923336  0.65849741  1
  C  C79  1  0.98758381  0.84659307  0.07386645  1
  C  C80  1  0.43348358  0.65093889  0.54341800  1
  C  C81  1  0.37575153  0.32676695  0.53935685  1
  C  C82  1  0.26509455  0.91513936  0.43950381  1
  C  C83  1  0.48215131  0.85647151  0.44569760  1
  C  C84  1  0.10796156  0.87851173  0.27007334  1
  C  C85  1  0.50230398  0.09572941  0.81459969  1
  C  C86  1  0.98452499  0.87651484  0.83077431  1
  C  C87  1  0.76682246  0.70642652  0.41512032  1
  C  C88  1  0.86468457  0.14799000  0.46933541  1
  C  C89  1  0.53069456  0.31887279  0.17625316  1
  C  C90  1  0.41829809  0.88664033  0.84181614  1
  C  C91  1  0.53694087  0.26931584  0.39827460  1
  C  C92  1  0.33984600  0.51378481  0.66041733  1
  C  C93  1  0.25229729  0.14692269  0.55748495  1
  C  C94  1  0.58537886  0.30014957  0.90773187  1
  C  C95  1  0.01622301  0.23091958  0.15023855  1
  C  C96  1  0.19005181  0.91817704  0.90321092  1
  C  C97  1  0.69041360  0.10356423  0.34064879  1
  C  C98  1  0.40683867  0.97997198  0.62562110  1
  C  C99  1  0.55205006  0.45146014  0.55346653  1
  C  C100  1  0.60420154  0.92157283  0.70743534  1
  C  C101  1  0.61057335  0.87639557  0.04308830  1
  C  C102  1  0.00963424  0.55096500  0.00843098  1
  C  C103  1  0.34261337  0.51483887  0.89507770  1
  C  C104  1  0.14019525  0.83907622  0.68711590  1
