# generated using pymatgen
data_CuNiC11
_symmetry_space_group_name_H-M   'P 1'
_cell_length_a   5.24505759
_cell_length_b   5.24505759
_cell_length_c   9.13025600
_cell_angle_alpha   90.00000000
_cell_angle_beta   90.00000000
_cell_angle_gamma   119.99999484
_symmetry_Int_Tables_number   1
_chemical_formula_structural   CuNiC11
_chemical_formula_sum   'Cu1 Ni1 C11'
_cell_volume   217.52748129
_cell_formula_units_Z   1
loop_
 _symmetry_equiv_pos_site_id
 _symmetry_equiv_pos_as_xyz
  1  'x, y, z'
loop_
 _atom_site_type_symbol
 _atom_site_label
 _atom_site_symmetry_multiplicity
 _atom_site_fract_x
 _atom_site_fract_y
 _atom_site_fract_z
 _atom_site_occupancy
  C  C0  1  0.33333300  0.66666700  0.65037200  1
  C  C1  1  0.66666700  0.33333300  0.34962800  1
  C  C2  1  0.00000000  0.00000000  0.00000000  1
  Cu  Cu3  1  0.36038463  0.64616595  0.18251230  1
  Ni  Ni4  1  0.66666700  0.33333300  0.80568900  1
  C  C5  1  0.33333300  0.66666700  0.36131900  1
  C  C6  1  0.66666700  0.33333300  0.63868100  1
  C  C7  1  0.27082100  0.90932100  0.13534600  1
  C  C8  1  0.09067900  0.36149900  0.13534600  1
  C  C9  1  0.63850100  0.72917900  0.13534600  1
  C  C10  1  0.72917900  0.09067900  0.86465400  1
  C  C11  1  0.90932100  0.63850100  0.86465400  1
  C  C12  1  0.36149900  0.27082100  0.86465400  1
