# generated using pymatgen
data_Cu15NiC12
_symmetry_space_group_name_H-M   'P 1'
_cell_length_a   5.82798023
_cell_length_b   5.82798023
_cell_length_c   9.63609500
_cell_angle_alpha   90.00000000
_cell_angle_beta   90.00000000
_cell_angle_gamma   120.00000263
_symmetry_Int_Tables_number   1
_chemical_formula_structural   Cu15NiC12
_chemical_formula_sum   'Cu15 Ni1 C12'
_cell_volume   283.44436869
_cell_formula_units_Z   1
loop_
 _symmetry_equiv_pos_site_id
 _symmetry_equiv_pos_as_xyz
  1  'x, y, z'
loop_
 _atom_site_type_symbol
 _atom_site_label
 _atom_site_symmetry_multiplicity
 _atom_site_fract_x
 _atom_site_fract_y
 _atom_site_fract_z
 _atom_site_occupancy
  C  C0  1  0.33333300  0.66666700  0.89358700  1
  C  C1  1  0.00000000  0.00000000  0.99788600  1
  C  C2  1  0.00000000  0.00000000  0.49788600  1
  C  C3  1  0.66666700  0.33333300  0.39358700  1
  C  C4  1  0.16861500  0.83138500  0.21381600  1
  C  C5  1  0.16861500  0.33722900  0.21381600  1
  C  C6  1  0.66277100  0.83138500  0.21381600  1
  C  C7  1  0.33722900  0.16861500  0.71381600  1
  C  C8  1  0.83138500  0.66277100  0.71381600  1
  C  C9  1  0.83138500  0.16861500  0.71381600  1
  C  C10  1  0.33333300  0.66666700  0.49000700  1
  C  C11  1  0.66666700  0.33333300  0.99000700  1
  Cu  Cu12  1  0.17396208  0.84888680  0.60601216  1
  Cu  Cu13  1  0.04046710  0.51821611  0.34110793  1
  Cu  Cu14  1  0.33646906  0.66660087  0.10406551  1
  Cu  Cu15  1  0.00067431  0.98597311  0.33442907  1
  Cu  Cu16  1  0.04155236  0.99082115  0.78743785  1
  Cu  Cu17  1  0.18424333  0.32469272  0.60929996  1
  Cu  Cu18  1  0.49064868  0.98123344  0.34153385  1
  Ni  Ni19  1  0.48087300  0.51912700  0.32743100  1
  Cu  Cu20  1  0.31990888  0.21194302  0.11473735  1
  Cu  Cu21  1  0.68520374  0.85787332  0.60058360  1
  Cu  Cu22  1  0.54044688  0.54520601  0.86440302  1
  Cu  Cu23  1  0.55243001  0.08230448  0.83141004  1
  Cu  Cu24  1  0.63634034  0.32238212  0.60530994  1
  Cu  Cu25  1  0.82093188  0.68073796  0.11744969  1
  Cu  Cu26  1  0.97493709  0.48441546  0.82220493  1
  Cu  Cu27  1  0.85977914  0.15454561  0.08067553  1
