# generated using pymatgen
data_Cu12Ni5C16
_symmetry_space_group_name_H-M   'P 1'
_cell_length_a   5.54411644
_cell_length_b   5.54411644
_cell_length_c   12.09898187
_cell_angle_alpha   88.76827520
_cell_angle_beta   88.76827520
_cell_angle_gamma   69.57008783
_symmetry_Int_Tables_number   1
_chemical_formula_structural   Cu12Ni5C16
_chemical_formula_sum   'Cu12 Ni5 C16'
_cell_volume   348.37789546
_cell_formula_units_Z   1
loop_
 _symmetry_equiv_pos_site_id
 _symmetry_equiv_pos_as_xyz
  1  'x, y, z'
loop_
 _atom_site_type_symbol
 _atom_site_label
 _atom_site_symmetry_multiplicity
 _atom_site_fract_x
 _atom_site_fract_y
 _atom_site_fract_z
 _atom_site_occupancy
  C  C0  1  0.68248400  0.72915100  0.73740400  1
  C  C1  1  0.27084900  0.31751600  0.26259600  1
  C  C2  1  0.00562000  0.50977200  0.99696700  1
  C  C3  1  0.49022800  0.99438000  0.00303300  1
  C  C4  1  0.02789900  0.04920300  0.84689900  1
  C  C5  1  0.95079700  0.97210100  0.15310100  1
  C  C6  1  0.10844000  0.10161600  0.60372900  1
  C  C7  1  0.89838400  0.89156000  0.39627100  1
  C  C8  1  0.95028600  0.48701200  0.51706400  1
  C  C9  1  0.51298800  0.04971400  0.48293600  1
  C  C10  1  0.46323600  0.40818000  0.90204000  1
  C  C11  1  0.59182000  0.53676400  0.09796000  1
  C  C12  1  0.44931600  0.30118000  0.66899100  1
  C  C13  1  0.69882000  0.55068400  0.33100900  1
  C  C14  1  0.28051400  0.49464500  0.75550800  1
  C  C15  1  0.50535500  0.71948600  0.24449200  1
  Cu  Cu16  1  0.85821389  0.91330324  0.90332462  1
  Ni  Ni17  1  0.10482400  0.14238900  0.09279800  1
  Cu  Cu18  1  0.01765462  0.98901763  0.70274929  1
  Cu  Cu19  1  0.97471740  0.02222247  0.29223832  1
  Ni  Ni20  1  0.92510100  0.36367100  0.86158600  1
  Cu  Cu21  1  0.62003496  0.09141696  0.14016871  1
  Cu  Cu22  1  0.11865880  0.66208810  0.12255653  1
  Cu  Cu23  1  0.34015592  0.89385539  0.85651048  1
  Cu  Cu24  1  0.05477181  0.91587169  0.49155256  1
  Cu  Cu25  1  0.41739450  0.03772170  0.60931607  1
  Cu  Cu26  1  0.91394320  0.63227462  0.38281680  1
  Cu  Cu27  1  0.91990052  0.42956772  0.59244683  1
  Ni  Ni28  1  0.58385300  0.05871400  0.40494600  1
  Ni  Ni29  1  0.37002400  0.35544900  0.96133900  1
  Ni  Ni30  1  0.64455100  0.62997600  0.03866100  1
  Cu  Cu31  1  0.47021874  0.46030319  0.71956721  1
  Cu  Cu32  1  0.52133777  0.54494081  0.30375769  1
