# generated using pymatgen
data_CuNiC38
_symmetry_space_group_name_H-M   'P 1'
_cell_length_a   9.37112938
_cell_length_b   7.84401200
_cell_length_c   7.64754359
_cell_angle_alpha   90.00000000
_cell_angle_beta   106.74562552
_cell_angle_gamma   90.00000000
_symmetry_Int_Tables_number   1
_chemical_formula_structural   CuNiC38
_chemical_formula_sum   'Cu1 Ni1 C38'
_cell_volume   538.31102084
_cell_formula_units_Z   1
loop_
 _symmetry_equiv_pos_site_id
 _symmetry_equiv_pos_as_xyz
  1  'x, y, z'
loop_
 _atom_site_type_symbol
 _atom_site_label
 _atom_site_symmetry_multiplicity
 _atom_site_fract_x
 _atom_site_fract_y
 _atom_site_fract_z
 _atom_site_occupancy
  C  C0  1  0.06789600  0.79255800  0.38770000  1
  C  C1  1  0.06789600  0.20744200  0.88770000  1
  C  C2  1  0.20107100  0.84867500  0.99606200  1
  C  C3  1  0.20107100  0.15132500  0.49606200  1
  Ni  Ni4  1  0.78718900  0.87506800  0.57959600  1
  Cu  Cu5  1  0.79696315  0.10056742  0.09710723  1
  C  C6  1  0.43105000  0.88823400  0.44158200  1
  C  C7  1  0.43105000  0.11176600  0.94158200  1
  C  C8  1  0.83608400  0.78777700  0.98907500  1
  C  C9  1  0.55910300  0.62158800  0.75923500  1
  C  C10  1  0.83608400  0.21222300  0.48907500  1
  C  C11  1  0.55910300  0.37841200  0.25923500  1
  C  C12  1  0.00703800  0.54731600  0.68988700  1
  C  C13  1  0.00703800  0.45268400  0.18988700  1
  C  C14  1  0.57769600  0.22433700  0.65635900  1
  C  C15  1  0.57769600  0.77566300  0.15635900  1
  C  C16  1  0.44366300  0.07985300  0.57209100  1
  C  C17  1  0.44366300  0.92014700  0.07209100  1
  C  C18  1  0.73429400  0.28252300  0.28734500  1
  C  C19  1  0.94166500  0.63688900  0.11736800  1
  C  C20  1  0.24580000  0.91398800  0.30110800  1
  C  C21  1  0.73429400  0.71747700  0.78734500  1
  C  C22  1  0.74326800  0.14010100  0.62777400  1
  C  C23  1  0.94166500  0.36311100  0.61736800  1
  C  C24  1  0.24580000  0.08601200  0.80110800  1
  C  C25  1  0.94395500  0.29088300  0.07431300  1
  C  C26  1  0.74326800  0.85989900  0.12777400  1
  C  C27  1  0.94395500  0.70911700  0.57431300  1
  C  C28  1  0.44364100  0.29387700  0.08424100  1
  C  C29  1  0.60288400  0.86877400  0.37585700  1
  C  C30  1  0.93958000  0.06056000  0.45453400  1
  C  C31  1  0.44364100  0.70612300  0.58424100  1
  C  C32  1  0.60288400  0.13122600  0.87585700  1
  C  C33  1  0.12102300  0.55437100  0.88523000  1
  C  C34  1  0.59292300  0.58133400  0.25823100  1
  C  C35  1  0.93958000  0.93944000  0.95453400  1
  C  C36  1  0.12102300  0.44562900  0.38523000  1
  C  C37  1  0.59292300  0.41866600  0.75823100  1
  C  C38  1  0.52728100  0.67022200  0.94731300  1
  C  C39  1  0.52728100  0.32977800  0.44731300  1
