# generated using pymatgen
data_Cu12NiC5
_symmetry_space_group_name_H-M   'P 1'
_cell_length_a   8.92243884
_cell_length_b   8.90320280
_cell_length_c   23.09145317
_cell_angle_alpha   90.26080501
_cell_angle_beta   90.00000000
_cell_angle_gamma   120.07149703
_symmetry_Int_Tables_number   1
_chemical_formula_structural   Cu12NiC5
_chemical_formula_sum   'Cu72 Ni6 C30'
_cell_volume   1587.42199987
_cell_formula_units_Z   6
loop_
 _symmetry_equiv_pos_site_id
 _symmetry_equiv_pos_as_xyz
  1  'x, y, z'
loop_
 _atom_site_type_symbol
 _atom_site_label
 _atom_site_symmetry_multiplicity
 _atom_site_fract_x
 _atom_site_fract_y
 _atom_site_fract_z
 _atom_site_occupancy
  Ni  Ni0  1  0.01926629  0.01149210  0.49795318  1
  Ni  Ni1  1  0.99222581  0.01149210  0.99795318  1
  Ni  Ni2  1  0.68593329  0.34482510  0.83128618  1
  Ni  Ni3  1  0.65889281  0.34482510  0.33128618  1
  Ni  Ni4  1  0.35259929  0.67815910  0.16462018  1
  Ni  Ni5  1  0.32555881  0.67815910  0.66462018  1
  C  C6  1  0.01136397  0.99279807  0.35508423  1
  C  C7  1  0.98143411  0.99279807  0.85508423  1
  C  C8  1  0.67803097  0.32613107  0.68841723  1
  C  C9  1  0.64810111  0.32613107  0.18841723  1
  C  C10  1  0.34469697  0.65946507  0.02175123  1
  C  C11  1  0.31476711  0.65946507  0.52175123  1
  C  C12  1  0.99720083  0.99315238  0.64511373  1
  C  C13  1  0.99595155  0.99315238  0.14511373  1
  C  C14  1  0.66386783  0.32648538  0.97844673  1
  C  C15  1  0.66261855  0.32648538  0.47844673  1
  C  C16  1  0.33053383  0.65981938  0.31178073  1
  C  C17  1  0.32928455  0.65981938  0.81178073  1
  C  C18  1  0.28726606  0.99352252  0.24984942  1
  C  C19  1  0.71155811  0.71204872  0.25097411  1
  C  C20  1  0.00049061  0.71204872  0.75097411  1
  C  C21  1  0.70625646  0.99352252  0.74984942  1
  C  C22  1  0.95393306  0.32685552  0.58318242  1
  C  C23  1  0.37822511  0.04538172  0.58430711  1
  C  C24  1  0.66715761  0.04538172  0.08430711  1
  C  C25  1  0.37292346  0.32685552  0.08318242  1
  C  C26  1  0.62059906  0.66018952  0.91651642  1
  C  C27  1  0.04489111  0.37871572  0.91764111  1
  C  C28  1  0.33382361  0.37871572  0.41764111  1
  C  C29  1  0.03958946  0.66018952  0.41651642  1
  C  C30  1  0.00143305  0.28724241  0.24989646  1
  C  C31  1  0.28580936  0.28724241  0.74989646  1
  C  C32  1  0.66810005  0.62057541  0.58322946  1
  C  C33  1  0.95247636  0.62057541  0.08322946  1
  C  C34  1  0.33476605  0.95390941  0.91656346  1
  C  C35  1  0.61914236  0.95390941  0.41656346  1
  Cu  Cu36  1  0.20298592  0.02888228  0.30645761  1
  Cu  Cu37  1  0.82315707  0.81110066  0.30729371  1
  Cu  Cu38  1  0.97634554  0.18589522  0.30204250  1
  Cu  Cu39  1  0.20954968  0.18589522  0.80204250  1
  Cu  Cu40  1  0.98794360  0.81110066  0.80729371  1
  Cu  Cu41  1  0.82589636  0.02888228  0.80645761  1
  Cu  Cu42  1  0.80773685  0.97209842  0.69283658  1
  Cu  Cu43  1  0.17673121  0.20585462  0.69696876  1
  Cu  Cu44  1  0.02984450  0.83484288  0.69280753  1
  Cu  Cu45  1  0.80499838  0.83484288  0.19280753  1
  Cu  Cu46  1  0.02912341  0.20585462  0.19696876  1
  Cu  Cu47  1  0.16436156  0.97209842  0.19283658  1
  Cu  Cu48  1  0.86965292  0.36221528  0.63979061  1
  Cu  Cu49  1  0.48982407  0.14443366  0.64062671  1
  Cu  Cu50  1  0.64301254  0.51922822  0.63537550  1
  Cu  Cu51  1  0.87621668  0.51922822  0.13537550  1
  Cu  Cu52  1  0.65461060  0.14443366  0.14062671  1
  Cu  Cu53  1  0.49256336  0.36221528  0.13979061  1
  Cu  Cu54  1  0.47440385  0.30543142  0.02616958  1
  Cu  Cu55  1  0.84339821  0.53918762  0.03030176  1
  Cu  Cu56  1  0.69651150  0.16817588  0.02614053  1
  Cu  Cu57  1  0.47166538  0.16817588  0.52614053  1
  Cu  Cu58  1  0.69579041  0.53918762  0.53030176  1
  Cu  Cu59  1  0.83102856  0.30543142  0.52616958  1
  Cu  Cu60  1  0.53631892  0.69554928  0.97312461  1
  Cu  Cu61  1  0.15649007  0.47776766  0.97396071  1
  Cu  Cu62  1  0.30967854  0.85256222  0.96870950  1
  Cu  Cu63  1  0.54288268  0.85256222  0.46870950  1
  Cu  Cu64  1  0.32127660  0.47776766  0.47396071  1
  Cu  Cu65  1  0.15922936  0.69554928  0.47312461  1
  Cu  Cu66  1  0.14106985  0.63876542  0.35950358  1
  Cu  Cu67  1  0.51006421  0.87252162  0.36363576  1
  Cu  Cu68  1  0.36317750  0.50150988  0.35947453  1
  Cu  Cu69  1  0.13833138  0.50150988  0.85947453  1
  Cu  Cu70  1  0.36245641  0.87252162  0.86363576  1
  Cu  Cu71  1  0.49769456  0.63876542  0.85950358  1
  Cu  Cu72  1  0.01080904  0.82610475  0.41158879  1
  Cu  Cu73  1  0.79462623  0.98305806  0.40904380  1
  Cu  Cu74  1  0.15918958  0.19261355  0.41062516  1
  Cu  Cu75  1  0.03342396  0.19261355  0.91062516  1
  Cu  Cu76  1  0.18843183  0.98305806  0.90904380  1
  Cu  Cu77  1  0.81529571  0.82610475  0.91158879  1
  Cu  Cu78  1  0.96744768  0.15014446  0.59143499  1
  Cu  Cu79  1  0.18285937  0.02336441  0.59180077  1
  Cu  Cu80  1  0.83150475  0.79578449  0.58822867  1
  Cu  Cu81  1  0.96427974  0.79578449  0.08822867  1
  Cu  Cu82  1  0.84050503  0.02336441  0.09180077  1
  Cu  Cu83  1  0.18269678  0.15014446  0.09143499  1
  Cu  Cu84  1  0.67747604  0.15943775  0.74492179  1
  Cu  Cu85  1  0.46129323  0.31639106  0.74237680  1
  Cu  Cu86  1  0.82585658  0.52594655  0.74395816  1
  Cu  Cu87  1  0.70009096  0.52594655  0.24395816  1
  Cu  Cu88  1  0.85509883  0.31639106  0.24237680  1
  Cu  Cu89  1  0.48196271  0.15943775  0.24492179  1
  Cu  Cu90  1  0.63411468  0.48347746  0.92476799  1
  Cu  Cu91  1  0.84952637  0.35669741  0.92513377  1
  Cu  Cu92  1  0.49817175  0.12911749  0.92156167  1
  Cu  Cu93  1  0.63094674  0.12911749  0.42156167  1
  Cu  Cu94  1  0.50717203  0.35669741  0.42513377  1
  Cu  Cu95  1  0.84936378  0.48347746  0.42476799  1
  Cu  Cu96  1  0.34414204  0.49277175  0.07825579  1
  Cu  Cu97  1  0.12795923  0.64972506  0.07571080  1
  Cu  Cu98  1  0.49252258  0.85928055  0.07729216  1
  Cu  Cu99  1  0.36675696  0.85928055  0.57729216  1
  Cu  Cu100  1  0.52176483  0.64972506  0.57571080  1
  Cu  Cu101  1  0.14862871  0.49277175  0.57825579  1
  Cu  Cu102  1  0.30078068  0.81681146  0.25810199  1
  Cu  Cu103  1  0.51619237  0.69003141  0.25846777  1
  Cu  Cu104  1  0.16483775  0.46245149  0.25489567  1
  Cu  Cu105  1  0.29761274  0.46245149  0.75489567  1
  Cu  Cu106  1  0.17383803  0.69003141  0.75846777  1
  Cu  Cu107  1  0.51602978  0.81681146  0.75810199  1
