# generated using pymatgen
data_Cu19NiC14
_symmetry_space_group_name_H-M   'P 1'
_cell_length_a   6.92442600
_cell_length_b   7.52037204
_cell_length_c   9.63993101
_cell_angle_alpha   100.08287470
_cell_angle_beta   103.27638021
_cell_angle_gamma   116.54445121
_symmetry_Int_Tables_number   1
_chemical_formula_structural   Cu19NiC14
_chemical_formula_sum   'Cu19 Ni1 C14'
_cell_volume   414.24675773
_cell_formula_units_Z   1
loop_
 _symmetry_equiv_pos_site_id
 _symmetry_equiv_pos_as_xyz
  1  'x, y, z'
loop_
 _atom_site_type_symbol
 _atom_site_label
 _atom_site_symmetry_multiplicity
 _atom_site_fract_x
 _atom_site_fract_y
 _atom_site_fract_z
 _atom_site_occupancy
  C  C0  1  0.38408400  0.24153200  0.04373200  1
  C  C1  1  0.19838600  0.68924200  0.57318400  1
  C  C2  1  0.80161400  0.31075800  0.42681600  1
  C  C3  1  0.61591600  0.75846800  0.95626800  1
  C  C4  1  0.24947200  0.95461600  0.19480600  1
  C  C5  1  0.39218200  0.64112600  0.25787700  1
  C  C6  1  0.80944600  0.61567300  0.24203200  1
  C  C7  1  0.89791700  0.27718000  0.13968500  1
  C  C8  1  0.10208300  0.72282000  0.86031500  1
  C  C9  1  0.19055400  0.38432700  0.75796800  1
  C  C10  1  0.60781800  0.35887400  0.74212300  1
  C  C11  1  0.75052800  0.04538400  0.80519400  1
  C  C12  1  0.25330500  0.31685800  0.42610800  1
  C  C13  1  0.74669500  0.68314200  0.57389200  1
  Cu  Cu14  1  0.22660251  0.95078088  0.99950261  1
  Cu  Cu15  1  0.00616124  0.82364811  0.20530921  1
  Cu  Cu16  1  0.14077571  0.46438502  0.12117024  1
  Cu  Cu17  1  0.44614500  0.87613501  0.26794133  1
  Cu  Cu18  1  0.61272735  0.63369089  0.20401313  1
  Cu  Cu19  1  0.72930843  0.38074911  0.11858892  1
  Cu  Cu20  1  0.41989893  0.60332260  0.42011255  1
  Cu  Cu21  1  0.30441893  0.18380740  0.22383823  1
  Cu  Cu22  1  0.05028869  0.80014746  0.71581907  1
  Cu  Cu23  1  0.16225375  0.44239509  0.58825100  1
  Cu  Cu24  1  0.90332712  0.64430479  0.42222992  1
  Cu  Cu25  1  0.93181952  0.17109609  0.26955130  1
  Cu  Cu26  1  0.62306339  0.81476670  0.72008326  1
  Cu  Cu27  1  0.58586443  0.37559937  0.58282183  1
  Cu  Cu28  1  0.25034289  0.62569634  0.86511145  1
  Cu  Cu29  1  0.42081778  0.37270800  0.82414011  1
  Ni  Ni30  1  0.58222200  0.12929600  0.73245200  1
  Cu  Cu31  1  0.87889354  0.58911987  0.84400837  1
  Cu  Cu32  1  0.00632243  0.19341469  0.78662277  1
  Cu  Cu33  1  0.78563221  0.08472719  0.98057242  1
