# generated using pymatgen
data_Cu11Ni7C10
_symmetry_space_group_name_H-M   'P 1'
_cell_length_a   8.64023251
_cell_length_b   8.64023251
_cell_length_c   8.63126900
_cell_angle_alpha   90.00000000
_cell_angle_beta   90.00000000
_cell_angle_gamma   120.00000394
_symmetry_Int_Tables_number   1
_chemical_formula_structural   Cu11Ni7C10
_chemical_formula_sum   'Cu11 Ni7 C10'
_cell_volume   558.02817346
_cell_formula_units_Z   1
loop_
 _symmetry_equiv_pos_site_id
 _symmetry_equiv_pos_as_xyz
  1  'x, y, z'
loop_
 _atom_site_type_symbol
 _atom_site_label
 _atom_site_symmetry_multiplicity
 _atom_site_fract_x
 _atom_site_fract_y
 _atom_site_fract_z
 _atom_site_occupancy
  Cu  Cu0  1  0.18734283  0.80573268  0.45742082  1
  Cu  Cu1  1  0.19368624  0.40282640  0.44016013  1
  Cu  Cu2  1  0.61221943  0.77829303  0.46120952  1
  Ni  Ni3  1  0.80208300  0.19791700  0.54671600  1
  Cu  Cu4  1  0.81576654  0.61302777  0.52412565  1
  Cu  Cu5  1  0.39115553  0.19851701  0.54707080  1
  Cu  Cu6  1  0.81496721  0.18040616  0.95593623  1
  Ni  Ni7  1  0.80208300  0.60416700  0.95328400  1
  Cu  Cu8  1  0.40493184  0.18974215  0.95107275  1
  Ni  Ni9  1  0.19791700  0.80208300  0.04671600  1
  Ni  Ni10  1  0.19791700  0.39583300  0.04671600  1
  Ni  Ni11  1  0.60416700  0.80208300  0.04671600  1
  Cu  Cu12  1  0.50870825  0.45598063  0.25990222  1
  Cu  Cu13  1  0.53963135  0.09696005  0.22745569  1
  Cu  Cu14  1  0.92038743  0.47585901  0.27651628  1
  Ni  Ni15  1  0.46092000  0.53908000  0.75000000  1
  Cu  Cu16  1  0.48255372  0.92852125  0.73445165  1
  Ni  Ni17  1  0.07816000  0.53908000  0.75000000  1
  C  C18  1  0.88939200  0.11060800  0.25000000  1
  C  C19  1  0.88939200  0.77878300  0.25000000  1
  C  C20  1  0.22121700  0.11060800  0.25000000  1
  C  C21  1  0.11060800  0.88939200  0.75000000  1
  C  C22  1  0.11060800  0.22121700  0.75000000  1
  C  C23  1  0.77878300  0.88939200  0.75000000  1
  C  C24  1  0.00000000  0.00000000  0.50000000  1
  C  C25  1  0.00000000  0.00000000  0.00000000  1
  C  C26  1  0.33333300  0.66666700  0.25000000  1
  C  C27  1  0.66666700  0.33333300  0.75000000  1
