# generated using pymatgen
data_Cu5Ni6C7
_symmetry_space_group_name_H-M   'P 1'
_cell_length_a   4.72227500
_cell_length_b   5.72789118
_cell_length_c   15.59270751
_cell_angle_alpha   89.69659166
_cell_angle_beta   88.96354395
_cell_angle_gamma   88.32646944
_symmetry_Int_Tables_number   1
_chemical_formula_structural   Cu5Ni6C7
_chemical_formula_sum   'Cu10 Ni12 C14'
_cell_volume   421.50844411
_cell_formula_units_Z   2
loop_
 _symmetry_equiv_pos_site_id
 _symmetry_equiv_pos_as_xyz
  1  'x, y, z'
loop_
 _atom_site_type_symbol
 _atom_site_label
 _atom_site_symmetry_multiplicity
 _atom_site_fract_x
 _atom_site_fract_y
 _atom_site_fract_z
 _atom_site_occupancy
  Ni  Ni0  1  0.95093800  0.16232900  0.58593700  1
  Ni  Ni1  1  0.02142100  0.84545800  0.75050000  1
  Ni  Ni2  1  0.95880000  0.15975300  0.92057200  1
  Ni  Ni3  1  0.01364300  0.15611000  0.25481800  1
  Ni  Ni4  1  0.97763500  0.85988300  0.42166000  1
  Ni  Ni5  1  0.93533300  0.83357600  0.08425800  1
  Ni  Ni6  1  0.50618100  0.33485600  0.41151000  1
  Ni  Ni7  1  0.51034600  0.34850800  0.07780300  1
  Ni  Ni8  1  0.52279200  0.35029700  0.75336500  1
  Ni  Ni9  1  0.48813100  0.63629000  0.91246800  1
  Ni  Ni10  1  0.52725700  0.65174500  0.57545300  1
  Ni  Ni11  1  0.51334400  0.65519100  0.24966600  1
  Cu  Cu12  1  0.78412100  0.11398400  0.69911600  1
  Cu  Cu13  1  0.78691200  0.11375500  0.36329900  1
  Cu  Cu14  1  0.75517900  0.11547800  0.02577000  1
  Cu  Cu15  1  0.76681000  0.88418700  0.52629900  1
  Cu  Cu16  1  0.78034400  0.89304200  0.19987500  1
  Cu  Cu17  1  0.71596300  0.37963000  0.86144200  1
  Cu  Cu18  1  0.70992500  0.39069300  0.51923200  1
  Cu  Cu19  1  0.69042000  0.60216700  0.02063700  1
  Cu  Cu20  1  0.29200600  0.61519000  0.80370100  1
  Cu  Cu21  1  0.30388100  0.37867200  0.30371700  1
  C  C22  1  0.76317400  0.88055500  0.85928600  1
  C  C23  1  0.76991800  0.61191500  0.68817300  1
  C  C24  1  0.74801100  0.61262800  0.35792900  1
  C  C25  1  0.76057300  0.40331300  0.18839500  1
  C  C26  1  0.23142200  0.38051000  0.97484800  1
  C  C27  1  0.29323300  0.39165100  0.64250600  1
  C  C28  1  0.25080100  0.61843100  0.46623200  1
  C  C29  1  0.26545200  0.61326500  0.13710600  1
  C  C30  1  0.21944200  0.11610000  0.81680500  1
  C  C31  1  0.22240300  0.13267200  0.48248700  1
  C  C32  1  0.25942000  0.88223400  0.63534500  1
  C  C33  1  0.20711000  0.87428700  0.97083700  1
  C  C34  1  0.25096700  0.12487200  0.14026000  1
  C  C35  1  0.24669200  0.87677100  0.31869500  1
