# generated using pymatgen
data_Cu7NiC20
_symmetry_space_group_name_H-M   'P 1'
_cell_length_a   8.64023251
_cell_length_b   8.64023251
_cell_length_c   8.63126900
_cell_angle_alpha   90.00000000
_cell_angle_beta   90.00000000
_cell_angle_gamma   120.00000394
_symmetry_Int_Tables_number   1
_chemical_formula_structural   Cu7NiC20
_chemical_formula_sum   'Cu7 Ni1 C20'
_cell_volume   558.02817346
_cell_formula_units_Z   1
loop_
 _symmetry_equiv_pos_site_id
 _symmetry_equiv_pos_as_xyz
  1  'x, y, z'
loop_
 _atom_site_type_symbol
 _atom_site_label
 _atom_site_symmetry_multiplicity
 _atom_site_fract_x
 _atom_site_fract_y
 _atom_site_fract_z
 _atom_site_occupancy
  C  C0  1  0.19791700  0.80208300  0.45328400  1
  C  C1  1  0.19791700  0.39583300  0.45328400  1
  C  C2  1  0.60416700  0.80208300  0.45328400  1
  C  C3  1  0.80208300  0.19791700  0.54671600  1
  C  C4  1  0.80208300  0.60416700  0.54671600  1
  C  C5  1  0.39583300  0.19791700  0.54671600  1
  C  C6  1  0.80208300  0.19791700  0.95328400  1
  C  C7  1  0.80208300  0.60416700  0.95328400  1
  C  C8  1  0.39583300  0.19791700  0.95328400  1
  C  C9  1  0.19791700  0.80208300  0.04671600  1
  C  C10  1  0.19791700  0.39583300  0.04671600  1
  C  C11  1  0.60416700  0.80208300  0.04671600  1
  C  C12  1  0.53908000  0.46092000  0.25000000  1
  C  C13  1  0.53908000  0.07816000  0.25000000  1
  C  C14  1  0.92184000  0.46092000  0.25000000  1
  C  C15  1  0.46092000  0.53908000  0.75000000  1
  C  C16  1  0.46092000  0.92184000  0.75000000  1
  C  C17  1  0.07816000  0.53908000  0.75000000  1
  Cu  Cu18  1  0.88231376  0.11589490  0.22419312  1
  Cu  Cu19  1  0.90273094  0.81204060  0.26350668  1
  Cu  Cu20  1  0.20824997  0.09607853  0.24193202  1
  Cu  Cu21  1  0.11077887  0.89010944  0.75828821  1
  Cu  Cu22  1  0.14280850  0.24377199  0.75057385  1
  Ni  Ni23  1  0.77878300  0.88939200  0.75000000  1
  Cu  Cu24  1  0.98293367  0.98872857  0.52215068  1
  Cu  Cu25  1  0.00609583  0.01173142  0.99005568  1
  C  C26  1  0.33333300  0.66666700  0.25000000  1
  C  C27  1  0.66666700  0.33333300  0.75000000  1
