# generated using pymatgen
data_Cu2NiC11
_symmetry_space_group_name_H-M   'P 1'
_cell_length_a   5.95572376
_cell_length_b   5.95572376
_cell_length_c   9.68989500
_cell_angle_alpha   90.00000000
_cell_angle_beta   90.00000000
_cell_angle_gamma   119.99999729
_symmetry_Int_Tables_number   1
_chemical_formula_structural   Cu2NiC11
_chemical_formula_sum   'Cu4 Ni2 C22'
_cell_volume   297.65885441
_cell_formula_units_Z   2
loop_
 _symmetry_equiv_pos_site_id
 _symmetry_equiv_pos_as_xyz
  1  'x, y, z'
loop_
 _atom_site_type_symbol
 _atom_site_label
 _atom_site_symmetry_multiplicity
 _atom_site_fract_x
 _atom_site_fract_y
 _atom_site_fract_z
 _atom_site_occupancy
  C  C0  1  0.33333300  0.66666700  0.89166800  1
  C  C1  1  0.00000000  0.00000000  0.99372700  1
  C  C2  1  0.00000000  0.00000000  0.49372700  1
  C  C3  1  0.66666700  0.33333300  0.39166800  1
  Ni  Ni4  1  0.17079800  0.82920200  0.21635300  1
  Cu  Cu5  1  0.15144449  0.34860228  0.20121771  1
  Ni  Ni6  1  0.65840400  0.82920200  0.21635300  1
  Cu  Cu7  1  0.32945583  0.17172867  0.72244346  1
  Cu  Cu8  1  0.83896918  0.64973992  0.69702432  1
  Cu  Cu9  1  0.81523169  0.17313764  0.70953878  1
  C  C10  1  0.33333300  0.66666700  0.49415900  1
  C  C11  1  0.66666700  0.33333300  0.99415900  1
  C  C12  1  0.15969000  0.84031000  0.60075200  1
  C  C13  1  0.03397000  0.51698500  0.33789800  1
  C  C14  1  0.33333300  0.66666700  0.10727200  1
  C  C15  1  0.00000000  0.00000000  0.30256300  1
  C  C16  1  0.00000000  0.00000000  0.80256300  1
  C  C17  1  0.15969000  0.31938000  0.60075200  1
  C  C18  1  0.48301500  0.96603000  0.33789800  1
  C  C19  1  0.48301500  0.51698500  0.33789800  1
  C  C20  1  0.31938000  0.15969000  0.10075200  1
  C  C21  1  0.68062000  0.84031000  0.60075200  1
  C  C22  1  0.51698500  0.48301500  0.83789800  1
  C  C23  1  0.51698500  0.03397000  0.83789800  1
  C  C24  1  0.66666700  0.33333300  0.60727200  1
  C  C25  1  0.84031000  0.68062000  0.10075200  1
  C  C26  1  0.96603000  0.48301500  0.83789800  1
  C  C27  1  0.84031000  0.15969000  0.10075200  1
