# generated using pymatgen
data_Cu15NiC76
_symmetry_space_group_name_H-M   'P 1'
_cell_length_a   9.86006300
_cell_length_b   9.86104973
_cell_length_c   11.37230221
_cell_angle_alpha   89.86241016
_cell_angle_beta   76.77793889
_cell_angle_gamma   89.57153195
_symmetry_Int_Tables_number   1
_chemical_formula_structural   Cu15NiC76
_chemical_formula_sum   'Cu15 Ni1 C76'
_cell_volume   1076.39303038
_cell_formula_units_Z   1
loop_
 _symmetry_equiv_pos_site_id
 _symmetry_equiv_pos_as_xyz
  1  'x, y, z'
loop_
 _atom_site_type_symbol
 _atom_site_label
 _atom_site_symmetry_multiplicity
 _atom_site_fract_x
 _atom_site_fract_y
 _atom_site_fract_z
 _atom_site_occupancy
  C  C0  1  0.88459800  0.27941700  0.44828500  1
  C  C1  1  0.82020200  0.58782800  0.55062800  1
  C  C2  1  0.91109000  0.89169000  0.02541900  1
  C  C3  1  0.58868600  0.39105600  0.97292000  1
  C  C4  1  0.64921900  0.06629200  0.47118000  1
  C  C5  1  0.35039800  0.93598900  0.52975700  1
  C  C6  1  0.41273400  0.60618300  0.03140400  1
  C  C7  1  0.14620300  0.41001800  0.95666200  1
  C  C8  1  0.35208500  0.91044600  0.04244900  1
  C  C9  1  0.08648000  0.10580400  0.97054700  1
  C  C10  1  0.18214900  0.41265300  0.44801600  1
  C  C11  1  0.11544400  0.72060400  0.55115900  1
  C  C12  1  0.79844300  0.07499900  0.67488300  1
  C  C13  1  0.74081800  0.78509300  0.82527200  1
  C  C14  1  0.75352600  0.28705900  0.17501800  1
  C  C15  1  0.70190800  0.57853100  0.32506400  1
  C  C16  1  0.29667500  0.42046500  0.67333000  1
  C  C17  1  0.24551700  0.71532000  0.82474200  1
  C  C18  1  0.25856000  0.21682500  0.17425900  1
  C  C19  1  0.20376400  0.92500600  0.32610700  1
  Cu  Cu20  1  0.96885929  0.56262605  0.76901601  1
  Cu  Cu21  1  0.88307629  0.26504515  0.89071210  1
  Cu  Cu22  1  0.94888675  0.07171249  0.25758166  1
  Cu  Cu23  1  0.86648706  0.85052925  0.41429557  1
  Cu  Cu24  1  0.62699827  0.36298078  0.57743057  1
  Cu  Cu25  1  0.56293492  0.56193093  0.78800095  1
  Ni  Ni26  1  0.47835200  0.95115500  0.75591100  1
  Cu  Cu27  1  0.63854345  0.79043255  0.13153851  1
  Cu  Cu28  1  0.38846456  0.18820602  0.88716562  1
  Cu  Cu29  1  0.52691667  0.02309154  0.24244500  1
  Cu  Cu30  1  0.42745776  0.41583609  0.23934886  1
  Cu  Cu31  1  0.38999855  0.62990320  0.41548747  1
  Cu  Cu32  1  0.11350870  0.16801266  0.58579039  1
  Cu  Cu33  1  0.05354381  0.91762995  0.78518525  1
  Cu  Cu34  1  0.12064270  0.71142096  0.10779365  1
  Cu  Cu35  1  0.01218877  0.45564768  0.23265691  1
  C  C36  1  0.97954200  0.58109800  0.62361500  1
  C  C37  1  0.96692900  0.16100600  0.56446100  1
  C  C38  1  0.91577900  0.91090700  0.73037600  1
  C  C39  1  0.88822000  0.65334800  0.84477600  1
  C  C40  1  0.89728900  0.40695600  0.78187100  1
  C  C41  1  0.82434500  0.17012200  0.82781600  1
  C  C42  1  0.77176100  0.34606200  0.99782900  1
  C  C43  1  0.98025800  0.73462600  0.08068000  1
  C  C44  1  0.88279800  0.92346500  0.29666800  1
  C  C45  1  0.93645300  0.06412100  0.10965600  1
  C  C46  1  0.86727900  0.46386900  0.22554700  1
  C  C47  1  0.81783200  0.71102500  0.41550600  1
  C  C48  1  0.83399100  0.17860000  0.30760000  1
  C  C49  1  0.78762000  0.94491000  0.52121400  1
  C  C50  1  0.72340100  0.43918000  0.47893300  1
  C  C51  1  0.67178700  0.67511700  0.69822300  1
  C  C52  1  0.68632800  0.21205400  0.58027300  1
  C  C53  1  0.63271700  0.95667600  0.77845700  1
  C  C54  1  0.62316500  0.42377600  0.70381100  1
  C  C55  1  0.55837300  0.56254700  0.89253100  1
  C  C56  1  0.51944400  0.23303500  0.92290100  1
  C  C57  1  0.72868700  0.84389100  0.99815400  1
  C  C58  1  0.67598000  0.66905900  0.16968300  1
  C  C59  1  0.60393600  0.90686300  0.21276600  1
  C  C60  1  0.58285200  0.41377900  0.27214700  1
  C  C61  1  0.60446000  0.15448300  0.15800000  1
  C  C62  1  0.47798300  0.91986800  0.62740600  1
  C  C63  1  0.53298000  0.64968800  0.43256300  1
  C  C64  1  0.47211500  0.34932700  0.56189100  1
  C  C65  1  0.51670600  0.07001600  0.37832400  1
  C  C66  1  0.39334000  0.85857200  0.85509200  1
  C  C67  1  0.41767500  0.58720300  0.72843400  1
  C  C68  1  0.41031100  0.10017700  0.77964800  1
  C  C69  1  0.31117600  0.32769500  0.84309500  1
  C  C70  1  0.27668100  0.13690000  0.99854200  1
  C  C71  1  0.48020500  0.77269700  0.07928000  1
  C  C72  1  0.43901400  0.43507800  0.10937000  1
  C  C73  1  0.37844800  0.57870400  0.29328700  1
  C  C74  1  0.37483000  0.03556600  0.21682200  1
  C  C75  1  0.31994400  0.79133300  0.41624500  1
  C  C76  1  0.32887900  0.32726600  0.30732600  1
  C  C77  1  0.27980900  0.56506600  0.51814900  1
  C  C78  1  0.21126300  0.05846700  0.48126800  1
  C  C79  1  0.16610400  0.82282900  0.68779700  1
  C  C80  1  0.17722800  0.29182500  0.58716200  1
  C  C81  1  0.12241000  0.53534800  0.78305000  1
  C  C82  1  0.06627900  0.93319700  0.88863100  1
  C  C83  1  0.11682700  0.07783500  0.70565800  1
  C  C84  1  0.01998500  0.27190100  0.91791500  1
  C  C85  1  0.22282300  0.63598700  0.00405800  1
  C  C86  1  0.18907000  0.82758300  0.15885300  1
  C  C87  1  0.09157500  0.60045500  0.22450800  1
  C  C88  1  0.10604500  0.36042600  0.14405200  1
  C  C89  1  0.08438400  0.08858000  0.26924700  1
  C  C90  1  0.03042800  0.83850800  0.43908200  1
  C  C91  1  0.02493500  0.41289500  0.37157500  1
