# generated using pymatgen
data_Cu4C
_symmetry_space_group_name_H-M   'P 1'
_cell_length_a   5.47676480
_cell_length_b   5.47676480
_cell_length_c   4.24922800
_cell_angle_alpha   90.00000000
_cell_angle_beta   90.00000000
_cell_angle_gamma   137.15508129
_symmetry_Int_Tables_number   1
_chemical_formula_structural   Cu4C
_chemical_formula_sum   'Cu8 C2'
_cell_volume   86.67174783
_cell_formula_units_Z   2
loop_
 _symmetry_equiv_pos_site_id
 _symmetry_equiv_pos_as_xyz
  1  'x, y, z'
loop_
 _atom_site_type_symbol
 _atom_site_label
 _atom_site_symmetry_multiplicity
 _atom_site_fract_x
 _atom_site_fract_y
 _atom_site_fract_z
 _atom_site_occupancy
  C  C0  1  0.25778800  0.74221200  0.75000000  1
  C  C1  1  0.74221200  0.25778800  0.25000000  1
  Cu  Cu2  1  0.52044453  0.56374677  0.76368466  1
  Cu  Cu3  1  0.52801747  0.50207379  0.21445711  1
  Cu  Cu4  1  0.41061649  0.57053016  0.26965622  1
  Cu  Cu5  1  0.56135050  0.46432464  0.73888157  1
  Cu  Cu6  1  0.95147875  0.00259135  0.00734273  1
  Cu  Cu7  1  0.05983350  0.00366840  0.99379162  1
  Cu  Cu8  1  0.96785702  0.01768230  0.47022747  1
  Cu  Cu9  1  0.05071582  0.97251754  0.47970918  1
