# generated using pymatgen
data_Cu2C9
_symmetry_space_group_name_H-M   'P 1'
_cell_length_a   5.85144700
_cell_length_b   5.10971000
_cell_length_c   10.76390623
_cell_angle_alpha   61.84942562
_cell_angle_beta   90.00000000
_cell_angle_gamma   90.00000000
_symmetry_Int_Tables_number   1
_chemical_formula_structural   Cu2C9
_chemical_formula_sum   'Cu4 C18'
_cell_volume   283.76287618
_cell_formula_units_Z   2
loop_
 _symmetry_equiv_pos_site_id
 _symmetry_equiv_pos_as_xyz
  1  'x, y, z'
loop_
 _atom_site_type_symbol
 _atom_site_label
 _atom_site_symmetry_multiplicity
 _atom_site_fract_x
 _atom_site_fract_y
 _atom_site_fract_z
 _atom_site_occupancy
  C  C0  1  0.34260800  0.50000000  0.75000000  1
  C  C1  1  0.65739200  0.50000000  0.25000000  1
  Cu  Cu2  1  0.17499090  0.27420903  0.47904144  1
  Cu  Cu3  1  0.14788351  0.80045906  0.99370784  1
  Cu  Cu4  1  0.83007428  0.75663628  0.50264340  1
  Cu  Cu5  1  0.84709992  0.21900186  0.00705334  1
  C  C6  1  0.33427400  0.71717300  0.86534400  1
  C  C7  1  0.33427400  0.28282700  0.63465600  1
  C  C8  1  0.66572600  0.28282700  0.13465600  1
  C  C9  1  0.66572600  0.71717300  0.36534400  1
  C  C10  1  0.89414800  0.18336400  0.39420700  1
  C  C11  1  0.89414800  0.81663600  0.10579300  1
  C  C12  1  0.10585200  0.81663600  0.60579300  1
  C  C13  1  0.10585200  0.18336400  0.89420700  1
  C  C14  1  0.60023700  0.25391000  0.88179900  1
  C  C15  1  0.60023700  0.74609000  0.61820100  1
  C  C16  1  0.39976300  0.74609000  0.11820100  1
  C  C17  1  0.39976300  0.25391000  0.38179900  1
  C  C18  1  0.90048200  0.66539400  0.89268400  1
  C  C19  1  0.09951800  0.33460600  0.10731600  1
  C  C20  1  0.90048200  0.33460600  0.60731600  1
  C  C21  1  0.09951800  0.66539400  0.39268400  1
