# generated using pymatgen
data_Cu23Ni5C24
_symmetry_space_group_name_H-M   'P 1'
_cell_length_a   6.73519100
_cell_length_b   10.03715110
_cell_length_c   10.77612072
_cell_angle_alpha   89.17702285
_cell_angle_beta   103.34339062
_cell_angle_gamma   101.29686787
_symmetry_Int_Tables_number   1
_chemical_formula_structural   Cu23Ni5C24
_chemical_formula_sum   'Cu23 Ni5 C24'
_cell_volume   694.72620237
_cell_formula_units_Z   1
loop_
 _symmetry_equiv_pos_site_id
 _symmetry_equiv_pos_as_xyz
  1  'x, y, z'
loop_
 _atom_site_type_symbol
 _atom_site_label
 _atom_site_symmetry_multiplicity
 _atom_site_fract_x
 _atom_site_fract_y
 _atom_site_fract_z
 _atom_site_occupancy
  C  C0  1  0.76813900  0.01207900  0.59227400  1
  C  C1  1  0.23186100  0.98792100  0.40772600  1
  C  C2  1  0.24236300  0.61932300  0.50557200  1
  C  C3  1  0.75763700  0.38067700  0.49442800  1
  C  C4  1  0.66819400  0.48288600  0.87653600  1
  C  C5  1  0.33180600  0.51711400  0.12346400  1
  C  C6  1  0.64891400  0.87815200  0.95303600  1
  C  C7  1  0.35108600  0.12184800  0.04696400  1
  C  C8  1  0.29701300  0.28764100  0.55024600  1
  C  C9  1  0.70298700  0.71235900  0.44975400  1
  C  C10  1  0.85133400  0.20867900  0.85184300  1
  C  C11  1  0.14866600  0.79132100  0.14815700  1
  C  C12  1  0.13121200  0.55836800  0.80066600  1
  C  C13  1  0.86878800  0.44163200  0.19933400  1
  C  C14  1  0.20732400  0.91328700  0.73703100  1
  C  C15  1  0.79267600  0.08671300  0.26296900  1
  C  C16  1  0.43678400  0.16244400  0.73913300  1
  C  C17  1  0.56321600  0.83755600  0.26086700  1
  C  C18  1  0.91131400  0.71011400  0.68058200  1
  C  C19  1  0.08868600  0.28988600  0.31941800  1
  C  C20  1  0.07455000  0.77085900  0.89926300  1
  C  C21  1  0.92545000  0.22914100  0.10073700  1
  C  C22  1  0.16514700  0.31045100  0.74866400  1
  C  C23  1  0.83485300  0.68954900  0.25133600  1
  Ni  Ni24  1  0.87560200  0.74452500  0.80299900  1
  Cu  Cu25  1  0.04464186  0.81112840  0.61787487  1
  Cu  Cu26  1  0.26915843  0.30734362  0.40605118  1
  Cu  Cu27  1  0.70790625  0.67850630  0.59604762  1
  Cu  Cu28  1  0.02880435  0.41388780  0.30842114  1
  Cu  Cu29  1  0.97516961  0.19471228  0.39484932  1
  Cu  Cu30  1  0.68047948  0.99442782  0.29761349  1
  Cu  Cu31  1  0.35667743  0.02618040  0.69319263  1
  Cu  Cu32  1  0.38283917  0.83388966  0.18373752  1
  Cu  Cu33  1  0.65787151  0.16336328  0.83162457  1
  Cu  Cu34  1  0.70928022  0.76503566  0.20768313  1
  Cu  Cu35  1  0.32395374  0.21087544  0.81390790  1
  Ni  Ni36  1  0.77578000  0.55317600  0.18201800  1
  Cu  Cu37  1  0.22630008  0.45639394  0.81956637  1
  Cu  Cu38  1  0.58618955  0.76613352  0.40938558  1
  Ni  Ni39  1  0.46179800  0.23198300  0.61718000  1
  Cu  Cu40  1  0.86068386  0.67977409  0.42396886  1
  Cu  Cu41  1  0.17361869  0.31866668  0.60838102  1
  Cu  Cu42  1  0.06372517  0.75823574  0.24880043  1
  Cu  Cu43  1  0.93656482  0.23923440  0.74771323  1
  Cu  Cu44  1  0.17631440  0.65769300  0.89767577  1
  Cu  Cu45  1  0.81239745  0.36196460  0.09396304  1
  Cu  Cu46  1  0.21321165  0.89511196  0.87234260  1
  Cu  Cu47  1  0.77907948  0.10730038  0.12367482  1
  Ni  Ni48  1  0.96990900  0.21573900  0.97531300  1
  Cu  Cu49  1  0.03374044  0.78412792  0.05081595  1
  Ni  Ni50  1  0.98815400  0.57744600  0.68991800  1
  Cu  Cu51  1  0.11362105  0.25835925  0.19321032  1
