# generated using pymatgen
data_Cu3C
_symmetry_space_group_name_H-M   'P 1'
_cell_length_a   8.97851100
_cell_length_b   10.53760700
_cell_length_c   10.55114600
_cell_angle_alpha   90.00000000
_cell_angle_beta   90.00000000
_cell_angle_gamma   90.00000000
_symmetry_Int_Tables_number   1
_chemical_formula_structural   Cu3C
_chemical_formula_sum   'Cu48 C16'
_cell_volume   998.26524021
_cell_formula_units_Z   16
loop_
 _symmetry_equiv_pos_site_id
 _symmetry_equiv_pos_as_xyz
  1  'x, y, z'
loop_
 _atom_site_type_symbol
 _atom_site_label
 _atom_site_symmetry_multiplicity
 _atom_site_fract_x
 _atom_site_fract_y
 _atom_site_fract_z
 _atom_site_occupancy
  C  C0  1  0.35813200  0.18226500  0.12400800  1
  C  C1  1  0.64186800  0.81773500  0.87599200  1
  C  C2  1  0.14186800  0.81773500  0.62400800  1
  C  C3  1  0.64186800  0.68226500  0.37599200  1
  C  C4  1  0.85813200  0.18226500  0.37599200  1
  C  C5  1  0.35813200  0.31773500  0.62400800  1
  C  C6  1  0.85813200  0.31773500  0.87599200  1
  C  C7  1  0.14186800  0.68226500  0.12400800  1
  C  C8  1  0.04204000  0.37051800  0.16403300  1
  C  C9  1  0.95796000  0.62948200  0.83596700  1
  C  C10  1  0.45796000  0.62948200  0.66403300  1
  C  C11  1  0.95796000  0.87051800  0.33596700  1
  C  C12  1  0.54204000  0.37051800  0.33596700  1
  C  C13  1  0.04204000  0.12948200  0.66403300  1
  C  C14  1  0.54204000  0.12948200  0.83596700  1
  C  C15  1  0.45796000  0.87051800  0.16403300  1
  Cu  Cu16  1  0.51760607  0.00322589  0.16454655  1
  Cu  Cu17  1  0.51992228  0.97249080  0.84703464  1
  Cu  Cu18  1  0.99773902  0.98563262  0.68909647  1
  Cu  Cu19  1  0.49610058  0.53067467  0.33382148  1
  Cu  Cu20  1  0.01017720  0.05133624  0.33039380  1
  Cu  Cu21  1  0.52121515  0.47120794  0.68017106  1
  Cu  Cu22  1  0.98760767  0.47423740  0.83314842  1
  Cu  Cu23  1  0.98620593  0.53023838  0.16731408  1
  Cu  Cu24  1  0.21525930  0.36569012  0.09784823  1
  Cu  Cu25  1  0.75773911  0.64644977  0.89713626  1
  Cu  Cu26  1  0.23599193  0.64332044  0.61685860  1
  Cu  Cu27  1  0.76696990  0.81415645  0.37469261  1
  Cu  Cu28  1  0.70013830  0.36128323  0.40406844  1
  Cu  Cu29  1  0.23350566  0.11532345  0.62277080  1
  Cu  Cu30  1  0.72654188  0.16948002  0.89310212  1
  Cu  Cu31  1  0.28378857  0.86560463  0.11255117  1
  Cu  Cu32  1  0.44012811  0.31263951  0.43172204  1
  Cu  Cu33  1  0.62828680  0.72073769  0.54182153  1
  Cu  Cu34  1  0.06479973  0.70991841  0.89653681  1
  Cu  Cu35  1  0.59421221  0.79534443  0.07208012  1
  Cu  Cu36  1  0.92681817  0.30291900  0.09692781  1
  Cu  Cu37  1  0.43176394  0.20124763  0.94632943  1
  Cu  Cu38  1  0.89659884  0.19698102  0.59949714  1
  Cu  Cu39  1  0.05869534  0.80491397  0.44045139  1
  Cu  Cu40  1  0.18471306  0.01683099  0.06657451  1
  Cu  Cu41  1  0.81172548  0.95488826  0.93275831  1
  Cu  Cu42  1  0.31660178  0.98831264  0.54584398  1
  Cu  Cu43  1  0.81286250  0.53545974  0.42583532  1
  Cu  Cu44  1  0.69681416  0.04925857  0.43704615  1
  Cu  Cu45  1  0.16726198  0.45179594  0.56278173  1
  Cu  Cu46  1  0.68800093  0.45922302  0.94700970  1
  Cu  Cu47  1  0.32684309  0.51906744  0.05352397  1
  Cu  Cu48  1  0.23173885  0.17508230  0.31950951  1
  Cu  Cu49  1  0.76736647  0.81408277  0.69001674  1
  Cu  Cu50  1  0.26342864  0.85006586  0.81050446  1
  Cu  Cu51  1  0.75046147  0.68425794  0.17487484  1
  Cu  Cu52  1  0.74068340  0.17245742  0.18466472  1
  Cu  Cu53  1  0.21407196  0.32685198  0.83871955  1
  Cu  Cu54  1  0.75141758  0.32894546  0.66654362  1
  Cu  Cu55  1  0.26173581  0.68247114  0.31593482  1
  Cu  Cu56  1  0.07311312  0.31041872  0.29783215  1
  Cu  Cu57  1  0.99425840  0.69784565  0.70316009  1
  Cu  Cu58  1  0.46602645  0.69247206  0.81886302  1
  Cu  Cu59  1  0.95710680  0.80110587  0.17733596  1
  Cu  Cu60  1  0.53101152  0.30019311  0.17996848  1
  Cu  Cu61  1  0.02745480  0.19919496  0.83706529  1
  Cu  Cu62  1  0.52344913  0.19736724  0.67616309  1
  Cu  Cu63  1  0.45386023  0.79137302  0.32388533  1
