# generated using pymatgen
data_Cu25Ni23C28
_symmetry_space_group_name_H-M   'P 1'
_cell_length_a   10.64768200
_cell_length_b   10.56880300
_cell_length_c   11.00651213
_cell_angle_alpha   88.88391100
_cell_angle_beta   90.00000000
_cell_angle_gamma   90.00000000
_symmetry_Int_Tables_number   1
_chemical_formula_structural   Cu25Ni23C28
_chemical_formula_sum   'Cu25 Ni23 C28'
_cell_volume   1238.36363522
_cell_formula_units_Z   1
loop_
 _symmetry_equiv_pos_site_id
 _symmetry_equiv_pos_as_xyz
  1  'x, y, z'
loop_
 _atom_site_type_symbol
 _atom_site_label
 _atom_site_symmetry_multiplicity
 _atom_site_fract_x
 _atom_site_fract_y
 _atom_site_fract_z
 _atom_site_occupancy
  C  C0  1  0.59217900  0.93934700  0.32374900  1
  C  C1  1  0.85579800  0.28845300  0.47230000  1
  C  C2  1  0.09217900  0.06065300  0.67625100  1
  C  C3  1  0.71573900  0.56091800  0.83402200  1
  C  C4  1  0.44528900  0.19422700  0.97409100  1
  C  C5  1  0.94528900  0.80577300  0.02590900  1
  C  C6  1  0.35579800  0.71154700  0.52770000  1
  C  C7  1  0.21573900  0.43908200  0.16597800  1
  C  C8  1  0.80015200  0.18091300  0.08875100  1
  C  C9  1  0.00433400  0.67824800  0.43294000  1
  C  C10  1  0.06317200  0.41223000  0.81700500  1
  C  C11  1  0.56317200  0.58777000  0.18299500  1
  C  C12  1  0.24712400  0.09518700  0.30332000  1
  C  C13  1  0.74712400  0.90481300  0.69668000  1
  C  C14  1  0.30015200  0.81908700  0.91124900  1
  C  C15  1  0.50433400  0.32175200  0.56706000  1
  C  C16  1  0.87355200  0.47727900  0.16541900  1
  C  C17  1  0.68477500  0.62274600  0.48616800  1
  C  C18  1  0.61430900  0.87586600  0.99005300  1
  C  C19  1  0.76672000  0.24413700  0.78630800  1
  C  C20  1  0.26672000  0.75586300  0.21369200  1
  C  C21  1  0.93375500  0.96260200  0.34555800  1
  C  C22  1  0.43375500  0.03739800  0.65444200  1
  C  C23  1  0.53916000  0.28175100  0.26989800  1
  C  C24  1  0.11430900  0.12413400  0.00994700  1
  C  C25  1  0.37355200  0.52272100  0.83458100  1
  C  C26  1  0.03916000  0.71824900  0.73010200  1
  C  C27  1  0.18477500  0.37725400  0.51383200  1
  Ni  Ni28  1  0.66811100  0.73379700  0.56429100  1
  Ni  Ni29  1  0.63358500  0.77240000  0.08195400  1
  Cu  Cu30  1  0.89618907  0.30812498  0.75959781  1
  Cu  Cu31  1  0.26446973  0.89843149  0.21714273  1
  Cu  Cu32  1  0.36787577  0.93641624  0.73389416  1
  Cu  Cu33  1  0.15780577  0.17019146  0.13800559  1
  Cu  Cu34  1  0.08404061  0.76041228  0.60005069  1
  Ni  Ni35  1  0.61095900  0.18972700  0.18843000  1
  Cu  Cu36  1  0.77583692  0.52653465  0.09934574  1
  Ni  Ni37  1  0.85335200  0.91839600  0.46281200  1
  Ni  Ni38  1  0.23481400  0.71690300  0.08662200  1
  Cu  Cu39  1  0.37451462  0.65405655  0.79791139  1
  Ni  Ni40  1  0.60766200  0.51631600  0.53579000  1
  Cu  Cu41  1  0.12167487  0.20747996  0.90729132  1
  Ni  Ni42  1  0.76914800  0.10557900  0.78051900  1
  Cu  Cu43  1  0.17780714  0.70023758  0.29146689  1
  Cu  Cu44  1  0.98404815  0.10955452  0.01247954  1
  Ni  Ni45  1  0.96187100  0.43394500  0.04547500  1
  Ni  Ni46  1  0.16811100  0.26620300  0.43570900  1
  Cu  Cu47  1  0.96464189  0.53980760  0.94793962  1
  Cu  Cu48  1  0.48953231  0.93085689  0.99156542  1
  Ni  Ni49  1  0.86383300  0.34361600  0.21601800  1
  Cu  Cu50  1  0.57116196  0.98335769  0.60063961  1
  Ni  Ni51  1  0.93790200  0.83696400  0.28789600  1
  Ni  Ni52  1  0.25380000  0.48014500  0.89333500  1
  Ni  Ni53  1  0.73481400  0.28309700  0.91337800  1
  Cu  Cu54  1  0.83365533  0.01240809  0.54776495  1
  Cu  Cu55  1  0.68170119  0.27982194  0.70420529  1
  Cu  Cu56  1  0.35480340  0.97889132  0.45796883  1
  Cu  Cu57  1  0.89338284  0.73359718  0.74381107  1
  Ni  Ni58  1  0.32013900  0.41969600  0.51799900  1
  Cu  Cu59  1  0.63024926  0.82548539  0.86138970  1
  Cu  Cu60  1  0.36338148  0.08376977  0.54131259  1
  Cu  Cu61  1  0.85858179  0.05905838  0.27895960  1
  Cu  Cu62  1  0.38807492  0.70788042  0.25440543  1
  Ni  Ni63  1  0.57881700  0.23753200  0.40064200  1
  Ni  Ni64  1  0.40069500  0.24558800  0.25343700  1
  Cu  Cu65  1  0.09606311  0.46426467  0.46460803  1
  Ni  Ni66  1  0.18975200  0.01354300  0.97419000  1
  Ni  Ni67  1  0.05396300  0.01000100  0.38838000  1
  Ni  Ni68  1  0.14264800  0.34187600  0.63988900  1
  Ni  Ni69  1  0.82013900  0.58030400  0.48200100  1
  Ni  Ni70  1  0.43790200  0.16303600  0.71210400  1
  Cu  Cu71  1  0.69707251  0.99829890  0.04576305  1
  Cu  Cu72  1  0.11474592  0.81904209  0.82102185  1
  Ni  Ni73  1  0.64264800  0.65812400  0.36011100  1
  Ni  Ni74  1  0.46524300  0.46805200  0.05343200  1
  Cu  Cu75  1  0.47418536  0.56605127  0.95100654  1
