# generated using pymatgen
data_CuC24
_symmetry_space_group_name_H-M   'P 1'
_cell_length_a   4.17711400
_cell_length_b   4.17711400
_cell_length_c   20.88404900
_cell_angle_alpha   90.00000000
_cell_angle_beta   90.00000000
_cell_angle_gamma   90.00000000
_symmetry_Int_Tables_number   1
_chemical_formula_structural   CuC24
_chemical_formula_sum   'Cu1 C24'
_cell_volume   364.39076308
_cell_formula_units_Z   1
loop_
 _symmetry_equiv_pos_site_id
 _symmetry_equiv_pos_as_xyz
  1  'x, y, z'
loop_
 _atom_site_type_symbol
 _atom_site_label
 _atom_site_symmetry_multiplicity
 _atom_site_fract_x
 _atom_site_fract_y
 _atom_site_fract_z
 _atom_site_occupancy
  C  C0  1  0.50000000  0.50000000  0.19966500  1
  C  C1  1  0.50000000  0.50000000  0.40000300  1
  C  C2  1  0.50000000  0.50000000  0.59999700  1
  C  C3  1  0.50000000  0.50000000  0.80033500  1
  Cu  Cu4  1  0.51147326  0.55245222  0.99352387  1
  C  C5  1  0.00000000  0.00000000  0.90073800  1
  C  C6  1  0.00000000  0.00000000  0.09926200  1
  C  C7  1  0.00000000  0.00000000  0.29991000  1
  C  C8  1  0.00000000  0.00000000  0.50000000  1
  C  C9  1  0.00000000  0.00000000  0.70009000  1
  C  C10  1  0.00000000  0.00000000  0.00000000  1
  C  C11  1  0.00000000  0.00000000  0.19967300  1
  C  C12  1  0.00000000  0.00000000  0.40000700  1
  C  C13  1  0.00000000  0.00000000  0.59999300  1
  C  C14  1  0.00000000  0.00000000  0.80032700  1
  C  C15  1  0.00000000  0.50000000  0.90169900  1
  C  C16  1  0.00000000  0.50000000  0.09830100  1
  C  C17  1  0.00000000  0.50000000  0.29998100  1
  C  C18  1  0.00000000  0.50000000  0.50000000  1
  C  C19  1  0.00000000  0.50000000  0.70001900  1
  C  C20  1  0.50000000  0.00000000  0.90169900  1
  C  C21  1  0.50000000  0.00000000  0.09830100  1
  C  C22  1  0.50000000  0.00000000  0.29998100  1
  C  C23  1  0.50000000  0.00000000  0.50000000  1
  C  C24  1  0.50000000  0.00000000  0.70001900  1
