# generated using pymatgen
data_CuC
_symmetry_space_group_name_H-M   'P 1'
_cell_length_a   10.69157324
_cell_length_b   10.69157324
_cell_length_c   10.69157324
_cell_angle_alpha   125.69372091
_cell_angle_beta   118.09043551
_cell_angle_gamma   86.88634253
_symmetry_Int_Tables_number   1
_chemical_formula_structural   CuC
_chemical_formula_sum   'Cu2 C2'
_cell_volume   833.18459405
_cell_formula_units_Z   2
loop_
 _symmetry_equiv_pos_site_id
 _symmetry_equiv_pos_as_xyz
  1  'x, y, z'
loop_
 _atom_site_type_symbol
 _atom_site_label
 _atom_site_symmetry_multiplicity
 _atom_site_fract_x
 _atom_site_fract_y
 _atom_site_fract_z
 _atom_site_occupancy
  C  C0  1  0.00000000  0.50000000  0.50000000  1
  C  C1  1  0.00000000  0.00000000  0.00000000  1
  Cu  Cu2  1  0.01676419  0.21867514  0.23252871  1
  Cu  Cu3  1  0.00305983  0.77859077  0.76685701  1
