# generated using pymatgen
data_Cu9Ni33C40
_symmetry_space_group_name_H-M   'P 1'
_cell_length_a   11.73915901
_cell_length_b   11.73915901
_cell_length_c   9.41330489
_cell_angle_alpha   88.62759026
_cell_angle_beta   88.62759026
_cell_angle_gamma   44.52430792
_symmetry_Int_Tables_number   1
_chemical_formula_structural   Cu9Ni33C40
_chemical_formula_sum   'Cu9 Ni33 C40'
_cell_volume   909.32645314
_cell_formula_units_Z   1
loop_
 _symmetry_equiv_pos_site_id
 _symmetry_equiv_pos_as_xyz
  1  'x, y, z'
loop_
 _atom_site_type_symbol
 _atom_site_label
 _atom_site_symmetry_multiplicity
 _atom_site_fract_x
 _atom_site_fract_y
 _atom_site_fract_z
 _atom_site_occupancy
  C  C0  1  0.84371600  0.44553200  0.04489700  1
  C  C1  1  0.55446800  0.15628400  0.45510300  1
  C  C2  1  0.15628400  0.55446800  0.95510300  1
  C  C3  1  0.44553200  0.84371600  0.54489700  1
  C  C4  1  0.96738300  0.80002200  0.60095900  1
  C  C5  1  0.19997800  0.03261700  0.89904100  1
  C  C6  1  0.03261700  0.19997800  0.39904100  1
  C  C7  1  0.80002200  0.96738300  0.10095900  1
  C  C8  1  0.11720400  0.48275400  0.28594100  1
  C  C9  1  0.51724600  0.88279600  0.21405900  1
  C  C10  1  0.88279600  0.51724600  0.71405900  1
  C  C11  1  0.48275400  0.11720300  0.78594100  1
  C  C12  1  0.11484900  0.75032800  0.29007200  1
  C  C13  1  0.24967200  0.88515100  0.20992800  1
  C  C14  1  0.88515100  0.24967200  0.70992800  1
  C  C15  1  0.75032800  0.11484900  0.79007200  1
  C  C16  1  0.76969700  0.74992800  0.46117500  1
  C  C17  1  0.25007200  0.23030300  0.03882500  1
  C  C18  1  0.23030300  0.25007200  0.53882500  1
  C  C19  1  0.74992800  0.76969700  0.96117500  1
  C  C20  1  0.93504100  0.15760000  0.14940200  1
  C  C21  1  0.84240000  0.06495900  0.35059800  1
  C  C22  1  0.06495900  0.84240000  0.85059800  1
  C  C23  1  0.15760000  0.93504100  0.64940200  1
  C  C24  1  0.81640400  0.19708300  0.03016300  1
  C  C25  1  0.80291700  0.18359600  0.46983700  1
  C  C26  1  0.18359600  0.80291700  0.96983700  1
  C  C27  1  0.19708300  0.81640400  0.53016300  1
  C  C28  1  0.89682600  0.46740600  0.32795800  1
  C  C29  1  0.53259400  0.10317400  0.17204200  1
  C  C30  1  0.10317400  0.53259400  0.67204200  1
  C  C31  1  0.46740600  0.89682600  0.82795800  1
  C  C32  1  0.42098900  0.47900600  0.09534700  1
  C  C33  1  0.52099400  0.57901100  0.40465300  1
  C  C34  1  0.57901100  0.52099400  0.90465300  1
  C  C35  1  0.47900600  0.42098900  0.59534700  1
  C  C36  1  0.53273700  0.31324300  0.01575400  1
  C  C37  1  0.68675700  0.46726300  0.48424600  1
  C  C38  1  0.46726300  0.68675700  0.98424600  1
  C  C39  1  0.31324300  0.53273700  0.51575400  1
  Ni  Ni40  1  0.94631300  0.91407200  0.21768500  1
  Ni  Ni41  1  0.08592800  0.05368700  0.28231500  1
  Ni  Ni42  1  0.05368700  0.08592800  0.78231500  1
  Cu  Cu43  1  0.92366151  0.93449137  0.71152835  1
  Ni  Ni44  1  0.10106800  0.75558500  0.46427300  1
  Ni  Ni45  1  0.24441500  0.89893200  0.03572700  1
  Cu  Cu46  1  0.89898593  0.25453200  0.53466053  1
  Ni  Ni47  1  0.75558500  0.10106800  0.96427300  1
  Ni  Ni48  1  0.16586400  0.58929000  0.23058600  1
  Ni  Ni49  1  0.41071000  0.83413600  0.26941400  1
  Ni  Ni50  1  0.83413600  0.41071000  0.76941400  1
  Ni  Ni51  1  0.58929000  0.16586400  0.73058600  1
  Ni  Ni52  1  0.86211700  0.79303500  0.02313600  1
  Cu  Cu53  1  0.21155412  0.12197952  0.46582951  1
  Ni  Ni54  1  0.13788300  0.20696500  0.97686400  1
  Ni  Ni55  1  0.79303500  0.86211700  0.52313600  1
  Ni  Ni56  1  0.25796300  0.32601000  0.40939400  1
  Cu  Cu57  1  0.66703933  0.74027130  0.09156736  1
  Ni  Ni58  1  0.74203700  0.67399000  0.59060600  1
  Ni  Ni59  1  0.32601000  0.25796300  0.90939400  1
  Ni  Ni60  1  0.92170000  0.60747400  0.35951600  1
  Ni  Ni61  1  0.39252600  0.07830000  0.14048400  1
  Ni  Ni62  1  0.07830000  0.39252600  0.64048400  1
  Ni  Ni63  1  0.60747400  0.92170000  0.85951600  1
  Ni  Ni64  1  0.12944900  0.40467100  0.12165700  1
  Ni  Ni65  1  0.59532900  0.87055100  0.37834300  1
  Cu  Cu66  1  0.86450491  0.59603189  0.86701173  1
  Ni  Ni67  1  0.40467100  0.12944900  0.62165700  1
  Cu  Cu68  1  0.26017760  0.74318300  0.26228406  1
  Ni  Ni69  1  0.73853600  0.26146400  0.75000000  1
  Cu  Cu70  1  0.90482522  0.39933524  0.27413646  1
  Ni  Ni71  1  0.62248000  0.08391300  0.21005400  1
  Ni  Ni72  1  0.08391300  0.62248000  0.71005400  1
  Ni  Ni73  1  0.37752000  0.91608700  0.78994600  1
  Cu  Cu74  1  0.42590890  0.43139394  0.01260983  1
  Cu  Cu75  1  0.60078407  0.56904288  0.49365556  1
  Ni  Ni76  1  0.57424400  0.57295500  0.98687600  1
  Ni  Ni77  1  0.42704500  0.42575600  0.51312400  1
  Ni  Ni78  1  0.85374300  0.23965200  0.07763100  1
  Ni  Ni79  1  0.76034800  0.14625700  0.42236900  1
  Ni  Ni80  1  0.14625700  0.76034800  0.92236900  1
  Ni  Ni81  1  0.23965200  0.85374300  0.57763100  1
