# generated using pymatgen
data_Cu4Ni
_symmetry_space_group_name_H-M   'P 1'
_cell_length_a   5.47676480
_cell_length_b   5.47676480
_cell_length_c   4.24922800
_cell_angle_alpha   90.00000000
_cell_angle_beta   90.00000000
_cell_angle_gamma   137.15508129
_symmetry_Int_Tables_number   1
_chemical_formula_structural   Cu4Ni
_chemical_formula_sum   'Cu8 Ni2'
_cell_volume   86.67174783
_cell_formula_units_Z   2
loop_
 _symmetry_equiv_pos_site_id
 _symmetry_equiv_pos_as_xyz
  1  'x, y, z'
loop_
 _atom_site_type_symbol
 _atom_site_label
 _atom_site_symmetry_multiplicity
 _atom_site_fract_x
 _atom_site_fract_y
 _atom_site_fract_z
 _atom_site_occupancy
  Ni  Ni0  1  0.25778800  0.74221200  0.75000000  1
  Ni  Ni1  1  0.74221200  0.25778800  0.25000000  1
  Cu  Cu2  1  0.48329500  0.51670500  0.75000000  1
  Cu  Cu3  1  0.51670500  0.48329500  0.25000000  1
  Cu  Cu4  1  0.44119200  0.55880800  0.25000000  1
  Cu  Cu5  1  0.55880800  0.44119200  0.75000000  1
  Cu  Cu6  1  0.96261900  0.03738100  0.99067000  1
  Cu  Cu7  1  0.03738100  0.96261900  0.00933000  1
  Cu  Cu8  1  0.96261900  0.03738100  0.50933000  1
  Cu  Cu9  1  0.03738100  0.96261900  0.49067000  1
