# generated using pymatgen
data_Cu41Ni13C306
_symmetry_space_group_name_H-M   'P 1'
_cell_length_a   9.09637298
_cell_length_b   27.25981994
_cell_length_c   22.50238951
_cell_angle_alpha   90.02022462
_cell_angle_beta   89.98718033
_cell_angle_gamma   120.06717028
_symmetry_Int_Tables_number   1
_chemical_formula_structural   Cu41Ni13C306
_chemical_formula_sum   'Cu41 Ni13 C306'
_cell_volume   4828.98807507
_cell_formula_units_Z   1
loop_
 _symmetry_equiv_pos_site_id
 _symmetry_equiv_pos_as_xyz
  1  'x, y, z'
loop_
 _atom_site_type_symbol
 _atom_site_label
 _atom_site_symmetry_multiplicity
 _atom_site_fract_x
 _atom_site_fract_y
 _atom_site_fract_z
 _atom_site_occupancy
  Cu  Cu0  1  0.98547576  0.00243839  0.49024174  1
  Cu  Cu1  1  0.98745310  0.32550035  0.49075189  1
  Cu  Cu2  1  0.02742456  0.67890527  0.50297916  1
  Cu  Cu3  1  0.02312532  0.00678839  0.99902458  1
  Cu  Cu4  1  0.98582079  0.32942843  0.99976859  1
  Ni  Ni5  1  0.00938424  0.66829346  0.00766322  1
  Ni  Ni6  1  0.66620299  0.11045157  0.83044435  1
  Cu  Cu7  1  0.64725614  0.43303225  0.82835992  1
  Cu  Cu8  1  0.63776358  0.77836001  0.84209411  1
  Cu  Cu9  1  0.66058237  0.11093004  0.32858641  1
  Cu  Cu10  1  0.65735668  0.44499024  0.33661677  1
  Cu  Cu11  1  0.67382670  0.77176368  0.33481757  1
  Ni  Ni12  1  0.34114547  0.22497606  0.16830471  1
  Ni  Ni13  1  0.33780024  0.55314995  0.16896292  1
  Cu  Cu14  1  0.32049013  0.88868739  0.15922808  1
  Cu  Cu15  1  0.34107937  0.23096086  0.66387349  1
  Cu  Cu16  1  0.32362847  0.55461717  0.67467074  1
  Ni  Ni17  1  0.34227673  0.88848389  0.66854864  1
  Cu  Cu18  1  0.61018311  0.00571798  0.24589153  1
  Cu  Cu19  1  0.63143494  0.66143471  0.24747985  1
  Cu  Cu20  1  0.34596158  0.10925922  0.24279111  1
  Cu  Cu21  1  0.35577487  0.78310224  0.25022297  1
  Ni  Ni22  1  0.98285980  0.20345890  0.24328674  1
  Cu  Cu23  1  0.96844418  0.54945815  0.24614534  1
  Cu  Cu24  1  0.61785627  0.19808806  0.73948145  1
  Cu  Cu25  1  0.64671698  0.55550064  0.75030780  1
  Cu  Cu26  1  0.99728144  0.12040371  0.75023150  1
  Cu  Cu27  1  0.00402444  0.78275135  0.74796369  1
  Ni  Ni28  1  0.38842222  0.00538932  0.74451053  1
  Cu  Cu29  1  0.34518055  0.67079735  0.74873019  1
  Cu  Cu30  1  0.31265337  0.10713989  0.58297491  1
  Cu  Cu31  1  0.33585952  0.44859080  0.57551738  1
  Ni  Ni32  1  0.27684661  0.77180287  0.58984920  1
  Cu  Cu33  1  0.01427734  0.22845294  0.58672117  1
  Cu  Cu34  1  0.04881506  0.58422728  0.59720970  1
  Cu  Cu35  1  0.01657786  0.90313134  0.57892391  1
  Cu  Cu36  1  0.64816067  0.32221523  0.58284810  1
  Cu  Cu37  1  0.68511188  0.65338651  0.59241524  1
  Cu  Cu38  1  0.64507938  0.98879618  0.58445347  1
  Ni  Ni39  1  0.30826422  0.32596180  0.07891329  1
  Cu  Cu40  1  0.26349516  0.66044228  0.09240751  1
  Ni  Ni41  1  0.31143494  0.99197504  0.08639991  1
  Ni  Ni42  1  0.66223614  0.22814730  0.08714898  1
  Cu  Cu43  1  0.66337789  0.56506491  0.08107129  1
  Ni  Ni44  1  0.02395073  0.11167087  0.08699702  1
  Cu  Cu45  1  0.01732443  0.44133108  0.08532015  1
  Cu  Cu46  1  0.03554778  0.77253068  0.09414798  1
  Cu  Cu47  1  0.98294810  0.55264148  0.92233299  1
  Cu  Cu48  1  0.70474183  0.35894805  0.93516474  1
  Ni  Ni49  1  0.70321951  0.67904919  0.91788356  1
  Cu  Cu50  1  0.33557300  0.43518648  0.92779732  1
  Cu  Cu51  1  0.92399979  0.42689290  0.42316627  1
  Cu  Cu52  1  0.34279524  0.35007373  0.42048481  1
  Cu  Cu53  1  0.71096523  0.54719427  0.42083161  1
  C  C54  1  0.99910512  0.66617742  0.64720352  1
  C  C55  1  0.00080068  0.66655612  0.14775200  1
  C  C56  1  0.66734255  0.11101492  0.68675502  1
  C  C57  1  0.66545224  0.11081938  0.18656608  1
  C  C58  1  0.66441633  0.44302508  0.98024651  1
  C  C59  1  0.66617477  0.44358304  0.47991363  1
  C  C60  1  0.99876149  0.99909210  0.35617360  1
  C  C61  1  0.99782278  0.33275187  0.35457296  1
  C  C62  1  0.00443456  0.66828150  0.35424698  1
  C  C63  1  0.00019441  0.99940747  0.85704088  1
  C  C64  1  0.99964066  0.33237414  0.85475792  1
  C  C65  1  0.00501535  0.66846323  0.85339970  1
  C  C66  1  0.99832659  0.00050150  0.64689929  1
  C  C67  1  0.00178488  0.33335418  0.64761594  1
  C  C68  1  0.99662059  0.99877194  0.14581406  1
  C  C69  1  0.99795720  0.33327176  0.14775806  1
  C  C70  1  0.66647699  0.44367414  0.68693803  1
  C  C71  1  0.66606155  0.77883601  0.68821410  1
  C  C72  1  0.66454338  0.44385110  0.18735479  1
  C  C73  1  0.67019261  0.77920427  0.18816809  1
  C  C74  1  0.66656790  0.11033686  0.97826302  1
  C  C75  1  0.66858580  0.78103726  0.97795903  1
  C  C76  1  0.66482906  0.11071119  0.47767191  1
  C  C77  1  0.66724769  0.77804863  0.47590527  1
  C  C78  1  0.32986300  0.22161764  0.01876404  1
  C  C79  1  0.33224230  0.55583937  0.02178161  1
  C  C80  1  0.34021501  0.88892751  0.02044637  1
  C  C81  1  0.33571008  0.22185573  0.51855398  1
  C  C82  1  0.33422151  0.55617665  0.52062113  1
  C  C83  1  0.33025987  0.88855071  0.51851856  1
  C  C84  1  0.33465698  0.22202295  0.31210530  1
  C  C85  1  0.33575167  0.55492805  0.31306131  1
  C  C86  1  0.32782919  0.88958917  0.31289361  1
  C  C87  1  0.33172910  0.22228993  0.81231244  1
  C  C88  1  0.32787861  0.55404423  0.81244175  1
  C  C89  1  0.34059466  0.88991655  0.81342877  1
  C  C90  1  0.28844627  0.99941338  0.25040061  1
  C  C91  1  0.29211613  0.33391548  0.25084356  1
  C  C92  1  0.29060204  0.66649997  0.24768174  1
  C  C93  1  0.70606391  0.23567348  0.25055842  1
  C  C94  1  0.71191642  0.57049012  0.24753531  1
  C  C95  1  0.70992776  0.90356120  0.25148117  1
  C  C96  1  0.99888590  0.09607067  0.25058654  1
  C  C97  1  0.99909227  0.43046663  0.25109627  1
  C  C98  1  0.00139294  0.76334461  0.24691068  1
  C  C99  1  0.29129415  0.09663710  0.75137487  1
  C  C100  1  0.29197508  0.43004236  0.75122076  1
  C  C101  1  0.29005374  0.76429062  0.74624646  1
  C  C102  1  0.00127653  0.23577148  0.75039608  1
  C  C103  1  0.99864404  0.57011920  0.74738209  1
  C  C104  1  0.00086451  0.90370686  0.75058733  1
  C  C105  1  0.70899649  0.99956684  0.75157937  1
  C  C106  1  0.70970348  0.33402610  0.75086212  1
  C  C107  1  0.70898243  0.66652029  0.74817011  1
  C  C108  1  0.95528738  0.11161767  0.58544980  1
  C  C109  1  0.95506603  0.44444062  0.58068319  1
  C  C110  1  0.95633669  0.77763106  0.58264883  1
  C  C111  1  0.37912822  0.01501667  0.58605223  1
  C  C112  1  0.37558928  0.34731869  0.58041506  1
  C  C113  1  0.37741122  0.68162230  0.58273060  1
  C  C114  1  0.66629682  0.20711830  0.58582154  1
  C  C115  1  0.67088524  0.54159834  0.58001648  1
  C  C116  1  0.66319114  0.87378032  0.58228876  1
  C  C117  1  0.95508676  0.20709676  0.08577708  1
  C  C118  1  0.95250587  0.54142657  0.08000797  1
  C  C119  1  0.95883245  0.87476184  0.08288264  1
  C  C120  1  0.66592681  0.01479148  0.08625575  1
  C  C121  1  0.66626826  0.34733142  0.08051131  1
  C  C122  1  0.66801840  0.68192144  0.08192830  1
  C  C123  1  0.37874243  0.11141300  0.08560338  1
  C  C124  1  0.37856441  0.44424908  0.08049790  1
  C  C125  1  0.37804799  0.77882981  0.08370808  1
  C  C126  1  0.62232199  0.22087719  0.91597762  1
  C  C127  1  0.62518948  0.55561649  0.91596411  1
  C  C128  1  0.62640236  0.88924310  0.91641582  1
  C  C129  1  0.03967287  0.12451320  0.91538718  1
  C  C130  1  0.04041370  0.45750156  0.91788226  1
  C  C131  1  0.04505559  0.79336293  0.91603154  1
  C  C132  1  0.33192248  0.31946957  0.91622851  1
  C  C133  1  0.33186425  0.65277969  0.91650102  1
  C  C134  1  0.33307068  0.98547999  0.91761901  1
  C  C135  1  0.62670124  0.31957096  0.41589962  1
  C  C136  1  0.62594162  0.65287124  0.41615401  1
  C  C137  1  0.62502860  0.98604217  0.41653163  1
  C  C138  1  0.33324855  0.12443276  0.41538992  1
  C  C139  1  0.33270145  0.45771834  0.41778132  1
  C  C140  1  0.33370907  0.79244975  0.41526673  1
  C  C141  1  0.04092582  0.22121644  0.41598327  1
  C  C142  1  0.04320780  0.55670411  0.41589847  1
  C  C143  1  0.03976890  0.88916443  0.41693829  1
  C  C144  1  0.18149531  0.00390487  0.30694661  1
  C  C145  1  0.19833085  0.34182030  0.30972962  1
  C  C146  1  0.19417476  0.67655243  0.30519426  1
  C  C147  1  0.83334298  0.27282206  0.30616690  1
  C  C148  1  0.83406214  0.60091054  0.30669305  1
  C  C149  1  0.82481181  0.93402111  0.30976280  1
  C  C150  1  0.98150873  0.05491406  0.30662318  1
  C  C151  1  0.98179862  0.39267920  0.31022266  1
  C  C152  1  0.96808727  0.72063301  0.30443893  1
  C  C153  1  0.18426153  0.05526426  0.80676104  1
  C  C154  1  0.19636300  0.39266763  0.81046908  1
  C  C155  1  0.19226385  0.72152943  0.80427718  1
  C  C156  1  0.98512653  0.27278776  0.80608176  1
  C  C157  1  0.96977992  0.60167657  0.80672385  1
  C  C158  1  0.97835009  0.93501680  0.80805765  1
  C  C159  1  0.83077377  0.00417665  0.80716118  1
  C  C160  1  0.82727250  0.34186331  0.80972478  1
  C  C161  1  0.82930971  0.67634036  0.80791528  1
  C  C162  1  0.80377506  0.32439913  0.69245759  1
  C  C163  1  0.78532165  0.65351615  0.69047661  1
  C  C164  1  0.80225440  0.99164650  0.69051014  1
  C  C165  1  0.16957441  0.06541254  0.69107325  1
  C  C166  1  0.17372641  0.39807131  0.69263339  1
  C  C167  1  0.17764157  0.73983657  0.68769969  1
  C  C168  1  0.02084309  0.27435647  0.69072746  1
  C  C169  1  0.04743420  0.60930975  0.68978884  1
  C  C170  1  0.02565032  0.94257498  0.69037436  1
  C  C171  1  0.80228669  0.27431157  0.19083454  1
  C  C172  1  0.78097056  0.60913527  0.18934583  1
  C  C173  1  0.80729696  0.94471932  0.19353036  1
  C  C174  1  0.02989857  0.06619673  0.19059251  1
  C  C175  1  0.02063444  0.39812094  0.19254185  1
  C  C176  1  0.04321307  0.73995616  0.18792324  1
  C  C177  1  0.16940905  0.32440558  0.19242545  1
  C  C178  1  0.17764577  0.65320473  0.18925978  1
  C  C179  1  0.17240491  0.99161418  0.18996209  1
  C  C180  1  0.88915003  0.12652318  0.64478766  1
  C  C181  1  0.85879165  0.45386182  0.63849322  1
  C  C182  1  0.86583134  0.78830199  0.64237407  1
  C  C183  1  0.49048093  0.03789383  0.64514909  1
  C  C184  1  0.50130831  0.37957761  0.63779246  1
  C  C185  1  0.49883303  0.71158803  0.64282646  1
  C  C186  1  0.62307357  0.16997269  0.64498621  1
  C  C187  1  0.63526455  0.49982125  0.64049485  1
  C  C188  1  0.63626575  0.83306339  0.64054944  1
  C  C189  1  0.88710812  0.17018394  0.14507093  1
  C  C190  1  0.86451121  0.49973981  0.14010717  1
  C  C191  1  0.86004188  0.83342082  0.14005187  1
  C  C192  1  0.62353373  0.03802880  0.14523864  1
  C  C193  1  0.63718458  0.37968304  0.13766429  1
  C  C194  1  0.63687777  0.71228582  0.14106960  1
  C  C195  1  0.49231400  0.12740214  0.14444486  1
  C  C196  1  0.50304640  0.45406818  0.13821851  1
  C  C197  1  0.49428759  0.78626941  0.14350263  1
  C  C198  1  0.47354490  0.10101146  0.02847149  1
  C  C199  1  0.44304656  0.42792410  0.02177857  1
  C  C200  1  0.48671674  0.77449025  0.02684868  1
  C  C201  1  0.82991671  0.17639700  0.02849368  1
  C  C202  1  0.84290980  0.51184629  0.02181306  1
  C  C203  1  0.84328016  0.84324913  0.02415329  1
  C  C204  1  0.69916419  0.05732989  0.02887902  1
  C  C205  1  0.70813739  0.38376788  0.02101425  1
  C  C206  1  0.68360563  0.72082432  0.02348265  1
  C  C207  1  0.47119010  0.05722702  0.52884241  1
  C  C208  1  0.44400682  0.38378455  0.52096063  1
  C  C209  1  0.48414900  0.72338467  0.52713594  1
  C  C210  1  0.69937603  0.17621979  0.52869669  1
  C  C211  1  0.69274298  0.51180359  0.52220531  1
  C  C212  1  0.69699713  0.84457739  0.52529657  1
  C  C213  1  0.82848109  0.10024404  0.52860828  1
  C  C214  1  0.84041041  0.42766127  0.52221878  1
  C  C215  1  0.83732214  0.77393976  0.52629137  1
  C  C216  1  0.53026211  0.23165189  0.97424102  1
  C  C217  1  0.52886613  0.56569783  0.97411370  1
  C  C218  1  0.52462573  0.89479986  0.97393853  1
  C  C219  1  0.16051282  0.15786091  0.97369465  1
  C  C220  1  0.16230795  0.48876471  0.97691186  1
  C  C221  1  0.15995429  0.82355162  0.97529843  1
  C  C222  1  0.31215140  0.28148260  0.97626001  1
  C  C223  1  0.30281504  0.61144338  0.97460027  1
  C  C224  1  0.30803006  0.94560257  0.97608102  1
  C  C225  1  0.53200108  0.28141017  0.47610042  1
  C  C226  1  0.52928910  0.61149161  0.47437122  1
  C  C227  1  0.52735963  0.94624427  0.47586585  1
  C  C228  1  0.31323966  0.15774469  0.47402049  1
  C  C229  1  0.30437117  0.48859602  0.47720204  1
  C  C230  1  0.30959273  0.82401375  0.47480860  1
  C  C231  1  0.16428304  0.23139581  0.47451847  1
  C  C232  1  0.16380536  0.56378229  0.47523804  1
  C  C233  1  0.15471978  0.89512871  0.47661711  1
  C  C234  1  0.13556523  0.21373894  0.35717975  1
  C  C235  1  0.14548783  0.55144062  0.35767547  1
  C  C236  1  0.14427730  0.88284121  0.36069673  1
  C  C237  1  0.49954866  0.28272483  0.36038123  1
  C  C238  1  0.51021981  0.62160993  0.35732639  1
  C  C239  1  0.50687680  0.95440676  0.35804036  1
  C  C240  1  0.35408447  0.16350293  0.35670701  1
  C  C241  1  0.34479242  0.49889418  0.36199225  1
  C  C242  1  0.35967177  0.83199015  0.35687526  1
  C  C243  1  0.13663516  0.16343914  0.85649212  1
  C  C244  1  0.15205406  0.49890882  0.86201930  1
  C  C245  1  0.13621568  0.83169933  0.85661888  1
  C  C246  1  0.34859954  0.28283148  0.86038672  1
  C  C247  1  0.35869032  0.62175976  0.85831650  1
  C  C248  1  0.35650272  0.95402188  0.85832713  1
  C  C249  1  0.50569703  0.21385022  0.85701292  1
  C  C250  1  0.50944789  0.55126738  0.85737643  1
  C  C251  1  0.50561337  0.88230129  0.85897744  1
  C  C252  1  0.03482703  0.28051446  0.41136465  1
  C  C253  1  0.02556558  0.61361200  0.41133939  1
  C  C254  1  0.02528697  0.94595320  0.41327932  1
  C  C255  1  0.81447210  0.32470871  0.41203686  1
  C  C256  1  0.80795501  0.65480172  0.41115325  1
  C  C257  1  0.81145892  0.99185059  0.41227988  1
  C  C258  1  0.16325081  0.06241702  0.41151702  1
  C  C259  1  0.15596730  0.39589236  0.41396176  1
  C  C260  1  0.16162588  0.73052923  0.40951813  1
  C  C261  1  0.02406388  0.06242608  0.91119200  1
  C  C262  1  0.03193080  0.39584371  0.91398333  1
  C  C263  1  0.02311413  0.72957636  0.90974605  1
  C  C264  1  0.15975929  0.32476014  0.91204700  1
  C  C265  1  0.15646885  0.65534213  0.91084683  1
  C  C266  1  0.16405136  0.99151452  0.91129972  1
  C  C267  1  0.80661364  0.28039545  0.91112303  1
  C  C268  1  0.81138439  0.61447802  0.91140820  1
  C  C269  1  0.81250749  0.94545576  0.91252255  1
  C  C270  1  0.97528036  0.05389792  0.58819473  1
  C  C271  1  0.98757387  0.39012758  0.59276402  1
  C  C272  1  0.97400620  0.72238398  0.58467049  1
  C  C273  1  0.18530499  0.00752359  0.58843617  1
  C  C274  1  0.18278321  0.33817884  0.59173324  1
  C  C275  1  0.19306701  0.67491099  0.58469822  1
  C  C276  1  0.83667636  0.27200659  0.58801747  1
  C  C277  1  0.83142554  0.60427959  0.58788606  1
  C  C278  1  0.83340216  0.93689790  0.58950445  1
  C  C279  1  0.97961285  0.27206744  0.08800695  1
  C  C280  1  0.98176653  0.60432970  0.08750793  1
  C  C281  1  0.98272756  0.93814954  0.08857279  1
  C  C282  1  0.84075096  0.01000899  0.08900936  1
  C  C283  1  0.83168268  0.33814994  0.09182955  1
  C  C284  1  0.83251965  0.67518400  0.08352148  1
  C  C285  1  0.18714567  0.05420826  0.08821057  1
  C  C286  1  0.18286830  0.39017829  0.09250347  1
  C  C287  1  0.19552658  0.72252867  0.08404147  1
  C  C288  1  0.69472327  0.05577415  0.74900594  1
  C  C289  1  0.68987896  0.38958524  0.74310473  1
  C  C290  1  0.69268722  0.72449073  0.74558144  1
  C  C291  1  0.47460660  0.10241738  0.74865445  1
  C  C292  1  0.48059220  0.43746750  0.74444776  1
  C  C293  1  0.47690223  0.76766735  0.74507827  1
  C  C294  1  0.83241402  0.17499269  0.75015859  1
  C  C295  1  0.82324844  0.50808374  0.74368947  1
  C  C296  1  0.83466236  0.83979373  0.74423005  1
  C  C297  1  0.69251947  0.17493245  0.25030291  1
  C  C298  1  0.70016567  0.50803503  0.24284009  1
  C  C299  1  0.68455994  0.83987410  0.24420144  1
  C  C300  1  0.83315060  0.10219404  0.24871343  1
  C  C301  1  0.83152078  0.43731064  0.24419412  1
  C  C302  1  0.82577622  0.76754410  0.24411020  1
  C  C303  1  0.47193329  0.05570470  0.24883594  1
  C  C304  1  0.47859303  0.38955485  0.24296987  1
  C  C305  1  0.48151963  0.72415988  0.24570016  1
  C  C306  1  0.64182906  0.16553244  0.92346425  1
  C  C307  1  0.63997356  0.49969475  0.91805162  1
  C  C308  1  0.64170423  0.83212916  0.92030619  1
  C  C309  1  0.85581515  0.12020768  0.92309862  1
  C  C310  1  0.85789451  0.45232015  0.91707412  1
  C  C311  1  0.85165626  0.78332519  0.92080053  1
  C  C312  1  0.50443525  0.04757296  0.92418815  1
  C  C313  1  0.50045545  0.38039857  0.91636235  1
  C  C314  1  0.50402298  0.71421271  0.92223660  1
  C  C315  1  0.63853538  0.04780318  0.42437957  1
  C  C316  1  0.64103748  0.38043595  0.41635693  1
  C  C317  1  0.64461503  0.71514009  0.42292753  1
  C  C318  1  0.50470618  0.12026757  0.42351634  1
  C  C319  1  0.49943573  0.45239231  0.41715130  1
  C  C320  1  0.50215174  0.78629901  0.42296267  1
  C  C321  1  0.85514403  0.16568016  0.42393488  1
  C  C322  1  0.86089021  0.49992816  0.41792964  1
  C  C323  1  0.85413934  0.83215888  0.42061178  1
  C  C324  1  0.34733401  0.16611142  0.07405626  1
  C  C325  1  0.36400155  0.50259899  0.07835204  1
  C  C326  1  0.35728025  0.83543904  0.07922322  1
  C  C327  1  0.14969142  0.21713061  0.07490350  1
  C  C328  1  0.14506705  0.54519177  0.07806476  1
  C  C329  1  0.14627029  0.88000731  0.07998273  1
  C  C330  1  0.49541250  0.28311696  0.07946345  1
  C  C331  1  0.48984253  0.61923481  0.07812289  1
  C  C332  1  0.49757607  0.95170108  0.07409084  1
  C  C333  1  0.35372665  0.28308183  0.57953672  1
  C  C334  1  0.36884091  0.61937404  0.57847461  1
  C  C335  1  0.35068609  0.95046825  0.57503918  1
  C  C336  1  0.50186796  0.21714807  0.57492468  1
  C  C337  1  0.49029369  0.54537577  0.57852184  1
  C  C338  1  0.49383485  0.88055109  0.57950127  1
  C  C339  1  0.15098655  0.16580034  0.57428161  1
  C  C340  1  0.14445040  0.50255082  0.57916252  1
  C  C341  1  0.14555552  0.83637408  0.57930224  1
  C  C342  1  0.29727254  0.27454759  0.25514356  1
  C  C343  1  0.32140923  0.61199200  0.25697082  1
  C  C344  1  0.30997391  0.94270504  0.25444506  1
  C  C345  1  0.51867928  0.23076104  0.25438602  1
  C  C346  1  0.51987967  0.56162214  0.25922018  1
  C  C347  1  0.52106824  0.89771241  0.25360884  1
  C  C348  1  0.17570326  0.15861705  0.25399151  1
  C  C349  1  0.16496565  0.49478264  0.25417579  1
  C  C350  1  0.16918703  0.82632522  0.25923773  1
  C  C351  1  0.29995267  0.15860310  0.75341545  1
  C  C352  1  0.31852661  0.49452354  0.75427135  1
  C  C353  1  0.30947965  0.82674430  0.75829369  1
  C  C354  1  0.17371320  0.23077749  0.75434053  1
  C  C355  1  0.16453213  0.56193911  0.76029051  1
  C  C356  1  0.17208353  0.89771070  0.75301567  1
  C  C357  1  0.52629138  0.27462492  0.75511023  1
  C  C358  1  0.51399557  0.61208057  0.75686650  1
  C  C359  1  0.51783397  0.94280939  0.75422614  1
