# generated using pymatgen
data_Cu3Ni2C17
_symmetry_space_group_name_H-M   'P 1'
_cell_length_a   8.30358379
_cell_length_b   8.25471118
_cell_length_c   8.85253924
_cell_angle_alpha   90.33688759
_cell_angle_beta   117.91345993
_cell_angle_gamma   59.77676753
_symmetry_Int_Tables_number   1
_chemical_formula_structural   Cu3Ni2C17
_chemical_formula_sum   'Cu6 Ni4 C34'
_cell_volume   441.83087836
_cell_formula_units_Z   2
loop_
 _symmetry_equiv_pos_site_id
 _symmetry_equiv_pos_as_xyz
  1  'x, y, z'
loop_
 _atom_site_type_symbol
 _atom_site_label
 _atom_site_symmetry_multiplicity
 _atom_site_fract_x
 _atom_site_fract_y
 _atom_site_fract_z
 _atom_site_occupancy
  C  C0  1  0.99956300  0.49916500  0.49995400  1
  C  C1  1  0.00104100  0.99923800  0.99987500  1
  C  C2  1  0.49952100  0.87525100  0.24693600  1
  C  C3  1  0.11598600  0.62826900  0.24183800  1
  C  C4  1  0.89149800  0.24120300  0.26195400  1
  C  C5  1  0.49786300  0.12802400  0.74240900  1
  C  C6  1  0.87197300  0.37465200  0.74662400  1
  C  C7  1  0.12897100  0.74050500  0.76097800  1
  C  C8  1  0.49934700  0.33802800  0.40281900  1
  C  C9  1  0.75519600  0.16368600  0.42873700  1
  C  C10  1  0.65092200  0.08501500  0.52676000  1
  C  C11  1  0.51083000  0.66378300  0.92980400  1
  C  C12  1  0.56556900  0.83807200  0.90197100  1
  C  C13  1  0.79146100  0.58505500  0.02614800  1
  C  C14  1  0.38908800  0.73321200  0.47356100  1
  C  C15  1  0.26115600  0.83550700  0.59822500  1
  C  C16  1  0.40621600  0.91906100  0.56960600  1
  C  C17  1  0.50164300  0.33492700  0.09833100  1
  C  C18  1  0.35219200  0.23200000  0.97403300  1
  C  C19  1  0.24362100  0.41894100  0.06850000  1
  Ni  Ni20  1  0.60384300  0.18325800  0.40946200  1
  Cu  Cu21  1  0.63546284  0.69413759  0.93482193  1
  Ni  Ni22  1  0.40755300  0.78592100  0.59050900  1
  Cu  Cu23  1  0.39692294  0.27540782  0.08860839  1
  Ni  Ni24  1  0.50042100  0.73983200  0.24467600  1
  Ni  Ni25  1  0.99065000  0.76164500  0.25093100  1
  Cu  Cu26  1  0.01829048  0.23978590  0.26423393  1
  Cu  Cu27  1  0.49995595  0.26975305  0.74574648  1
  Cu  Cu28  1  0.01404336  0.22517450  0.76240412  1
  Cu  Cu29  1  0.98104437  0.73325831  0.75133651  1
  C  C30  1  0.49924300  0.13872000  0.25020900  1
  C  C31  1  0.61135500  0.63790300  0.74978300  1
  C  C32  1  0.68444100  0.57163000  0.33495300  1
  C  C33  1  0.92474000  0.74171000  0.34847900  1
  C  C34  1  0.09446100  0.33770700  0.34498700  1
  C  C35  1  0.68289900  0.24063100  0.84843900  1
  C  C36  1  0.07869200  0.07134100  0.83511600  1
  C  C37  1  0.91418900  0.83758400  0.84607600  1
  C  C38  1  0.31612700  0.42870600  0.66354300  1
  C  C39  1  0.08063100  0.25338600  0.65280100  1
  C  C40  1  0.91191300  0.65994000  0.65595200  1
  C  C41  1  0.31830100  0.75464400  0.15260300  1
  C  C42  1  0.91921100  0.92899300  0.16338800  1
  C  C43  1  0.08213500  0.16034500  0.15467000  1
