# generated using pymatgen
data_Cu4NiC2
_symmetry_space_group_name_H-M   'P 1'
_cell_length_a   5.95572376
_cell_length_b   5.95572376
_cell_length_c   9.68989500
_cell_angle_alpha   90.00000000
_cell_angle_beta   90.00000000
_cell_angle_gamma   119.99999729
_symmetry_Int_Tables_number   1
_chemical_formula_structural   Cu4NiC2
_chemical_formula_sum   'Cu16 Ni4 C8'
_cell_volume   297.65885441
_cell_formula_units_Z   4
loop_
 _symmetry_equiv_pos_site_id
 _symmetry_equiv_pos_as_xyz
  1  'x, y, z'
loop_
 _atom_site_type_symbol
 _atom_site_label
 _atom_site_symmetry_multiplicity
 _atom_site_fract_x
 _atom_site_fract_y
 _atom_site_fract_z
 _atom_site_occupancy
  Ni  Ni0  1  0.33333300  0.66666700  0.89166800  1
  Ni  Ni1  1  0.00000000  0.00000000  0.99372700  1
  Ni  Ni2  1  0.00000000  0.00000000  0.49372700  1
  Ni  Ni3  1  0.66666700  0.33333300  0.39166800  1
  C  C4  1  0.17079800  0.82920200  0.21635300  1
  C  C5  1  0.17079800  0.34159600  0.21635300  1
  C  C6  1  0.65840400  0.82920200  0.21635300  1
  C  C7  1  0.34159600  0.17079800  0.71635300  1
  C  C8  1  0.82920200  0.65840400  0.71635300  1
  C  C9  1  0.82920200  0.17079800  0.71635300  1
  C  C10  1  0.33333300  0.66666700  0.49415900  1
  C  C11  1  0.66666700  0.33333300  0.99415900  1
  Cu  Cu12  1  0.15969000  0.84031000  0.60075200  1
  Cu  Cu13  1  0.03397000  0.51698500  0.33789800  1
  Cu  Cu14  1  0.33333300  0.66666700  0.10727200  1
  Cu  Cu15  1  0.00000000  0.00000000  0.30256300  1
  Cu  Cu16  1  0.00000000  0.00000000  0.80256300  1
  Cu  Cu17  1  0.15969000  0.31938000  0.60075200  1
  Cu  Cu18  1  0.48301500  0.96603000  0.33789800  1
  Cu  Cu19  1  0.48301500  0.51698500  0.33789800  1
  Cu  Cu20  1  0.31938000  0.15969000  0.10075200  1
  Cu  Cu21  1  0.68062000  0.84031000  0.60075200  1
  Cu  Cu22  1  0.51698500  0.48301500  0.83789800  1
  Cu  Cu23  1  0.51698500  0.03397000  0.83789800  1
  Cu  Cu24  1  0.66666700  0.33333300  0.60727200  1
  Cu  Cu25  1  0.84031000  0.68062000  0.10075200  1
  Cu  Cu26  1  0.96603000  0.48301500  0.83789800  1
  Cu  Cu27  1  0.84031000  0.15969000  0.10075200  1
