# generated using pymatgen
data_Cu21Ni7C16
_symmetry_space_group_name_H-M   'P 1'
_cell_length_a   7.54469300
_cell_length_b   8.17537061
_cell_length_c   8.65398822
_cell_angle_alpha   100.90736263
_cell_angle_beta   104.66572221
_cell_angle_gamma   105.64676193
_symmetry_Int_Tables_number   1
_chemical_formula_structural   Cu21Ni7C16
_chemical_formula_sum   'Cu21 Ni7 C16'
_cell_volume   477.88182299
_cell_formula_units_Z   1
loop_
 _symmetry_equiv_pos_site_id
 _symmetry_equiv_pos_as_xyz
  1  'x, y, z'
loop_
 _atom_site_type_symbol
 _atom_site_label
 _atom_site_symmetry_multiplicity
 _atom_site_fract_x
 _atom_site_fract_y
 _atom_site_fract_z
 _atom_site_occupancy
  C  C0  1  0.57927900  0.21578800  0.29193000  1
  C  C1  1  0.42072100  0.78421200  0.70807000  1
  C  C2  1  0.50000000  0.50000000  0.50000000  1
  C  C3  1  0.92821900  0.78785100  0.21557000  1
  C  C4  1  0.64285300  0.92882600  0.07108000  1
  C  C5  1  0.86235800  0.57820900  0.43448800  1
  C  C6  1  0.78840000  0.36161100  0.64737000  1
  C  C7  1  0.57227800  0.71644300  0.28700900  1
  C  C8  1  0.28084100  0.84852600  0.13587000  1
  C  C9  1  0.71915900  0.15147400  0.86413000  1
  C  C10  1  0.21160000  0.63838900  0.35263000  1
  C  C11  1  0.42772200  0.28355700  0.71299100  1
  C  C12  1  0.00000000  0.00000000  0.00000000  1
  C  C13  1  0.13764200  0.42179100  0.56551200  1
  C  C14  1  0.35714700  0.07117400  0.92892000  1
  C  C15  1  0.07178100  0.21214900  0.78443000  1
  Cu  Cu16  1  0.90744426  0.00044329  0.17522063  1
  Ni  Ni17  1  0.94239200  0.56996800  0.24235000  1
  Cu  Cu18  1  0.87520761  0.33025283  0.44457985  1
  Cu  Cu19  1  0.65718866  0.68770935  0.09057736  1
  Cu  Cu20  1  0.82692379  0.80634753  0.39467820  1
  Ni  Ni21  1  0.62654100  0.15248300  0.05282700  1
  Cu  Cu22  1  0.79175187  0.58536418  0.64219596  1
  Cu  Cu23  1  0.96924729  0.19191915  0.94376921  1
  Cu  Cu24  1  0.80631660  0.15122720  0.66581896  1
  Cu  Cu25  1  0.56159329  0.96090713  0.27709002  1
  Cu  Cu26  1  0.58830684  0.48339821  0.28904941  1
  Ni  Ni27  1  0.27359500  0.07708700  0.11761100  1
  Cu  Cu28  1  0.51193505  0.24703653  0.52001678  1
  Ni  Ni29  1  0.69985800  0.36604900  0.83553200  1
  Cu  Cu30  1  0.49225545  0.75272337  0.46118677  1
  Cu  Cu31  1  0.73491540  0.92971940  0.86611120  1
  Cu  Cu32  1  0.28701187  0.63853117  0.16281551  1
  Cu  Cu33  1  0.40719937  0.50873724  0.72341029  1
  Cu  Cu34  1  0.99329257  0.75916379  0.01572573  1
  Cu  Cu35  1  0.40151232  0.03943119  0.73905308  1
  Ni  Ni36  1  0.19928600  0.86200700  0.32363400  1
  Cu  Cu37  1  0.17719364  0.39557889  0.36250166  1
  Ni  Ni38  1  0.34174900  0.28902100  0.90018900  1
  Ni  Ni39  1  0.37345900  0.84751700  0.94717200  1
  Cu  Cu40  1  0.11000520  0.65596288  0.51025064  1
  Cu  Cu41  1  0.16032367  0.18574739  0.56481198  1
  Cu  Cu42  1  0.05051738  0.41093574  0.77066978  1
  Cu  Cu43  1  0.06558172  0.99043754  0.78547836  1
