# generated using pymatgen
data_Cu12Ni4C23
_symmetry_space_group_name_H-M   'P 1'
_cell_length_a   10.31750156
_cell_length_b   10.31750156
_cell_length_c   18.48997115
_cell_angle_alpha   90.00000054
_cell_angle_beta   106.20068704
_cell_angle_gamma   59.99999654
_symmetry_Int_Tables_number   1
_chemical_formula_structural   Cu12Ni4C23
_chemical_formula_sum   'Cu12 Ni4 C23'
_cell_volume   1613.69272284
_cell_formula_units_Z   1
loop_
 _symmetry_equiv_pos_site_id
 _symmetry_equiv_pos_as_xyz
  1  'x, y, z'
loop_
 _atom_site_type_symbol
 _atom_site_label
 _atom_site_symmetry_multiplicity
 _atom_site_fract_x
 _atom_site_fract_y
 _atom_site_fract_z
 _atom_site_occupancy
  Cu  Cu0  1  0.02656350  0.82215732  0.43717257  1
  Cu  Cu1  1  0.24884343  0.16290339  0.43305289  1
  Ni  Ni2  1  0.58229663  0.59339411  0.43304592  1
  Ni  Ni3  1  0.04065628  0.64587231  0.93835320  1
  Ni  Ni4  1  0.58422551  0.31347141  0.93835320  1
  Cu  Cu5  1  0.25114397  0.10174778  0.93783069  1
  Cu  Cu6  1  0.98161629  0.16682437  0.56235353  1
  Cu  Cu7  1  0.73976188  0.86288329  0.56755602  1
  Cu  Cu8  1  0.40066701  0.40123604  0.55658123  1
  Cu  Cu9  1  0.97889111  0.35570697  0.07284120  1
  Cu  Cu10  1  0.42486196  0.70123079  0.06082367  1
  Cu  Cu11  1  0.75221050  0.90408329  0.07085914  1
  Cu  Cu12  1  0.84882425  0.57227688  0.26536776  1
  Cu  Cu13  1  0.84381604  0.07150211  0.76692320  1
  Ni  Ni14  1  0.15490005  0.42254997  0.73235008  1
  Cu  Cu15  1  0.16404759  0.93056562  0.22910381  1
  C  C16  1  0.23262990  0.01737010  0.75000000  1
  C  C17  1  0.76737010  0.75000000  0.75000000  1
  C  C18  1  0.50000000  0.48262990  0.75000000  1
  C  C19  1  0.28200598  0.25000000  0.25000000  1
  C  C20  1  0.50000000  0.46799402  0.25000000  1
  C  C21  1  0.71799402  0.03200598  0.25000000  1
  C  C22  1  0.57311245  0.91733857  0.34420319  1
  C  C23  1  0.26154176  0.50954898  0.34420319  1
  C  C24  1  0.85375217  0.22890926  0.34420319  1
  C  C25  1  0.57019547  0.99601438  0.84398779  1
  C  C26  1  0.84000217  0.43379016  0.84398779  1
  C  C27  1  0.27777795  0.72620767  0.84398779  1
  C  C28  1  0.42980453  0.06620984  0.65601221  1
  C  C29  1  0.72222205  0.50398562  0.65601221  1
  C  C30  1  0.15999783  0.77379233  0.65601221  1
  C  C31  1  0.42688755  0.99045102  0.15579681  1
  C  C32  1  0.14624783  0.58266143  0.15579681  1
  C  C33  1  0.73845824  0.27109074  0.15579681  1
  C  C34  1  0.39077905  0.80461048  0.58616857  1
  C  C35  1  0.39686160  0.30156920  0.09529239  1
  C  C36  1  0.60313840  0.19843080  0.40470761  1
  C  C37  1  0.60922095  0.69538952  0.91383143  1
  C  C38  1  0.50000000  0.75000000  0.75000000  1
