# generated using pymatgen
data_Cu4C15
_symmetry_space_group_name_H-M   'P 1'
_cell_length_a   5.31807252
_cell_length_b   9.53881813
_cell_length_c   9.53881282
_cell_angle_alpha   108.50035161
_cell_angle_beta   95.91198983
_cell_angle_gamma   95.91210533
_symmetry_Int_Tables_number   1
_chemical_formula_structural   Cu4C15
_chemical_formula_sum   'Cu8 C30'
_cell_volume   451.69217929
_cell_formula_units_Z   2
loop_
 _symmetry_equiv_pos_site_id
 _symmetry_equiv_pos_as_xyz
  1  'x, y, z'
loop_
 _atom_site_type_symbol
 _atom_site_label
 _atom_site_symmetry_multiplicity
 _atom_site_fract_x
 _atom_site_fract_y
 _atom_site_fract_z
 _atom_site_occupancy
  Cu  Cu0  1  0.73077746  0.46378854  0.04307906  1
  Cu  Cu1  1  0.26333923  0.97770489  0.52731610  1
  Cu  Cu2  1  0.73505389  0.26212082  0.24296982  1
  Cu  Cu3  1  0.26156696  0.72589235  0.69177186  1
  Cu  Cu4  1  0.22509343  0.54047835  0.94115171  1
  Cu  Cu5  1  0.76194508  0.06457235  0.45788640  1
  Cu  Cu6  1  0.72762446  0.67737334  0.86972298  1
  Cu  Cu7  1  0.22642507  0.16595964  0.33964978  1
  C  C8  1  0.99997100  0.60003900  0.39994600  1
  C  C9  1  0.99999300  0.79987900  0.20013600  1
  C  C10  1  0.50001600  0.90012700  0.09985900  1
  C  C11  1  0.49998200  0.10004300  0.89995100  1
  C  C12  1  0.50000400  0.29985100  0.70016200  1
  C  C13  1  0.00000600  0.40011800  0.59987400  1
  C  C14  1  0.50000100  0.49693100  0.50306900  1
  C  C15  1  0.00000700  0.99694700  0.00306100  1
  C  C16  1  0.50000400  0.70308800  0.29691200  1
  C  C17  1  0.00000100  0.20308000  0.79692000  1
  C  C18  1  0.87677700  0.19718600  0.99718900  1
  C  C19  1  0.37676000  0.69718000  0.49718300  1
  C  C20  1  0.62324200  0.50281800  0.30282100  1
  C  C21  1  0.12322400  0.00281200  0.80281500  1
  C  C22  1  0.35467300  0.29819500  0.89467400  1
  C  C23  1  0.85467700  0.79820200  0.39466600  1
  C  C24  1  0.85460800  0.59466500  0.59817700  1
  C  C25  1  0.35459500  0.09467600  0.09817500  1
  C  C26  1  0.64540900  0.90182600  0.90532600  1
  C  C27  1  0.14539400  0.40182300  0.40533500  1
  C  C28  1  0.14532300  0.60533200  0.20179800  1
  C  C29  1  0.64532900  0.10532600  0.70180500  1
  C  C30  1  0.87629500  0.39906200  0.80954500  1
  C  C31  1  0.37630000  0.89906600  0.30955200  1
  C  C32  1  0.37623400  0.50952100  0.69905300  1
  C  C33  1  0.87621700  0.00951700  0.19904000  1
  C  C34  1  0.62369800  0.69044600  0.10093300  1
  C  C35  1  0.12370600  0.19045500  0.60093800  1
  C  C36  1  0.12378500  0.80096000  0.99048300  1
  C  C37  1  0.62376800  0.30094700  0.49047900  1
