# generated using pymatgen
data_Cu4C5
_symmetry_space_group_name_H-M   'P 1'
_cell_length_a   7.17636200
_cell_length_b   7.75276300
_cell_length_c   14.74935400
_cell_angle_alpha   90.00000000
_cell_angle_beta   90.00000000
_cell_angle_gamma   90.00000000
_symmetry_Int_Tables_number   1
_chemical_formula_structural   Cu4C5
_chemical_formula_sum   'Cu16 C20'
_cell_volume   820.60440711
_cell_formula_units_Z   4
loop_
 _symmetry_equiv_pos_site_id
 _symmetry_equiv_pos_as_xyz
  1  'x, y, z'
loop_
 _atom_site_type_symbol
 _atom_site_label
 _atom_site_symmetry_multiplicity
 _atom_site_fract_x
 _atom_site_fract_y
 _atom_site_fract_z
 _atom_site_occupancy
  C  C0  1  0.15897000  0.52212900  0.75000000  1
  C  C1  1  0.84103000  0.47787100  0.25000000  1
  C  C2  1  0.34103000  0.02212900  0.25000000  1
  C  C3  1  0.65897000  0.97787100  0.75000000  1
  Cu  Cu4  1  0.34523046  0.18807910  0.62629082  1
  Cu  Cu5  1  0.68946163  0.81644253  0.37943095  1
  Cu  Cu6  1  0.17530710  0.69729642  0.38787965  1
  Cu  Cu7  1  0.65756191  0.82819896  0.11048855  1
  Cu  Cu8  1  0.79368754  0.31117109  0.63666404  1
  Cu  Cu9  1  0.30644099  0.14696760  0.87630386  1
  Cu  Cu10  1  0.80865667  0.31118832  0.87910092  1
  Cu  Cu11  1  0.11309960  0.65063315  0.12469286  1
  Cu  Cu12  1  0.01055651  0.17000106  0.10396430  1
  Cu  Cu13  1  0.96213320  0.81310158  0.89947391  1
  Cu  Cu14  1  0.50084891  0.68786792  0.90094480  1
  Cu  Cu15  1  0.98881200  0.83094627  0.60129004  1
  Cu  Cu16  1  0.54011469  0.31441198  0.10452399  1
  Cu  Cu17  1  0.01988463  0.18834263  0.41081066  1
  Cu  Cu18  1  0.52554128  0.31042561  0.40543389  1
  Cu  Cu19  1  0.47593002  0.70641137  0.60501075  1
  C  C20  1  0.01822800  0.08660200  0.75000000  1
  C  C21  1  0.98177200  0.91339800  0.25000000  1
  C  C22  1  0.48177200  0.58660200  0.25000000  1
  C  C23  1  0.51822800  0.41339800  0.75000000  1
  C  C24  1  0.28326100  0.86362200  0.75000000  1
  C  C25  1  0.71673900  0.13637800  0.25000000  1
  C  C26  1  0.21673900  0.36362200  0.25000000  1
  C  C27  1  0.78326100  0.63637800  0.75000000  1
  C  C28  1  0.16626400  0.46611200  0.53691000  1
  C  C29  1  0.83373600  0.53388800  0.46309000  1
  C  C30  1  0.33373600  0.96611200  0.46309000  1
  C  C31  1  0.83373600  0.53388800  0.03691000  1
  C  C32  1  0.66626400  0.03388800  0.53691000  1
  C  C33  1  0.16626400  0.46611200  0.96309000  1
  C  C34  1  0.66626400  0.03388800  0.96309000  1
  C  C35  1  0.33373600  0.96611200  0.03691000  1
