# generated using pymatgen
data_Cu7C8
_symmetry_space_group_name_H-M   'P 1'
_cell_length_a   9.75584700
_cell_length_b   6.91547600
_cell_length_c   11.81666965
_cell_angle_alpha   56.65670191
_cell_angle_beta   90.00000000
_cell_angle_gamma   90.00000000
_symmetry_Int_Tables_number   1
_chemical_formula_structural   Cu7C8
_chemical_formula_sum   'Cu14 C16'
_cell_volume   665.99747820
_cell_formula_units_Z   2
loop_
 _symmetry_equiv_pos_site_id
 _symmetry_equiv_pos_as_xyz
  1  'x, y, z'
loop_
 _atom_site_type_symbol
 _atom_site_label
 _atom_site_symmetry_multiplicity
 _atom_site_fract_x
 _atom_site_fract_y
 _atom_site_fract_z
 _atom_site_occupancy
  C  C0  1  0.78443400  0.60491000  0.27803100  1
  C  C1  1  0.64858200  0.96591600  0.91877000  1
  C  C2  1  0.52624500  0.20561700  0.54640200  1
  C  C3  1  0.02624500  0.79438300  0.95359800  1
  C  C4  1  0.28443400  0.39509000  0.22196900  1
  C  C5  1  0.14858200  0.03408400  0.58123000  1
  C  C6  1  0.85141800  0.96591600  0.41877000  1
  C  C7  1  0.71556600  0.60491000  0.77803100  1
  C  C8  1  0.97375500  0.20561700  0.04640200  1
  C  C9  1  0.47375500  0.79438300  0.45359800  1
  C  C10  1  0.35141800  0.03408400  0.08123000  1
  C  C11  1  0.21556600  0.39509000  0.72196900  1
  C  C12  1  0.86183500  0.32074200  0.62892900  1
  C  C13  1  0.36183500  0.67925800  0.87107100  1
  C  C14  1  0.63816500  0.32074200  0.12892900  1
  C  C15  1  0.13816500  0.67925800  0.37107100  1
  Cu  Cu16  1  0.01268414  0.55489095  0.48574742  1
  Cu  Cu17  1  0.07229095  0.76849776  0.21119648  1
  Cu  Cu18  1  0.27073525  0.47068439  0.41702126  1
  Cu  Cu19  1  0.32367234  0.90399134  0.86560220  1
  Cu  Cu20  1  0.82253874  0.04068894  0.64158216  1
  Cu  Cu21  1  0.79210149  0.50768235  0.06125184  1
  Cu  Cu22  1  0.58583044  0.25091175  0.29841918  1
  Cu  Cu23  1  0.51354602  0.47818633  0.99200047  1
  Cu  Cu24  1  0.43189465  0.74248531  0.69102797  1
  Cu  Cu25  1  0.22039115  0.47743763  0.92625326  1
  Cu  Cu26  1  0.14887434  0.91145779  0.38555848  1
  Cu  Cu27  1  0.62631214  0.10320919  0.10247102  1
  Cu  Cu28  1  0.71198136  0.50357264  0.57899497  1
  Cu  Cu29  1  0.90082575  0.26794386  0.80992607  1
