# generated using pymatgen
data_CuNi35
_symmetry_space_group_name_H-M   'P 1'
_cell_length_a   14.99678400
_cell_length_b   8.49984800
_cell_length_c   19.00802097
_cell_angle_alpha   77.46757855
_cell_angle_beta   90.00000000
_cell_angle_gamma   90.00000000
_symmetry_Int_Tables_number   1
_chemical_formula_structural   CuNi35
_chemical_formula_sum   'Cu2 Ni70'
_cell_volume   2365.22879052
_cell_formula_units_Z   2
loop_
 _symmetry_equiv_pos_site_id
 _symmetry_equiv_pos_as_xyz
  1  'x, y, z'
loop_
 _atom_site_type_symbol
 _atom_site_label
 _atom_site_symmetry_multiplicity
 _atom_site_fract_x
 _atom_site_fract_y
 _atom_site_fract_z
 _atom_site_occupancy
  Cu  Cu0  1  0.98247221  0.63382137  0.36220482  1
  Ni  Ni1  1  0.52596500  0.24193600  0.62796700  1
  Ni  Ni2  1  0.24837900  0.76443700  0.34966800  1
  Ni  Ni3  1  0.02284100  0.37619100  0.63881300  1
  Ni  Ni4  1  0.67836800  0.78057700  0.64174900  1
  Ni  Ni5  1  0.74837900  0.23556300  0.15033200  1
  Ni  Ni6  1  0.17836800  0.21942300  0.85825100  1
  Ni  Ni7  1  0.12146400  0.38465700  0.56398000  1
  Ni  Ni8  1  0.52197100  0.99674800  0.12583100  1
  Ni  Ni9  1  0.75162100  0.23556300  0.65033200  1
  Ni  Ni10  1  0.73666800  0.85664100  0.33396200  1
  Ni  Ni11  1  0.58298900  0.15941800  0.87906200  1
  Ni  Ni12  1  0.20925700  0.99139000  0.09851800  1
  Ni  Ni13  1  0.08298900  0.84058200  0.62093800  1
  Ni  Ni14  1  0.35086000  0.70549900  0.42143700  1
  Ni  Ni15  1  0.85086000  0.29450100  0.07856300  1
  Ni  Ni16  1  0.82163200  0.78057700  0.14174900  1
  Ni  Ni17  1  0.32574600  0.95067100  0.04506800  1
  Ni  Ni18  1  0.49088900  0.13859700  0.19737700  1
  Ni  Ni19  1  0.23666800  0.14335900  0.16603800  1
  Ni  Ni20  1  0.50911100  0.86140300  0.80262300  1
  Ni  Ni21  1  0.26245100  0.58790000  0.78860400  1
  Ni  Ni22  1  0.87853600  0.61534300  0.43602000  1
  Ni  Ni23  1  0.28710400  0.37054500  0.85798900  1
  Ni  Ni24  1  0.17425400  0.95067100  0.54506800  1
  Ni  Ni25  1  0.41419000  0.25956500  0.43257600  1
  Ni  Ni26  1  0.76245100  0.41210000  0.71139600  1
  Ni  Ni27  1  0.14914000  0.70549900  0.92143700  1
  Ni  Ni28  1  0.62146400  0.61534300  0.93602000  1
  Ni  Ni29  1  0.00911100  0.13859700  0.69737700  1
  Ni  Ni30  1  0.67425400  0.04932900  0.95493200  1
  Ni  Ni31  1  0.91701100  0.15941800  0.37906200  1
  Ni  Ni32  1  0.47802900  0.00325200  0.87416900  1
  Ni  Ni33  1  0.47715900  0.37619100  0.13881300  1
  Ni  Ni34  1  0.49184600  0.58320700  0.31268400  1
  Ni  Ni35  1  0.21289600  0.37054500  0.35798900  1
  Cu  Cu36  1  0.74310047  0.61199107  0.89897163  1
  Ni  Ni37  1  0.58581000  0.74043500  0.56742400  1
  Ni  Ni38  1  0.76333200  0.85664100  0.83396200  1
  Ni  Ni39  1  0.02197100  0.00325200  0.37416900  1
  Ni  Ni40  1  0.75263700  0.62112100  0.39008500  1
  Ni  Ni41  1  0.00815400  0.58320700  0.81268400  1
  Ni  Ni42  1  0.78710400  0.62945500  0.64201100  1
  Ni  Ni43  1  0.52636000  0.36495200  0.37650300  1
  Ni  Ni44  1  0.97802900  0.99674800  0.62583100  1
  Ni  Ni45  1  0.50815400  0.41679300  0.68731600  1
  Ni  Ni46  1  0.02636000  0.63504800  0.12349700  1
  Ni  Ni47  1  0.37853600  0.38465700  0.06398000  1
  Ni  Ni48  1  0.08581000  0.25956500  0.93257600  1
  Ni  Ni49  1  0.71289600  0.62945500  0.14201100  1
  Ni  Ni50  1  0.99184600  0.41679300  0.18731600  1
  Ni  Ni51  1  0.73754900  0.41210000  0.21139600  1
  Ni  Ni52  1  0.29074300  0.99139000  0.59851800  1
  Ni  Ni53  1  0.91419000  0.74043500  0.06742400  1
  Ni  Ni54  1  0.52284100  0.62380900  0.86118700  1
  Ni  Ni55  1  0.26333200  0.14335900  0.66603800  1
  Ni  Ni56  1  0.02596500  0.75806400  0.87203300  1
  Ni  Ni57  1  0.47364000  0.63504800  0.62349700  1
  Ni  Ni58  1  0.25162100  0.76443700  0.84966800  1
  Ni  Ni59  1  0.32163200  0.21942300  0.35825100  1
  Ni  Ni60  1  0.79074300  0.00861000  0.90148200  1
  Ni  Ni61  1  0.41701100  0.84058200  0.12093800  1
  Ni  Ni62  1  0.99088900  0.86140300  0.30262300  1
  Ni  Ni63  1  0.97364000  0.36495200  0.87650300  1
  Ni  Ni64  1  0.25263700  0.37887900  0.10991500  1
  Ni  Ni65  1  0.47403500  0.75806400  0.37203300  1
  Ni  Ni66  1  0.82574600  0.04932900  0.45493200  1
  Ni  Ni67  1  0.64914000  0.29450100  0.57856300  1
  Ni  Ni68  1  0.70925700  0.00861000  0.40148200  1
  Ni  Ni69  1  0.23754900  0.58790000  0.28860400  1
  Ni  Ni70  1  0.97403500  0.24193600  0.12796700  1
  Ni  Ni71  1  0.24736300  0.37887900  0.60991500  1
