# generated using pymatgen
data_Cu15Ni7C6
_symmetry_space_group_name_H-M   'P 1'
_cell_length_a   11.59454600
_cell_length_b   6.10952600
_cell_length_c   8.15540065
_cell_angle_alpha   68.13558210
_cell_angle_beta   90.00000000
_cell_angle_gamma   90.00000000
_symmetry_Int_Tables_number   1
_chemical_formula_structural   Cu15Ni7C6
_chemical_formula_sum   'Cu15 Ni7 C6'
_cell_volume   536.14989970
_cell_formula_units_Z   1
loop_
 _symmetry_equiv_pos_site_id
 _symmetry_equiv_pos_as_xyz
  1  'x, y, z'
loop_
 _atom_site_type_symbol
 _atom_site_label
 _atom_site_symmetry_multiplicity
 _atom_site_fract_x
 _atom_site_fract_y
 _atom_site_fract_z
 _atom_site_occupancy
  C  C0  1  0.37544500  0.77129900  0.94511100  1
  C  C1  1  0.87544500  0.22870100  0.05488900  1
  C  C2  1  0.64444200  0.51294900  0.17007700  1
  C  C3  1  0.14444200  0.48705100  0.82992300  1
  C  C4  1  0.87585400  0.90329600  0.64713700  1
  C  C5  1  0.37585400  0.09670400  0.35286300  1
  Cu  Cu6  1  0.50593493  0.59881053  0.07995479  1
  Cu  Cu7  1  0.03008654  0.44268485  0.88417527  1
  Cu  Cu8  1  0.64683671  0.44045609  0.34291507  1
  Cu  Cu9  1  0.14639174  0.60802771  0.64552831  1
  Cu  Cu10  1  0.71213780  0.40030966  0.06680312  1
  Ni  Ni11  1  0.22199800  0.57673300  0.94207000  1
  Cu  Cu12  1  0.68370067  0.79573220  0.12845833  1
  Cu  Cu13  1  0.19952884  0.18001331  0.87066534  1
  Ni  Ni14  1  0.80513800  0.85220800  0.07438600  1
  Cu  Cu15  1  0.31959826  0.15286192  0.94150682  1
  Ni  Ni16  1  0.71903600  0.43610600  0.68709400  1
  Cu  Cu17  1  0.22194500  0.53283477  0.33292147  1
  Cu  Cu18  1  0.46270806  0.01569368  0.36676997  1
  Cu  Cu19  1  0.97235158  0.01833064  0.62610191  1
  Cu  Cu20  1  0.98690727  0.60700978  0.34024566  1
  Ni  Ni21  1  0.47170100  0.35543100  0.65724200  1
  Ni  Ni22  1  0.80054100  0.29678900  0.73591200  1
  Ni  Ni23  1  0.30054100  0.70321100  0.26408800  1
  Ni  Ni24  1  0.80780900  0.90934000  0.53283000  1
  Cu  Cu25  1  0.32843130  0.07660594  0.51262110  1
  Cu  Cu26  1  0.46319535  0.54181677  0.66949194  1
  Cu  Cu27  1  0.97721196  0.49817355  0.26860485  1
