# generated using pymatgen
data_Cu4Ni12C13
_symmetry_space_group_name_H-M   'P 1'
_cell_length_a   9.11490525
_cell_length_b   9.11490525
_cell_length_c   9.11490525
_cell_angle_alpha   109.47122063
_cell_angle_beta   109.47122063
_cell_angle_gamma   109.47122063
_symmetry_Int_Tables_number   1
_chemical_formula_structural   Cu4Ni12C13
_chemical_formula_sum   'Cu4 Ni12 C13'
_cell_volume   582.95440028
_cell_formula_units_Z   1
loop_
 _symmetry_equiv_pos_site_id
 _symmetry_equiv_pos_as_xyz
  1  'x, y, z'
loop_
 _atom_site_type_symbol
 _atom_site_label
 _atom_site_symmetry_multiplicity
 _atom_site_fract_x
 _atom_site_fract_y
 _atom_site_fract_z
 _atom_site_occupancy
  Cu  Cu0  1  0.33268932  0.00237054  0.61044232  1
  Ni  Ni1  1  0.60255700  0.00000000  0.31630400  1
  Cu  Cu2  1  0.39939385  0.40300043  0.72123415  1
  Ni  Ni3  1  0.71374700  0.39744300  0.39744300  1
  Ni  Ni4  1  0.00000000  0.60255700  0.31630400  1
  Ni  Ni5  1  0.31630400  0.60255700  0.00000000  1
  Ni  Ni6  1  0.65546900  0.65546900  0.65546900  1
  Ni  Ni7  1  0.00000000  0.34453100  0.00000000  1
  Ni  Ni8  1  0.00000000  0.00000000  0.34453100  1
  Cu  Cu9  1  0.37404965  0.00585436  0.01253042  1
  Ni  Ni10  1  0.00000000  0.31630400  0.60255700  1
  Ni  Ni11  1  0.68369600  0.68369600  0.28625300  1
  Cu  Cu12  1  0.58826425  0.29675010  0.00067181  1
  Ni  Ni13  1  0.28625300  0.68369600  0.68369600  1
  Ni  Ni14  1  0.39744300  0.71374700  0.39744300  1
  Ni  Ni15  1  0.68369600  0.28625300  0.68369600  1
  C  C16  1  0.00000000  0.00000000  0.00000000  1
  C  C17  1  0.18478200  0.18478200  0.81759900  1
  C  C18  1  0.00000000  0.81521800  0.63281800  1
  C  C19  1  0.81759900  0.18478200  0.18478200  1
  C  C20  1  0.63281800  0.81521800  0.00000000  1
  C  C21  1  0.36718200  0.18240100  0.36718200  1
  C  C22  1  0.18478200  0.81759900  0.18478200  1
  C  C23  1  0.81521800  0.00000000  0.63281800  1
  C  C24  1  0.63281800  0.00000000  0.81521800  1
  C  C25  1  0.18240100  0.36718200  0.36718200  1
  C  C26  1  0.36718200  0.36718200  0.18240100  1
  C  C27  1  0.81521800  0.63281800  0.00000000  1
  C  C28  1  0.00000000  0.63281800  0.81521800  1
