# generated using pymatgen
data_Cu5NiC8
_symmetry_space_group_name_H-M   'P 1'
_cell_length_a   5.38874000
_cell_length_b   10.46881100
_cell_length_c   22.28793400
_cell_angle_alpha   90.00000000
_cell_angle_beta   90.00000000
_cell_angle_gamma   90.00000000
_symmetry_Int_Tables_number   1
_chemical_formula_structural   Cu5NiC8
_chemical_formula_sum   'Cu20 Ni4 C32'
_cell_volume   1257.34483540
_cell_formula_units_Z   4
loop_
 _symmetry_equiv_pos_site_id
 _symmetry_equiv_pos_as_xyz
  1  'x, y, z'
loop_
 _atom_site_type_symbol
 _atom_site_label
 _atom_site_symmetry_multiplicity
 _atom_site_fract_x
 _atom_site_fract_y
 _atom_site_fract_z
 _atom_site_occupancy
  Ni  Ni0  1  0.70471800  0.25000000  0.54770700  1
  Ni  Ni1  1  0.20471800  0.25000000  0.95229300  1
  Ni  Ni2  1  0.29528200  0.75000000  0.45229300  1
  Ni  Ni3  1  0.79528200  0.75000000  0.04770700  1
  Cu  Cu4  1  0.79328100  0.09150200  0.31759800  1
  Cu  Cu5  1  0.29328100  0.40849800  0.18240200  1
  Cu  Cu6  1  0.20671900  0.59150200  0.68240200  1
  Cu  Cu7  1  0.70671900  0.90849800  0.81759800  1
  Cu  Cu8  1  0.20671900  0.90849800  0.68240200  1
  Cu  Cu9  1  0.70671900  0.59150200  0.81759800  1
  Cu  Cu10  1  0.79328100  0.40849800  0.31759800  1
  Cu  Cu11  1  0.29328100  0.09150200  0.18240200  1
  Cu  Cu12  1  0.01130100  0.25000000  0.32340400  1
  Cu  Cu13  1  0.51130100  0.25000000  0.17659600  1
  Cu  Cu14  1  0.98869900  0.75000000  0.67659600  1
  Cu  Cu15  1  0.48869900  0.75000000  0.82340400  1
  Cu  Cu16  1  0.81235600  0.01067000  0.40795300  1
  Cu  Cu17  1  0.31235600  0.48933000  0.09204700  1
  Cu  Cu18  1  0.18764400  0.51067000  0.59204700  1
  Cu  Cu19  1  0.68764400  0.98933000  0.90795300  1
  Cu  Cu20  1  0.18764400  0.98933000  0.59204700  1
  Cu  Cu21  1  0.68764400  0.51067000  0.90795300  1
  Cu  Cu22  1  0.81235600  0.48933000  0.40795300  1
  Cu  Cu23  1  0.31235600  0.01067000  0.09204700  1
  C  C24  1  0.07509100  0.99469800  0.42195700  1
  C  C25  1  0.57509100  0.50530200  0.07804300  1
  C  C26  1  0.92490900  0.49469800  0.57804300  1
  C  C27  1  0.42490900  0.00530200  0.92195700  1
  C  C28  1  0.92490900  0.00530200  0.57804300  1
  C  C29  1  0.42490900  0.49469800  0.92195700  1
  C  C30  1  0.07509100  0.50530200  0.42195700  1
  C  C31  1  0.57509100  0.99469800  0.07804300  1
  C  C32  1  0.68151700  0.88951800  0.39588300  1
  C  C33  1  0.18151700  0.61048200  0.10411700  1
  C  C34  1  0.31848300  0.38951800  0.60411700  1
  C  C35  1  0.81848300  0.11048200  0.89588300  1
  C  C36  1  0.31848300  0.11048200  0.60411700  1
  C  C37  1  0.81848300  0.38951800  0.89588300  1
  C  C38  1  0.68151700  0.61048200  0.39588300  1
  C  C39  1  0.18151700  0.88951800  0.10411700  1
  C  C40  1  0.67733200  0.09801700  0.44722900  1
  C  C41  1  0.17733200  0.40198300  0.05277100  1
  C  C42  1  0.32266800  0.59801700  0.55277100  1
  C  C43  1  0.82266800  0.90198300  0.94722900  1
  C  C44  1  0.32266800  0.90198300  0.55277100  1
  C  C45  1  0.82266800  0.59801700  0.94722900  1
  C  C46  1  0.67733200  0.40198300  0.44722900  1
  C  C47  1  0.17733200  0.09801700  0.05277100  1
  C  C48  1  0.20956500  0.25000000  0.50757900  1
  C  C49  1  0.70956500  0.25000000  0.99242100  1
  C  C50  1  0.79043500  0.75000000  0.49242100  1
  C  C51  1  0.29043500  0.75000000  0.00757900  1
  C  C52  1  0.86567700  0.25000000  0.67432300  1
  C  C53  1  0.36567700  0.25000000  0.82567700  1
  C  C54  1  0.13432300  0.75000000  0.32567700  1
  C  C55  1  0.63432300  0.75000000  0.17432300  1
