# generated using pymatgen
data_Cu9NiC10
_symmetry_space_group_name_H-M   'P 1'
_cell_length_a   7.72308812
_cell_length_b   7.72308812
_cell_length_c   5.11198679
_cell_angle_alpha   83.89138023
_cell_angle_beta   83.89138023
_cell_angle_gamma   142.01466501
_symmetry_Int_Tables_number   1
_chemical_formula_structural   Cu9NiC10
_chemical_formula_sum   'Cu9 Ni1 C10'
_cell_volume   177.34463411
_cell_formula_units_Z   1
loop_
 _symmetry_equiv_pos_site_id
 _symmetry_equiv_pos_as_xyz
  1  'x, y, z'
loop_
 _atom_site_type_symbol
 _atom_site_label
 _atom_site_symmetry_multiplicity
 _atom_site_fract_x
 _atom_site_fract_y
 _atom_site_fract_z
 _atom_site_occupancy
  C  C0  1  0.89690000  0.10310000  0.50000000  1
  C  C1  1  0.29723500  0.70276500  0.50000000  1
  C  C2  1  0.70240000  0.29760000  0.50000000  1
  C  C3  1  0.10566300  0.89433700  0.50000000  1
  C  C4  1  0.49864000  0.50136000  0.50000000  1
  C  C5  1  0.20127400  0.79872600  0.00000000  1
  C  C6  1  0.00204800  0.99795200  0.00000000  1
  C  C7  1  0.60222000  0.39778000  0.00000000  1
  C  C8  1  0.39245000  0.60755000  0.00000000  1
  C  C9  1  0.79676000  0.20324000  0.00000000  1
  Cu  Cu10  1  0.65252924  0.84838464  0.20527381  1
  Cu  Cu11  1  0.09489755  0.43454482  0.23102993  1
  Cu  Cu12  1  0.45304293  0.05855170  0.25929570  1
  Cu  Cu13  1  0.92035590  0.69915141  0.19624574  1
  Cu  Cu14  1  0.27048247  0.25116727  0.21940657  1
  Cu  Cu15  1  0.13406200  0.32221586  0.76703921  1
  Cu  Cu16  1  0.53094131  0.91607009  0.78734341  1
  Ni  Ni17  1  0.91813300  0.52872900  0.76625700  1
  Cu  Cu18  1  0.41174599  0.23733523  0.80437714  1
  Cu  Cu19  1  0.76921745  0.74139192  0.76192280  1
