# generated using pymatgen
data_Cu2Ni4C13
_symmetry_space_group_name_H-M   'P 1'
_cell_length_a   5.99701543
_cell_length_b   6.01942953
_cell_length_c   24.21587309
_cell_angle_alpha   59.00684608
_cell_angle_beta   60.04177538
_cell_angle_gamma   60.33734491
_symmetry_Int_Tables_number   1
_chemical_formula_structural   Cu2Ni4C13
_chemical_formula_sum   'Cu4 Ni8 C26'
_cell_volume   615.06901822
_cell_formula_units_Z   2
loop_
 _symmetry_equiv_pos_site_id
 _symmetry_equiv_pos_as_xyz
  1  'x, y, z'
loop_
 _atom_site_type_symbol
 _atom_site_label
 _atom_site_symmetry_multiplicity
 _atom_site_fract_x
 _atom_site_fract_y
 _atom_site_fract_z
 _atom_site_occupancy
  Ni  Ni0  1  0.15910000  0.33211800  0.06974100  1
  Ni  Ni1  1  0.46145000  0.57429100  0.11675700  1
  Ni  Ni2  1  0.22718100  0.26288400  0.29670700  1
  Cu  Cu3  1  0.41841287  0.50502498  0.37081896  1
  Cu  Cu4  1  0.66881287  0.78374268  0.19919253  1
  Ni  Ni5  1  0.21336300  0.22116800  0.57481900  1
  Cu  Cu6  1  0.51376570  0.50140022  0.61510144  1
  Ni  Ni7  1  0.22753100  0.27621300  0.79933300  1
  Ni  Ni8  1  0.65315500  0.77785300  0.42471200  1
  Ni  Ni9  1  0.44306300  0.49998300  0.88333100  1
  Ni  Ni10  1  0.64579200  0.75778100  0.70369800  1
  Cu  Cu11  1  0.67336711  0.75734897  0.92516368  1
  C  C12  1  0.98644700  0.05478500  0.99693500  1
  C  C13  1  0.93472900  0.03272000  0.24822600  1
  C  C14  1  0.92879400  0.00280100  0.50025600  1
  C  C15  1  0.94767700  0.03548000  0.74869600  1
  C  C16  1  0.21118900  0.24633000  0.18459900  1
  C  C17  1  0.22550700  0.72776700  0.21289900  1
  C  C18  1  0.76965200  0.37595600  0.02758900  1
  C  C19  1  0.80222200  0.80891400  0.07873000  1
  C  C20  1  0.78910300  0.18945400  0.17147600  1
  C  C21  1  0.66235400  0.33980600  0.28302800  1
  C  C22  1  0.19408500  0.15304400  0.41406200  1
  C  C23  1  0.06517100  0.87574200  0.32877800  1
  C  C24  1  0.66177000  0.82379400  0.30773300  1
  C  C25  1  0.63302400  0.30415200  0.45970700  1
  C  C26  1  0.67605900  0.09886300  0.58162000  1
  C  C27  1  0.21075900  0.78905900  0.69279700  1
  C  C28  1  0.22625600  0.84653900  0.53819500  1
  C  C29  1  0.31235500  0.06614800  0.99594000  1
  C  C30  1  0.91170900  0.68324800  0.50420700  1
  C  C31  1  0.81242500  0.32784100  0.66967200  1
  C  C32  1  0.22987300  0.22103500  0.70693800  1
  C  C33  1  0.64303000  0.28460000  0.80317900  1
  C  C34  1  0.23945000  0.73876200  0.96324700  1
  C  C35  1  0.10709000  0.80989500  0.82537700  1
  C  C36  1  0.67960600  0.82963900  0.79556800  1
  C  C37  1  0.87494400  0.27099200  0.91730400  1
