# generated using pymatgen
data_CuC7
_symmetry_space_group_name_H-M   'P 1'
_cell_length_a   5.26361300
_cell_length_b   6.54449500
_cell_length_c   10.84032700
_cell_angle_alpha   90.00000000
_cell_angle_beta   90.00000000
_cell_angle_gamma   90.00000000
_symmetry_Int_Tables_number   1
_chemical_formula_structural   CuC7
_chemical_formula_sum   'Cu2 C14'
_cell_volume   373.42421273
_cell_formula_units_Z   2
loop_
 _symmetry_equiv_pos_site_id
 _symmetry_equiv_pos_as_xyz
  1  'x, y, z'
loop_
 _atom_site_type_symbol
 _atom_site_label
 _atom_site_symmetry_multiplicity
 _atom_site_fract_x
 _atom_site_fract_y
 _atom_site_fract_z
 _atom_site_occupancy
  C  C0  1  0.00000000  0.24915000  0.58387600  1
  C  C1  1  0.00000000  0.75085000  0.58387600  1
  C  C2  1  0.50000000  0.25994500  0.41669300  1
  C  C3  1  0.50000000  0.74005500  0.41669300  1
  C  C4  1  0.50000000  0.00000000  0.66929100  1
  C  C5  1  0.50000000  0.00000000  0.16412100  1
  C  C6  1  0.00000000  0.74915000  0.08387600  1
  C  C7  1  0.00000000  0.25085000  0.08387600  1
  C  C8  1  0.50000000  0.75994500  0.91669300  1
  C  C9  1  0.50000000  0.24005500  0.91669300  1
  C  C10  1  0.50000000  0.50000000  0.16929100  1
  C  C11  1  0.50000000  0.50000000  0.66412100  1
  Cu  Cu12  1  0.98505505  0.99970219  0.83538026  1
  Cu  Cu13  1  0.03535460  0.51260061  0.32961160  1
  C  C14  1  0.00000000  0.00000000  0.33297300  1
  C  C15  1  0.00000000  0.50000000  0.83297300  1
