# generated using pymatgen
data_Cu2NiC6
_symmetry_space_group_name_H-M   'P 1'
_cell_length_a   6.52385140
_cell_length_b   6.52385140
_cell_length_c   6.52385140
_cell_angle_alpha   148.36023692
_cell_angle_beta   122.17288125
_cell_angle_gamma   67.42833030
_symmetry_Int_Tables_number   1
_chemical_formula_structural   Cu2NiC6
_chemical_formula_sum   'Cu2 Ni1 C6'
_cell_volume   121.76861397
_cell_formula_units_Z   1
loop_
 _symmetry_equiv_pos_site_id
 _symmetry_equiv_pos_as_xyz
  1  'x, y, z'
loop_
 _atom_site_type_symbol
 _atom_site_label
 _atom_site_symmetry_multiplicity
 _atom_site_fract_x
 _atom_site_fract_y
 _atom_site_fract_z
 _atom_site_occupancy
  Cu  Cu0  1  0.73167721  0.19743710  0.46435989  1
  Ni  Ni1  1  0.29817200  0.79817200  0.50000000  1
  Cu  Cu2  1  0.02350584  0.96555250  0.97024465  1
  C  C3  1  0.35696300  0.50000000  0.85696300  1
  C  C4  1  0.64303700  0.50000000  0.14303700  1
  C  C5  1  0.36274300  0.61895600  0.74378700  1
  C  C6  1  0.87516900  0.61895600  0.25621300  1
  C  C7  1  0.12483100  0.38104400  0.74378700  1
  C  C8  1  0.63725700  0.38104400  0.25621300  1
