# generated using pymatgen
data_Cu9(NiC4)4
_symmetry_space_group_name_H-M   'P 1'
_cell_length_a   9.11490525
_cell_length_b   9.11490525
_cell_length_c   9.11490525
_cell_angle_alpha   109.47122063
_cell_angle_beta   109.47122063
_cell_angle_gamma   109.47122063
_symmetry_Int_Tables_number   1
_chemical_formula_structural   Cu9(NiC4)4
_chemical_formula_sum   'Cu9 Ni4 C16'
_cell_volume   582.95440028
_cell_formula_units_Z   1
loop_
 _symmetry_equiv_pos_site_id
 _symmetry_equiv_pos_as_xyz
  1  'x, y, z'
loop_
 _atom_site_type_symbol
 _atom_site_label
 _atom_site_symmetry_multiplicity
 _atom_site_fract_x
 _atom_site_fract_y
 _atom_site_fract_z
 _atom_site_occupancy
  C  C0  1  0.31630400  0.00000000  0.60255700  1
  C  C1  1  0.60255700  0.00000000  0.31630400  1
  C  C2  1  0.39744300  0.39744300  0.71374700  1
  C  C3  1  0.71374700  0.39744300  0.39744300  1
  C  C4  1  0.00000000  0.60255700  0.31630400  1
  C  C5  1  0.31630400  0.60255700  0.00000000  1
  C  C6  1  0.65546900  0.65546900  0.65546900  1
  C  C7  1  0.00000000  0.34453100  0.00000000  1
  C  C8  1  0.00000000  0.00000000  0.34453100  1
  C  C9  1  0.34453100  0.00000000  0.00000000  1
  C  C10  1  0.00000000  0.31630400  0.60255700  1
  C  C11  1  0.68369600  0.68369600  0.28625300  1
  C  C12  1  0.60255700  0.31630400  0.00000000  1
  C  C13  1  0.28625300  0.68369600  0.68369600  1
  C  C14  1  0.39744300  0.71374700  0.39744300  1
  C  C15  1  0.68369600  0.28625300  0.68369600  1
  Ni  Ni16  1  0.00000000  0.00000000  0.00000000  1
  Cu  Cu17  1  0.20752647  0.20048693  0.82503056  1
  Cu  Cu18  1  0.01978085  0.83027538  0.65639820  1
  Cu  Cu19  1  0.81646195  0.17867467  0.19727653  1
  Cu  Cu20  1  0.65783872  0.84589421  0.00833072  1
  Cu  Cu21  1  0.36204847  0.16856545  0.34975492  1
  Ni  Ni22  1  0.18478200  0.81759900  0.18478200  1
  Cu  Cu23  1  0.82551245  0.02234056  0.64714747  1
  Ni  Ni24  1  0.63281800  0.00000000  0.81521800  1
  Ni  Ni25  1  0.18240100  0.36718200  0.36718200  1
  Cu  Cu26  1  0.35295073  0.35373854  0.16309267  1
  Cu  Cu27  1  0.79551537  0.61046560  0.97280617  1
  Cu  Cu28  1  0.99994879  0.64141199  0.83057815  1
