# generated using pymatgen
data_CuC
_symmetry_space_group_name_H-M   'P 1'
_cell_length_a   10.18192900
_cell_length_b   10.18192900
_cell_length_c   10.18192900
_cell_angle_alpha   90.00000000
_cell_angle_beta   90.00000000
_cell_angle_gamma   90.00000000
_symmetry_Int_Tables_number   1
_chemical_formula_structural   CuC
_chemical_formula_sum   'Cu28 C28'
_cell_volume   1055.57766635
_cell_formula_units_Z   28
loop_
 _symmetry_equiv_pos_site_id
 _symmetry_equiv_pos_as_xyz
  1  'x, y, z'
loop_
 _atom_site_type_symbol
 _atom_site_label
 _atom_site_symmetry_multiplicity
 _atom_site_fract_x
 _atom_site_fract_y
 _atom_site_fract_z
 _atom_site_occupancy
  Cu  Cu0  1  0.03224425  0.82562537  0.67857841  1
  Cu  Cu1  1  0.00594557  0.28586929  0.19132094  1
  Cu  Cu2  1  0.11173207  0.61932305  0.87266736  1
  Cu  Cu3  1  0.19300746  0.16436844  0.49393982  1
  Cu  Cu4  1  0.16707769  0.47462336  0.15399898  1
  Cu  Cu5  1  0.16640142  0.03712497  0.27112235  1
  Cu  Cu6  1  0.19761550  0.81013840  0.50630953  1
  Cu  Cu7  1  0.26905691  0.19047030  0.99564518  1
  Cu  Cu8  1  0.32337681  0.97297603  0.75602922  1
  Cu  Cu9  1  0.30890218  0.52896707  0.64919092  1
  Cu  Cu10  1  0.34328107  0.80926732  0.97281989  1
  Cu  Cu11  1  0.37514625  0.37677235  0.37470658  1
  Cu  Cu12  1  0.48799866  0.71116616  0.68413102  1
  Cu  Cu13  1  0.46472372  0.14722012  0.16001503  1
  Cu  Cu14  1  0.51208659  0.64588983  0.31602913  1
  Cu  Cu15  1  0.50107878  0.21487210  0.79975278  1
  Cu  Cu16  1  0.62851669  0.88993214  0.12178066  1
  Cu  Cu17  1  0.66125895  0.32454030  0.53658028  1
  Cu  Cu18  1  0.68276659  0.02653289  0.84242404  1
  Cu  Cu19  1  0.69963860  0.47663734  0.72535254  1
  Cu  Cu20  1  0.72390375  0.69399572  0.49091575  1
  Cu  Cu21  1  0.78568118  0.28524783  0.99728268  1
  Cu  Cu22  1  0.80524640  0.52028490  0.24340328  1
  Cu  Cu23  1  0.83229587  0.00596290  0.32868514  1
  Cu  Cu24  1  0.85080785  0.67685538  0.02739462  1
  Cu  Cu25  1  0.90693476  0.12093415  0.60275661  1
  Cu  Cu26  1  0.00233919  0.76454000  0.31655851  1
  Cu  Cu27  1  0.98014708  0.31651449  0.83749279  1
  C  C28  1  0.00861300  0.49138700  0.50861300  1
  C  C29  1  0.49138700  0.50861300  0.00861300  1
  C  C30  1  0.50861300  0.00861300  0.49138700  1
  C  C31  1  0.99138700  0.99138700  0.99138700  1
  C  C32  1  0.02634900  0.97365100  0.47365100  1
  C  C33  1  0.11146500  0.12228900  0.85395800  1
  C  C34  1  0.12228900  0.85395800  0.11146500  1
  C  C35  1  0.13760500  0.36239500  0.63760500  1
  C  C36  1  0.14604200  0.61146500  0.37771100  1
  C  C37  1  0.25548600  0.75548600  0.74451400  1
  C  C38  1  0.24451400  0.24451400  0.24451400  1
  C  C39  1  0.35395800  0.38853500  0.87771100  1
  C  C40  1  0.36239500  0.63760500  0.13760500  1
  C  C41  1  0.37771100  0.14604200  0.61146500  1
  C  C42  1  0.38853500  0.87771100  0.35395800  1
  C  C43  1  0.47365100  0.02634900  0.97365100  1
  C  C44  1  0.52634900  0.52634900  0.52634900  1
  C  C45  1  0.61146500  0.37771100  0.14604200  1
  C  C46  1  0.62228900  0.64604200  0.88853500  1
  C  C47  1  0.63760500  0.13760500  0.36239500  1
  C  C48  1  0.64604200  0.88853500  0.62228900  1
  C  C49  1  0.75548600  0.74451400  0.25548600  1
  C  C50  1  0.74451400  0.25548600  0.75548600  1
  C  C51  1  0.85395800  0.11146500  0.12228900  1
  C  C52  1  0.86239500  0.86239500  0.86239500  1
  C  C53  1  0.87771100  0.35395800  0.38853500  1
  C  C54  1  0.88853500  0.62228900  0.64604200  1
  C  C55  1  0.97365100  0.47365100  0.02634900  1
