# generated using pymatgen
data_CuC12
_symmetry_space_group_name_H-M   'P 1'
_cell_length_a   6.84940500
_cell_length_b   8.84796713
_cell_length_c   10.23115906
_cell_angle_alpha   90.73285094
_cell_angle_beta   90.14373858
_cell_angle_gamma   90.33708862
_symmetry_Int_Tables_number   1
_chemical_formula_structural   CuC12
_chemical_formula_sum   'Cu4 C48'
_cell_volume   619.97858809
_cell_formula_units_Z   4
loop_
 _symmetry_equiv_pos_site_id
 _symmetry_equiv_pos_as_xyz
  1  'x, y, z'
loop_
 _atom_site_type_symbol
 _atom_site_label
 _atom_site_symmetry_multiplicity
 _atom_site_fract_x
 _atom_site_fract_y
 _atom_site_fract_z
 _atom_site_occupancy
  C  C0  1  0.24650100  0.91705800  0.87903900  1
  C  C1  1  0.99968600  0.74313000  0.62291400  1
  C  C2  1  0.50003300  0.74260500  0.62261000  1
  C  C3  1  0.99974400  0.74287700  0.12628100  1
  C  C4  1  0.50040900  0.74284700  0.12576900  1
  C  C5  1  0.50168200  0.25572400  0.87481400  1
  C  C6  1  0.49972200  0.25705300  0.37671400  1
  C  C7  1  0.00083400  0.25621500  0.37608100  1
  C  C8  1  0.24981800  0.91558000  0.37704700  1
  C  C9  1  0.98037100  0.27081700  0.88311400  1
  C  C10  1  0.75648500  0.08866200  0.62507000  1
  C  C11  1  0.75343900  0.09038400  0.12442100  1
  C  C12  1  0.74878900  0.63823300  0.88652100  1
  C  C13  1  0.75049100  0.63896100  0.38809000  1
  C  C14  1  0.24806700  0.35678600  0.61336400  1
  C  C15  1  0.24691900  0.35745200  0.10994400  1
  Cu  Cu16  1  0.26856369  0.60667637  0.85825334  1
  Cu  Cu17  1  0.25162540  0.59926955  0.34931255  1
  Cu  Cu18  1  0.73975501  0.41992474  0.65955203  1
  Cu  Cu19  1  0.75938072  0.40301454  0.15440775  1
  C  C20  1  0.75835700  0.95370800  0.86814700  1
  C  C21  1  0.75022100  0.94788100  0.36605100  1
  C  C22  1  0.24918900  0.05244600  0.62876000  1
  C  C23  1  0.24935800  0.05810400  0.13813900  1
  C  C24  1  0.25124500  0.90946700  0.64922000  1
  C  C25  1  0.25121800  0.91402500  0.15586800  1
  C  C26  1  0.75071200  0.90956300  0.98919100  1
  C  C27  1  0.75121100  0.90598800  0.48806500  1
  C  C28  1  0.74834500  0.85320700  0.77321300  1
  C  C29  1  0.75103500  0.84594000  0.27250700  1
  C  C30  1  0.06550000  0.68257000  0.89325200  1
  C  C31  1  0.43116200  0.67333200  0.89648900  1
  C  C32  1  0.06953200  0.69173100  0.39175100  1
  C  C33  1  0.43250800  0.69213100  0.39149500  1
  C  C34  1  0.24802900  0.57048800  0.69962200  1
  C  C35  1  0.74966300  0.56245500  0.58772500  1
  C  C36  1  0.24912400  0.57010100  0.20079100  1
  C  C37  1  0.74984000  0.56435600  0.08396100  1
  C  C38  1  0.23251900  0.42316700  0.90830900  1
  C  C39  1  0.76605700  0.42233700  0.80081500  1
  C  C40  1  0.25086600  0.43736800  0.41654200  1
  C  C41  1  0.75422600  0.42755400  0.29684200  1
  C  C42  1  0.56903600  0.30709800  0.61225900  1
  C  C43  1  0.93074500  0.30655800  0.60236200  1
  C  C44  1  0.56600600  0.30931700  0.10677700  1
  C  C45  1  0.92714400  0.30765400  0.10045100  1
  C  C46  1  0.24709300  0.14749900  0.72784500  1
  C  C47  1  0.24689300  0.14945200  0.23883600  1
  C  C48  1  0.24928800  0.10338300  0.50959700  1
  C  C49  1  0.24964400  0.11537800  0.02123900  1
  C  C50  1  0.77484100  0.09524900  0.83935600  1
  C  C51  1  0.74864600  0.08865300  0.33498500  1
