# generated using pymatgen
data_Cu5NiC28
_symmetry_space_group_name_H-M   'P 1'
_cell_length_a   10.42292171
_cell_length_b   10.42292171
_cell_length_c   8.28653121
_cell_angle_alpha   66.60891563
_cell_angle_beta   66.60891563
_cell_angle_gamma   74.91326505
_symmetry_Int_Tables_number   1
_chemical_formula_structural   Cu5NiC28
_chemical_formula_sum   'Cu10 Ni2 C56'
_cell_volume   752.68565196
_cell_formula_units_Z   2
loop_
 _symmetry_equiv_pos_site_id
 _symmetry_equiv_pos_as_xyz
  1  'x, y, z'
loop_
 _atom_site_type_symbol
 _atom_site_label
 _atom_site_symmetry_multiplicity
 _atom_site_fract_x
 _atom_site_fract_y
 _atom_site_fract_z
 _atom_site_occupancy
  C  C0  1  0.98114600  0.48753500  0.29699600  1
  C  C1  1  0.73594700  0.73594700  0.29736200  1
  C  C2  1  0.52602100  0.52602100  0.97223400  1
  C  C3  1  0.48753500  0.98114600  0.29699600  1
  C  C4  1  0.02453000  0.02453000  0.98371800  1
  C  C5  1  0.61513800  0.11113700  0.72678500  1
  C  C6  1  0.11113700  0.61513800  0.72678500  1
  C  C7  1  0.36641600  0.36641600  0.70878100  1
  Cu  Cu8  1  0.80335458  0.56331908  0.00802527  1
  Cu  Cu9  1  0.50429617  0.25329147  0.35080595  1
  Cu  Cu10  1  0.25351253  0.51350566  0.34506035  1
  Cu  Cu11  1  0.75154989  0.00070482  0.37242087  1
  Cu  Cu12  1  0.95785510  0.16847078  0.62551968  1
  Cu  Cu13  1  0.69298701  0.40970305  0.63409274  1
  Cu  Cu14  1  0.43389956  0.68841281  0.61260133  1
  Ni  Ni15  1  0.56369400  0.81382900  0.00521000  1
  Ni  Ni16  1  0.31450600  0.06292400  0.01444800  1
  Cu  Cu17  1  0.08707720  0.31912282  0.99902286  1
  Cu  Cu18  1  0.02862966  0.76997801  0.35897716  1
  Cu  Cu19  1  0.18267387  0.92786986  0.63975783  1
  C  C20  1  0.99990400  0.74607200  0.01578100  1
  C  C21  1  0.70728300  0.70728300  0.65820300  1
  C  C22  1  0.74607200  0.99990400  0.01578100  1
  C  C23  1  0.95822500  0.46591900  0.66178100  1
  C  C24  1  0.46591900  0.95822500  0.66178100  1
  C  C25  1  0.54335800  0.54335800  0.32424300  1
  C  C26  1  0.20824500  0.20824500  0.66631900  1
  C  C27  1  0.79699700  0.28179200  0.34547800  1
  C  C28  1  0.04001600  0.04001600  0.33706700  1
  C  C29  1  0.50149400  0.24971800  0.98846800  1
  C  C30  1  0.24971800  0.50149400  0.98846800  1
  C  C31  1  0.28179200  0.79699700  0.34547800  1
  C  C32  1  0.94298100  0.70072100  0.21118400  1
  C  C33  1  0.65233600  0.65233600  0.57680700  1
  C  C34  1  0.90636700  0.40619900  0.58275800  1
  C  C35  1  0.58636500  0.35610300  0.90617000  1
  C  C36  1  0.35610300  0.58636500  0.90617000  1
  C  C37  1  0.85103100  0.08597100  0.92138200  1
  C  C38  1  0.46273200  0.18194900  0.17818500  1
  C  C39  1  0.18194900  0.46273200  0.17818500  1
  C  C40  1  0.70072100  0.94298100  0.21118400  1
  C  C41  1  0.66886100  0.66886100  0.84848700  1
  C  C42  1  0.93071600  0.43069900  0.84889500  1
  C  C43  1  0.96747800  0.68433500  0.91948200  1
  C  C44  1  0.97506200  0.97506200  0.26495300  1
  C  C45  1  0.48737500  0.48737500  0.24175800  1
  C  C46  1  0.40619900  0.90636700  0.58275800  1
  C  C47  1  0.14543800  0.14543800  0.60281900  1
  C  C48  1  0.75188800  0.21083200  0.26911700  1
  C  C49  1  0.21083200  0.75188800  0.26911700  1
  C  C50  1  0.80482200  0.80482200  0.53977000  1
  C  C51  1  0.57088200  0.04995600  0.54362500  1
  C  C52  1  0.04995600  0.57088200  0.54362500  1
  C  C53  1  0.64076400  0.64076400  0.20986200  1
  C  C54  1  0.30421100  0.30421100  0.54592000  1
  C  C55  1  0.88171200  0.38706300  0.22659500  1
  C  C56  1  0.08597100  0.85103100  0.92138200  1
  C  C57  1  0.50323400  0.50323400  0.51595600  1
  C  C58  1  0.43069900  0.93071600  0.84889500  1
  C  C59  1  0.17106000  0.17106000  0.85822000  1
  C  C60  1  0.75506100  0.24584600  0.53822600  1
  C  C61  1  0.45599600  0.21151200  0.87787400  1
  C  C62  1  0.21151200  0.45599600  0.87787400  1
  C  C63  1  0.68433500  0.96747800  0.91948200  1
  C  C64  1  0.13227500  0.13227500  0.20792400  1
  C  C65  1  0.38706300  0.88171200  0.22659500  1
  C  C66  1  0.00366300  0.00366300  0.52424000  1
  C  C67  1  0.24584600  0.75506100  0.53822600  1
