# generated using pymatgen
data_Cu23(NiC5)2
_symmetry_space_group_name_H-M   'P 1'
_cell_length_a   12.13643592
_cell_length_b   13.03396156
_cell_length_c   12.19790796
_cell_angle_alpha   94.44518266
_cell_angle_beta   86.77790521
_cell_angle_gamma   88.85756098
_symmetry_Int_Tables_number   1
_chemical_formula_structural   Cu23(NiC5)2
_chemical_formula_sum   'Cu69 Ni6 C30'
_cell_volume   1920.11891963
_cell_formula_units_Z   3
loop_
 _symmetry_equiv_pos_site_id
 _symmetry_equiv_pos_as_xyz
  1  'x, y, z'
loop_
 _atom_site_type_symbol
 _atom_site_label
 _atom_site_symmetry_multiplicity
 _atom_site_fract_x
 _atom_site_fract_y
 _atom_site_fract_z
 _atom_site_occupancy
  C  C0  1  0.09475271  0.79222842  0.14898318  1
  C  C1  1  0.97951712  0.87238352  0.65389961  1
  C  C2  1  0.02080730  0.10705329  0.14390907  1
  C  C3  1  0.82945571  0.15644900  0.34546906  1
  C  C4  1  0.93819533  0.92578790  0.96823364  1
  C  C5  1  0.14062289  0.81844003  0.82315781  1
  C  C6  1  0.00796091  0.58817797  0.88082469  1
  C  C7  1  0.46298092  0.60958070  0.26212661  1
  C  C8  1  0.69013044  0.49660890  0.61479890  1
  C  C9  1  0.06775025  0.52317667  0.16010717  1
  C  C10  1  0.56514544  0.14163190  0.41517290  1
  C  C11  1  0.39981981  0.95307464  0.47938391  1
  C  C12  1  0.32998099  0.83247774  0.94582951  1
  C  C13  1  0.56723915  0.21710352  0.79582035  1
  C  C14  1  0.86822155  0.66255918  0.50571762  1
  C  C15  1  0.13351128  0.18503194  0.51332178  1
  C  C16  1  0.12474256  0.93312229  0.40750879  1
  C  C17  1  0.28931406  0.07405272  0.07507865  1
  C  C18  1  0.41039069  0.53107291  0.51810004  1
  C  C19  1  0.73118562  0.35104061  0.83498809  1
  C  C20  1  0.26107121  0.47680659  0.77501648  1
  C  C21  1  0.48430145  0.96934969  0.74689180  1
  C  C22  1  0.50526786  0.31157141  0.55743924  1
  C  C23  1  0.81345434  0.39653040  0.23097718  1
  C  C24  1  0.71429561  0.61429580  0.87236093  1
  C  C25  1  0.21475554  0.40721640  0.37387154  1
  C  C26  1  0.72665289  0.64255947  0.28713565  1
  C  C27  1  0.58247651  0.76483818  0.98659083  1
  C  C28  1  0.34399706  0.49598783  0.03705710  1
  C  C29  1  0.40273336  0.29381315  0.16437425  1
  Cu  Cu30  1  0.15143778  0.30361753  0.44328188  1
  Cu  Cu31  1  0.15856603  0.05335134  0.18368214  1
  Cu  Cu32  1  0.80897165  0.65394030  0.19844282  1
  Cu  Cu33  1  0.07771427  0.70515685  0.89380085  1
  Cu  Cu34  1  0.81523740  0.52967818  0.52988666  1
  Cu  Cu35  1  0.66345391  0.49077691  0.87899507  1
  Cu  Cu36  1  0.38538373  0.17308832  0.14161261  1
  Cu  Cu37  1  0.97975768  0.63927890  0.43829790  1
  Cu  Cu38  1  0.59589463  0.68862017  0.25962914  1
  Cu  Cu39  1  0.00026144  0.06314759  0.00120383  1
  Cu  Cu40  1  0.86361576  0.61335716  0.85622945  1
  Cu  Cu41  1  0.33591108  0.94942907  0.05393963  1
  Cu  Cu42  1  0.22023958  0.53247173  0.10755809  1
  Cu  Cu43  1  0.35138925  0.35860543  0.04077861  1
  Cu  Cu44  1  0.69537487  0.22579137  0.74043522  1
  Cu  Cu45  1  0.49881145  0.30247414  0.69665642  1
  Cu  Cu46  1  0.47170163  0.52445073  0.36918577  1
  Cu  Cu47  1  0.64567905  0.73955329  0.84879562  1
  Cu  Cu48  1  0.43423341  0.54930529  0.11427952  1
  Cu  Cu49  1  0.07426904  0.65438364  0.16624665  1
  Cu  Cu50  1  0.07221464  0.32352593  0.97057105  1
  Cu  Cu51  1  0.25956212  0.12563474  0.97648429  1
  Cu  Cu52  1  0.09029451  0.07302817  0.40858137  1
  Cu  Cu53  1  0.12893031  0.46787592  0.27643471  1
  Cu  Cu54  1  0.10064028  0.39254444  0.04452726  1
  Cu  Cu55  1  0.19858057  0.80694598  0.05961030  1
  Cu  Cu56  1  0.25544822  0.35341745  0.77035273  1
  Cu  Cu57  1  0.81564373  0.29263625  0.30814749  1
  Cu  Cu58  1  0.89844142  0.77201773  0.63736180  1
  Cu  Cu59  1  0.12318349  0.52632795  0.81245557  1
  Cu  Cu60  1  0.85225341  0.35904872  0.87643216  1
  Cu  Cu61  1  0.26267774  0.73381758  0.84201084  1
  Cu  Cu62  1  0.44748731  0.74378011  0.97871214  1
  Cu  Cu63  1  0.28381012  0.49823319  0.46574044  1
  Cu  Cu64  1  0.05196217  0.86793090  0.50154242  1
  Cu  Cu65  1  0.55853577  0.16661217  0.54408504  1
  Cu  Cu66  1  0.45182795  0.06273916  0.41059118  1
  Cu  Cu67  1  0.74829007  0.35039869  0.10611303  1
  Cu  Cu68  1  0.74218025  0.50864214  0.28485963  1
  Cu  Cu69  1  0.66710249  0.58968676  0.71400711  1
  Cu  Cu70  1  0.68148478  0.64878959  0.01931385  1
  Cu  Cu71  1  0.72431857  0.40011528  0.67653294  1
  Cu  Cu72  1  0.93006669  0.47291056  0.20419816  1
  Ni  Ni73  1  0.04542416  0.20783609  0.61811762  1
  Cu  Cu74  1  0.81669297  0.91476480  0.96027996  1
  Cu  Cu75  1  0.36792708  0.69301909  0.28131087  1
  Cu  Cu76  1  0.92798241  0.06365532  0.24603609  1
  Ni  Ni77  1  0.32397404  0.34580677  0.28605729  1
  Cu  Cu78  1  0.91282186  0.96899031  0.65253008  1
  Ni  Ni79  1  0.98758381  0.84659307  0.07386645  1
  Cu  Cu80  1  0.44064976  0.65221528  0.53686528  1
  Cu  Cu81  1  0.37382808  0.30980901  0.56010982  1
  Ni  Ni82  1  0.26509455  0.91513936  0.43950381  1
  Cu  Cu83  1  0.46940377  0.83481639  0.44174181  1
  Cu  Cu84  1  0.10744205  0.88050841  0.28862697  1
  Cu  Cu85  1  0.50014610  0.09741829  0.82651231  1
  Cu  Cu86  1  0.00042555  0.88442554  0.83142246  1
  Cu  Cu87  1  0.77018623  0.70458507  0.41736386  1
  Cu  Cu88  1  0.86319572  0.15651490  0.46900358  1
  Cu  Cu89  1  0.54364118  0.31875162  0.17206020  1
  Cu  Cu90  1  0.40603320  0.88931778  0.82075722  1
  Ni  Ni91  1  0.53694087  0.26931584  0.39827460  1
  Ni  Ni92  1  0.33984600  0.51378481  0.66041733  1
  Cu  Cu93  1  0.25608932  0.14239225  0.55916581  1
  Cu  Cu94  1  0.59195520  0.32519554  0.90501234  1
  Cu  Cu95  1  0.00868259  0.23675386  0.14591179  1
  Cu  Cu96  1  0.18920291  0.90743282  0.90802349  1
  Cu  Cu97  1  0.68900231  0.11766715  0.33601123  1
  Cu  Cu98  1  0.39030922  0.96667305  0.62423028  1
  Cu  Cu99  1  0.56869994  0.44826972  0.56094777  1
  Cu  Cu100  1  0.60340469  0.91149354  0.69360053  1
  Cu  Cu101  1  0.59090983  0.86902921  0.05200224  1
  Cu  Cu102  1  0.99989581  0.53831476  0.01688468  1
  Cu  Cu103  1  0.34295644  0.50956414  0.90743121  1
  Cu  Cu104  1  0.12900113  0.84855913  0.70049000  1
