# generated using pymatgen
data_Cu2C5
_symmetry_space_group_name_H-M   'P 1'
_cell_length_a   3.23192515
_cell_length_b   3.23192429
_cell_length_c   16.66924569
_cell_angle_alpha   90.00000000
_cell_angle_beta   90.00000000
_cell_angle_gamma   119.91705098
_symmetry_Int_Tables_number   1
_chemical_formula_structural   Cu2C5
_chemical_formula_sum   'Cu2 C5'
_cell_volume   150.91466734
_cell_formula_units_Z   1
loop_
 _symmetry_equiv_pos_site_id
 _symmetry_equiv_pos_as_xyz
  1  'x, y, z'
loop_
 _atom_site_type_symbol
 _atom_site_label
 _atom_site_symmetry_multiplicity
 _atom_site_fract_x
 _atom_site_fract_y
 _atom_site_fract_z
 _atom_site_occupancy
  C  C0  1  0.33331941  0.66668059  0.75000000  1
  Cu  Cu1  1  0.00927087  0.00521972  0.99407789  1
  Cu  Cu2  1  0.03890790  0.97733062  0.51747874  1
  C  C3  1  0.33436696  0.66563304  0.90688891  1
  C  C4  1  0.33436696  0.66563304  0.59311109  1
  C  C5  1  0.66756380  0.33243620  0.08154570  1
  C  C6  1  0.66756380  0.33243620  0.41845430  1
