# generated using pymatgen
data_Cu4Ni3C34
_symmetry_space_group_name_H-M   'P 1'
_cell_length_a   9.19524328
_cell_length_b   9.18881308
_cell_length_c   22.59435615
_cell_angle_alpha   89.91282562
_cell_angle_beta   90.22855791
_cell_angle_gamma   120.07839635
_symmetry_Int_Tables_number   1
_chemical_formula_structural   Cu4Ni3C34
_chemical_formula_sum   'Cu12 Ni9 C102'
_cell_volume   1651.98499207
_cell_formula_units_Z   3
loop_
 _symmetry_equiv_pos_site_id
 _symmetry_equiv_pos_as_xyz
  1  'x, y, z'
loop_
 _atom_site_type_symbol
 _atom_site_label
 _atom_site_symmetry_multiplicity
 _atom_site_fract_x
 _atom_site_fract_y
 _atom_site_fract_z
 _atom_site_occupancy
  Cu  Cu0  1  0.63300952  0.99710826  0.25156667  1
  Cu  Cu1  1  0.36098218  0.36413669  0.24127318  1
  Cu  Cu2  1  0.03404141  0.64786317  0.25039574  1
  Cu  Cu3  1  0.63297987  0.65111255  0.75908169  1
  Ni  Ni4  1  0.99032537  0.36228208  0.74861568  1
  Cu  Cu5  1  0.34756723  0.99085218  0.73588071  1
  Ni  Ni6  1  0.03298977  0.69313741  0.58322609  1
  Ni  Ni7  1  0.66093344  0.97290416  0.58302954  1
  Cu  Cu8  1  0.66733333  0.67208624  0.08418747  1
  Ni  Ni9  1  0.03036145  0.33884154  0.08692828  1
  Cu  Cu10  1  0.93171367  0.63400857  0.91895061  1
  Cu  Cu11  1  0.69310709  0.02421077  0.91493287  1
  Cu  Cu12  1  0.34865929  0.29098336  0.91338517  1
  Cu  Cu13  1  0.97185224  0.29419623  0.41318083  1
  Ni  Ni14  1  0.33660064  0.02618364  0.41847768  1
  Ni  Ni15  1  0.00080041  0.99898892  0.50013733  1
  Cu  Cu16  1  0.98786551  0.01163886  0.98985799  1
  Ni  Ni17  1  0.66663094  0.33349385  0.83327621  1
  Cu  Cu18  1  0.68464148  0.32428142  0.33191855  1
  Ni  Ni19  1  0.32327266  0.66649680  0.16683442  1
  Ni  Ni20  1  0.33352140  0.66102697  0.66528560  1
  C  C21  1  0.99185318  0.99653747  0.35465511  1
  C  C22  1  0.00158741  0.00497761  0.64652782  1
  C  C23  1  0.00737642  0.00437735  0.14680137  1
  C  C24  1  0.66569650  0.33193703  0.48298566  1
  C  C25  1  0.33585774  0.66992836  0.01884789  1
  C  C26  1  0.33368631  0.66647037  0.51683501  1
  C  C27  1  0.99525547  0.99899580  0.85054990  1
  C  C28  1  0.66720061  0.32885744  0.67954545  1
  C  C29  1  0.67002418  0.33562571  0.18105783  1
  C  C30  1  0.66309347  0.33646733  0.98707593  1
  C  C31  1  0.32924861  0.66405282  0.31882471  1
  C  C32  1  0.33847666  0.66858886  0.81595125  1
  C  C33  1  0.99954538  0.29626669  0.25032301  1
  C  C34  1  0.70248565  0.00196724  0.75014873  1
  C  C35  1  0.96674457  0.33556068  0.58406365  1
  C  C36  1  0.36636469  0.03323861  0.58318800  1
  C  C37  1  0.96849179  0.63407903  0.08355413  1
  C  C38  1  0.36722562  0.33240894  0.08290579  1
  C  C39  1  0.63190450  0.66436354  0.91581382  1
  C  C40  1  0.62905363  0.96342379  0.41599577  1
  C  C41  1  0.03383480  0.66536383  0.41579787  1
  C  C42  1  0.29159599  0.00118135  0.25146135  1
  C  C43  1  0.70823218  0.70932656  0.24934976  1
  C  C44  1  0.29300711  0.29245113  0.75132714  1
  C  C45  1  0.99850407  0.70434149  0.75027276  1
  C  C46  1  0.66479783  0.62626195  0.58552075  1
  C  C47  1  0.66577415  0.03474389  0.08393863  1
  C  C48  1  0.03974307  0.37347738  0.91616848  1
  C  C49  1  0.33500560  0.96244823  0.91517797  1
  C  C50  1  0.33611113  0.37203090  0.41469377  1
  C  C51  1  0.20532736  0.02002921  0.30754898  1
  C  C52  1  0.82333258  0.80283494  0.30328557  1
  C  C53  1  0.98009354  0.17859309  0.30825323  1
  C  C54  1  0.22370914  0.18980895  0.80901869  1
  C  C55  1  0.97591080  0.78187696  0.80766309  1
  C  C56  1  0.81474127  0.03824889  0.81049496  1
  C  C57  1  0.80150290  0.97637715  0.69359007  1
  C  C58  1  0.17611109  0.19226877  0.69851980  1
  C  C59  1  0.02291673  0.81881207  0.69596368  1
  C  C60  1  0.79395247  0.81399254  0.19325009  1
  C  C61  1  0.01908888  0.19950849  0.19252519  1
  C  C62  1  0.17716009  0.97959307  0.19756257  1
  C  C63  1  0.89949967  0.38403055  0.64342807  1
  C  C64  1  0.47877486  0.10472384  0.64320942  1
  C  C65  1  0.63634327  0.53040719  0.64403628  1
  C  C66  1  0.89673732  0.51425795  0.14240053  1
  C  C67  1  0.63436101  0.10755786  0.14023580  1
  C  C68  1  0.48597616  0.37583271  0.14196549  1
  C  C69  1  0.43843633  0.29515133  0.02301648  1
  C  C70  1  0.85182082  0.55890540  0.02438230  1
  C  C71  1  0.70474405  0.14655340  0.02868577  1
  C  C72  1  0.45877035  0.15241774  0.52595395  1
  C  C73  1  0.69358188  0.53432021  0.53398068  1
  C  C74  1  0.83921637  0.30351372  0.52800255  1
  C  C75  1  0.53387757  0.68991378  0.97232047  1
  C  C76  1  0.15235073  0.46950194  0.97015987  1
  C  C77  1  0.30948019  0.84299754  0.96736748  1
  C  C78  1  0.53814675  0.84582782  0.47339760  1
  C  C79  1  0.30502819  0.46270321  0.46603688  1
  C  C80  1  0.16054230  0.69526197  0.47194398  1
  C  C81  1  0.10099729  0.61814299  0.35589672  1
  C  C82  1  0.51608470  0.89005566  0.35583398  1
  C  C83  1  0.36681184  0.46827045  0.35604425  1
  C  C84  1  0.11166425  0.47912662  0.85916420  1
  C  C85  1  0.35875985  0.88923283  0.85678712  1
  C  C86  1  0.51880919  0.62891355  0.85572969  1
  C  C87  1  0.03338811  0.84402970  0.41126893  1
  C  C88  1  0.82206183  0.99414041  0.41248948  1
  C  C89  1  0.17324376  0.19391821  0.41121695  1
  C  C90  1  0.03709202  0.20301004  0.91533877  1
  C  C91  1  0.17614794  0.98141816  0.91411897  1
  C  C92  1  0.81820308  0.83785791  0.91638845  1
  C  C93  1  0.96903322  0.15742961  0.58908807  1
  C  C94  1  0.17320712  0.99974552  0.58818453  1
  C  C95  1  0.82910379  0.80323238  0.58900672  1
  C  C96  1  0.97486474  0.81505702  0.09153671  1
  C  C97  1  0.82331812  0.01281038  0.09089616  1
  C  C98  1  0.17282350  0.17454941  0.08951091  1
  C  C99  1  0.68305800  0.17021917  0.74675707  1
  C  C100  1  0.47221953  0.32028327  0.74443069  1
  C  C101  1  0.83660409  0.53043325  0.74516170  1
  C  C102  1  0.69203737  0.53351971  0.24849074  1
  C  C103  1  0.82587857  0.30692842  0.24884526  1
  C  C104  1  0.46550153  0.16334913  0.24720736  1
  C  C105  1  0.65187374  0.49646100  0.91888870  1
  C  C106  1  0.85969434  0.34449629  0.92252902  1
  C  C107  1  0.49750218  0.13527289  0.92196047  1
  C  C108  1  0.64690455  0.15134472  0.42317235  1
  C  C109  1  0.48516318  0.34263454  0.42478747  1
  C  C110  1  0.84830707  0.50042148  0.42599902  1
  C  C111  1  0.34983112  0.50348506  0.07614817  1
  C  C112  1  0.15368469  0.65144103  0.07531366  1
  C  C113  1  0.51371156  0.85456826  0.07595856  1
  C  C114  1  0.35177902  0.84656536  0.57582170  1
  C  C115  1  0.51620867  0.65692303  0.57573763  1
  C  C116  1  0.15221705  0.49960019  0.57399484  1
  C  C117  1  0.30822613  0.84189809  0.25212391  1
  C  C118  1  0.53460271  0.69747754  0.25309798  1
  C  C119  1  0.17312535  0.48130039  0.25127347  1
  C  C120  1  0.29554977  0.46269844  0.75155224  1
  C  C121  1  0.15749779  0.68550050  0.75211118  1
  C  C122  1  0.51652609  0.82857662  0.74975819  1
