# generated using pymatgen
data_Cu5Ni3C4
_symmetry_space_group_name_H-M   'P 1'
_cell_length_a   5.78052700
_cell_length_b   4.86455800
_cell_length_c   5.15218732
_cell_angle_alpha   89.07644389
_cell_angle_beta   90.00000000
_cell_angle_gamma   90.00000000
_symmetry_Int_Tables_number   1
_chemical_formula_structural   Cu5Ni3C4
_chemical_formula_sum   'Cu5 Ni3 C4'
_cell_volume   144.85918636
_cell_formula_units_Z   1
loop_
 _symmetry_equiv_pos_site_id
 _symmetry_equiv_pos_as_xyz
  1  'x, y, z'
loop_
 _atom_site_type_symbol
 _atom_site_label
 _atom_site_symmetry_multiplicity
 _atom_site_fract_x
 _atom_site_fract_y
 _atom_site_fract_z
 _atom_site_occupancy
  C  C0  1  0.68119500  0.50000000  0.75000000  1
  C  C1  1  0.31880500  0.50000000  0.25000000  1
  C  C2  1  0.81614500  0.00000000  0.25000000  1
  C  C3  1  0.18385500  0.00000000  0.75000000  1
  Ni  Ni4  1  0.89233700  0.21936700  0.56410500  1
  Cu  Cu5  1  0.91779247  0.78081536  0.92294492  1
  Cu  Cu6  1  0.11469335  0.21018159  0.05626083  1
  Ni  Ni7  1  0.38513400  0.73446500  0.90740100  1
  Ni  Ni8  1  0.61486600  0.26553500  0.09259900  1
  Cu  Cu9  1  0.11213298  0.75805828  0.43076322  1
  Cu  Cu10  1  0.61300187  0.73680672  0.37436700  1
  Cu  Cu11  1  0.35939551  0.23640689  0.58034905  1
