# generated using pymatgen
data_Cu3Ni3C14
_symmetry_space_group_name_H-M   'P 1'
_cell_length_a   10.24828375
_cell_length_b   10.24828375
_cell_length_c   6.72537400
_cell_angle_alpha   90.00000000
_cell_angle_beta   90.00000000
_cell_angle_gamma   119.99999838
_symmetry_Int_Tables_number   1
_chemical_formula_structural   Cu3Ni3C14
_chemical_formula_sum   'Cu6 Ni6 C28'
_cell_volume   611.71532703
_cell_formula_units_Z   2
loop_
 _symmetry_equiv_pos_site_id
 _symmetry_equiv_pos_as_xyz
  1  'x, y, z'
loop_
 _atom_site_type_symbol
 _atom_site_label
 _atom_site_symmetry_multiplicity
 _atom_site_fract_x
 _atom_site_fract_y
 _atom_site_fract_z
 _atom_site_occupancy
  C  C0  1  0.00000000  0.00000000  0.00000000  1
  C  C1  1  0.00000000  0.00000000  0.50000000  1
  C  C2  1  0.33333300  0.66666700  0.97578600  1
  C  C3  1  0.66666700  0.33333300  0.02421400  1
  C  C4  1  0.10177900  0.28492200  0.23833000  1
  C  C5  1  0.18314300  0.89822100  0.23833000  1
  C  C6  1  0.71507800  0.81685700  0.23833000  1
  C  C7  1  0.89822100  0.71507800  0.76167000  1
  C  C8  1  0.81685700  0.10177900  0.76167000  1
  C  C9  1  0.28492200  0.18314300  0.76167000  1
  C  C10  1  0.92610200  0.18870400  0.25140000  1
  C  C11  1  0.26260200  0.07389800  0.25140000  1
  C  C12  1  0.81129600  0.73739800  0.25140000  1
  C  C13  1  0.07389800  0.81129600  0.74860000  1
  C  C14  1  0.73739800  0.92610200  0.74860000  1
  C  C15  1  0.18870400  0.26260200  0.74860000  1
  C  C16  1  0.57984200  0.97705700  0.20587800  1
  C  C17  1  0.39721500  0.42015800  0.20587800  1
  C  C18  1  0.02294300  0.60278500  0.20587800  1
  C  C19  1  0.42015800  0.02294300  0.79412200  1
  C  C20  1  0.60278500  0.57984200  0.79412200  1
  C  C21  1  0.97705700  0.39721500  0.79412200  1
  C  C22  1  0.67932000  0.14274300  0.30821800  1
  C  C23  1  0.46342300  0.32068000  0.30821800  1
  C  C24  1  0.85725700  0.53657700  0.30821800  1
  C  C25  1  0.32068000  0.85725700  0.69178200  1
  C  C26  1  0.53657700  0.67932000  0.69178200  1
  C  C27  1  0.14274300  0.46342300  0.69178200  1
  Ni  Ni28  1  0.50860800  0.85620300  0.13327800  1
  Ni  Ni29  1  0.34759600  0.49139200  0.13327800  1
  Ni  Ni30  1  0.14379700  0.65240400  0.13327800  1
  Ni  Ni31  1  0.49139200  0.14379700  0.86672200  1
  Ni  Ni32  1  0.65240400  0.50860800  0.86672200  1
  Ni  Ni33  1  0.85620300  0.34759600  0.86672200  1
  Cu  Cu34  1  0.01830300  0.18118600  0.24516600  1
  Cu  Cu35  1  0.16288200  0.98169700  0.24516600  1
  Cu  Cu36  1  0.81881400  0.83711800  0.24516600  1
  Cu  Cu37  1  0.98169700  0.81881400  0.75483400  1
  Cu  Cu38  1  0.83711800  0.01830300  0.75483400  1
  Cu  Cu39  1  0.18118600  0.16288200  0.75483400  1
