# generated using pymatgen
data_Cu2Ni3C2
_symmetry_space_group_name_H-M   'P 1'
_cell_length_a   6.57341700
_cell_length_b   6.73404400
_cell_length_c   14.94582200
_cell_angle_alpha   90.00000000
_cell_angle_beta   90.00000000
_cell_angle_gamma   90.00000000
_symmetry_Int_Tables_number   1
_chemical_formula_structural   Cu2Ni3C2
_chemical_formula_sum   'Cu8 Ni12 C8'
_cell_volume   661.58696365
_cell_formula_units_Z   4
loop_
 _symmetry_equiv_pos_site_id
 _symmetry_equiv_pos_as_xyz
  1  'x, y, z'
loop_
 _atom_site_type_symbol
 _atom_site_label
 _atom_site_symmetry_multiplicity
 _atom_site_fract_x
 _atom_site_fract_y
 _atom_site_fract_z
 _atom_site_occupancy
  C  C0  1  0.25000000  0.81376900  0.50000000  1
  C  C1  1  0.75000000  0.18623100  0.00000000  1
  C  C2  1  0.75000000  0.18623100  0.50000000  1
  C  C3  1  0.25000000  0.81376900  0.00000000  1
  C  C4  1  0.52890600  0.61553700  0.75000000  1
  C  C5  1  0.47109400  0.38446300  0.25000000  1
  C  C6  1  0.97109400  0.61553700  0.25000000  1
  C  C7  1  0.02890600  0.38446300  0.75000000  1
  Ni  Ni8  1  0.24157900  0.34440500  0.60311600  1
  Ni  Ni9  1  0.75842100  0.65559500  0.10311600  1
  Ni  Ni10  1  0.25842100  0.34440500  0.39688400  1
  Ni  Ni11  1  0.74157900  0.65559500  0.89688400  1
  Ni  Ni12  1  0.75842100  0.65559500  0.39688400  1
  Ni  Ni13  1  0.24157900  0.34440500  0.89688400  1
  Ni  Ni14  1  0.74157900  0.65559500  0.60311600  1
  Ni  Ni15  1  0.25842100  0.34440500  0.10311600  1
  Ni  Ni16  1  0.27757800  0.85223700  0.75000000  1
  Ni  Ni17  1  0.72242200  0.14776300  0.25000000  1
  Ni  Ni18  1  0.22242200  0.85223700  0.25000000  1
  Ni  Ni19  1  0.77757800  0.14776300  0.75000000  1
  Cu  Cu20  1  0.37608100  0.15575800  0.91798000  1
  Cu  Cu21  1  0.62391900  0.84424200  0.41798000  1
  Cu  Cu22  1  0.12391900  0.15575800  0.08202000  1
  Cu  Cu23  1  0.87608100  0.84424200  0.58202000  1
  Cu  Cu24  1  0.62391900  0.84424200  0.08202000  1
  Cu  Cu25  1  0.37608100  0.15575800  0.58202000  1
  Cu  Cu26  1  0.87608100  0.84424200  0.91798000  1
  Cu  Cu27  1  0.12391900  0.15575800  0.41798000  1
