# generated using pymatgen
data_CuNi149
_symmetry_space_group_name_H-M   'P 1'
_cell_length_a   15.90547325
_cell_length_b   15.90547806
_cell_length_c   15.63717289
_cell_angle_alpha   90.00000000
_cell_angle_beta   90.00000000
_cell_angle_gamma   120.00001001
_symmetry_Int_Tables_number   1
_chemical_formula_structural   CuNi149
_chemical_formula_sum   'Cu1 Ni149'
_cell_volume   3425.95889680
_cell_formula_units_Z   1
loop_
 _symmetry_equiv_pos_site_id
 _symmetry_equiv_pos_as_xyz
  1  'x, y, z'
loop_
 _atom_site_type_symbol
 _atom_site_label
 _atom_site_symmetry_multiplicity
 _atom_site_fract_x
 _atom_site_fract_y
 _atom_site_fract_z
 _atom_site_occupancy
  Ni  Ni0  1  0.60193446  0.00014282  -0.00000000  1
  Ni  Ni1  1  0.39820836  0.00014382  -0.00000000  1
  Ni  Ni2  1  0.80963970  0.00172726  -0.00000000  1
  Ni  Ni3  1  0.19208856  0.00172826  -0.00000000  1
  Ni  Ni4  1  0.19208856  0.19036030  -0.00000000  1
  Ni  Ni5  1  0.99827274  0.19036130  -0.00000000  1
  Ni  Ni6  1  0.80107532  0.19892468  -0.00000000  1
  Ni  Ni7  1  0.39784935  0.19892468  -0.00000000  1
  Ni  Ni8  1  0.59974832  0.19949665  -0.00000000  1
  Ni  Ni9  1  0.19838189  0.39676377  -0.00000000  1
  Ni  Ni10  1  0.99985618  0.39806454  -0.00000000  1
  Ni  Ni11  1  0.39820836  0.39806454  -0.00000000  1
  Ni  Ni12  1  0.80050235  0.40025168  -0.00000000  1
  Ni  Ni13  1  0.59974832  0.40025168  -0.00000000  1
  Ni  Ni14  1  0.19969484  0.59984742  -0.00000000  1
  Ni  Ni15  1  0.40015258  0.59984742  -0.00000000  1
  Ni  Ni16  1  0.99985618  0.60179064  -0.00000000  1
  Ni  Ni17  1  0.60193446  0.60179064  -0.00000000  1
  Ni  Ni18  1  0.80107532  0.60215165  -0.00000000  1
  Ni  Ni19  1  0.40015258  0.80030516  -0.00000000  1
  Ni  Ni20  1  0.19838189  0.80161811  -0.00000000  1
  Ni  Ni21  1  0.60323623  0.80161811  -0.00000000  1
  Ni  Ni22  1  0.99827274  0.80791144  -0.00000000  1
  Ni  Ni23  1  0.80963970  0.80791144  -0.00000000  1
  Ni  Ni24  1  0.06378191  0.12756281  0.15878976  1
  Ni  Ni25  1  0.06378191  0.93621809  0.15878976  1
  Ni  Ni26  1  0.87243619  0.93621809  0.15878976  1
  Ni  Ni27  1  0.06590174  0.33085373  0.16542541  1
  Ni  Ni28  1  0.26495299  0.33085473  0.16542541  1
  Ni  Ni29  1  0.66914627  0.73504801  0.16542541  1
  Ni  Ni30  1  0.06590174  0.73504801  0.16542541  1
  Ni  Ni31  1  0.66914627  0.93409826  0.16542541  1
  Ni  Ni32  1  0.26495299  0.93409926  0.16542541  1
  Ni  Ni33  1  0.46676453  0.53323547  0.16603862  1
  Ni  Ni34  1  0.06647094  0.53323547  0.16603862  1
  Ni  Ni35  1  0.46676453  0.93352906  0.16603862  1
  Ni  Ni36  1  0.26622015  0.53244030  0.16596193  1
  Ni  Ni37  1  0.26622015  0.73377985  0.16596193  1
  Ni  Ni38  1  0.46756070  0.73377985  0.16596193  1
  Ni  Ni39  1  0.46714112  0.13363633  0.16658805  1
  Ni  Ni40  1  0.66649521  0.13363633  0.16658805  1
  Ni  Ni41  1  0.46714112  0.33350479  0.16658805  1
  Ni  Ni42  1  0.86636367  0.33350479  0.16658805  1
  Ni  Ni43  1  0.66649521  0.53285888  0.16658805  1
  Ni  Ni44  1  0.86636367  0.53285888  0.16658805  1
  Ni  Ni45  1  0.66666600  0.33333300  0.16662332  1
  Ni  Ni46  1  0.86599656  0.13400344  0.16710042  1
  Ni  Ni47  1  0.26800589  0.13400344  0.16710042  1
  Ni  Ni48  1  0.86599656  0.73199311  0.16710042  1
  Ni  Ni49  1  -0.00000000  0.00000000  0.33109243  1
  Ni  Ni50  1  0.19869184  0.19904774  0.33165185  1
  Ni  Ni51  1  0.00035589  0.19904874  0.33165185  1
  Ni  Ni52  1  0.00035589  0.80130816  0.33165185  1
  Ni  Ni53  1  0.80095226  0.80130816  0.33165185  1
  Ni  Ni54  1  0.19869184  0.99964311  0.33165185  1
  Ni  Ni55  1  0.80095226  0.99964411  0.33165185  1
  Ni  Ni56  1  0.00023516  0.39963902  0.33269688  1
  Ni  Ni57  1  0.39940485  0.39964002  0.33269688  1
  Ni  Ni58  1  0.60035998  0.60059415  0.33269688  1
  Ni  Ni59  1  0.00023516  0.60059515  0.33269688  1
  Ni  Ni60  1  0.39940485  0.99976484  0.33269688  1
  Ni  Ni61  1  0.60035998  0.99976484  0.33269688  1
  Ni  Ni62  1  0.19987667  0.39975233  0.33280468  1
  Ni  Ni63  1  0.19987667  0.80012333  0.33280468  1
  Ni  Ni64  1  0.60024667  0.80012333  0.33280468  1
  Ni  Ni65  1  0.20000471  0.60000186  0.33303315  1
  Ni  Ni66  1  0.39999814  0.60000286  0.33303315  1
  Ni  Ni67  1  0.39999814  0.79999529  0.33303315  1
  Ni  Ni68  1  0.59980445  0.19960691  0.33340136  1
  Ni  Ni69  1  0.80039209  0.40019655  0.33340136  1
  Ni  Ni70  1  0.59980445  0.40019655  0.33340136  1
  Ni  Ni71  1  0.80016774  0.19983226  0.33358789  1
  Ni  Ni72  1  0.39966451  0.19983226  0.33358789  1
  Ni  Ni73  1  0.80016774  0.60033549  0.33358789  1
  Ni  Ni74  1  0.06655977  0.13312054  0.50000000  1
  Ni  Ni75  1  0.86693712  0.13306288  0.50000000  1
  Ni  Ni76  1  0.26612576  0.13306288  0.50000000  1
  Ni  Ni77  1  0.46668827  0.13327160  0.50000000  1
  Ni  Ni78  1  0.66658333  0.13327260  0.50000000  1
  Ni  Ni79  1  0.26632253  0.33267104  0.50000000  1
  Ni  Ni80  1  0.06634851  0.33267104  0.50000000  1
  Ni  Ni81  1  0.66666600  0.33333300  0.50000000  1
  Ni  Ni82  1  0.86672840  0.33341667  0.50000000  1
  Ni  Ni83  1  0.46668827  0.33341667  0.50000000  1
  Ni  Ni84  1  0.26645185  0.53290271  0.50000000  1
  Ni  Ni85  1  0.06644327  0.53322163  0.50000000  1
  Ni  Ni86  1  0.46677837  0.53322163  0.50000000  1
  Ni  Ni87  1  0.66658333  0.53331173  0.50000000  1
  Ni  Ni88  1  0.86672840  0.53331173  0.50000000  1
  Ni  Ni89  1  0.26645185  0.73354815  0.50000000  1
  Ni  Ni90  1  0.46709729  0.73354815  0.50000000  1
  Ni  Ni91  1  0.06634851  0.73367747  0.50000000  1
  Ni  Ni92  1  0.66732896  0.73367747  0.50000000  1
  Ni  Ni93  1  0.86693712  0.73387424  0.50000000  1
  Ni  Ni94  1  0.46677837  0.93355573  0.50000000  1
  Ni  Ni95  1  0.86687946  0.93344023  0.50000000  1
  Ni  Ni96  1  0.06655977  0.93344023  0.50000000  1
  Ni  Ni97  1  0.26632253  0.93365149  0.50000000  1
  Ni  Ni98  1  0.66732896  0.93365149  0.50000000  1
  Ni  Ni99  1  0.80016774  0.19983226  0.66641111  1
  Ni  Ni100  1  0.39966451  0.19983226  0.66641111  1
  Ni  Ni101  1  0.80016774  0.60033549  0.66641111  1
  Ni  Ni102  1  0.59980445  0.19960691  0.66659764  1
  Ni  Ni103  1  0.80039209  0.40019655  0.66659764  1
  Ni  Ni104  1  0.59980445  0.40019655  0.66659764  1
  Ni  Ni105  1  0.20000471  0.60000186  0.66696585  1
  Ni  Ni106  1  0.39999814  0.60000286  0.66696585  1
  Ni  Ni107  1  0.39999814  0.79999529  0.66696585  1
  Ni  Ni108  1  0.19987667  0.39975233  0.66719532  1
  Ni  Ni109  1  0.19987667  0.80012333  0.66719532  1
  Ni  Ni110  1  0.60024667  0.80012333  0.66719532  1
  Ni  Ni111  1  0.00023516  0.39963902  0.66730312  1
  Ni  Ni112  1  0.39940485  0.39964002  0.66730312  1
  Ni  Ni113  1  0.60035998  0.60059415  0.66730312  1
  Ni  Ni114  1  0.00023516  0.60059515  0.66730312  1
  Ni  Ni115  1  0.39940485  0.99976484  0.66730312  1
  Ni  Ni116  1  0.60035998  0.99976484  0.66730312  1
  Ni  Ni117  1  0.19869184  0.19904774  0.66834815  1
  Ni  Ni118  1  0.00035589  0.19904874  0.66834815  1
  Ni  Ni119  1  0.00035589  0.80130816  0.66834815  1
  Ni  Ni120  1  0.80095226  0.80130816  0.66834815  1
  Ni  Ni121  1  0.19869184  0.99964311  0.66834815  1
  Ni  Ni122  1  0.80095226  0.99964411  0.66834815  1
  Ni  Ni123  1  -0.00000000  0.00000000  0.66890757  1
  Ni  Ni124  1  0.86599656  0.13400344  0.83289958  1
  Ni  Ni125  1  0.26800589  0.13400344  0.83289958  1
  Ni  Ni126  1  0.86599656  0.73199311  0.83289958  1
  Ni  Ni127  1  0.66666600  0.33333300  0.83337668  1
  Ni  Ni128  1  0.46714112  0.13363633  0.83341195  1
  Ni  Ni129  1  0.66649521  0.13363633  0.83341195  1
  Ni  Ni130  1  0.46714112  0.33350479  0.83341195  1
  Ni  Ni131  1  0.86636367  0.33350479  0.83341195  1
  Ni  Ni132  1  0.66649521  0.53285888  0.83341195  1
  Ni  Ni133  1  0.86636367  0.53285888  0.83341195  1
  Ni  Ni134  1  0.26622015  0.53244030  0.83403707  1
  Ni  Ni135  1  0.26622015  0.73377985  0.83403707  1
  Ni  Ni136  1  0.46756070  0.73377985  0.83403707  1
  Ni  Ni137  1  0.46676453  0.53323547  0.83396138  1
  Ni  Ni138  1  0.06647094  0.53323547  0.83396138  1
  Ni  Ni139  1  0.46676453  0.93352906  0.83396138  1
  Ni  Ni140  1  0.06590174  0.33085373  0.83457459  1
  Ni  Ni141  1  0.26495299  0.33085473  0.83457459  1
  Ni  Ni142  1  0.66914627  0.73504801  0.83457459  1
  Ni  Ni143  1  0.06590174  0.73504801  0.83457459  1
  Ni  Ni144  1  0.66914627  0.93409826  0.83457459  1
  Ni  Ni145  1  0.26495299  0.93409926  0.83457459  1
  Ni  Ni146  1  0.06378191  0.12756281  0.84121024  1
  Ni  Ni147  1  0.06378191  0.93621809  0.84121024  1
  Ni  Ni148  1  0.87243619  0.93621809  0.84121024  1
  Cu  Cu149  1  -0.00000000  0.00000000  -0.00000000  1
