# generated using pymatgen
data_Cu4Ni9C
_symmetry_space_group_name_H-M   'P 1'
_cell_length_a   7.88313199
_cell_length_b   7.88313199
_cell_length_c   7.88313199
_cell_angle_alpha   121.70486847
_cell_angle_beta   121.70486847
_cell_angle_gamma   87.07160494
_symmetry_Int_Tables_number   1
_chemical_formula_structural   Cu4Ni9C
_chemical_formula_sum   'Cu8 Ni18 C2'
_cell_volume   336.99767382
_cell_formula_units_Z   2
loop_
 _symmetry_equiv_pos_site_id
 _symmetry_equiv_pos_as_xyz
  1  'x, y, z'
loop_
 _atom_site_type_symbol
 _atom_site_label
 _atom_site_symmetry_multiplicity
 _atom_site_fract_x
 _atom_site_fract_y
 _atom_site_fract_z
 _atom_site_occupancy
  C  C0  1  0.25000000  0.25000000  0.00000000  1
  C  C1  1  0.75000000  0.75000000  0.00000000  1
  Ni  Ni2  1  0.50000000  0.00000000  0.50000000  1
  Ni  Ni3  1  0.00000000  0.50000000  0.50000000  1
  Ni  Ni4  1  0.31279600  0.81279600  0.76400700  1
  Ni  Ni5  1  0.68720400  0.18720400  0.23599300  1
  Ni  Ni6  1  0.04878900  0.54878900  0.23599300  1
  Ni  Ni7  1  0.81279600  0.04878900  0.50000000  1
  Ni  Ni8  1  0.45121100  0.68720400  0.50000000  1
  Ni  Ni9  1  0.95121100  0.45121100  0.76400700  1
  Ni  Ni10  1  0.18720400  0.95121100  0.50000000  1
  Ni  Ni11  1  0.54878900  0.31279600  0.50000000  1
  Ni  Ni12  1  0.19759700  0.07030200  0.26789900  1
  Ni  Ni13  1  0.80240300  0.92969800  0.73210100  1
  Ni  Ni14  1  0.07030200  0.80240300  0.87270400  1
  Ni  Ni15  1  0.69759700  0.42969800  0.12729600  1
  Ni  Ni16  1  0.92969800  0.19759700  0.12729600  1
  Ni  Ni17  1  0.30240300  0.57030200  0.87270400  1
  Ni  Ni18  1  0.57030200  0.69759700  0.26789900  1
  Ni  Ni19  1  0.42969800  0.30240300  0.73210100  1
  Cu  Cu20  1  0.79066300  0.29066300  0.83598400  1
  Cu  Cu21  1  0.20933700  0.70933700  0.16401600  1
  Cu  Cu22  1  0.45467900  0.95467900  0.16401600  1
  Cu  Cu23  1  0.29066300  0.45467900  0.50000000  1
  Cu  Cu24  1  0.04532100  0.20933700  0.50000000  1
  Cu  Cu25  1  0.54532100  0.04532100  0.83598400  1
  Cu  Cu26  1  0.70933700  0.54532100  0.50000000  1
  Cu  Cu27  1  0.95467900  0.79066300  0.50000000  1
