# generated using pymatgen
data_Cu5NiC
_symmetry_space_group_name_H-M   'P 1'
_cell_length_a   7.23314400
_cell_length_b   8.74837300
_cell_length_c   14.13331200
_cell_angle_alpha   90.00000000
_cell_angle_beta   90.00000000
_cell_angle_gamma   90.00000000
_symmetry_Int_Tables_number   1
_chemical_formula_structural   Cu5NiC
_chemical_formula_sum   'Cu40 Ni8 C8'
_cell_volume   894.33113240
_cell_formula_units_Z   8
loop_
 _symmetry_equiv_pos_site_id
 _symmetry_equiv_pos_as_xyz
  1  'x, y, z'
loop_
 _atom_site_type_symbol
 _atom_site_label
 _atom_site_symmetry_multiplicity
 _atom_site_fract_x
 _atom_site_fract_y
 _atom_site_fract_z
 _atom_site_occupancy
  C  C0  1  0.00000000  0.00000000  0.50000000  1
  C  C1  1  0.50000000  0.50000000  0.00000000  1
  C  C2  1  0.50000000  0.00000000  0.50000000  1
  C  C3  1  0.00000000  0.50000000  0.00000000  1
  C  C4  1  0.50000000  0.00000000  0.00000000  1
  C  C5  1  0.00000000  0.50000000  0.50000000  1
  C  C6  1  0.00000000  0.00000000  0.00000000  1
  C  C7  1  0.50000000  0.50000000  0.50000000  1
  Ni  Ni8  1  0.25000000  0.96257400  0.26659300  1
  Ni  Ni9  1  0.25000000  0.46257400  0.23340700  1
  Ni  Ni10  1  0.75000000  0.03742600  0.73340700  1
  Ni  Ni11  1  0.75000000  0.53742600  0.76659300  1
  Ni  Ni12  1  0.75000000  0.00360700  0.23103700  1
  Ni  Ni13  1  0.75000000  0.50360700  0.26896300  1
  Ni  Ni14  1  0.25000000  0.99639300  0.76896300  1
  Ni  Ni15  1  0.25000000  0.49639300  0.73103700  1
  Cu  Cu16  1  0.25000000  0.08642000  0.04208600  1
  Cu  Cu17  1  0.25000000  0.58642000  0.45791400  1
  Cu  Cu18  1  0.75000000  0.91358000  0.95791400  1
  Cu  Cu19  1  0.75000000  0.41358000  0.54208600  1
  Cu  Cu20  1  0.25000000  0.90585600  0.53756300  1
  Cu  Cu21  1  0.25000000  0.40585600  0.96243700  1
  Cu  Cu22  1  0.75000000  0.09414400  0.46243700  1
  Cu  Cu23  1  0.75000000  0.59414400  0.03756300  1
  Cu  Cu24  1  0.55347200  0.94837800  0.15144500  1
  Cu  Cu25  1  0.94652800  0.44837800  0.34855500  1
  Cu  Cu26  1  0.05347200  0.05162200  0.84855500  1
  Cu  Cu27  1  0.44652800  0.55162200  0.65144500  1
  Cu  Cu28  1  0.44652800  0.05162200  0.84855500  1
  Cu  Cu29  1  0.05347200  0.55162200  0.65144500  1
  Cu  Cu30  1  0.94652800  0.94837800  0.15144500  1
  Cu  Cu31  1  0.55347200  0.44837800  0.34855500  1
  Cu  Cu32  1  0.05274100  0.01397400  0.34633500  1
  Cu  Cu33  1  0.44725900  0.51397400  0.15366500  1
  Cu  Cu34  1  0.55274100  0.98602600  0.65366500  1
  Cu  Cu35  1  0.94725900  0.48602600  0.84633500  1
  Cu  Cu36  1  0.94725900  0.98602600  0.65366500  1
  Cu  Cu37  1  0.55274100  0.48602600  0.84633500  1
  Cu  Cu38  1  0.44725900  0.01397400  0.34633500  1
  Cu  Cu39  1  0.05274100  0.51397400  0.15366500  1
  Cu  Cu40  1  0.25000000  0.75885100  0.28216300  1
  Cu  Cu41  1  0.25000000  0.25885100  0.21783700  1
  Cu  Cu42  1  0.75000000  0.24114900  0.71783700  1
  Cu  Cu43  1  0.75000000  0.74114900  0.78216300  1
  Cu  Cu44  1  0.34151300  0.74847200  0.99606600  1
  Cu  Cu45  1  0.15848700  0.24847200  0.50393400  1
  Cu  Cu46  1  0.84151300  0.25152800  0.00393400  1
  Cu  Cu47  1  0.65848700  0.75152800  0.49606600  1
  Cu  Cu48  1  0.65848700  0.25152800  0.00393400  1
  Cu  Cu49  1  0.84151300  0.75152800  0.49606600  1
  Cu  Cu50  1  0.15848700  0.74847200  0.99606600  1
  Cu  Cu51  1  0.34151300  0.24847200  0.50393400  1
  Cu  Cu52  1  0.75000000  0.20621000  0.20973200  1
  Cu  Cu53  1  0.75000000  0.70621000  0.29026800  1
  Cu  Cu54  1  0.25000000  0.79379000  0.79026800  1
  Cu  Cu55  1  0.25000000  0.29379000  0.70973200  1
