# generated using pymatgen
data_CuNiC8
_symmetry_space_group_name_H-M   'P 1'
_cell_length_a   13.74383100
_cell_length_b   5.55564300
_cell_length_c   7.62497898
_cell_angle_alpha   71.05840431
_cell_angle_beta   90.00000000
_cell_angle_gamma   90.00000000
_symmetry_Int_Tables_number   1
_chemical_formula_structural   CuNiC8
_chemical_formula_sum   'Cu4 Ni4 C32'
_cell_volume   550.68472954
_cell_formula_units_Z   4
loop_
 _symmetry_equiv_pos_site_id
 _symmetry_equiv_pos_as_xyz
  1  'x, y, z'
loop_
 _atom_site_type_symbol
 _atom_site_label
 _atom_site_symmetry_multiplicity
 _atom_site_fract_x
 _atom_site_fract_y
 _atom_site_fract_z
 _atom_site_occupancy
  C  C0  1  0.13228500  0.41352300  0.41454600  1
  C  C1  1  0.63228500  0.08647700  0.58545400  1
  C  C2  1  0.86771500  0.58647700  0.58545400  1
  C  C3  1  0.36771500  0.91352300  0.41454600  1
  Ni  Ni4  1  0.12681300  0.72784100  0.73805700  1
  Ni  Ni5  1  0.62681300  0.77215900  0.26194300  1
  Ni  Ni6  1  0.87318700  0.27215900  0.26194300  1
  Ni  Ni7  1  0.37318700  0.22784100  0.73805700  1
  Cu  Cu8  1  0.13831200  0.10207300  0.12289300  1
  Cu  Cu9  1  0.63831200  0.39792700  0.87710700  1
  Cu  Cu10  1  0.86168800  0.89792700  0.87710700  1
  Cu  Cu11  1  0.36168800  0.60207300  0.12289300  1
  C  C12  1  0.22106800  0.66930000  0.57072400  1
  C  C13  1  0.72106800  0.83070000  0.42927600  1
  C  C14  1  0.77893200  0.33070000  0.42927600  1
  C  C15  1  0.27893200  0.16930000  0.57072400  1
  C  C16  1  0.21842500  0.13109300  0.25210600  1
  C  C17  1  0.71842500  0.36890700  0.74789400  1
  C  C18  1  0.78157500  0.86890700  0.74789400  1
  C  C19  1  0.28157500  0.63109300  0.25210600  1
  C  C20  1  0.04147100  0.54414100  0.62924300  1
  C  C21  1  0.54147100  0.95585900  0.37075700  1
  C  C22  1  0.95852900  0.45585900  0.37075700  1
  C  C23  1  0.45852900  0.04414100  0.62924300  1
  C  C24  1  0.06498900  0.29369200  0.14292400  1
  C  C25  1  0.56498900  0.20630800  0.85707600  1
  C  C26  1  0.93501100  0.70630800  0.85707600  1
  C  C27  1  0.43501100  0.79369200  0.14292400  1
  C  C28  1  0.17332900  0.17151200  0.93148000  1
  C  C29  1  0.67332900  0.32848800  0.06852000  1
  C  C30  1  0.82667100  0.82848800  0.06852000  1
  C  C31  1  0.32667100  0.67151200  0.93148000  1
  C  C32  1  0.09780000  0.84213500  0.18804700  1
  C  C33  1  0.59780000  0.65786500  0.81195300  1
  C  C34  1  0.90220000  0.15786500  0.81195300  1
  C  C35  1  0.40220000  0.34213500  0.18804700  1
  C  C36  1  0.08610700  0.05291200  0.58048000  1
  C  C37  1  0.58610700  0.44708800  0.41952000  1
  C  C38  1  0.91389300  0.94708800  0.41952000  1
  C  C39  1  0.41389300  0.55291200  0.58048000  1
