# generated using pymatgen
data_Cu2NiC9
_symmetry_space_group_name_H-M   'P 1'
_cell_length_a   11.78172722
_cell_length_b   11.78172722
_cell_length_c   11.78172722
_cell_angle_alpha   150.15036273
_cell_angle_beta   149.02853932
_cell_angle_gamma   43.55125339
_symmetry_Int_Tables_number   1
_chemical_formula_structural   Cu2NiC9
_chemical_formula_sum   'Cu4 Ni2 C18'
_cell_volume   417.74233436
_cell_formula_units_Z   2
loop_
 _symmetry_equiv_pos_site_id
 _symmetry_equiv_pos_as_xyz
  1  'x, y, z'
loop_
 _atom_site_type_symbol
 _atom_site_label
 _atom_site_symmetry_multiplicity
 _atom_site_fract_x
 _atom_site_fract_y
 _atom_site_fract_z
 _atom_site_occupancy
  C  C0  1  0.37757300  0.84522700  0.53067800  1
  C  C1  1  0.62242700  0.15310600  0.46765400  1
  C  C2  1  0.81454900  0.34522700  0.46765400  1
  C  C3  1  0.18545100  0.65310600  0.53067800  1
  Ni  Ni4  1  0.84491700  0.70720100  0.05211800  1
  Ni  Ni5  1  0.15508300  0.20720100  0.86228400  1
  Cu  Cu6  1  0.58645100  0.57960800  0.00937000  1
  Cu  Cu7  1  0.92976200  0.92292000  0.00937000  1
  Cu  Cu8  1  0.07023800  0.07960800  0.99315700  1
  Cu  Cu9  1  0.41354900  0.42292000  0.99315700  1
  C  C10  1  0.67264600  0.66530100  0.50309500  1
  C  C11  1  0.90715200  0.39084400  0.79799600  1
  C  C12  1  0.66220600  0.16530100  0.99265500  1
  C  C13  1  0.24494500  0.19439300  0.07922600  1
  C  C14  1  0.85520300  0.85750600  0.50593900  1
  C  C15  1  0.85156800  0.35750600  0.00230400  1
  C  C16  1  0.09284800  0.89084400  0.48369200  1
  C  C17  1  0.33779400  0.33044800  0.50309500  1
  C  C18  1  0.32735400  0.83044800  0.99265500  1
  C  C19  1  0.61516700  0.69439300  0.94944800  1
  C  C20  1  0.75505500  0.83428100  0.94944800  1
  C  C21  1  0.38483300  0.33428100  0.07922600  1
  C  C22  1  0.14479700  0.65073600  0.00230400  1
  C  C23  1  0.14843200  0.15073600  0.50593900  1
