# generated using pymatgen
data_Cu7Ni4C53
_symmetry_space_group_name_H-M   'P 1'
_cell_length_a   7.07898600
_cell_length_b   9.49647981
_cell_length_c   11.81272878
_cell_angle_alpha   82.41060667
_cell_angle_beta   86.87868214
_cell_angle_gamma   85.20437716
_symmetry_Int_Tables_number   1
_chemical_formula_structural   Cu7Ni4C53
_chemical_formula_sum   'Cu7 Ni4 C53'
_cell_volume   783.64606394
_cell_formula_units_Z   1
loop_
 _symmetry_equiv_pos_site_id
 _symmetry_equiv_pos_as_xyz
  1  'x, y, z'
loop_
 _atom_site_type_symbol
 _atom_site_label
 _atom_site_symmetry_multiplicity
 _atom_site_fract_x
 _atom_site_fract_y
 _atom_site_fract_z
 _atom_site_occupancy
  Ni  Ni0  1  0.34082600  0.59948700  0.84849600  1
  Ni  Ni1  1  0.34222700  0.09843500  0.35060800  1
  Ni  Ni2  1  0.65785300  0.40170900  0.14963600  1
  Ni  Ni3  1  0.65748100  0.90152600  0.64918500  1
  Cu  Cu4  1  0.14203900  0.27818300  0.86919400  1
  Cu  Cu5  1  0.14239600  0.77459700  0.37348800  1
  Cu  Cu6  1  0.85781100  0.72299500  0.12878500  1
  Cu  Cu7  1  0.85925900  0.22458500  0.62909000  1
  Cu  Cu8  1  0.14063900  0.03383200  0.11843800  1
  Cu  Cu9  1  0.86021100  0.46666000  0.38336900  1
  Cu  Cu10  1  0.85957500  0.96556900  0.88128000  1
  C  C11  1  0.14482100  0.53526300  0.61940600  1
  C  C12  1  0.14391100  0.40706300  0.14356800  1
  C  C13  1  0.14449100  0.90332000  0.64403000  1
  C  C14  1  0.85659100  0.59381000  0.85336400  1
  C  C15  1  0.85589100  0.09336300  0.35697600  1
  C  C16  1  0.33626600  0.68885700  0.09148400  1
  C  C17  1  0.33528300  0.18939000  0.59133700  1
  C  C18  1  0.66474600  0.31113200  0.90808200  1
  C  C19  1  0.66373700  0.81096100  0.40829600  1
  C  C20  1  0.34632000  0.41752000  0.37257900  1
  C  C21  1  0.34697700  0.91732600  0.87000500  1
  C  C22  1  0.65096600  0.58315700  0.62975700  1
  C  C23  1  0.65335200  0.08295700  0.12997300  1
  C  C24  1  0.53275100  0.59514900  0.23794300  1
  C  C25  1  0.53273200  0.09538000  0.73757400  1
  C  C26  1  0.46507300  0.40480500  0.76152500  1
  C  C27  1  0.46663600  0.90463200  0.26234200  1
  C  C28  1  0.17372400  0.77315500  0.16337400  1
  C  C29  1  0.17396700  0.27815700  0.66109000  1
  C  C30  1  0.82669800  0.22545900  0.83684100  1
  C  C31  1  0.82651800  0.72632500  0.33684200  1
  C  C32  1  0.26914500  0.53297500  0.06582500  1
  C  C33  1  0.26708200  0.03224500  0.56706500  1
  C  C34  1  0.73603000  0.46601100  0.93263300  1
  C  C35  1  0.73093000  0.96682900  0.43387100  1
  C  C36  1  0.54145700  0.65509600  0.15431200  1
  C  C37  1  0.54054700  0.15555100  0.65432200  1
  C  C38  1  0.45927500  0.34605300  0.84513800  1
  C  C39  1  0.45820900  0.84460500  0.34571100  1
  C  C40  1  0.38653200  0.77309100  0.96420000  1
  C  C41  1  0.38807600  0.27095200  0.46357000  1
  C  C42  1  0.61335800  0.22744800  0.03559400  1
  C  C43  1  0.61320200  0.72730600  0.53548800  1
  C  C44  1  0.54270600  0.48995200  0.33496500  1
  C  C45  1  0.54397000  0.98923000  0.83421600  1
  C  C46  1  0.45087900  0.51187700  0.66273200  1
  C  C47  1  0.45633600  0.01105900  0.16585100  1
  C  C48  1  0.17860700  0.52144600  0.42596700  1
  C  C49  1  0.17782800  0.02364300  0.91774800  1
  C  C50  1  0.82536900  0.47878800  0.58413100  1
  C  C51  1  0.82211500  0.97691300  0.08164200  1
  C  C52  1  0.05501500  0.52047600  0.80261300  1
  C  C53  1  0.05516100  0.01737000  0.31237900  1
  C  C54  1  0.94458200  0.48234600  0.18875200  1
  C  C55  1  0.94496900  0.98031500  0.68748800  1
  C  C56  1  0.27489200  0.35041700  0.25860200  1
  C  C57  1  0.27796300  0.84725500  0.75751400  1
  C  C58  1  0.71547700  0.65250000  0.74397600  1
  C  C59  1  0.72308200  0.15221100  0.24301100  1
  C  C60  1  0.12662500  0.27941000  0.06814000  1
  C  C61  1  0.12800000  0.77089600  0.57245900  1
  C  C62  1  0.87720400  0.71957000  0.93028600  1
  C  C63  1  0.87360800  0.22140400  0.43184000  1
