# generated using pymatgen
data_CuNiC
_symmetry_space_group_name_H-M   'P 1'
_cell_length_a   4.35750100
_cell_length_b   7.02796500
_cell_length_c   7.62019800
_cell_angle_alpha   90.00000000
_cell_angle_beta   90.00000000
_cell_angle_gamma   90.00000000
_symmetry_Int_Tables_number   1
_chemical_formula_structural   CuNiC
_chemical_formula_sum   'Cu4 Ni4 C4'
_cell_volume   233.36372123
_cell_formula_units_Z   4
loop_
 _symmetry_equiv_pos_site_id
 _symmetry_equiv_pos_as_xyz
  1  'x, y, z'
loop_
 _atom_site_type_symbol
 _atom_site_label
 _atom_site_symmetry_multiplicity
 _atom_site_fract_x
 _atom_site_fract_y
 _atom_site_fract_z
 _atom_site_occupancy
  C  C0  1  0.25000000  0.50265600  0.70274100  1
  C  C1  1  0.25000000  0.00265600  0.79725900  1
  C  C2  1  0.75000000  0.49734400  0.29725900  1
  C  C3  1  0.75000000  0.99734400  0.20274100  1
  Ni  Ni4  1  0.25000000  0.81037700  0.40948500  1
  Ni  Ni5  1  0.25000000  0.31037700  0.09051500  1
  Ni  Ni6  1  0.75000000  0.18962300  0.59051500  1
  Ni  Ni7  1  0.75000000  0.68962300  0.90948500  1
  Cu  Cu8  1  0.25000000  0.20442200  0.41651200  1
  Cu  Cu9  1  0.25000000  0.70442200  0.08348800  1
  Cu  Cu10  1  0.75000000  0.79557800  0.58348800  1
  Cu  Cu11  1  0.75000000  0.29557800  0.91651200  1
