# generated using pymatgen
data_CuNiC6
_symmetry_space_group_name_H-M   'P 1'
_cell_length_a   4.35546200
_cell_length_b   6.05856000
_cell_length_c   13.32130500
_cell_angle_alpha   90.00000000
_cell_angle_beta   90.00000000
_cell_angle_gamma   90.00000000
_symmetry_Int_Tables_number   1
_chemical_formula_structural   CuNiC6
_chemical_formula_sum   'Cu2 Ni2 C12'
_cell_volume   351.52030314
_cell_formula_units_Z   2
loop_
 _symmetry_equiv_pos_site_id
 _symmetry_equiv_pos_as_xyz
  1  'x, y, z'
loop_
 _atom_site_type_symbol
 _atom_site_label
 _atom_site_symmetry_multiplicity
 _atom_site_fract_x
 _atom_site_fract_y
 _atom_site_fract_z
 _atom_site_occupancy
  C  C0  1  0.00000000  0.75847400  0.05662600  1
  C  C1  1  0.00000000  0.24152600  0.05662600  1
  C  C2  1  0.00000000  0.00000000  0.32020600  1
  C  C3  1  0.50000000  0.27878000  0.39878300  1
  C  C4  1  0.50000000  0.72122000  0.39878300  1
  C  C5  1  0.50000000  0.00000000  0.17830400  1
  C  C6  1  0.00000000  0.25847400  0.55662600  1
  C  C7  1  0.00000000  0.74152600  0.55662600  1
  C  C8  1  0.00000000  0.50000000  0.82020600  1
  C  C9  1  0.50000000  0.77878000  0.89878300  1
  C  C10  1  0.50000000  0.22122000  0.89878300  1
  C  C11  1  0.50000000  0.50000000  0.67830400  1
  Ni  Ni12  1  0.50000000  0.50000000  0.16224000  1
  Ni  Ni13  1  0.50000000  0.00000000  0.66224000  1
  Cu  Cu14  1  0.00000000  0.50000000  0.42843200  1
  Cu  Cu15  1  0.00000000  0.00000000  0.92843200  1
