# generated using pymatgen
data_Cu2Ni2C15
_symmetry_space_group_name_H-M   'P 1'
_cell_length_a   12.44940600
_cell_length_b   6.23248300
_cell_length_c   9.75202267
_cell_angle_alpha   67.38601575
_cell_angle_beta   90.00000000
_cell_angle_gamma   90.00000000
_symmetry_Int_Tables_number   1
_chemical_formula_structural   Cu2Ni2C15
_chemical_formula_sum   'Cu4 Ni4 C30'
_cell_volume   698.49113558
_cell_formula_units_Z   2
loop_
 _symmetry_equiv_pos_site_id
 _symmetry_equiv_pos_as_xyz
  1  'x, y, z'
loop_
 _atom_site_type_symbol
 _atom_site_label
 _atom_site_symmetry_multiplicity
 _atom_site_fract_x
 _atom_site_fract_y
 _atom_site_fract_z
 _atom_site_occupancy
  C  C0  1  0.50000000  0.50000000  0.50000000  1
  C  C1  1  0.00000000  0.50000000  0.00000000  1
  Ni  Ni2  1  0.39415700  0.70830700  0.92355500  1
  Ni  Ni3  1  0.60584300  0.29169300  0.07644500  1
  Ni  Ni4  1  0.89415700  0.29169300  0.57644500  1
  Ni  Ni5  1  0.10584300  0.70830700  0.42355500  1
  Cu  Cu6  1  0.71353100  0.89464700  0.79825900  1
  Cu  Cu7  1  0.28646900  0.10535300  0.20174100  1
  Cu  Cu8  1  0.21353100  0.10535300  0.70174100  1
  Cu  Cu9  1  0.78646900  0.89464700  0.29825900  1
  C  C10  1  0.09897700  0.42232500  0.89221400  1
  C  C11  1  0.90102300  0.57767500  0.10778600  1
  C  C12  1  0.59897700  0.57767500  0.60778600  1
  C  C13  1  0.40102300  0.42232500  0.39221400  1
  C  C14  1  0.39545200  0.37340700  0.63591800  1
  C  C15  1  0.60454800  0.62659300  0.36408200  1
  C  C16  1  0.89545200  0.62659300  0.86408200  1
  C  C17  1  0.10454800  0.37340700  0.13591800  1
  C  C18  1  0.33861300  0.50261500  0.92953600  1
  C  C19  1  0.66138700  0.49738500  0.07046400  1
  C  C20  1  0.83861300  0.49738500  0.57046400  1
  C  C21  1  0.16138700  0.50261500  0.42953600  1
  C  C22  1  0.44352600  0.85961000  0.78777700  1
  C  C23  1  0.55647400  0.14039000  0.21222300  1
  C  C24  1  0.94352600  0.14039000  0.71222300  1
  C  C25  1  0.05647400  0.85961000  0.28777700  1
  C  C26  1  0.09820600  0.75925600  0.55513900  1
  C  C27  1  0.90179400  0.24074400  0.44486100  1
  C  C28  1  0.59820600  0.24074400  0.94486100  1
  C  C29  1  0.40179400  0.75925600  0.05513900  1
  C  C30  1  0.21087000  0.02935600  0.82746700  1
  C  C31  1  0.78913000  0.97064400  0.17253300  1
  C  C32  1  0.71087000  0.97064400  0.67253300  1
  C  C33  1  0.28913000  0.02935600  0.32746700  1
  C  C34  1  0.44087700  0.75325400  0.51609500  1
  C  C35  1  0.55912300  0.24674600  0.48390500  1
  C  C36  1  0.94087700  0.24674600  0.98390500  1
  C  C37  1  0.05912300  0.75325400  0.01609500  1
