# generated using pymatgen
data_Cu2Ni10C11
_symmetry_space_group_name_H-M   'P 1'
_cell_length_a   8.21463043
_cell_length_b   8.21463043
_cell_length_c   10.97082745
_cell_angle_alpha   58.09927254
_cell_angle_beta   58.09927254
_cell_angle_gamma   55.89538251
_symmetry_Int_Tables_number   1
_chemical_formula_structural   Cu2Ni10C11
_chemical_formula_sum   'Cu4 Ni20 C22'
_cell_volume   491.21088922
_cell_formula_units_Z   2
loop_
 _symmetry_equiv_pos_site_id
 _symmetry_equiv_pos_as_xyz
  1  'x, y, z'
loop_
 _atom_site_type_symbol
 _atom_site_label
 _atom_site_symmetry_multiplicity
 _atom_site_fract_x
 _atom_site_fract_y
 _atom_site_fract_z
 _atom_site_occupancy
  C  C0  1  0.03414700  0.96585300  0.25000000  1
  C  C1  1  0.96585300  0.03414700  0.75000000  1
  Ni  Ni2  1  0.95244300  0.41659300  0.76828600  1
  Ni  Ni3  1  0.58340700  0.04755700  0.73171400  1
  Ni  Ni4  1  0.04755700  0.58340700  0.23171400  1
  Ni  Ni5  1  0.41659300  0.95244300  0.26828600  1
  Ni  Ni6  1  0.62976400  0.24911600  0.33393400  1
  Ni  Ni7  1  0.75088400  0.37023600  0.16606600  1
  Ni  Ni8  1  0.37023600  0.75088400  0.66606600  1
  Ni  Ni9  1  0.24911600  0.62976400  0.83393400  1
  Ni  Ni10  1  0.31835600  0.56941400  0.33694200  1
  Ni  Ni11  1  0.43058600  0.68164400  0.16305800  1
  Ni  Ni12  1  0.68164400  0.43058600  0.66305800  1
  Ni  Ni13  1  0.56941400  0.31835600  0.83694200  1
  Ni  Ni14  1  0.29359200  0.26319500  0.47497600  1
  Ni  Ni15  1  0.73680500  0.70640800  0.02502400  1
  Ni  Ni16  1  0.70640800  0.73680500  0.52502400  1
  Ni  Ni17  1  0.26319500  0.29359200  0.97497600  1
  Ni  Ni18  1  0.39763500  0.26244700  0.56252700  1
  Ni  Ni19  1  0.73755300  0.60236500  0.93747300  1
  Ni  Ni20  1  0.60236500  0.73755300  0.43747300  1
  Ni  Ni21  1  0.26244700  0.39763500  0.06252700  1
  Cu  Cu22  1  0.98936100  0.74479300  0.60694800  1
  Cu  Cu23  1  0.25520700  0.01063900  0.89305200  1
  Cu  Cu24  1  0.01063900  0.25520700  0.39305200  1
  Cu  Cu25  1  0.74479300  0.98936100  0.10694800  1
  C  C26  1  0.94079200  0.83788900  0.18368600  1
  C  C27  1  0.16211100  0.05920800  0.31631400  1
  C  C28  1  0.05920800  0.16211000  0.81631400  1
  C  C29  1  0.83788900  0.94079200  0.68368600  1
  C  C30  1  0.88397500  0.82687800  0.47618400  1
  C  C31  1  0.17312200  0.11602500  0.02381600  1
  C  C32  1  0.11602500  0.17312200  0.52381600  1
  C  C33  1  0.82687800  0.88397500  0.97618400  1
  C  C34  1  0.86171000  0.56894400  0.76133700  1
  C  C35  1  0.43105600  0.13829000  0.73866300  1
  C  C36  1  0.13829000  0.43105600  0.23866300  1
  C  C37  1  0.56894400  0.86171000  0.26133700  1
  C  C38  1  0.76661000  0.23339000  0.25000000  1
  C  C39  1  0.23339000  0.76661000  0.75000000  1
  C  C40  1  0.29874500  0.70125500  0.25000000  1
  C  C41  1  0.70125500  0.29874500  0.75000000  1
  C  C42  1  0.38485600  0.32018600  0.46091900  1
  C  C43  1  0.67981400  0.61514400  0.03908100  1
  C  C44  1  0.61514400  0.67981400  0.53908100  1
  C  C45  1  0.32018600  0.38485600  0.96091900  1
