# generated using pymatgen
data_CuNiC8
_symmetry_space_group_name_H-M   'P 1'
_cell_length_a   5.68314033
_cell_length_b   5.68314033
_cell_length_c   27.91401300
_cell_angle_alpha   90.00000000
_cell_angle_beta   90.00000000
_cell_angle_gamma   120.00000390
_symmetry_Int_Tables_number   1
_chemical_formula_structural   CuNiC8
_chemical_formula_sum   'Cu6 Ni6 C48'
_cell_volume   780.78174654
_cell_formula_units_Z   6
loop_
 _symmetry_equiv_pos_site_id
 _symmetry_equiv_pos_as_xyz
  1  'x, y, z'
loop_
 _atom_site_type_symbol
 _atom_site_label
 _atom_site_symmetry_multiplicity
 _atom_site_fract_x
 _atom_site_fract_y
 _atom_site_fract_z
 _atom_site_occupancy
  C  C0  1  0.66666700  0.33333300  0.03086000  1
  C  C1  1  0.33333300  0.66666700  0.21191000  1
  C  C2  1  0.00000000  0.00000000  0.37526000  1
  C  C3  1  0.00000000  0.00000000  0.12420800  1
  C  C4  1  0.66666700  0.33333300  0.54214800  1
  C  C5  1  0.33333300  0.66666700  0.70724000  1
  C  C6  1  0.66666700  0.33333300  0.29261600  1
  C  C7  1  0.33333300  0.66666700  0.45857800  1
  C  C8  1  0.00000000  0.00000000  0.88890900  1
  C  C9  1  0.00000000  0.00000000  0.62436400  1
  C  C10  1  0.66666700  0.33333300  0.79169500  1
  C  C11  1  0.33333300  0.66666700  0.95791500  1
  Ni  Ni12  1  0.66666700  0.33333300  0.16941400  1
  Ni  Ni13  1  0.33333300  0.66666700  0.08141300  1
  Ni  Ni14  1  0.33333300  0.66666700  0.33343100  1
  Ni  Ni15  1  0.66666700  0.33333300  0.66634900  1
  Ni  Ni16  1  0.00000000  0.00000000  0.50029600  1
  Ni  Ni17  1  0.33333300  0.66666700  0.83187200  1
  Cu  Cu18  1  0.00000000  0.00000000  0.99955300  1
  Cu  Cu19  1  0.00000000  0.00000000  0.25002000  1
  Cu  Cu20  1  0.66666700  0.33333300  0.41709300  1
  Cu  Cu21  1  0.33333300  0.66666700  0.58327400  1
  Cu  Cu22  1  0.00000000  0.00000000  0.75018700  1
  Cu  Cu23  1  0.66666700  0.33333300  0.91774400  1
  C  C24  1  0.17103900  0.82896100  0.04200100  1
  C  C25  1  0.00231500  0.50115800  0.12581600  1
  C  C26  1  0.17103900  0.34207700  0.04200100  1
  C  C27  1  0.49884200  0.99768500  0.12581600  1
  C  C28  1  0.65792300  0.82896100  0.04200100  1
  C  C29  1  0.49884200  0.50115800  0.12581600  1
  C  C30  1  0.82825000  0.17175000  0.20889300  1
  C  C31  1  0.66032200  0.83016100  0.29206700  1
  C  C32  1  0.82825000  0.65650000  0.20889300  1
  C  C33  1  0.16983900  0.33967800  0.29206700  1
  C  C34  1  0.34350000  0.17175000  0.20889300  1
  C  C35  1  0.16983900  0.83016100  0.29206700  1
  C  C36  1  0.49772700  0.50227300  0.37434500  1
  C  C37  1  0.32769700  0.16384900  0.45901000  1
  C  C38  1  0.49772700  0.99545400  0.37434500  1
  C  C39  1  0.83615100  0.67230300  0.45901000  1
  C  C40  1  0.00454600  0.50227300  0.37434500  1
  C  C41  1  0.16415000  0.83585000  0.54121400  1
  C  C42  1  0.83615100  0.16384900  0.45901000  1
  C  C43  1  0.99478700  0.49739300  0.62537000  1
  C  C44  1  0.16415000  0.32830000  0.54121400  1
  C  C45  1  0.50260700  0.00521300  0.62537000  1
  C  C46  1  0.67170000  0.83585000  0.54121400  1
  C  C47  1  0.50260700  0.49739300  0.62537000  1
  C  C48  1  0.66162300  0.83081200  0.79215700  1
  C  C49  1  0.83066200  0.16933800  0.70773300  1
  C  C50  1  0.83066200  0.66132400  0.70773300  1
  C  C51  1  0.16918800  0.33837700  0.79215700  1
  C  C52  1  0.33867600  0.16933800  0.70773300  1
  C  C53  1  0.16918800  0.83081200  0.79215700  1
  C  C54  1  0.49778300  0.50221700  0.87387700  1
  C  C55  1  0.32585600  0.16292800  0.95540000  1
  C  C56  1  0.49778300  0.99556600  0.87387700  1
  C  C57  1  0.83707200  0.67414400  0.95540000  1
  C  C58  1  0.00443400  0.50221700  0.87387700  1
  C  C59  1  0.83707200  0.16292800  0.95540000  1
