# generated using pymatgen
data_CuNi4C3
_symmetry_space_group_name_H-M   'P 1'
_cell_length_a   9.10611039
_cell_length_b   9.36763355
_cell_length_c   9.75668099
_cell_angle_alpha   89.56197871
_cell_angle_beta   88.50583145
_cell_angle_gamma   98.44076117
_symmetry_Int_Tables_number   1
_chemical_formula_structural   CuNi4C3
_chemical_formula_sum   'Cu8 Ni32 C24'
_cell_volume   822.92094016
_cell_formula_units_Z   8
loop_
 _symmetry_equiv_pos_site_id
 _symmetry_equiv_pos_as_xyz
  1  'x, y, z'
loop_
 _atom_site_type_symbol
 _atom_site_label
 _atom_site_symmetry_multiplicity
 _atom_site_fract_x
 _atom_site_fract_y
 _atom_site_fract_z
 _atom_site_occupancy
  C  C0  1  0.00000000  0.25000000  0.75000100  1
  C  C1  1  0.99999900  0.75000000  0.25000000  1
  C  C2  1  0.01810900  0.85130800  0.88680900  1
  C  C3  1  0.01811000  0.35130800  0.38680900  1
  C  C4  1  0.98189100  0.14869300  0.11319000  1
  C  C5  1  0.98189000  0.64869100  0.61318800  1
  C  C6  1  0.33936100  0.37715600  0.11690500  1
  C  C7  1  0.33936400  0.87715200  0.61690400  1
  C  C8  1  0.66063600  0.62284600  0.88309300  1
  C  C9  1  0.66063700  0.12284700  0.38309400  1
  C  C10  1  0.00004300  0.49996100  0.00002100  1
  C  C11  1  0.35701100  0.28373800  0.55573400  1
  C  C12  1  0.64298000  0.71625800  0.44427400  1
  C  C13  1  0.99999700  0.00003400  0.49996400  1
  C  C14  1  0.35702200  0.78374300  0.05573100  1
  C  C15  1  0.64298600  0.21624500  0.94429100  1
  C  C16  1  0.29818400  0.58895400  0.36629600  1
  C  C17  1  0.29818600  0.08895400  0.86629000  1
  C  C18  1  0.70181400  0.41104500  0.63370400  1
  C  C19  1  0.70181400  0.91104600  0.13370900  1
  C  C20  1  0.28062100  0.54653300  0.79871400  1
  C  C21  1  0.28062100  0.04654600  0.29872100  1
  C  C22  1  0.71937300  0.45346100  0.20128900  1
  C  C23  1  0.71937600  0.95345600  0.70127900  1
  Ni  Ni24  1  0.21748700  0.66198400  0.72966000  1
  Ni  Ni25  1  0.21749000  0.16197700  0.22966200  1
  Ni  Ni26  1  0.78251200  0.33801900  0.27033700  1
  Ni  Ni27  1  0.78251000  0.83802400  0.77033700  1
  Ni  Ni28  1  0.31515200  0.43455800  0.39293500  1
  Ni  Ni29  1  0.31515600  0.93455100  0.89294400  1
  Ni  Ni30  1  0.68484700  0.56544300  0.60706400  1
  Ni  Ni31  1  0.68484400  0.06545000  0.10705600  1
  Ni  Ni32  1  0.33714200  0.61832600  0.21833500  1
  Ni  Ni33  1  0.33714200  0.11831800  0.71834000  1
  Ni  Ni34  1  0.66285900  0.38167400  0.78166600  1
  Ni  Ni35  1  0.66285800  0.88168300  0.28166000  1
  Ni  Ni36  1  0.59950000  0.81170600  0.04748400  1
  Ni  Ni37  1  0.59950700  0.31170100  0.54748600  1
  Ni  Ni38  1  0.40049700  0.18829500  0.95251500  1
  Ni  Ni39  1  0.40049100  0.68830000  0.45251500  1
  Ni  Ni40  1  0.34972400  0.45377600  0.70411800  1
  Ni  Ni41  1  0.34972900  0.95376200  0.20410400  1
  Ni  Ni42  1  0.65027500  0.54622500  0.29588100  1
  Ni  Ni43  1  0.65027000  0.04623800  0.79589400  1
  Ni  Ni44  1  0.15444600  0.44550500  0.87352200  1
  Ni  Ni45  1  0.15444800  0.94549700  0.37351900  1
  Ni  Ni46  1  0.84554700  0.55450200  0.12648200  1
  Ni  Ni47  1  0.84555000  0.05450400  0.62648200  1
  Ni  Ni48  1  0.38894400  0.60555200  0.90413700  1
  Ni  Ni49  1  0.38894400  0.10554300  0.40413200  1
  Ni  Ni50  1  0.61105700  0.39445000  0.09586000  1
  Ni  Ni51  1  0.61105500  0.89445800  0.59586600  1
  Ni  Ni52  1  0.14132400  0.10780800  0.89840300  1
  Ni  Ni53  1  0.14132300  0.60781400  0.39840400  1
  Ni  Ni54  1  0.85867600  0.89219200  0.10159600  1
  Ni  Ni55  1  0.85867600  0.39218700  0.60159700  1
  Cu  Cu56  1  0.91855200  0.60126500  0.85934300  1
  Cu  Cu57  1  0.91855500  0.10125700  0.35935000  1
  Cu  Cu58  1  0.08143900  0.39874400  0.14064700  1
  Cu  Cu59  1  0.08144800  0.89873700  0.64065700  1
  Cu  Cu60  1  0.12159700  0.70975600  0.04748200  1
  Cu  Cu61  1  0.12158700  0.20975500  0.54748500  1
  Cu  Cu62  1  0.87840100  0.29024400  0.95251700  1
  Cu  Cu63  1  0.87841100  0.79024500  0.45251500  1
