# generated using pymatgen
data_Cu4NiC13
_symmetry_space_group_name_H-M   'P 1'
_cell_length_a   13.37596300
_cell_length_b   13.37596300
_cell_length_c   13.37596300
_cell_angle_alpha   90.00000000
_cell_angle_beta   90.00000000
_cell_angle_gamma   90.00000000
_symmetry_Int_Tables_number   1
_chemical_formula_structural   Cu4NiC13
_chemical_formula_sum   'Cu16 Ni4 C52'
_cell_volume   2393.17896160
_cell_formula_units_Z   4
loop_
 _symmetry_equiv_pos_site_id
 _symmetry_equiv_pos_as_xyz
  1  'x, y, z'
loop_
 _atom_site_type_symbol
 _atom_site_label
 _atom_site_symmetry_multiplicity
 _atom_site_fract_x
 _atom_site_fract_y
 _atom_site_fract_z
 _atom_site_occupancy
  Ni  Ni0  1  0.50000000  0.50000000  0.00000000  1
  Ni  Ni1  1  0.50000000  0.00000000  0.50000000  1
  Ni  Ni2  1  0.00000000  0.50000000  0.50000000  1
  Ni  Ni3  1  0.00000000  0.00000000  0.00000000  1
  C  C4  1  0.44849600  0.68706600  0.70376000  1
  C  C5  1  0.55150400  0.18706600  0.79624000  1
  C  C6  1  0.05150400  0.31293400  0.20376000  1
  C  C7  1  0.94849600  0.81293400  0.29624000  1
  C  C8  1  0.70376000  0.44849600  0.68706600  1
  C  C9  1  0.79624000  0.55150400  0.18706600  1
  C  C10  1  0.20376000  0.05150400  0.31293400  1
  C  C11  1  0.29624000  0.94849600  0.81293400  1
  C  C12  1  0.68706600  0.70376000  0.44849600  1
  C  C13  1  0.18706600  0.79624000  0.55150400  1
  C  C14  1  0.31293400  0.20376000  0.05150400  1
  C  C15  1  0.81293400  0.29624000  0.94849600  1
  C  C16  1  0.55150400  0.31293400  0.29624000  1
  C  C17  1  0.44849600  0.81293400  0.20376000  1
  C  C18  1  0.94849600  0.68706600  0.79624000  1
  C  C19  1  0.05150400  0.18706600  0.70376000  1
  C  C20  1  0.29624000  0.55150400  0.31293400  1
  C  C21  1  0.20376000  0.44849600  0.81293400  1
  C  C22  1  0.79624000  0.94849600  0.68706600  1
  C  C23  1  0.70376000  0.05150400  0.18706600  1
  C  C24  1  0.31293400  0.29624000  0.55150400  1
  C  C25  1  0.81293400  0.20376000  0.44849600  1
  C  C26  1  0.68706600  0.79624000  0.94849600  1
  C  C27  1  0.18706600  0.70376000  0.05150400  1
  Cu  Cu28  1  0.63328300  0.63328300  0.63328300  1
  Cu  Cu29  1  0.36671700  0.13328300  0.86671700  1
  Cu  Cu30  1  0.86671700  0.36671700  0.13328300  1
  Cu  Cu31  1  0.13328300  0.86671700  0.36671700  1
  Cu  Cu32  1  0.36671700  0.36671700  0.36671700  1
  Cu  Cu33  1  0.63328300  0.86671700  0.13328300  1
  Cu  Cu34  1  0.13328300  0.63328300  0.86671700  1
  Cu  Cu35  1  0.86671700  0.13328300  0.63328300  1
  Cu  Cu36  1  0.26178400  0.76178400  0.73821600  1
  Cu  Cu37  1  0.73821600  0.26178400  0.76178400  1
  Cu  Cu38  1  0.23821600  0.23821600  0.23821600  1
  Cu  Cu39  1  0.76178400  0.73821600  0.26178400  1
  Cu  Cu40  1  0.73821600  0.23821600  0.26178400  1
  Cu  Cu41  1  0.26178400  0.73821600  0.23821600  1
  Cu  Cu42  1  0.76178400  0.76178400  0.76178400  1
  Cu  Cu43  1  0.23821600  0.26178400  0.73821600  1
  C  C44  1  0.45230800  0.69524600  0.96099000  1
  C  C45  1  0.54769200  0.19524600  0.53901000  1
  C  C46  1  0.04769200  0.30475400  0.46099000  1
  C  C47  1  0.95230800  0.80475400  0.03901000  1
  C  C48  1  0.96099000  0.45230800  0.69524600  1
  C  C49  1  0.53901000  0.54769200  0.19524600  1
  C  C50  1  0.46099000  0.04769200  0.30475400  1
  C  C51  1  0.03901000  0.95230800  0.80475400  1
  C  C52  1  0.69524600  0.96099000  0.45230800  1
  C  C53  1  0.19524600  0.53901000  0.54769200  1
  C  C54  1  0.30475400  0.46099000  0.04769200  1
  C  C55  1  0.80475400  0.03901000  0.95230800  1
  C  C56  1  0.54769200  0.30475400  0.03901000  1
  C  C57  1  0.45230800  0.80475400  0.46099000  1
  C  C58  1  0.95230800  0.69524600  0.53901000  1
  C  C59  1  0.04769200  0.19524600  0.96099000  1
  C  C60  1  0.03901000  0.54769200  0.30475400  1
  C  C61  1  0.46099000  0.45230800  0.80475400  1
  C  C62  1  0.53901000  0.95230800  0.69524600  1
  C  C63  1  0.96099000  0.04769200  0.19524600  1
  C  C64  1  0.30475400  0.03901000  0.54769200  1
  C  C65  1  0.80475400  0.46099000  0.45230800  1
  C  C66  1  0.69524600  0.53901000  0.95230800  1
  C  C67  1  0.19524600  0.96099000  0.04769200  1
  C  C68  1  0.50000000  0.50000000  0.50000000  1
  C  C69  1  0.50000000  0.00000000  0.00000000  1
  C  C70  1  0.00000000  0.50000000  0.00000000  1
  C  C71  1  0.00000000  0.00000000  0.50000000  1
