# generated using pymatgen
data_Cu3NiC
_symmetry_space_group_name_H-M   'P 1'
_cell_length_a   11.58602670
_cell_length_b   11.58602670
_cell_length_c   11.58602740
_cell_angle_alpha   25.39835076
_cell_angle_beta   25.39835076
_cell_angle_gamma   25.39834749
_symmetry_Int_Tables_number   1
_chemical_formula_structural   Cu3NiC
_chemical_formula_sum   'Cu12 Ni4 C4'
_cell_volume   251.83359431
_cell_formula_units_Z   4
loop_
 _symmetry_equiv_pos_site_id
 _symmetry_equiv_pos_as_xyz
  1  'x, y, z'
loop_
 _atom_site_type_symbol
 _atom_site_label
 _atom_site_symmetry_multiplicity
 _atom_site_fract_x
 _atom_site_fract_y
 _atom_site_fract_z
 _atom_site_occupancy
  C  C0  1  0.25000000  0.25000000  0.25000000  1
  C  C1  1  0.75000000  0.75000000  0.75000000  1
  C  C2  1  0.50000000  0.50000000  0.50000000  1
  C  C3  1  0.00000000  0.00000000  0.00000000  1
  Ni  Ni4  1  0.36999500  0.36999500  0.36999500  1
  Ni  Ni5  1  0.86999500  0.86999500  0.86999500  1
  Ni  Ni6  1  0.63000500  0.63000500  0.63000500  1
  Ni  Ni7  1  0.13000500  0.13000500  0.13000500  1
  Cu  Cu8  1  0.25399400  0.66334900  0.19583000  1
  Cu  Cu9  1  0.19583000  0.25399400  0.66334900  1
  Cu  Cu10  1  0.66334900  0.19583000  0.25399400  1
  Cu  Cu11  1  0.69583000  0.16334900  0.75399400  1
  Cu  Cu12  1  0.75399400  0.69583000  0.16334900  1
  Cu  Cu13  1  0.16334900  0.75399400  0.69583000  1
  Cu  Cu14  1  0.74600600  0.33665100  0.80417000  1
  Cu  Cu15  1  0.80417000  0.74600600  0.33665100  1
  Cu  Cu16  1  0.33665100  0.80417000  0.74600600  1
  Cu  Cu17  1  0.30417000  0.83665100  0.24600600  1
  Cu  Cu18  1  0.24600600  0.30417000  0.83665100  1
  Cu  Cu19  1  0.83665100  0.24600600  0.30417000  1
