# generated using pymatgen
data_CuNiC6
_symmetry_space_group_name_H-M   'P 1'
_cell_length_a   11.64807831
_cell_length_b   11.64807831
_cell_length_c   11.64807781
_cell_angle_alpha   14.90384961
_cell_angle_beta   14.90384961
_cell_angle_gamma   14.90385130
_symmetry_Int_Tables_number   1
_chemical_formula_structural   CuNiC6
_chemical_formula_sum   'Cu1 Ni1 C6'
_cell_volume   91.04779860
_cell_formula_units_Z   1
loop_
 _symmetry_equiv_pos_site_id
 _symmetry_equiv_pos_as_xyz
  1  'x, y, z'
loop_
 _atom_site_type_symbol
 _atom_site_label
 _atom_site_symmetry_multiplicity
 _atom_site_fract_x
 _atom_site_fract_y
 _atom_site_fract_z
 _atom_site_occupancy
  Ni  Ni0  1  0.00000000  0.00000000  0.00000000  1
  C  C1  1  0.75151400  0.75151400  0.75151400  1
  C  C2  1  0.24848600  0.24848600  0.24848600  1
  Cu  Cu3  1  0.50000000  0.50000000  0.50000000  1
  C  C4  1  0.19650100  0.19650100  0.19650100  1
  C  C5  1  0.69717300  0.69717300  0.69717300  1
  C  C6  1  0.80349900  0.80349900  0.80349900  1
  C  C7  1  0.30282700  0.30282700  0.30282700  1
