# generated using pymatgen
data_CuNi7C6
_symmetry_space_group_name_H-M   'P 1'
_cell_length_a   10.55641600
_cell_length_b   5.74649100
_cell_length_c   12.51721200
_cell_angle_alpha   90.00000000
_cell_angle_beta   90.00000000
_cell_angle_gamma   90.00000000
_symmetry_Int_Tables_number   1
_chemical_formula_structural   CuNi7C6
_chemical_formula_sum   'Cu4 Ni28 C24'
_cell_volume   759.32348956
_cell_formula_units_Z   4
loop_
 _symmetry_equiv_pos_site_id
 _symmetry_equiv_pos_as_xyz
  1  'x, y, z'
loop_
 _atom_site_type_symbol
 _atom_site_label
 _atom_site_symmetry_multiplicity
 _atom_site_fract_x
 _atom_site_fract_y
 _atom_site_fract_z
 _atom_site_occupancy
  Ni  Ni0  1  0.96987100  0.75285400  0.04254300  1
  Ni  Ni1  1  0.53012900  0.74714600  0.54254300  1
  Ni  Ni2  1  0.46987100  0.74714600  0.95745700  1
  Ni  Ni3  1  0.03012900  0.75285400  0.45745700  1
  Ni  Ni4  1  0.03012900  0.24714600  0.95745700  1
  Ni  Ni5  1  0.46987100  0.25285400  0.45745700  1
  Ni  Ni6  1  0.53012900  0.25285400  0.04254300  1
  Ni  Ni7  1  0.96987100  0.24714600  0.54254300  1
  Ni  Ni8  1  0.23986700  0.65249000  0.65573700  1
  Ni  Ni9  1  0.26013300  0.84751000  0.15573700  1
  Ni  Ni10  1  0.73986700  0.84751000  0.34426300  1
  Ni  Ni11  1  0.76013300  0.65249000  0.84426300  1
  Ni  Ni12  1  0.76013300  0.34751000  0.34426300  1
  Ni  Ni13  1  0.73986700  0.15249000  0.84426300  1
  Ni  Ni14  1  0.26013300  0.15249000  0.65573700  1
  Ni  Ni15  1  0.23986700  0.34751000  0.15573700  1
  Ni  Ni16  1  0.20556300  0.68001900  0.92559600  1
  Ni  Ni17  1  0.29443700  0.81998100  0.42559600  1
  Ni  Ni18  1  0.70556300  0.81998100  0.07440400  1
  Ni  Ni19  1  0.79443700  0.68001900  0.57440400  1
  Ni  Ni20  1  0.79443700  0.31998100  0.07440400  1
  Ni  Ni21  1  0.70556300  0.18001900  0.57440400  1
  Ni  Ni22  1  0.29443700  0.18001900  0.92559600  1
  Ni  Ni23  1  0.20556300  0.31998100  0.42559600  1
  Ni  Ni24  1  0.00000000  0.42250300  0.75000000  1
  Ni  Ni25  1  0.50000000  0.07749700  0.25000000  1
  Ni  Ni26  1  0.00000000  0.57749700  0.25000000  1
  Ni  Ni27  1  0.50000000  0.92250300  0.75000000  1
  Cu  Cu28  1  0.00000000  0.91344800  0.75000000  1
  Cu  Cu29  1  0.50000000  0.58655200  0.25000000  1
  Cu  Cu30  1  0.00000000  0.08655200  0.25000000  1
  Cu  Cu31  1  0.50000000  0.41344800  0.75000000  1
  C  C32  1  0.12800900  0.69482600  0.78331600  1
  C  C33  1  0.37199100  0.80517400  0.28331600  1
  C  C34  1  0.62800900  0.80517400  0.21668400  1
  C  C35  1  0.87199100  0.69482600  0.71668400  1
  C  C36  1  0.87199100  0.30517400  0.21668400  1
  C  C37  1  0.62800900  0.19482600  0.71668400  1
  C  C38  1  0.37199100  0.19482600  0.78331600  1
  C  C39  1  0.12800900  0.30517400  0.28331600  1
  C  C40  1  0.17623900  0.61180200  0.50861900  1
  C  C41  1  0.32376100  0.88819800  0.00861900  1
  C  C42  1  0.67623900  0.88819800  0.49138100  1
  C  C43  1  0.82376100  0.61180200  0.99138100  1
  C  C44  1  0.82376100  0.38819800  0.49138100  1
  C  C45  1  0.67623900  0.11180200  0.99138100  1
  C  C46  1  0.32376100  0.11180200  0.50861900  1
  C  C47  1  0.17623900  0.38819800  0.00861900  1
  C  C48  1  0.43018500  0.63742700  0.65498700  1
  C  C49  1  0.06981500  0.86257300  0.15498700  1
  C  C50  1  0.93018500  0.86257300  0.34501300  1
  C  C51  1  0.56981500  0.63742700  0.84501300  1
  C  C52  1  0.56981500  0.36257300  0.34501300  1
  C  C53  1  0.93018500  0.13742700  0.84501300  1
  C  C54  1  0.06981500  0.13742700  0.65498700  1
  C  C55  1  0.43018500  0.36257300  0.15498700  1
