# generated using pymatgen
data_Cu2Ni3C4
_symmetry_space_group_name_H-M   'P 1'
_cell_length_a   6.18763600
_cell_length_b   10.99476900
_cell_length_c   9.88290200
_cell_angle_alpha   90.00000000
_cell_angle_beta   90.00000000
_cell_angle_gamma   90.00000000
_symmetry_Int_Tables_number   1
_chemical_formula_structural   Cu2Ni3C4
_chemical_formula_sum   'Cu8 Ni12 C16'
_cell_volume   672.34991713
_cell_formula_units_Z   4
loop_
 _symmetry_equiv_pos_site_id
 _symmetry_equiv_pos_as_xyz
  1  'x, y, z'
loop_
 _atom_site_type_symbol
 _atom_site_label
 _atom_site_symmetry_multiplicity
 _atom_site_fract_x
 _atom_site_fract_y
 _atom_site_fract_z
 _atom_site_occupancy
  Ni  Ni0  1  0.61565000  0.15411800  0.41366400  1
  Ni  Ni1  1  0.88435000  0.84588200  0.41366400  1
  Ni  Ni2  1  0.61565000  0.34588200  0.08633600  1
  Ni  Ni3  1  0.88435000  0.65411800  0.08633600  1
  Ni  Ni4  1  0.38435000  0.84588200  0.58633600  1
  Ni  Ni5  1  0.11565000  0.15411800  0.58633600  1
  Ni  Ni6  1  0.38435000  0.65411800  0.91366400  1
  Ni  Ni7  1  0.11565000  0.34588200  0.91366400  1
  Ni  Ni8  1  0.75000000  0.50000000  0.40599700  1
  Ni  Ni9  1  0.75000000  0.00000000  0.09400300  1
  Ni  Ni10  1  0.25000000  0.50000000  0.59400300  1
  Ni  Ni11  1  0.25000000  0.00000000  0.90599700  1
  Cu  Cu12  1  0.75000000  0.50000000  0.73902400  1
  Cu  Cu13  1  0.75000000  0.00000000  0.76097600  1
  Cu  Cu14  1  0.25000000  0.50000000  0.26097600  1
  Cu  Cu15  1  0.25000000  0.00000000  0.23902400  1
  Cu  Cu16  1  0.65865700  0.25000000  0.75000000  1
  Cu  Cu17  1  0.84134300  0.75000000  0.75000000  1
  Cu  Cu18  1  0.34134300  0.75000000  0.25000000  1
  Cu  Cu19  1  0.15865700  0.25000000  0.25000000  1
  C  C20  1  0.88039000  0.35576700  0.62836300  1
  C  C21  1  0.61961000  0.64423300  0.62836300  1
  C  C22  1  0.88039000  0.14423300  0.87163700  1
  C  C23  1  0.61961000  0.85576700  0.87163700  1
  C  C24  1  0.11961000  0.64423300  0.37163700  1
  C  C25  1  0.38039000  0.35576700  0.37163700  1
  C  C26  1  0.11961000  0.85576700  0.12836300  1
  C  C27  1  0.38039000  0.14423300  0.12836300  1
  C  C28  1  0.50307900  0.40172000  0.83980800  1
  C  C29  1  0.99692100  0.59828000  0.83980800  1
  C  C30  1  0.50307900  0.09828000  0.66019200  1
  C  C31  1  0.99692100  0.90172000  0.66019200  1
  C  C32  1  0.49692100  0.59828000  0.16019200  1
  C  C33  1  0.00307900  0.40172000  0.16019200  1
  C  C34  1  0.49692100  0.90172000  0.33980800  1
  C  C35  1  0.00307900  0.09828000  0.33980800  1
