# generated using pymatgen
data_Cu4NiC
_symmetry_space_group_name_H-M   'P 1'
_cell_length_a   5.41099154
_cell_length_b   5.41099154
_cell_length_c   9.18508300
_cell_angle_alpha   90.00000000
_cell_angle_beta   90.00000000
_cell_angle_gamma   119.99999437
_symmetry_Int_Tables_number   1
_chemical_formula_structural   Cu4NiC
_chemical_formula_sum   'Cu8 Ni2 C2'
_cell_volume   232.89890745
_cell_formula_units_Z   2
loop_
 _symmetry_equiv_pos_site_id
 _symmetry_equiv_pos_as_xyz
  1  'x, y, z'
loop_
 _atom_site_type_symbol
 _atom_site_label
 _atom_site_symmetry_multiplicity
 _atom_site_fract_x
 _atom_site_fract_y
 _atom_site_fract_z
 _atom_site_occupancy
  C  C0  1  0.66666700  0.33333300  0.93722500  1
  C  C1  1  0.33333300  0.66666700  0.06277500  1
  Ni  Ni2  1  0.33333300  0.66666700  0.43980500  1
  Ni  Ni3  1  0.66666700  0.33333300  0.56019500  1
  Cu  Cu4  1  0.00000000  0.00000000  0.50000000  1
  Cu  Cu5  1  0.00000000  0.00000000  0.00000000  1
  Cu  Cu6  1  0.83004200  0.16995800  0.24227100  1
  Cu  Cu7  1  0.83004200  0.66008500  0.24227100  1
  Cu  Cu8  1  0.33991500  0.16995800  0.24227100  1
  Cu  Cu9  1  0.16995800  0.83004200  0.75772900  1
  Cu  Cu10  1  0.16995800  0.33991500  0.75772900  1
  Cu  Cu11  1  0.66008500  0.83004200  0.75772900  1
