# generated using pymatgen
data_Cu5(NiC2)2
_symmetry_space_group_name_H-M   'P 1'
_cell_length_a   7.92593266
_cell_length_b   7.92593266
_cell_length_c   16.82938710
_cell_angle_alpha   90.00000000
_cell_angle_beta   90.00000000
_cell_angle_gamma   90.00000000
_symmetry_Int_Tables_number   1
_chemical_formula_structural   Cu5(NiC2)2
_chemical_formula_sum   'Cu20 Ni8 C16'
_cell_volume   1057.22897295
_cell_formula_units_Z   4
loop_
 _symmetry_equiv_pos_site_id
 _symmetry_equiv_pos_as_xyz
  1  'x, y, z'
loop_
 _atom_site_type_symbol
 _atom_site_label
 _atom_site_symmetry_multiplicity
 _atom_site_fract_x
 _atom_site_fract_y
 _atom_site_fract_z
 _atom_site_occupancy
  Ni  Ni0  1  0.08134113  0.91865887  0.25000000  1
  Ni  Ni1  1  0.41865887  0.91865887  0.75000000  1
  Ni  Ni2  1  0.08134113  0.58134113  0.75000000  1
  Ni  Ni3  1  0.41865887  0.58134113  0.25000000  1
  Ni  Ni4  1  0.91865887  0.08134113  0.75000000  1
  Ni  Ni5  1  0.58134113  0.08134113  0.25000000  1
  Ni  Ni6  1  0.91865887  0.41865887  0.25000000  1
  Ni  Ni7  1  0.58134113  0.41865887  0.75000000  1
  Cu  Cu8  1  0.75000000  0.75000000  0.40959855  1
  Cu  Cu9  1  0.75000000  0.75000000  0.90959855  1
  Cu  Cu10  1  0.25000000  0.25000000  0.59040145  1
  Cu  Cu11  1  0.25000000  0.25000000  0.09040145  1
  Cu  Cu12  1  0.13423591  0.57827524  0.43391962  1
  Cu  Cu13  1  0.36576409  0.57827524  0.93391962  1
  Cu  Cu14  1  0.13423591  0.92172476  0.93391962  1
  Cu  Cu15  1  0.36576409  0.92172476  0.43391962  1
  Cu  Cu16  1  0.57827524  0.13423591  0.93391962  1
  Cu  Cu17  1  0.92172476  0.13423591  0.43391962  1
  Cu  Cu18  1  0.57827524  0.36576409  0.43391962  1
  Cu  Cu19  1  0.92172476  0.36576409  0.93391962  1
  Cu  Cu20  1  0.86576409  0.42172476  0.56608038  1
  Cu  Cu21  1  0.63423591  0.42172476  0.06608038  1
  Cu  Cu22  1  0.86576409  0.07827524  0.06608038  1
  Cu  Cu23  1  0.63423591  0.07827524  0.56608038  1
  Cu  Cu24  1  0.42172476  0.86576409  0.06608038  1
  Cu  Cu25  1  0.07827524  0.86576409  0.56608038  1
  Cu  Cu26  1  0.42172476  0.63423591  0.56608038  1
  Cu  Cu27  1  0.07827524  0.63423591  0.06608038  1
  C  C28  1  0.63442791  0.05284736  0.41755790  1
  C  C29  1  0.86557209  0.05284736  0.91755790  1
  C  C30  1  0.63442791  0.44715264  0.91755790  1
  C  C31  1  0.86557209  0.44715264  0.41755790  1
  C  C32  1  0.05284736  0.63442791  0.91755790  1
  C  C33  1  0.44715264  0.63442791  0.41755790  1
  C  C34  1  0.05284736  0.86557209  0.41755790  1
  C  C35  1  0.44715264  0.86557209  0.91755790  1
  C  C36  1  0.36557209  0.94715264  0.58244210  1
  C  C37  1  0.13442791  0.94715264  0.08244210  1
  C  C38  1  0.36557209  0.55284736  0.08244210  1
  C  C39  1  0.13442791  0.55284736  0.58244210  1
  C  C40  1  0.94715264  0.36557209  0.08244210  1
  C  C41  1  0.55284736  0.36557209  0.58244210  1
  C  C42  1  0.94715264  0.13442791  0.58244210  1
  C  C43  1  0.55284736  0.13442791  0.08244210  1
