# generated using pymatgen
data_Cu5Ni3C28
_symmetry_space_group_name_H-M   'P 1'
_cell_length_a   11.62329985
_cell_length_b   11.76646397
_cell_length_c   17.56099575
_cell_angle_alpha   109.49758229
_cell_angle_beta   109.14548309
_cell_angle_gamma   90.14761130
_symmetry_Int_Tables_number   1
_chemical_formula_structural   Cu5Ni3C28
_chemical_formula_sum   'Cu20 Ni12 C112'
_cell_volume   2121.78569720
_cell_formula_units_Z   4
loop_
 _symmetry_equiv_pos_site_id
 _symmetry_equiv_pos_as_xyz
  1  'x, y, z'
loop_
 _atom_site_type_symbol
 _atom_site_label
 _atom_site_symmetry_multiplicity
 _atom_site_fract_x
 _atom_site_fract_y
 _atom_site_fract_z
 _atom_site_occupancy
  C  C0  1  0.30454200  0.06743000  0.10775500  1
  C  C1  1  0.30162200  0.55960600  0.10578900  1
  C  C2  1  0.80451900  0.06063800  0.10948900  1
  C  C3  1  0.80235900  0.55899200  0.10654200  1
  C  C4  1  0.20546600  0.93358800  0.39281400  1
  C  C5  1  0.19102600  0.93016700  0.88255400  1
  C  C6  1  0.69980700  0.43569600  0.39642300  1
  C  C7  1  0.69152700  0.42826800  0.88456300  1
  C  C8  1  0.69614900  0.93502600  0.39187200  1
  C  C9  1  0.05805300  0.29317500  0.10898100  1
  C  C10  1  0.05062100  0.79164300  0.10376800  1
  C  C11  1  0.55210200  0.29316200  0.10754700  1
  C  C12  1  0.55221800  0.79452700  0.10253500  1
  C  C13  1  0.45066400  0.71295300  0.39586500  1
  C  C14  1  0.44107300  0.70606000  0.88289700  1
  C  C15  1  0.94001500  0.70158200  0.88448100  1
  C  C16  1  0.30455600  0.07008800  0.60382300  1
  C  C17  1  0.30487700  0.56428900  0.60110500  1
  C  C18  1  0.79517500  0.07163800  0.60513100  1
  C  C19  1  0.79541000  0.56979500  0.60469800  1
  C  C20  1  0.21142600  0.44141900  0.40812600  1
  C  C21  1  0.19824500  0.43537600  0.89833000  1
  C  C22  1  0.69563700  0.93445600  0.89794100  1
  C  C23  1  0.05258300  0.28429400  0.60606100  1
  C  C24  1  0.04892600  0.78564800  0.60270800  1
  C  C25  1  0.55308000  0.28458100  0.60224900  1
  C  C26  1  0.54678900  0.78642100  0.60418700  1
  C  C27  1  0.45876200  0.21529400  0.40897800  1
  C  C28  1  0.45002100  0.21078900  0.89865000  1
  C  C29  1  0.94976400  0.21729200  0.40499000  1
  C  C30  1  0.94666100  0.21227600  0.89723600  1
  C  C31  1  0.94888200  0.71678300  0.40292300  1
  Ni  Ni32  1  0.00430000  0.99726700  0.99667200  1
  Ni  Ni33  1  0.00078000  0.49496300  0.99451100  1
  Ni  Ni34  1  0.50232400  0.99789000  0.99329600  1
  Ni  Ni35  1  0.51391400  0.00654200  0.50624900  1
  Ni  Ni36  1  0.50274800  0.49456900  0.99389900  1
  Ni  Ni37  1  0.51585400  0.50028100  0.50782000  1
  Ni  Ni38  1  0.25251800  0.24921900  0.99532900  1
  Ni  Ni39  1  0.25170800  0.74393400  0.99219700  1
  Ni  Ni40  1  0.26573100  0.74935000  0.50391600  1
  Ni  Ni41  1  0.75449100  0.24258900  0.99284700  1
  Ni  Ni42  1  0.76857300  0.25197400  0.50598700  1
  Ni  Ni43  1  0.75116100  0.74681600  0.99364100  1
  Cu  Cu44  1  0.01657100  0.00327900  0.50357300  1
  Cu  Cu45  1  0.01613900  0.50174000  0.50260600  1
  Cu  Cu46  1  0.26651600  0.25488200  0.50620700  1
  Cu  Cu47  1  0.76553800  0.75411400  0.50736800  1
  Cu  Cu48  1  0.10087600  0.10974400  0.26051900  1
  Cu  Cu49  1  0.08698500  0.09745100  0.74553400  1
  Cu  Cu50  1  0.09612800  0.59224500  0.25533200  1
  Cu  Cu51  1  0.08786600  0.58130500  0.73947000  1
  Cu  Cu52  1  0.59827000  0.10072100  0.25615900  1
  Cu  Cu53  1  0.58548900  0.08897200  0.74684500  1
  Cu  Cu54  1  0.60026200  0.59420900  0.25028000  1
  Cu  Cu55  1  0.58957300  0.58864900  0.74258500  1
  Cu  Cu56  1  0.34747900  0.40390500  0.25981000  1
  Cu  Cu57  1  0.33911900  0.40012400  0.74847100  1
  Cu  Cu58  1  0.34826000  0.91200100  0.24803100  1
  Cu  Cu59  1  0.33777000  0.90849000  0.73987400  1
  Cu  Cu60  1  0.85670500  0.40375900  0.25346300  1
  Cu  Cu61  1  0.84336700  0.39851100  0.74410600  1
  Cu  Cu62  1  0.85413100  0.90807400  0.25183500  1
  Cu  Cu63  1  0.83438100  0.91293200  0.74903900  1
  C  C64  1  0.12951200  0.12326900  0.49050900  1
  C  C65  1  0.12173900  0.12088300  0.98467600  1
  C  C66  1  0.12551900  0.61291900  0.49040200  1
  C  C67  1  0.12263800  0.61313800  0.98269000  1
  C  C68  1  0.63102500  0.12250900  0.49528000  1
  C  C69  1  0.62136700  0.11654800  0.98056100  1
  C  C70  1  0.64322900  0.63241800  0.49822000  1
  C  C71  1  0.61706400  0.61186100  0.98430200  1
  C  C72  1  0.13040600  0.37617000  0.00240200  1
  C  C73  1  0.14854000  0.38690200  0.52082500  1
  C  C74  1  0.13349300  0.87563800  0.00490700  1
  C  C75  1  0.13230800  0.88615200  0.51371100  1
  C  C76  1  0.63082100  0.37166300  0.00423000  1
  C  C77  1  0.64820400  0.38942600  0.52300300  1
  C  C78  1  0.62869800  0.88301200  0.00308000  1
  C  C79  1  0.65044200  0.88553200  0.52263500  1
  C  C80  1  0.38217900  0.12423600  0.49025200  1
  C  C81  1  0.37143500  0.11923900  0.98125500  1
  C  C82  1  0.38469400  0.61121900  0.49185000  1
  C  C83  1  0.36717100  0.61148600  0.98093900  1
  C  C84  1  0.89274900  0.11068700  0.49345100  1
  C  C85  1  0.87290400  0.11568000  0.98186600  1
  C  C86  1  0.88575100  0.62385900  0.49475800  1
  C  C87  1  0.87445100  0.60984400  0.98468400  1
  C  C88  1  0.37878000  0.37575300  0.00077100  1
  C  C89  1  0.40023800  0.38638600  0.52374700  1
  C  C90  1  0.37871100  0.87684400  0.00269900  1
  C  C91  1  0.40116500  0.89572900  0.52787700  1
  C  C92  1  0.88448700  0.37389800  0.00641600  1
  C  C93  1  0.90790500  0.39232200  0.51722800  1
  C  C94  1  0.88346400  0.88414000  0.00406100  1
  C  C95  1  0.88962900  0.87699300  0.51376300  1
  C  C96  1  0.07520100  0.08582700  0.13954300  1
  C  C97  1  0.09297600  0.09798500  0.63435900  1
  C  C98  1  0.06862000  0.58514700  0.14049100  1
  C  C99  1  0.09011000  0.60622700  0.63570800  1
  C  C100  1  0.56897700  0.08565300  0.13665000  1
  C  C101  1  0.59003900  0.11086600  0.64357300  1
  C  C102  1  0.57124100  0.59073400  0.13567700  1
  C  C103  1  0.60045800  0.61282400  0.64033300  1
  C  C104  1  0.44763800  0.39084100  0.36722900  1
  C  C105  1  0.43683900  0.38983600  0.85639900  1
  C  C106  1  0.44735600  0.91434200  0.36339600  1
  C  C107  1  0.44062400  0.91296500  0.85358100  1
  C  C108  1  0.95905000  0.40613800  0.37024200  1
  C  C109  1  0.93403400  0.39462300  0.85585400  1
  C  C110  1  0.94830000  0.90435600  0.36861700  1
  C  C111  1  0.93677500  0.90531300  0.85634600  1
  C  C112  1  0.32445000  0.31088300  0.13838300  1
  C  C113  1  0.34149300  0.28088900  0.64030300  1
  C  C114  1  0.32591900  0.79693200  0.13752100  1
  C  C115  1  0.33928900  0.77587500  0.64135800  1
  C  C116  1  0.82766700  0.29546800  0.13917800  1
  C  C117  1  0.86129600  0.28003300  0.64162300  1
  C  C118  1  0.82869400  0.79767000  0.13967400  1
  C  C119  1  0.84310600  0.79704800  0.63887600  1
  C  C120  1  0.20301800  0.22811800  0.36874300  1
  C  C121  1  0.18078100  0.21174700  0.85600300  1
  C  C122  1  0.20761600  0.70442900  0.36459300  1
  C  C123  1  0.18383300  0.69410800  0.85334900  1
  C  C124  1  0.71695700  0.20611900  0.36572400  1
  C  C125  1  0.70334000  0.19542800  0.85571600  1
  C  C126  1  0.70241300  0.69963800  0.37080200  1
  C  C127  1  0.67975100  0.70737300  0.85390600  1
  C  C128  1  0.44586500  0.07868800  0.27393400  1
  C  C129  1  0.41786100  0.07100000  0.74972900  1
  C  C130  1  0.44275300  0.54510600  0.25100000  1
  C  C131  1  0.41925300  0.53936500  0.72933800  1
  C  C132  1  0.94976500  0.07417600  0.27775800  1
  C  C133  1  0.91947600  0.05904300  0.74040700  1
  C  C134  1  0.94123800  0.57006500  0.27297900  1
  C  C135  1  0.91735700  0.54351900  0.72770400  1
  C  C136  1  0.19332500  0.44941200  0.27423100  1
  C  C137  1  0.17122400  0.43033000  0.74646400  1
  C  C138  1  0.18763000  0.95664500  0.24702700  1
  C  C139  1  0.16589300  0.94006100  0.72679800  1
  C  C140  1  0.69945600  0.45406700  0.25658800  1
  C  C141  1  0.67368100  0.43437900  0.73038300  1
  C  C142  1  0.69377200  0.95471700  0.24833700  1
  C  C143  1  0.66679100  0.93418100  0.74803700  1
