# generated using pymatgen
data_CuNi2C7
_symmetry_space_group_name_H-M   'P 1'
_cell_length_a   7.83055900
_cell_length_b   8.27726700
_cell_length_c   13.65721800
_cell_angle_alpha   90.00000000
_cell_angle_beta   90.00000000
_cell_angle_gamma   90.00000000
_symmetry_Int_Tables_number   1
_chemical_formula_structural   CuNi2C7
_chemical_formula_sum   'Cu4 Ni8 C28'
_cell_volume   885.20115597
_cell_formula_units_Z   4
loop_
 _symmetry_equiv_pos_site_id
 _symmetry_equiv_pos_as_xyz
  1  'x, y, z'
loop_
 _atom_site_type_symbol
 _atom_site_label
 _atom_site_symmetry_multiplicity
 _atom_site_fract_x
 _atom_site_fract_y
 _atom_site_fract_z
 _atom_site_occupancy
  C  C0  1  0.35060400  0.25000000  0.66730200  1
  C  C1  1  0.14939600  0.25000000  0.16730200  1
  C  C2  1  0.64939600  0.75000000  0.33269800  1
  C  C3  1  0.85060400  0.75000000  0.83269800  1
  Ni  Ni4  1  0.82514300  0.00212600  0.66994700  1
  Ni  Ni5  1  0.67485700  0.49787400  0.16994700  1
  Ni  Ni6  1  0.17485700  0.50212600  0.33005300  1
  Ni  Ni7  1  0.32514300  0.99787400  0.83005300  1
  Ni  Ni8  1  0.17485700  0.99787400  0.33005300  1
  Ni  Ni9  1  0.32514300  0.50212600  0.83005300  1
  Ni  Ni10  1  0.82514300  0.49787400  0.66994700  1
  Ni  Ni11  1  0.67485700  0.00212600  0.16994700  1
  C  C12  1  0.06240400  0.25000000  0.43643100  1
  C  C13  1  0.43759600  0.25000000  0.93643100  1
  C  C14  1  0.93759600  0.75000000  0.56356900  1
  C  C15  1  0.56240400  0.75000000  0.06356900  1
  C  C16  1  0.16355800  0.25000000  0.73639600  1
  C  C17  1  0.33644200  0.25000000  0.23639600  1
  C  C18  1  0.83644200  0.75000000  0.26360400  1
  C  C19  1  0.66355800  0.75000000  0.76360400  1
  C  C20  1  0.35175500  0.09614400  0.56348900  1
  C  C21  1  0.14824500  0.40385600  0.06348900  1
  C  C22  1  0.64824500  0.59614400  0.43651100  1
  C  C23  1  0.85175500  0.90385600  0.93651100  1
  C  C24  1  0.64824500  0.90385600  0.43651100  1
  C  C25  1  0.85175500  0.59614400  0.93651100  1
  C  C26  1  0.35175500  0.40385600  0.56348900  1
  C  C27  1  0.14824500  0.09614400  0.06348900  1
  Cu  Cu28  1  0.44081900  0.25000000  0.48632000  1
  Cu  Cu29  1  0.05918100  0.25000000  0.98632000  1
  Cu  Cu30  1  0.55918100  0.75000000  0.51368000  1
  Cu  Cu31  1  0.94081900  0.75000000  0.01368000  1
  C  C32  1  0.91914900  0.25000000  0.45012000  1
  C  C33  1  0.58085100  0.25000000  0.95012000  1
  C  C34  1  0.08085100  0.75000000  0.54988000  1
  C  C35  1  0.41914900  0.75000000  0.04988000  1
  C  C36  1  0.54720900  0.25000000  0.73141900  1
  C  C37  1  0.95279100  0.25000000  0.23141900  1
  C  C38  1  0.45279100  0.75000000  0.26858100  1
  C  C39  1  0.04720900  0.75000000  0.76858100  1
