# generated using pymatgen
data_Cu2Ni2C7
_symmetry_space_group_name_H-M   'P 1'
_cell_length_a   7.71148100
_cell_length_b   11.88989545
_cell_length_c   13.16617657
_cell_angle_alpha   105.96238106
_cell_angle_beta   98.06553784
_cell_angle_gamma   99.41055245
_symmetry_Int_Tables_number   1
_chemical_formula_structural   Cu2Ni2C7
_chemical_formula_sum   'Cu12 Ni12 C42'
_cell_volume   1122.96756007
_cell_formula_units_Z   6
loop_
 _symmetry_equiv_pos_site_id
 _symmetry_equiv_pos_as_xyz
  1  'x, y, z'
loop_
 _atom_site_type_symbol
 _atom_site_label
 _atom_site_symmetry_multiplicity
 _atom_site_fract_x
 _atom_site_fract_y
 _atom_site_fract_z
 _atom_site_occupancy
  C  C0  1  0.29424400  0.37647900  0.52451300  1
  C  C1  1  0.70575600  0.62352100  0.47548700  1
  C  C2  1  0.47958800  0.16977400  0.75524800  1
  C  C3  1  0.52041200  0.83022600  0.24475200  1
  C  C4  1  0.05674800  0.03530500  0.19218400  1
  C  C5  1  0.94325200  0.96469500  0.80781600  1
  Ni  Ni6  1  0.02932200  0.77854400  0.33746100  1
  Ni  Ni7  1  0.97067800  0.22145600  0.66253900  1
  Ni  Ni8  1  0.87593800  0.11573000  0.43104600  1
  Ni  Ni9  1  0.12406200  0.88427000  0.56895400  1
  Ni  Ni10  1  0.56578500  0.12213500  0.16199300  1
  Ni  Ni11  1  0.43421500  0.87786500  0.83800700  1
  Ni  Ni12  1  0.30297300  0.18722200  0.01888100  1
  Ni  Ni13  1  0.69702700  0.81277800  0.98111900  1
  Ni  Ni14  1  0.30879300  0.70545300  0.46163700  1
  Ni  Ni15  1  0.69120700  0.29454700  0.53836300  1
  Ni  Ni16  1  0.42439000  0.33560400  0.24271600  1
  Ni  Ni17  1  0.57561000  0.66439600  0.75728400  1
  Cu  Cu18  1  0.01832300  0.59199700  0.85592300  1
  Cu  Cu19  1  0.98167700  0.40800300  0.14407700  1
  Cu  Cu20  1  0.06108500  0.57931300  0.63492300  1
  Cu  Cu21  1  0.93891500  0.42068700  0.36507700  1
  Cu  Cu22  1  0.21543500  0.80770200  0.04897500  1
  Cu  Cu23  1  0.78456500  0.19229800  0.95102500  1
  Cu  Cu24  1  0.77717400  0.56507400  0.06761300  1
  Cu  Cu25  1  0.22282600  0.43492600  0.93238700  1
  Cu  Cu26  1  0.36379500  0.02578100  0.39389400  1
  Cu  Cu27  1  0.63620500  0.97421900  0.60610600  1
  Cu  Cu28  1  0.40259900  0.57128000  0.14988700  1
  Cu  Cu29  1  0.59740100  0.42872000  0.85011300  1
  C  C30  1  0.12201600  0.67704100  0.37638600  1
  C  C31  1  0.87798400  0.32295900  0.62361400  1
  C  C32  1  0.16817200  0.26902100  0.68014800  1
  C  C33  1  0.83182800  0.73097900  0.31985200  1
  C  C34  1  0.20333800  0.00594500  0.64634500  1
  C  C35  1  0.79666200  0.99405500  0.35365500  1
  C  C36  1  0.75146000  0.10403600  0.15778400  1
  C  C37  1  0.24854000  0.89596400  0.84221600  1
  C  C38  1  0.58092200  0.25841800  0.23676900  1
  C  C39  1  0.41907800  0.74158200  0.76323100  1
  C  C40  1  0.47598100  0.13057200  0.04515000  1
  C  C41  1  0.52401900  0.86942800  0.95485000  1
  C  C42  1  0.30851600  0.21126800  0.91341500  1
  C  C43  1  0.69148400  0.78873200  0.08658500  1
  C  C44  1  0.34782100  0.31350900  0.11469500  1
  C  C45  1  0.65217900  0.68649100  0.88530500  1
  C  C46  1  0.53705000  0.23959700  0.58035500  1
  C  C47  1  0.46295000  0.76040300  0.41964500  1
  C  C48  1  0.04353800  0.18224600  0.41056300  1
  C  C49  1  0.95646200  0.81775400  0.58943700  1
  C  C50  1  0.43547600  0.03457600  0.19460400  1
  C  C51  1  0.56452400  0.96542400  0.80539600  1
  C  C52  1  0.09474400  0.89324500  0.44764900  1
  C  C53  1  0.90525600  0.10675500  0.55235100  1
  C  C54  1  0.28118800  0.28043500  0.29242000  1
  C  C55  1  0.71881200  0.71956500  0.70758000  1
  C  C56  1  0.32967900  0.59480700  0.49187500  1
  C  C57  1  0.67032100  0.40519300  0.50812500  1
  C  C58  1  0.51290800  0.46483500  0.29098200  1
  C  C59  1  0.48709200  0.53516500  0.70901800  1
  C  C60  1  0.12190400  0.81609300  0.25534100  1
  C  C61  1  0.87809600  0.18390700  0.74465900  1
  C  C62  1  0.13408900  0.10939000  0.02717500  1
  C  C63  1  0.86591100  0.89061000  0.97282500  1
  C  C64  1  0.72362300  0.19597900  0.43468200  1
  C  C65  1  0.27637700  0.80402100  0.56531800  1
