# generated using pymatgen
data_Cu2NiC4
_symmetry_space_group_name_H-M   'P 1'
_cell_length_a   2.98358300
_cell_length_b   5.14900769
_cell_length_c   10.04397600
_cell_angle_alpha   90.00000000
_cell_angle_beta   90.00000000
_cell_angle_gamma   106.84143181
_symmetry_Int_Tables_number   1
_chemical_formula_structural   Cu2NiC4
_chemical_formula_sum   'Cu4 Ni2 C8'
_cell_volume   147.68258810
_cell_formula_units_Z   2
loop_
 _symmetry_equiv_pos_site_id
 _symmetry_equiv_pos_as_xyz
  1  'x, y, z'
loop_
 _atom_site_type_symbol
 _atom_site_label
 _atom_site_symmetry_multiplicity
 _atom_site_fract_x
 _atom_site_fract_y
 _atom_site_fract_z
 _atom_site_occupancy
  Ni  Ni0  1  0.88873700  0.27747500  0.75000000  1
  Ni  Ni1  1  0.11126300  0.72252500  0.25000000  1
  Cu  Cu2  1  0.36679300  0.23358700  0.42756900  1
  Cu  Cu3  1  0.63320700  0.76641300  0.92756900  1
  Cu  Cu4  1  0.63320700  0.76641300  0.57243100  1
  Cu  Cu5  1  0.36679300  0.23358700  0.07243100  1
  C  C6  1  0.00000000  0.50000000  0.50000000  1
  C  C7  1  0.00000000  0.50000000  0.00000000  1
  C  C8  1  0.45355600  0.40711100  0.25000000  1
  C  C9  1  0.54644400  0.59288900  0.75000000  1
  C  C10  1  0.73049400  0.96098800  0.38875800  1
  C  C11  1  0.26950600  0.03901200  0.88875800  1
  C  C12  1  0.26950600  0.03901200  0.61124200  1
  C  C13  1  0.73049400  0.96098800  0.11124200  1
