# generated using pymatgen
data_Cu3NiC
_symmetry_space_group_name_H-M   'P 1'
_cell_length_a   7.59824300
_cell_length_b   6.82486500
_cell_length_c   10.35858118
_cell_angle_alpha   88.81264581
_cell_angle_beta   90.00000000
_cell_angle_gamma   90.00000000
_symmetry_Int_Tables_number   1
_chemical_formula_structural   Cu3NiC
_chemical_formula_sum   'Cu12 Ni4 C4'
_cell_volume   537.04942591
_cell_formula_units_Z   4
loop_
 _symmetry_equiv_pos_site_id
 _symmetry_equiv_pos_as_xyz
  1  'x, y, z'
loop_
 _atom_site_type_symbol
 _atom_site_label
 _atom_site_symmetry_multiplicity
 _atom_site_fract_x
 _atom_site_fract_y
 _atom_site_fract_z
 _atom_site_occupancy
  C  C0  1  0.49788000  0.28410600  0.50189100  1
  C  C1  1  0.99788000  0.71589400  0.49810900  1
  C  C2  1  0.22126700  0.81860100  0.99212300  1
  C  C3  1  0.72126700  0.18139900  0.00787700  1
  Ni  Ni4  1  0.00953400  0.18706300  0.67509900  1
  Ni  Ni5  1  0.50953400  0.81293700  0.32490100  1
  Ni  Ni6  1  0.22959700  0.31134500  0.79455000  1
  Ni  Ni7  1  0.72959700  0.68865500  0.20545000  1
  Cu  Cu8  1  0.41322600  0.09365600  0.24501000  1
  Cu  Cu9  1  0.91322600  0.90634400  0.75499000  1
  Cu  Cu10  1  0.44165600  0.10015500  0.76607400  1
  Cu  Cu11  1  0.94165600  0.89984500  0.23392600  1
  Cu  Cu12  1  0.80890400  0.42527600  0.66763000  1
  Cu  Cu13  1  0.30890400  0.57472400  0.33237000  1
  Cu  Cu14  1  0.13683400  0.34873600  0.99013100  1
  Cu  Cu15  1  0.63683400  0.65126400  0.00986900  1
  Cu  Cu16  1  0.30926900  0.56939600  0.66915700  1
  Cu  Cu17  1  0.80926900  0.43060400  0.33084300  1
  Cu  Cu18  1  0.13603300  0.12700100  0.48396400  1
  Cu  Cu19  1  0.63603300  0.87299900  0.51603600  1
