# generated using pymatgen
data_Cu4Ni5C22
_symmetry_space_group_name_H-M   'P 1'
_cell_length_a   2.98358900
_cell_length_b   8.89277600
_cell_length_c   24.81764700
_cell_angle_alpha   90.00000000
_cell_angle_beta   90.00000000
_cell_angle_gamma   90.00000000
_symmetry_Int_Tables_number   1
_chemical_formula_structural   Cu4Ni5C22
_chemical_formula_sum   'Cu8 Ni10 C44'
_cell_volume   658.47145566
_cell_formula_units_Z   2
loop_
 _symmetry_equiv_pos_site_id
 _symmetry_equiv_pos_as_xyz
  1  'x, y, z'
loop_
 _atom_site_type_symbol
 _atom_site_label
 _atom_site_symmetry_multiplicity
 _atom_site_fract_x
 _atom_site_fract_y
 _atom_site_fract_z
 _atom_site_occupancy
  C  C0  1  0.00000000  0.17990300  0.99048200  1
  C  C1  1  0.00000000  0.20724500  0.19037500  1
  C  C2  1  0.00000000  0.29275500  0.69037500  1
  C  C3  1  0.00000000  0.32009700  0.49048200  1
  C  C4  1  0.00000000  0.67990300  0.50951800  1
  C  C5  1  0.00000000  0.70724500  0.30962500  1
  C  C6  1  0.00000000  0.79275500  0.80962500  1
  C  C7  1  0.00000000  0.82009700  0.00951800  1
  Ni  Ni8  1  0.00000000  0.00000000  0.50000000  1
  Ni  Ni9  1  0.00000000  0.99198000  0.10257700  1
  Ni  Ni10  1  0.50000000  0.14166100  0.80255100  1
  Ni  Ni11  1  0.50000000  0.35833900  0.30255100  1
  Ni  Ni12  1  0.00000000  0.50802000  0.60257700  1
  Ni  Ni13  1  0.00000000  0.50000000  0.00000000  1
  Ni  Ni14  1  0.00000000  0.49198000  0.39742300  1
  Ni  Ni15  1  0.50000000  0.64166100  0.69744900  1
  Ni  Ni16  1  0.50000000  0.85833900  0.19744900  1
  Ni  Ni17  1  0.00000000  0.00802000  0.89742300  1
  Cu  Cu18  1  0.00000000  0.01782700  0.31282500  1
  Cu  Cu19  1  0.50000000  0.15149800  0.58577200  1
  Cu  Cu20  1  0.50000000  0.34850200  0.08577200  1
  Cu  Cu21  1  0.00000000  0.48217300  0.81282500  1
  Cu  Cu22  1  0.00000000  0.51782700  0.18717500  1
  Cu  Cu23  1  0.50000000  0.65149800  0.91422800  1
  Cu  Cu24  1  0.50000000  0.84850200  0.41422800  1
  Cu  Cu25  1  0.00000000  0.98217300  0.68717500  1
  C  C26  1  0.00000000  0.99986500  0.42278000  1
  C  C27  1  0.00000000  0.00013500  0.57722000  1
  C  C28  1  0.50000000  0.06387000  0.94317600  1
  C  C29  1  0.50000000  0.04724300  0.15999300  1
  C  C30  1  0.50000000  0.11976200  0.66444700  1
  C  C31  1  0.00000000  0.09087600  0.75545700  1
  C  C32  1  0.50000000  0.15089300  0.50388400  1
  C  C33  1  0.50000000  0.15156500  0.28685400  1
  C  C34  1  0.00000000  0.18720100  0.85540900  1
  C  C35  1  0.00000000  0.19782000  0.08410300  1
  C  C36  1  0.00000000  0.30218000  0.58410300  1
  C  C37  1  0.00000000  0.31279900  0.35540900  1
  C  C38  1  0.50000000  0.34843500  0.78685400  1
  C  C39  1  0.50000000  0.34910700  0.00388400  1
  C  C40  1  0.00000000  0.40912400  0.25545700  1
  C  C41  1  0.50000000  0.38023800  0.16444700  1
  C  C42  1  0.50000000  0.45275700  0.65999300  1
  C  C43  1  0.50000000  0.43613000  0.44317600  1
  C  C44  1  0.00000000  0.49986500  0.07722000  1
  C  C45  1  0.00000000  0.50013500  0.92278000  1
  C  C46  1  0.50000000  0.56387000  0.55682400  1
  C  C47  1  0.50000000  0.54724300  0.34000700  1
  C  C48  1  0.50000000  0.61976200  0.83555300  1
  C  C49  1  0.00000000  0.59087600  0.74454300  1
  C  C50  1  0.50000000  0.65089300  0.99611600  1
  C  C51  1  0.50000000  0.65156500  0.21314600  1
  C  C52  1  0.00000000  0.68720100  0.64459100  1
  C  C53  1  0.00000000  0.69782000  0.41589700  1
  C  C54  1  0.00000000  0.80218000  0.91589700  1
  C  C55  1  0.00000000  0.81279900  0.14459100  1
  C  C56  1  0.50000000  0.84843500  0.71314600  1
  C  C57  1  0.50000000  0.84910700  0.49611600  1
  C  C58  1  0.00000000  0.90912400  0.24454300  1
  C  C59  1  0.50000000  0.88023800  0.33555300  1
  C  C60  1  0.50000000  0.95275700  0.84000700  1
  C  C61  1  0.50000000  0.93613000  0.05682400  1
