# generated using pymatgen
data_Cu(NiC10)2
_symmetry_space_group_name_H-M   'P 1'
_cell_length_a   12.73894100
_cell_length_b   12.73894100
_cell_length_c   3.95326100
_cell_angle_alpha   90.00000000
_cell_angle_beta   90.00000000
_cell_angle_gamma   90.00000000
_symmetry_Int_Tables_number   1
_chemical_formula_structural   Cu(NiC10)2
_chemical_formula_sum   'Cu2 Ni4 C40'
_cell_volume   641.53763741
_cell_formula_units_Z   2
loop_
 _symmetry_equiv_pos_site_id
 _symmetry_equiv_pos_as_xyz
  1  'x, y, z'
loop_
 _atom_site_type_symbol
 _atom_site_label
 _atom_site_symmetry_multiplicity
 _atom_site_fract_x
 _atom_site_fract_y
 _atom_site_fract_z
 _atom_site_occupancy
  Ni  Ni0  1  0.66985800  0.16985800  0.50000000  1
  Ni  Ni1  1  0.33014200  0.83014200  0.50000000  1
  Ni  Ni2  1  0.16985800  0.33014200  0.50000000  1
  Ni  Ni3  1  0.83014200  0.66985800  0.50000000  1
  Cu  Cu4  1  0.00000000  0.00000000  0.50000000  1
  Cu  Cu5  1  0.50000000  0.50000000  0.50000000  1
  C  C6  1  0.50000000  0.00000000  0.00000000  1
  C  C7  1  0.00000000  0.50000000  0.00000000  1
  C  C8  1  0.21165900  0.07644300  0.00000000  1
  C  C9  1  0.78834100  0.92355700  0.00000000  1
  C  C10  1  0.07644300  0.78834100  0.00000000  1
  C  C11  1  0.71165900  0.42355700  0.00000000  1
  C  C12  1  0.92355700  0.21165900  0.00000000  1
  C  C13  1  0.28834100  0.57644300  0.00000000  1
  C  C14  1  0.57644300  0.71165900  0.00000000  1
  C  C15  1  0.42355700  0.28834100  0.00000000  1
  C  C16  1  0.18427800  0.07813000  0.50000000  1
  C  C17  1  0.81572200  0.92187000  0.50000000  1
  C  C18  1  0.07813000  0.81572200  0.50000000  1
  C  C19  1  0.68427800  0.42187000  0.50000000  1
  C  C20  1  0.92187000  0.18427800  0.50000000  1
  C  C21  1  0.31572200  0.57813000  0.50000000  1
  C  C22  1  0.57813000  0.68427800  0.50000000  1
  C  C23  1  0.42187000  0.31572200  0.50000000  1
  C  C24  1  0.21735000  0.71735000  0.00000000  1
  C  C25  1  0.78265000  0.28265000  0.00000000  1
  C  C26  1  0.71735000  0.78265000  0.00000000  1
  C  C27  1  0.28265000  0.21735000  0.00000000  1
  C  C28  1  0.50000000  0.00000000  0.50000000  1
  C  C29  1  0.00000000  0.50000000  0.50000000  1
  C  C30  1  0.05756400  0.13038400  0.00000000  1
  C  C31  1  0.94243600  0.86961600  0.00000000  1
  C  C32  1  0.13038400  0.94243600  0.00000000  1
  C  C33  1  0.55756400  0.36961600  0.00000000  1
  C  C34  1  0.86961600  0.05756400  0.00000000  1
  C  C35  1  0.44243600  0.63038400  0.00000000  1
  C  C36  1  0.63038400  0.55756400  0.00000000  1
  C  C37  1  0.36961600  0.44243600  0.00000000  1
  C  C38  1  0.34186400  0.99951600  0.00000000  1
  C  C39  1  0.65813600  0.00048400  0.00000000  1
  C  C40  1  0.99951600  0.65813600  0.00000000  1
  C  C41  1  0.84186400  0.50048400  0.00000000  1
  C  C42  1  0.00048400  0.34186400  0.00000000  1
  C  C43  1  0.15813600  0.49951600  0.00000000  1
  C  C44  1  0.49951600  0.84186400  0.00000000  1
  C  C45  1  0.50048400  0.15813600  0.00000000  1
