# generated using pymatgen
data_Cu2NiC17
_symmetry_space_group_name_H-M   'P 1'
_cell_length_a   10.81442418
_cell_length_b   10.81442418
_cell_length_c   10.81442418
_cell_angle_alpha   109.47819872
_cell_angle_beta   109.47819872
_cell_angle_gamma   109.45726537
_symmetry_Int_Tables_number   1
_chemical_formula_structural   Cu2NiC17
_chemical_formula_sum   'Cu8 Ni4 C68'
_cell_volume   973.61731903
_cell_formula_units_Z   4
loop_
 _symmetry_equiv_pos_site_id
 _symmetry_equiv_pos_as_xyz
  1  'x, y, z'
loop_
 _atom_site_type_symbol
 _atom_site_label
 _atom_site_symmetry_multiplicity
 _atom_site_fract_x
 _atom_site_fract_y
 _atom_site_fract_z
 _atom_site_occupancy
  Ni  Ni0  1  0.37500000  0.99988400  0.12488400  1
  Ni  Ni1  1  0.87500000  0.25011600  0.87511600  1
  Ni  Ni2  1  0.74988400  0.12500000  0.12488400  1
  Ni  Ni3  1  0.00011600  0.62500000  0.87511600  1
  Cu  Cu4  1  0.00000000  0.00000000  0.00000000  1
  Cu  Cu5  1  0.75000000  0.25000000  0.50000000  1
  Cu  Cu6  1  0.87500000  0.74993000  0.37493000  1
  Cu  Cu7  1  0.37500000  0.50007000  0.62507000  1
  Cu  Cu8  1  0.49993000  0.62500000  0.37493000  1
  Cu  Cu9  1  0.25007000  0.12500000  0.62507000  1
  Cu  Cu10  1  0.25000000  0.75000000  0.50000000  1
  Cu  Cu11  1  0.50000000  0.50000000  0.00000000  1
  C  C12  1  0.37500000  0.75045000  0.87545000  1
  C  C13  1  0.87500000  0.49955000  0.12455000  1
  C  C14  1  0.99975600  0.12500000  0.37475600  1
  C  C15  1  0.75024400  0.62500000  0.62524400  1
  C  C16  1  0.24980200  0.24980200  0.00000000  1
  C  C17  1  0.50019800  0.00019800  0.50000000  1
  C  C18  1  0.87500000  0.00024400  0.62524400  1
  C  C19  1  0.37500000  0.24975600  0.37475600  1
  C  C20  1  0.24955000  0.62500000  0.12455000  1
  C  C21  1  0.50045000  0.12500000  0.87545000  1
  C  C22  1  0.99980200  0.49980200  0.50000000  1
  C  C23  1  0.75019800  0.75019800  0.00000000  1
  C  C24  1  0.62485900  0.37446300  0.24973800  1
  C  C25  1  0.12514100  0.87487900  0.24960400  1
  C  C26  1  0.62527500  0.87553700  0.75039600  1
  C  C27  1  0.12472500  0.37512100  0.75026200  1
  C  C28  1  0.62487900  0.87527500  0.24973800  1
  C  C29  1  0.12446300  0.37472500  0.24960400  1
  C  C30  1  0.12512100  0.87485900  0.75039600  1
  C  C31  1  0.62553700  0.37514100  0.75026200  1
  C  C32  1  0.52922200  0.25176800  0.33152000  1
  C  C33  1  0.22077800  0.05229800  0.22254600  1
  C  C34  1  0.82975200  0.99823200  0.77745400  1
  C  C35  1  0.92024800  0.19770200  0.66848000  1
  C  C36  1  0.65345700  0.08079200  0.87339200  1
  C  C37  1  0.54259900  0.16920800  0.07266400  1
  C  C38  1  0.20740100  0.78006500  0.12660800  1
  C  C39  1  0.09654300  0.46993500  0.92733600  1
  C  C40  1  0.94711100  0.79100000  0.04431800  1
  C  C41  1  0.74668100  0.90279300  0.95568200  1
  C  C42  1  0.80288900  0.34720700  0.34388900  1
  C  C43  1  0.00331900  0.45900000  0.65611100  1
  C  C44  1  0.71990300  0.49655200  0.16697700  1
  C  C45  1  0.03009700  0.69707400  0.27664900  1
  C  C46  1  0.42042500  0.75344800  0.72335100  1
  C  C47  1  0.32957500  0.55292600  0.83302300  1
  C  C48  1  0.59840700  0.67058900  0.62852100  1
  C  C49  1  0.70793200  0.57941100  0.42781800  1
  C  C50  1  0.04206800  0.96988600  0.37147900  1
  C  C51  1  0.15159300  0.28011400  0.57218200  1
  C  C52  1  0.30283400  0.95794300  0.45452900  1
  C  C53  1  0.50341400  0.84830600  0.54547100  1
  C  C54  1  0.44716600  0.40169400  0.15510800  1
  C  C55  1  0.24658600  0.29205700  0.84489200  1
  C  C56  1  0.44707400  0.67042500  0.16697700  1
  C  C57  1  0.24655200  0.57957500  0.27664900  1
  C  C58  1  0.30292600  0.96990300  0.72335100  1
  C  C59  1  0.50344800  0.28009700  0.83302300  1
  C  C60  1  0.03011400  0.95793200  0.62852100  1
  C  C61  1  0.71988600  0.84840700  0.42781800  1
  C  C62  1  0.32941100  0.40159300  0.37147900  1
  C  C63  1  0.42058900  0.29206800  0.57218200  1
  C  C64  1  0.15169400  0.49658600  0.45452900  1
  C  C65  1  0.04205700  0.69716600  0.54547100  1
  C  C66  1  0.70794300  0.75341400  0.15510800  1
  C  C67  1  0.59830600  0.55283400  0.84489200  1
  C  C68  1  0.80229800  0.07975200  0.33152000  1
  C  C69  1  0.00176800  0.17024800  0.22254600  1
  C  C70  1  0.94770200  0.77922200  0.77745400  1
  C  C71  1  0.74823200  0.47077800  0.66848000  1
  C  C72  1  0.21993500  0.79259900  0.87339200  1
  C  C73  1  0.53006500  0.90345700  0.07266400  1
  C  C74  1  0.91920800  0.34654300  0.12660800  1
  C  C75  1  0.83079200  0.45740100  0.92733600  1
  C  C76  1  0.09720700  0.25331900  0.04431800  1
  C  C77  1  0.20900000  0.05288900  0.95568200  1
  C  C78  1  0.54100000  0.99668100  0.34388900  1
  C  C79  1  0.65279300  0.19711100  0.65611100  1
