# generated using pymatgen
data_Cu2Ni2C11
_symmetry_space_group_name_H-M   'P 1'
_cell_length_a   15.59964188
_cell_length_b   15.59964188
_cell_length_c   15.59964188
_cell_angle_alpha   166.00379012
_cell_angle_beta   166.00379012
_cell_angle_gamma   19.84347759
_symmetry_Int_Tables_number   1
_chemical_formula_structural   Cu2Ni2C11
_chemical_formula_sum   'Cu2 Ni2 C11'
_cell_volume   222.03142791
_cell_formula_units_Z   1
loop_
 _symmetry_equiv_pos_site_id
 _symmetry_equiv_pos_as_xyz
  1  'x, y, z'
loop_
 _atom_site_type_symbol
 _atom_site_label
 _atom_site_symmetry_multiplicity
 _atom_site_fract_x
 _atom_site_fract_y
 _atom_site_fract_z
 _atom_site_occupancy
  C  C0  1  0.11349500  0.11349500  0.00000000  1
  C  C1  1  0.88650500  0.88650500  0.00000000  1
  C  C2  1  0.00000000  0.00000000  0.00000000  1
  Ni  Ni3  1  0.44868800  0.44868800  0.00000000  1
  Ni  Ni4  1  0.55131200  0.55131200  0.00000000  1
  Cu  Cu5  1  0.29710500  0.29710500  0.00000000  1
  Cu  Cu6  1  0.70289500  0.70289500  0.00000000  1
  C  C7  1  0.54833000  0.04833000  0.50000000  1
  C  C8  1  0.45167000  0.95167000  0.50000000  1
  C  C9  1  0.04833000  0.54833000  0.50000000  1
  C  C10  1  0.95167000  0.45167000  0.50000000  1
  C  C11  1  0.20112700  0.20112700  0.00000000  1
  C  C12  1  0.79887300  0.79887300  0.00000000  1
  C  C13  1  0.36604900  0.36604900  0.00000000  1
  C  C14  1  0.63395100  0.63395100  0.00000000  1
