# generated using pymatgen
data_Cu(Ni3C5)4
_symmetry_space_group_name_H-M   'P 1'
_cell_length_a   11.91602500
_cell_length_b   4.80186900
_cell_length_c   6.86676969
_cell_angle_alpha   89.94056624
_cell_angle_beta   90.00000000
_cell_angle_gamma   90.00000000
_symmetry_Int_Tables_number   1
_chemical_formula_structural   Cu(Ni3C5)4
_chemical_formula_sum   'Cu1 Ni12 C20'
_cell_volume   392.91079565
_cell_formula_units_Z   1
loop_
 _symmetry_equiv_pos_site_id
 _symmetry_equiv_pos_as_xyz
  1  'x, y, z'
loop_
 _atom_site_type_symbol
 _atom_site_label
 _atom_site_symmetry_multiplicity
 _atom_site_fract_x
 _atom_site_fract_y
 _atom_site_fract_z
 _atom_site_occupancy
  C  C0  1  0.33160500  0.50000000  0.00000000  1
  C  C1  1  0.83507400  0.50000000  0.50000000  1
  C  C2  1  0.16492600  0.50000000  0.50000000  1
  C  C3  1  0.66839500  0.50000000  0.00000000  1
  C  C4  1  0.16743000  0.00000000  0.50000000  1
  C  C5  1  0.66551300  0.00000000  0.00000000  1
  C  C6  1  0.33448700  0.00000000  0.00000000  1
  C  C7  1  0.83257000  0.00000000  0.50000000  1
  C  C8  1  0.50000000  0.25199300  0.74437600  1
  C  C9  1  0.00000000  0.25823800  0.23809200  1
  C  C10  1  0.37658400  0.25148200  0.37749000  1
  C  C11  1  0.88141500  0.25950400  0.88072100  1
  C  C12  1  0.11858500  0.25950400  0.88072100  1
  C  C13  1  0.62341600  0.25148200  0.37749000  1
  C  C14  1  0.50000000  0.74800700  0.25562400  1
  C  C15  1  0.00000000  0.74176200  0.76190800  1
  C  C16  1  0.11858500  0.74049600  0.11927900  1
  C  C17  1  0.62341600  0.74851800  0.62251000  1
  C  C18  1  0.37658400  0.74851800  0.62251000  1
  C  C19  1  0.88141500  0.74049600  0.11927900  1
  Ni  Ni20  1  0.50000000  0.25002200  0.10344100  1
  Ni  Ni21  1  0.00000000  0.23871300  0.59686400  1
  Ni  Ni22  1  0.20023000  0.23805300  0.19996300  1
  Ni  Ni23  1  0.69988000  0.24896800  0.69986400  1
  Ni  Ni24  1  0.30012000  0.24896800  0.69986400  1
  Ni  Ni25  1  0.79977000  0.23805300  0.19996300  1
  Ni  Ni26  1  0.50000000  0.74997800  0.89655900  1
  Ni  Ni27  1  0.00000000  0.76128700  0.40313600  1
  Ni  Ni28  1  0.30012000  0.75103200  0.30013600  1
  Ni  Ni29  1  0.79977000  0.76194700  0.80003700  1
  Ni  Ni30  1  0.20023000  0.76194700  0.80003700  1
  Ni  Ni31  1  0.69988000  0.75103200  0.30013600  1
  Cu  Cu32  1  0.00000000  0.50000000  0.00000000  1
