# generated using pymatgen
data_Cu12Ni2C3
_symmetry_space_group_name_H-M   'P 1'
_cell_length_a   7.05159800
_cell_length_b   9.61325200
_cell_length_c   12.70405800
_cell_angle_alpha   90.00000000
_cell_angle_beta   90.00000000
_cell_angle_gamma   90.00000000
_symmetry_Int_Tables_number   1
_chemical_formula_structural   Cu12Ni2C3
_chemical_formula_sum   'Cu48 Ni8 C12'
_cell_volume   861.19270183
_cell_formula_units_Z   4
loop_
 _symmetry_equiv_pos_site_id
 _symmetry_equiv_pos_as_xyz
  1  'x, y, z'
loop_
 _atom_site_type_symbol
 _atom_site_label
 _atom_site_symmetry_multiplicity
 _atom_site_fract_x
 _atom_site_fract_y
 _atom_site_fract_z
 _atom_site_occupancy
  C  C0  1  0.05004200  0.02736900  0.63449500  1
  C  C1  1  0.94995800  0.97263100  0.13449500  1
  C  C2  1  0.05004200  0.47263100  0.36550500  1
  C  C3  1  0.94995800  0.52736900  0.86550500  1
  C  C4  1  0.94995800  0.97263100  0.36550500  1
  C  C5  1  0.05004200  0.02736900  0.86550500  1
  C  C6  1  0.94995800  0.52736900  0.63449500  1
  C  C7  1  0.05004200  0.47263100  0.13449500  1
  C  C8  1  0.72231800  0.24884600  0.75000000  1
  C  C9  1  0.27768200  0.75115400  0.25000000  1
  C  C10  1  0.72231800  0.25115400  0.25000000  1
  C  C11  1  0.27768200  0.74884600  0.75000000  1
  Ni  Ni12  1  0.79854000  0.25000000  0.50000000  1
  Ni  Ni13  1  0.20146000  0.75000000  0.00000000  1
  Ni  Ni14  1  0.20146000  0.75000000  0.50000000  1
  Ni  Ni15  1  0.79854000  0.25000000  0.00000000  1
  Ni  Ni16  1  0.30413900  0.42798300  0.75000000  1
  Ni  Ni17  1  0.69586100  0.57201700  0.25000000  1
  Ni  Ni18  1  0.30413900  0.07201700  0.25000000  1
  Ni  Ni19  1  0.69586100  0.92798300  0.75000000  1
  Cu  Cu20  1  0.92032000  0.37942000  0.49919800  1
  Cu  Cu21  1  0.07968000  0.62058000  0.99919800  1
  Cu  Cu22  1  0.92032000  0.12058000  0.50080200  1
  Cu  Cu23  1  0.07968000  0.87942000  0.00080200  1
  Cu  Cu24  1  0.07968000  0.62058000  0.50080200  1
  Cu  Cu25  1  0.92032000  0.37942000  0.00080200  1
  Cu  Cu26  1  0.07968000  0.87942000  0.49919800  1
  Cu  Cu27  1  0.92032000  0.12058000  0.99919800  1
  Cu  Cu28  1  0.67796100  0.25437400  0.59404100  1
  Cu  Cu29  1  0.32203900  0.74562600  0.09404100  1
  Cu  Cu30  1  0.67796100  0.24562600  0.40595900  1
  Cu  Cu31  1  0.32203900  0.75437400  0.90595900  1
  Cu  Cu32  1  0.32203900  0.74562600  0.40595900  1
  Cu  Cu33  1  0.67796100  0.25437400  0.90595900  1
  Cu  Cu34  1  0.32203900  0.75437400  0.59404100  1
  Cu  Cu35  1  0.67796100  0.24562600  0.09404100  1
  Cu  Cu36  1  0.18208900  0.41879400  0.65279600  1
  Cu  Cu37  1  0.81791100  0.58120600  0.15279600  1
  Cu  Cu38  1  0.18208900  0.08120600  0.34720400  1
  Cu  Cu39  1  0.81791100  0.91879400  0.84720400  1
  Cu  Cu40  1  0.81791100  0.58120600  0.34720400  1
  Cu  Cu41  1  0.18208900  0.41879400  0.84720400  1
  Cu  Cu42  1  0.81791100  0.91879400  0.65279600  1
  Cu  Cu43  1  0.18208900  0.08120600  0.15279600  1
  Cu  Cu44  1  0.43612900  0.31239000  0.75000000  1
  Cu  Cu45  1  0.56387100  0.68761000  0.25000000  1
  Cu  Cu46  1  0.43612900  0.18761000  0.25000000  1
  Cu  Cu47  1  0.56387100  0.81239000  0.75000000  1
  Cu  Cu48  1  0.59164700  0.06373000  0.75000000  1
  Cu  Cu49  1  0.40835300  0.93627000  0.25000000  1
  Cu  Cu50  1  0.59164700  0.43627000  0.25000000  1
  Cu  Cu51  1  0.40835300  0.56373000  0.75000000  1
  Cu  Cu52  1  0.24750300  0.10472700  0.60599300  1
  Cu  Cu53  1  0.75249700  0.89527300  0.10599300  1
  Cu  Cu54  1  0.24750300  0.39527300  0.39400700  1
  Cu  Cu55  1  0.75249700  0.60472700  0.89400700  1
  Cu  Cu56  1  0.75249700  0.89527300  0.39400700  1
  Cu  Cu57  1  0.24750300  0.10472700  0.89400700  1
  Cu  Cu58  1  0.75249700  0.60472700  0.60599300  1
  Cu  Cu59  1  0.24750300  0.39527300  0.10599300  1
  Cu  Cu60  1  0.83903500  0.42045900  0.75000000  1
  Cu  Cu61  1  0.16096500  0.57954100  0.25000000  1
  Cu  Cu62  1  0.83903500  0.07954100  0.25000000  1
  Cu  Cu63  1  0.16096500  0.92045900  0.75000000  1
  Cu  Cu64  1  0.96434900  0.14469200  0.75000000  1
  Cu  Cu65  1  0.03565100  0.85530800  0.25000000  1
  Cu  Cu66  1  0.96434900  0.35530800  0.25000000  1
  Cu  Cu67  1  0.03565100  0.64469200  0.75000000  1
