# generated using pymatgen
data_Cu11NiC6
_symmetry_space_group_name_H-M   'P 1'
_cell_length_a   14.94241000
_cell_length_b   6.60550300
_cell_length_c   12.71103612
_cell_angle_alpha   59.61575771
_cell_angle_beta   90.00000000
_cell_angle_gamma   90.00000000
_symmetry_Int_Tables_number   1
_chemical_formula_structural   Cu11NiC6
_chemical_formula_sum   'Cu44 Ni4 C24'
_cell_volume   1082.28972636
_cell_formula_units_Z   4
loop_
 _symmetry_equiv_pos_site_id
 _symmetry_equiv_pos_as_xyz
  1  'x, y, z'
loop_
 _atom_site_type_symbol
 _atom_site_label
 _atom_site_symmetry_multiplicity
 _atom_site_fract_x
 _atom_site_fract_y
 _atom_site_fract_z
 _atom_site_occupancy
  C  C0  1  0.30939900  0.99229700  0.17911000  1
  C  C1  1  0.19060100  0.99229700  0.67911000  1
  C  C2  1  0.69060100  0.00770300  0.82089000  1
  C  C3  1  0.80939900  0.00770300  0.32089000  1
  C  C4  1  0.21345500  0.50808300  0.36815600  1
  C  C5  1  0.28654500  0.50808300  0.86815600  1
  C  C6  1  0.78654500  0.49191700  0.63184400  1
  C  C7  1  0.71345500  0.49191700  0.13184400  1
  C  C8  1  0.25373700  0.40824400  0.21507200  1
  C  C9  1  0.24626300  0.40824400  0.71507200  1
  C  C10  1  0.74626300  0.59175600  0.78492800  1
  C  C11  1  0.75373700  0.59175600  0.28492800  1
  C  C12  1  0.32363600  0.67708500  0.00198400  1
  C  C13  1  0.17636400  0.67708500  0.50198400  1
  C  C14  1  0.67636400  0.32291500  0.99801600  1
  C  C15  1  0.82363600  0.32291500  0.49801600  1
  C  C16  1  0.54060600  0.10922400  0.09325400  1
  C  C17  1  0.95939400  0.10922400  0.59325400  1
  C  C18  1  0.45939400  0.89077600  0.90674600  1
  C  C19  1  0.04060600  0.89077600  0.40674600  1
  C  C20  1  0.32518300  0.10413300  0.90599700  1
  C  C21  1  0.17481700  0.10413300  0.40599700  1
  C  C22  1  0.67481700  0.89586700  0.09400300  1
  C  C23  1  0.82518200  0.89586700  0.59400300  1
  Ni  Ni24  1  0.07058000  0.17128800  0.04528600  1
  Ni  Ni25  1  0.42942000  0.17128800  0.54528600  1
  Ni  Ni26  1  0.92942000  0.82871200  0.95471400  1
  Ni  Ni27  1  0.57058000  0.82871200  0.45471400  1
  Cu  Cu28  1  0.29481800  0.88245800  0.00930300  1
  Cu  Cu29  1  0.20518200  0.88245800  0.50930300  1
  Cu  Cu30  1  0.70518200  0.11754200  0.99069700  1
  Cu  Cu31  1  0.79481800  0.11754200  0.49069700  1
  Cu  Cu32  1  0.29594300  0.45317400  0.11117900  1
  Cu  Cu33  1  0.20405700  0.45317400  0.61117900  1
  Cu  Cu34  1  0.70405700  0.54682600  0.88882100  1
  Cu  Cu35  1  0.79594300  0.54682600  0.38882100  1
  Cu  Cu36  1  0.45591700  0.10329900  0.14000500  1
  Cu  Cu37  1  0.04408300  0.10329900  0.64000500  1
  Cu  Cu38  1  0.54408300  0.89670100  0.85999500  1
  Cu  Cu39  1  0.95591700  0.89670100  0.35999500  1
  Cu  Cu40  1  0.22366900  0.68266800  0.39366800  1
  Cu  Cu41  1  0.27633100  0.68266800  0.89366800  1
  Cu  Cu42  1  0.77633100  0.31733200  0.60633200  1
  Cu  Cu43  1  0.72366900  0.31733200  0.10633200  1
  Cu  Cu44  1  0.41870500  0.67850300  0.97980100  1
  Cu  Cu45  1  0.08129500  0.67850300  0.47980100  1
  Cu  Cu46  1  0.58129500  0.32149700  0.02019900  1
  Cu  Cu47  1  0.91870500  0.32149700  0.52019900  1
  Cu  Cu48  1  0.23194100  0.17753900  0.29343600  1
  Cu  Cu49  1  0.26805900  0.17753900  0.79343600  1
  Cu  Cu50  1  0.76805900  0.82246100  0.70656400  1
  Cu  Cu51  1  0.73194100  0.82246100  0.20656400  1
  Cu  Cu52  1  0.58227700  0.89933000  0.12521500  1
  Cu  Cu53  1  0.91772300  0.89933000  0.62521500  1
  Cu  Cu54  1  0.41772300  0.10067000  0.87478500  1
  Cu  Cu55  1  0.08227700  0.10067000  0.37478500  1
  Cu  Cu56  1  0.23694000  0.57833000  0.24661200  1
  Cu  Cu57  1  0.26306000  0.57833000  0.74661200  1
  Cu  Cu58  1  0.76306000  0.42167000  0.75338800  1
  Cu  Cu59  1  0.73694000  0.42167000  0.25338800  1
  Cu  Cu60  1  0.42489400  0.73089800  0.29375700  1
  Cu  Cu61  1  0.07510600  0.73089800  0.79375700  1
  Cu  Cu62  1  0.57510600  0.26910200  0.70624300  1
  Cu  Cu63  1  0.92489400  0.26910200  0.20624300  1
  Cu  Cu64  1  0.30936400  0.28006900  0.94668100  1
  Cu  Cu65  1  0.19063600  0.28006900  0.44668100  1
  Cu  Cu66  1  0.69063600  0.71993100  0.05331900  1
  Cu  Cu67  1  0.80936400  0.71993100  0.55331900  1
  Cu  Cu68  1  0.46891300  0.92560300  0.37573200  1
  Cu  Cu69  1  0.03108700  0.92560300  0.87573200  1
  Cu  Cu70  1  0.53108700  0.07439700  0.62426800  1
  Cu  Cu71  1  0.96891300  0.07439700  0.12426800  1
