# generated using pymatgen
data_Cu9Ni3C
_symmetry_space_group_name_H-M   'P 1'
_cell_length_a   6.11579200
_cell_length_b   9.65046800
_cell_length_c   11.18347442
_cell_angle_alpha   86.56822195
_cell_angle_beta   90.00000000
_cell_angle_gamma   90.00000000
_symmetry_Int_Tables_number   1
_chemical_formula_structural   Cu9Ni3C
_chemical_formula_sum   'Cu36 Ni12 C4'
_cell_volume   658.86789497
_cell_formula_units_Z   4
loop_
 _symmetry_equiv_pos_site_id
 _symmetry_equiv_pos_as_xyz
  1  'x, y, z'
loop_
 _atom_site_type_symbol
 _atom_site_label
 _atom_site_symmetry_multiplicity
 _atom_site_fract_x
 _atom_site_fract_y
 _atom_site_fract_z
 _atom_site_occupancy
  C  C0  1  0.67593800  0.28753500  0.73154200  1
  C  C1  1  0.17593800  0.21246500  0.26845800  1
  C  C2  1  0.32406200  0.71246500  0.26845800  1
  C  C3  1  0.82406200  0.78753500  0.73154200  1
  Ni  Ni4  1  0.37844400  0.16795500  0.49287200  1
  Ni  Ni5  1  0.87844400  0.33204500  0.50712800  1
  Ni  Ni6  1  0.62155600  0.83204500  0.50712800  1
  Ni  Ni7  1  0.12155600  0.66795500  0.49287200  1
  Ni  Ni8  1  0.72795200  0.19733800  0.21670400  1
  Ni  Ni9  1  0.22795200  0.30266200  0.78329600  1
  Ni  Ni10  1  0.27204800  0.80266200  0.78329600  1
  Ni  Ni11  1  0.77204800  0.69733800  0.21670400  1
  Ni  Ni12  1  0.71770300  0.52289700  0.87975400  1
  Ni  Ni13  1  0.21770300  0.97710300  0.12024600  1
  Ni  Ni14  1  0.28229700  0.47710300  0.12024600  1
  Ni  Ni15  1  0.78229700  0.02289700  0.87975400  1
  Cu  Cu16  1  0.42366300  0.27420300  0.42387300  1
  Cu  Cu17  1  0.92366300  0.22579700  0.57612700  1
  Cu  Cu18  1  0.57633700  0.72579700  0.57612700  1
  Cu  Cu19  1  0.07633700  0.77420300  0.42387300  1
  Cu  Cu20  1  0.24881900  0.07938600  0.45194000  1
  Cu  Cu21  1  0.74881900  0.42061400  0.54806000  1
  Cu  Cu22  1  0.75118100  0.92061400  0.54806000  1
  Cu  Cu23  1  0.25118100  0.57938600  0.45194000  1
  Cu  Cu24  1  0.45620800  0.15119800  0.59642100  1
  Cu  Cu25  1  0.95620800  0.34880200  0.40357900  1
  Cu  Cu26  1  0.54379200  0.84880200  0.40357900  1
  Cu  Cu27  1  0.04379200  0.65119800  0.59642100  1
  Cu  Cu28  1  0.81999900  0.10408400  0.28490000  1
  Cu  Cu29  1  0.31999900  0.39591600  0.71510000  1
  Cu  Cu30  1  0.18000100  0.89591600  0.71510000  1
  Cu  Cu31  1  0.68000100  0.60408400  0.28490000  1
  Cu  Cu32  1  0.52805900  0.19264500  0.19310100  1
  Cu  Cu33  1  0.02805900  0.30735500  0.80689900  1
  Cu  Cu34  1  0.47194100  0.80735500  0.80689900  1
  Cu  Cu35  1  0.97194100  0.69264500  0.19310100  1
  Cu  Cu36  1  0.84666400  0.29472700  0.17167700  1
  Cu  Cu37  1  0.34666400  0.20527300  0.82832300  1
  Cu  Cu38  1  0.15333600  0.70527300  0.82832300  1
  Cu  Cu39  1  0.65333600  0.79472700  0.17167700  1
  Cu  Cu40  1  0.72885900  0.54386900  0.76263600  1
  Cu  Cu41  1  0.22885900  0.95613100  0.23736400  1
  Cu  Cu42  1  0.27114100  0.45613100  0.23736400  1
  Cu  Cu43  1  0.77114100  0.04386900  0.76263600  1
  Cu  Cu44  1  0.65777700  0.40301300  0.91765500  1
  Cu  Cu45  1  0.15777700  0.09698700  0.08234500  1
  Cu  Cu46  1  0.34222300  0.59698700  0.08234500  1
  Cu  Cu47  1  0.84222300  0.90301300  0.91765500  1
  Cu  Cu48  1  0.76671800  0.61816000  0.94286500  1
  Cu  Cu49  1  0.26671800  0.88184000  0.05713500  1
  Cu  Cu50  1  0.23328200  0.38184000  0.05713500  1
  Cu  Cu51  1  0.73328200  0.11816000  0.94286500  1
