# generated using pymatgen
data_Cu3NiC
_symmetry_space_group_name_H-M   'P 1'
_cell_length_a   5.19954900
_cell_length_b   6.44930100
_cell_length_c   7.19932600
_cell_angle_alpha   90.00000000
_cell_angle_beta   90.00000000
_cell_angle_gamma   90.00000000
_symmetry_Int_Tables_number   1
_chemical_formula_structural   Cu3NiC
_chemical_formula_sum   'Cu12 Ni4 C4'
_cell_volume   241.41828572
_cell_formula_units_Z   4
loop_
 _symmetry_equiv_pos_site_id
 _symmetry_equiv_pos_as_xyz
  1  'x, y, z'
loop_
 _atom_site_type_symbol
 _atom_site_label
 _atom_site_symmetry_multiplicity
 _atom_site_fract_x
 _atom_site_fract_y
 _atom_site_fract_z
 _atom_site_occupancy
  C  C0  1  0.00000000  0.48240000  0.02795600  1
  C  C1  1  0.00000000  0.51760000  0.52795600  1
  C  C2  1  0.50000000  0.13040700  0.32622500  1
  C  C3  1  0.50000000  0.86959200  0.82622500  1
  Ni  Ni4  1  0.50000000  0.58077800  0.24321400  1
  Ni  Ni5  1  0.50000000  0.41922200  0.74321400  1
  Ni  Ni6  1  0.00000000  0.03596200  0.99833000  1
  Ni  Ni7  1  0.00000000  0.96403800  0.49833000  1
  Cu  Cu8  1  0.00000000  0.14137900  0.41544900  1
  Cu  Cu9  1  0.00000000  0.85862100  0.91544900  1
  Cu  Cu10  1  0.28786400  0.48429100  0.28052600  1
  Cu  Cu11  1  0.71213600  0.51570900  0.78052600  1
  Cu  Cu12  1  0.28786400  0.51570900  0.78052600  1
  Cu  Cu13  1  0.71213600  0.48429100  0.28052600  1
  Cu  Cu14  1  0.21912900  0.12514000  0.03416700  1
  Cu  Cu15  1  0.78087100  0.87486000  0.53416700  1
  Cu  Cu16  1  0.21912900  0.87486000  0.53416700  1
  Cu  Cu17  1  0.78087100  0.12514000  0.03416700  1
  Cu  Cu18  1  0.50000000  0.23657400  0.66544000  1
  Cu  Cu19  1  0.50000000  0.76342600  0.16544000  1
