# generated using pymatgen
data_Cu6NiC9
_symmetry_space_group_name_H-M   'P 1'
_cell_length_a   10.51205051
_cell_length_b   10.51205051
_cell_length_c   10.51205051
_cell_angle_alpha   140.67049916
_cell_angle_beta   140.67049916
_cell_angle_gamma   56.83664238
_symmetry_Int_Tables_number   1
_chemical_formula_structural   Cu6NiC9
_chemical_formula_sum   'Cu12 Ni2 C18'
_cell_volume   462.77275611
_cell_formula_units_Z   2
loop_
 _symmetry_equiv_pos_site_id
 _symmetry_equiv_pos_as_xyz
  1  'x, y, z'
loop_
 _atom_site_type_symbol
 _atom_site_label
 _atom_site_symmetry_multiplicity
 _atom_site_fract_x
 _atom_site_fract_y
 _atom_site_fract_z
 _atom_site_occupancy
  Ni  Ni0  1  0.75000000  0.25000000  0.50000000  1
  Ni  Ni1  1  0.00000000  0.00000000  0.00000000  1
  C  C2  1  0.25000000  0.75000000  0.50000000  1
  C  C3  1  0.50000000  0.50000000  0.00000000  1
  Cu  Cu4  1  0.17039500  0.62500000  0.04539500  1
  Cu  Cu5  1  0.57960500  0.62500000  0.45460500  1
  Cu  Cu6  1  0.37500000  0.42039500  0.54539500  1
  Cu  Cu7  1  0.87500000  0.42039500  0.04539500  1
  Cu  Cu8  1  0.17039500  0.12500000  0.54539500  1
  Cu  Cu9  1  0.57960500  0.12500000  0.95460500  1
  Cu  Cu10  1  0.37500000  0.82960500  0.95460500  1
  Cu  Cu11  1  0.87500000  0.82960500  0.45460500  1
  Cu  Cu12  1  0.74009300  0.74009300  0.00000000  1
  Cu  Cu13  1  0.49009300  0.99009300  0.50000000  1
  Cu  Cu14  1  0.00990700  0.50990700  0.50000000  1
  Cu  Cu15  1  0.25990700  0.25990700  0.00000000  1
  C  C16  1  0.10937300  0.80180000  0.30757300  1
  C  C17  1  0.49422700  0.80180000  0.69242700  1
  C  C18  1  0.55180000  0.35937300  0.80757300  1
  C  C19  1  0.55180000  0.74422700  0.19242700  1
  C  C20  1  0.64062700  0.44820000  0.19242700  1
  C  C21  1  0.25577300  0.44820000  0.80757300  1
  C  C22  1  0.19820000  0.89062700  0.69242700  1
  C  C23  1  0.19820000  0.50577300  0.30757300  1
  C  C24  1  0.80139400  0.10617600  0.30478200  1
  C  C25  1  0.85617600  0.05139400  0.80478200  1
  C  C26  1  0.24661200  0.05139400  0.19521800  1
  C  C27  1  0.80139400  0.49661200  0.69521800  1
  C  C28  1  0.94860600  0.14382400  0.19521800  1
  C  C29  1  0.89382400  0.19860600  0.69521800  1
  C  C30  1  0.50338800  0.19860600  0.30478200  1
  C  C31  1  0.94860600  0.75338800  0.80478200  1
