# generated using pymatgen
data_Cu4NiC20
_symmetry_space_group_name_H-M   'P 1'
_cell_length_a   4.01397200
_cell_length_b   4.01397200
_cell_length_c   19.93764000
_cell_angle_alpha   90.00000000
_cell_angle_beta   90.00000000
_cell_angle_gamma   90.00000000
_symmetry_Int_Tables_number   1
_chemical_formula_structural   Cu4NiC20
_chemical_formula_sum   'Cu4 Ni1 C20'
_cell_volume   321.23468181
_cell_formula_units_Z   1
loop_
 _symmetry_equiv_pos_site_id
 _symmetry_equiv_pos_as_xyz
  1  'x, y, z'
loop_
 _atom_site_type_symbol
 _atom_site_label
 _atom_site_symmetry_multiplicity
 _atom_site_fract_x
 _atom_site_fract_y
 _atom_site_fract_z
 _atom_site_occupancy
  C  C0  1  0.50000000  0.50000000  0.10943100  1
  C  C1  1  0.50000000  0.50000000  0.30317100  1
  C  C2  1  0.50000000  0.50000000  0.50000000  1
  C  C3  1  0.50000000  0.50000000  0.69682900  1
  C  C4  1  0.50000000  0.50000000  0.89056900  1
  Ni  Ni5  1  0.00000000  0.00000000  0.00000000  1
  Cu  Cu6  1  0.00000000  0.00000000  0.20422800  1
  Cu  Cu7  1  0.00000000  0.00000000  0.40106000  1
  Cu  Cu8  1  0.00000000  0.00000000  0.59894000  1
  Cu  Cu9  1  0.00000000  0.00000000  0.79577200  1
  C  C10  1  0.00000000  0.00000000  0.10772600  1
  C  C11  1  0.00000000  0.00000000  0.30309800  1
  C  C12  1  0.00000000  0.00000000  0.50000000  1
  C  C13  1  0.00000000  0.00000000  0.69690200  1
  C  C14  1  0.00000000  0.00000000  0.89227400  1
  C  C15  1  0.00000000  0.50000000  0.00000000  1
  C  C16  1  0.00000000  0.50000000  0.20444400  1
  C  C17  1  0.00000000  0.50000000  0.40087500  1
  C  C18  1  0.00000000  0.50000000  0.59912500  1
  C  C19  1  0.00000000  0.50000000  0.79555600  1
  C  C20  1  0.50000000  0.00000000  0.00000000  1
  C  C21  1  0.50000000  0.00000000  0.20444400  1
  C  C22  1  0.50000000  0.00000000  0.40087500  1
  C  C23  1  0.50000000  0.00000000  0.59912500  1
  C  C24  1  0.50000000  0.00000000  0.79555600  1
