# generated using pymatgen
data_Cu4Ni4C9
_symmetry_space_group_name_H-M   'P 1'
_cell_length_a   8.17310052
_cell_length_b   13.56317849
_cell_length_c   10.35321000
_cell_angle_alpha   90.00000000
_cell_angle_beta   90.00000000
_cell_angle_gamma   91.05456077
_symmetry_Int_Tables_number   1
_chemical_formula_structural   Cu4Ni4C9
_chemical_formula_sum   'Cu16 Ni16 C36'
_cell_volume   1147.49228529
_cell_formula_units_Z   4
loop_
 _symmetry_equiv_pos_site_id
 _symmetry_equiv_pos_as_xyz
  1  'x, y, z'
loop_
 _atom_site_type_symbol
 _atom_site_label
 _atom_site_symmetry_multiplicity
 _atom_site_fract_x
 _atom_site_fract_y
 _atom_site_fract_z
 _atom_site_occupancy
  C  C0  1  0.31016600  0.13045300  0.75000000  1
  C  C1  1  0.68983400  0.86954700  0.25000000  1
  C  C2  1  0.81453700  0.36829600  0.75000000  1
  C  C3  1  0.18546300  0.63170400  0.25000000  1
  C  C4  1  0.99020800  0.05431800  0.67478900  1
  C  C5  1  0.00979200  0.94568200  0.17478900  1
  C  C6  1  0.00979200  0.94568200  0.32521100  1
  C  C7  1  0.99020800  0.05431800  0.82521100  1
  C  C8  1  0.65926800  0.10764000  0.67289100  1
  C  C9  1  0.34073200  0.89236000  0.17289100  1
  C  C10  1  0.34073200  0.89236000  0.32710900  1
  C  C11  1  0.65926800  0.10764000  0.82710900  1
  C  C12  1  0.16524500  0.39246400  0.67284000  1
  C  C13  1  0.83475500  0.60753600  0.17284000  1
  C  C14  1  0.83475500  0.60753600  0.32716000  1
  C  C15  1  0.16524500  0.39246400  0.82716000  1
  C  C16  1  0.50191400  0.44187500  0.67481300  1
  C  C17  1  0.49808600  0.55812500  0.17481300  1
  C  C18  1  0.49808600  0.55812500  0.32518700  1
  C  C19  1  0.50191400  0.44187500  0.82518700  1
  Ni  Ni20  1  0.32366600  0.85991300  0.67947300  1
  Ni  Ni21  1  0.67633400  0.14008700  0.17947300  1
  Ni  Ni22  1  0.67633400  0.14008700  0.32052700  1
  Ni  Ni23  1  0.32366600  0.85991300  0.82052700  1
  Ni  Ni24  1  0.32002700  0.75228200  0.67928900  1
  Ni  Ni25  1  0.67997300  0.24771800  0.17928900  1
  Ni  Ni26  1  0.67997300  0.24771800  0.32071100  1
  Ni  Ni27  1  0.32002700  0.75228200  0.82071100  1
  Ni  Ni28  1  0.82461500  0.64065400  0.67945400  1
  Ni  Ni29  1  0.17538500  0.35934600  0.17945400  1
  Ni  Ni30  1  0.17538500  0.35934600  0.32054600  1
  Ni  Ni31  1  0.82461500  0.64065400  0.82054600  1
  Ni  Ni32  1  0.81862000  0.74816800  0.67922600  1
  Ni  Ni33  1  0.18138000  0.25183200  0.17922600  1
  Ni  Ni34  1  0.18138000  0.25183200  0.32077400  1
  Ni  Ni35  1  0.81862000  0.74816800  0.82077400  1
  Cu  Cu36  1  0.31603500  0.95061000  0.57102100  1
  Cu  Cu37  1  0.68396500  0.04939000  0.07102100  1
  Cu  Cu38  1  0.68396500  0.04939000  0.42897900  1
  Cu  Cu39  1  0.31603500  0.95061000  0.92897900  1
  Cu  Cu40  1  0.29184200  0.65782500  0.58002700  1
  Cu  Cu41  1  0.70815800  0.34217500  0.08002700  1
  Cu  Cu42  1  0.70815800  0.34217500  0.41997300  1
  Cu  Cu43  1  0.29184200  0.65782500  0.91997300  1
  Cu  Cu44  1  0.78947200  0.84215300  0.58045900  1
  Cu  Cu45  1  0.21052800  0.15784700  0.08045900  1
  Cu  Cu46  1  0.21052800  0.15784700  0.41954100  1
  Cu  Cu47  1  0.78947200  0.84215300  0.91954100  1
  Cu  Cu48  1  0.81867800  0.54963200  0.57128700  1
  Cu  Cu49  1  0.18132200  0.45036800  0.07128700  1
  Cu  Cu50  1  0.18132200  0.45036800  0.42871300  1
  Cu  Cu51  1  0.81867800  0.54963200  0.92871300  1
  C  C52  1  0.01393500  0.09559700  0.75000000  1
  C  C53  1  0.98606500  0.90440300  0.25000000  1
  C  C54  1  0.60335700  0.13236900  0.75000000  1
  C  C55  1  0.39664300  0.86763100  0.25000000  1
  C  C56  1  0.10697600  0.36862900  0.75000000  1
  C  C57  1  0.89302400  0.63137100  0.25000000  1
  C  C58  1  0.51915800  0.39983900  0.75000000  1
  C  C59  1  0.48084200  0.60016100  0.25000000  1
  C  C60  1  0.73846200  0.30373400  0.55751600  1
  C  C61  1  0.26153800  0.69626600  0.05751600  1
  C  C62  1  0.26153800  0.69626600  0.44248400  1
  C  C63  1  0.73846200  0.30373400  0.94248400  1
  C  C64  1  0.23747500  0.19607400  0.55792900  1
  C  C65  1  0.76252500  0.80392600  0.05792900  1
  C  C66  1  0.76252500  0.80392600  0.44207100  1
  C  C67  1  0.23747500  0.19607400  0.94207100  1
