# generated using pymatgen
data_CuNi2C5
_symmetry_space_group_name_H-M   'P 1'
_cell_length_a   6.68795600
_cell_length_b   7.28423900
_cell_length_c   11.01787500
_cell_angle_alpha   90.00000000
_cell_angle_beta   90.00000000
_cell_angle_gamma   90.00000000
_symmetry_Int_Tables_number   1
_chemical_formula_structural   CuNi2C5
_chemical_formula_sum   'Cu4 Ni8 C20'
_cell_volume   536.75417966
_cell_formula_units_Z   4
loop_
 _symmetry_equiv_pos_site_id
 _symmetry_equiv_pos_as_xyz
  1  'x, y, z'
loop_
 _atom_site_type_symbol
 _atom_site_label
 _atom_site_symmetry_multiplicity
 _atom_site_fract_x
 _atom_site_fract_y
 _atom_site_fract_z
 _atom_site_occupancy
  Ni  Ni0  1  0.52821100  0.49809400  0.82773300  1
  Ni  Ni1  1  0.47178900  0.50190600  0.17226700  1
  Ni  Ni2  1  0.02821100  0.50190600  0.67226700  1
  Ni  Ni3  1  0.47178900  0.99809400  0.17226700  1
  Ni  Ni4  1  0.97178900  0.49809400  0.32773300  1
  Ni  Ni5  1  0.52821100  0.00190600  0.82773300  1
  Ni  Ni6  1  0.97178900  0.00190600  0.32773300  1
  Ni  Ni7  1  0.02821100  0.99809400  0.67226700  1
  Cu  Cu8  1  0.56440200  0.75000000  0.50124000  1
  Cu  Cu9  1  0.43559800  0.25000000  0.49876000  1
  Cu  Cu10  1  0.06440200  0.25000000  0.99876000  1
  Cu  Cu11  1  0.93559800  0.75000000  0.00124000  1
  C  C12  1  0.83659000  0.75000000  0.81005300  1
  C  C13  1  0.16341000  0.25000000  0.18994700  1
  C  C14  1  0.33659000  0.25000000  0.68994700  1
  C  C15  1  0.66341000  0.75000000  0.31005300  1
  C  C16  1  0.36843000  0.75000000  0.66126700  1
  C  C17  1  0.63157000  0.25000000  0.33873300  1
  C  C18  1  0.86843000  0.25000000  0.83873300  1
  C  C19  1  0.13157000  0.75000000  0.16126700  1
  C  C20  1  0.89131900  0.75000000  0.51349600  1
  C  C21  1  0.10868100  0.25000000  0.48650400  1
  C  C22  1  0.39131900  0.25000000  0.98650400  1
  C  C23  1  0.60868100  0.75000000  0.01349600  1
  C  C24  1  0.64277300  0.03386800  0.57750400  1
  C  C25  1  0.35722700  0.96613200  0.42249600  1
  C  C26  1  0.14277300  0.96613200  0.92249600  1
  C  C27  1  0.35722700  0.53386800  0.42249600  1
  C  C28  1  0.85722700  0.03386800  0.07750400  1
  C  C29  1  0.64277300  0.46613200  0.57750400  1
  C  C30  1  0.85722700  0.46613200  0.07750400  1
  C  C31  1  0.14277300  0.53386800  0.92249600  1
