# generated using pymatgen
data_CuNiC5
_symmetry_space_group_name_H-M   'P 1'
_cell_length_a   3.20663400
_cell_length_b   9.58248100
_cell_length_c   9.67411500
_cell_angle_alpha   90.00000000
_cell_angle_beta   90.00000000
_cell_angle_gamma   90.00000000
_symmetry_Int_Tables_number   1
_chemical_formula_structural   CuNiC5
_chemical_formula_sum   'Cu4 Ni4 C20'
_cell_volume   297.26145940
_cell_formula_units_Z   4
loop_
 _symmetry_equiv_pos_site_id
 _symmetry_equiv_pos_as_xyz
  1  'x, y, z'
loop_
 _atom_site_type_symbol
 _atom_site_label
 _atom_site_symmetry_multiplicity
 _atom_site_fract_x
 _atom_site_fract_y
 _atom_site_fract_z
 _atom_site_occupancy
  Ni  Ni0  1  0.25000000  0.17992400  0.10001100  1
  Ni  Ni1  1  0.75000000  0.67992400  0.39998900  1
  Ni  Ni2  1  0.25000000  0.32007600  0.60001100  1
  Ni  Ni3  1  0.75000000  0.82007600  0.89998900  1
  Cu  Cu4  1  0.25000000  0.56292200  0.11666600  1
  Cu  Cu5  1  0.75000000  0.06292200  0.38333400  1
  Cu  Cu6  1  0.25000000  0.93707800  0.61666600  1
  Cu  Cu7  1  0.75000000  0.43707800  0.88333400  1
  C  C8  1  0.25000000  0.86714500  0.17155200  1
  C  C9  1  0.75000000  0.36714500  0.32844800  1
  C  C10  1  0.25000000  0.63285500  0.67155200  1
  C  C11  1  0.75000000  0.13285500  0.82844800  1
  C  C12  1  0.25000000  0.38732300  0.00208900  1
  C  C13  1  0.25000000  0.87378900  0.03166300  1
  C  C14  1  0.25000000  0.99211300  0.24939300  1
  C  C15  1  0.25000000  0.73869600  0.24011300  1
  C  C16  1  0.75000000  0.23869600  0.25988700  1
  C  C17  1  0.75000000  0.49211300  0.25060700  1
  C  C18  1  0.75000000  0.37378900  0.46833700  1
  C  C19  1  0.75000000  0.88732300  0.49791100  1
  C  C20  1  0.25000000  0.11267700  0.50208900  1
  C  C21  1  0.25000000  0.62621100  0.53166300  1
  C  C22  1  0.25000000  0.50788700  0.74939300  1
  C  C23  1  0.25000000  0.76130400  0.74011300  1
  C  C24  1  0.75000000  0.26130400  0.75988700  1
  C  C25  1  0.75000000  0.00788700  0.75060700  1
  C  C26  1  0.75000000  0.12621100  0.96833700  1
  C  C27  1  0.75000000  0.61267700  0.99791100  1
