# generated using pymatgen
data_Cu7(NiC5)3
_symmetry_space_group_name_H-M   'P 1'
_cell_length_a   8.26756652
_cell_length_b   9.37760203
_cell_length_c   8.13637938
_cell_angle_alpha   104.96861054
_cell_angle_beta   98.56358804
_cell_angle_gamma   70.36879291
_symmetry_Int_Tables_number   1
_chemical_formula_structural   Cu7(NiC5)3
_chemical_formula_sum   'Cu14 Ni6 C30'
_cell_volume   572.64626828
_cell_formula_units_Z   2
loop_
 _symmetry_equiv_pos_site_id
 _symmetry_equiv_pos_as_xyz
  1  'x, y, z'
loop_
 _atom_site_type_symbol
 _atom_site_label
 _atom_site_symmetry_multiplicity
 _atom_site_fract_x
 _atom_site_fract_y
 _atom_site_fract_z
 _atom_site_occupancy
  C  C0  1  0.30628699  0.18030157  0.21394303  1
  C  C1  1  0.67096158  0.83379221  0.77814696  1
  C  C2  1  0.19834791  0.45995183  0.50803857  1
  C  C3  1  0.13730456  0.55435277  0.36367912  1
  C  C4  1  0.83847222  0.46652361  0.64462365  1
  C  C5  1  0.97254825  0.54103196  0.61709238  1
  C  C6  1  0.64096212  0.26020604  0.48438979  1
  C  C7  1  0.46579362  0.38276811  0.53976207  1
  C  C8  1  0.36969133  0.74091054  0.49704858  1
  C  C9  1  0.55718519  0.63634884  0.43788646  1
  C  C10  1  0.51201725  0.38982508  0.12793485  1
  C  C11  1  0.34527384  0.40831521  -0.00025619  1
  C  C12  1  0.63477019  0.60012227  0.98524256  1
  C  C13  1  0.47774094  0.61585270  0.84392690  1
  C  C14  1  0.02052598  0.29621950  0.92444860  1
  C  C15  1  0.95125633  0.40617103  0.09826605  1
  C  C16  1  0.98039921  0.76615174  0.02402773  1
  C  C17  1  0.99662131  0.59836625  0.92457024  1
  C  C18  1  0.36932730  0.16643908  0.61123594  1
  C  C19  1  0.18367769  0.15026112  0.56492558  1
  C  C20  1  0.67253172  0.86115708  0.39333945  1
  C  C21  1  0.86111636  0.84740650  0.46755289  1
  C  C22  1  0.28417880  0.84172227  0.23802260  1
  C  C23  1  0.46402769  0.81794675  0.16780516  1
  C  C24  1  0.55234271  0.19937182  0.88555364  1
  C  C25  1  0.68984703  0.16058821  0.74765156  1
  C  C26  1  0.91374654  0.19238131  0.21866098  1
  C  C27  1  0.01948781  0.03616278  0.27491637  1
  C  C28  1  0.07747677  0.79774438  0.76664221  1
  C  C29  1  0.00804648  0.97776265  0.81988165  1
  Ni  Ni30  1  0.65740345  0.99343818  0.14642543  1
  Ni  Ni31  1  0.30674066  0.01024514  0.85269208  1
  Ni  Ni32  1  0.87823728  0.23928585  0.67400243  1
  Ni  Ni33  1  0.11214645  0.79499357  0.37689504  1
  Ni  Ni34  1  0.26342156  0.53122302  0.76952434  1
  Ni  Ni35  1  0.69558249  0.49766298  0.20642918  1
  Cu  Cu36  1  0.15814577  0.44972916  0.38551026  1
  Cu  Cu37  1  0.85022658  0.56553693  0.63241655  1
  Cu  Cu38  1  0.51837500  0.29845550  0.44486592  1
  Cu  Cu39  1  0.49382981  0.71056404  0.53567446  1
  Cu  Cu40  1  0.42549069  0.33657149  0.06678951  1
  Cu  Cu41  1  0.58024543  0.65010424  0.88844457  1
  Cu  Cu42  1  0.05894075  0.34264676  0.04132349  1
  Cu  Cu43  1  0.91326577  0.69402788  0.98203714  1
  Cu  Cu44  1  0.27672657  0.16905650  0.51988732  1
  Cu  Cu45  1  0.74429094  0.86362158  0.50032597  1
  Cu  Cu46  1  0.36142837  0.89583391  0.21814897  1
  Cu  Cu47  1  0.60111084  0.12476693  0.78068994  1
  Cu  Cu48  1  0.02811501  0.11505132  0.21973970  1
  Cu  Cu49  1  0.97500886  0.88409880  0.80781632  1
