# generated using pymatgen
data_Cu48Ni4C35
_symmetry_space_group_name_H-M   'P 1'
_cell_length_a   6.21333150
_cell_length_b   7.00745500
_cell_length_c   17.60559034
_cell_angle_alpha   101.47920356
_cell_angle_beta   90.95417336
_cell_angle_gamma   90.00000000
_symmetry_Int_Tables_number   1
_chemical_formula_structural   Cu48Ni4C35
_chemical_formula_sum   'Cu48 Ni4 C35'
_cell_volume   751.09949954
_cell_formula_units_Z   1
loop_
 _symmetry_equiv_pos_site_id
 _symmetry_equiv_pos_as_xyz
  1  'x, y, z'
loop_
 _atom_site_type_symbol
 _atom_site_label
 _atom_site_symmetry_multiplicity
 _atom_site_fract_x
 _atom_site_fract_y
 _atom_site_fract_z
 _atom_site_occupancy
  C  C0  1  0.75048000  0.16655500  0.33310900  1
  C  C1  1  0.24952000  0.83344500  0.66689100  1
  C  C2  1  0.00000000  0.50000000  0.00000000  1
  Ni  Ni3  1  0.34467500  0.04834000  0.09668000  1
  Ni  Ni4  1  0.65532500  0.95166000  0.90332000  1
  Ni  Ni5  1  0.36989600  0.70430100  0.40860100  1
  Ni  Ni6  1  0.63010400  0.29569900  0.59139900  1
  Cu  Cu7  1  0.31933500  0.00777200  0.01554400  1
  Cu  Cu8  1  0.68066500  0.99222800  0.98445600  1
  Cu  Cu9  1  0.57776300  0.72082300  0.44164600  1
  Cu  Cu10  1  0.42223700  0.27917700  0.55835400  1
  Cu  Cu11  1  0.38167000  0.31968200  0.40637500  1
  Cu  Cu12  1  0.38167000  0.08669300  0.40637500  1
  Cu  Cu13  1  0.61833000  0.68031800  0.59362500  1
  Cu  Cu14  1  0.61833000  0.91330700  0.59362500  1
  Cu  Cu15  1  0.79697200  0.43002800  0.46451600  1
  Cu  Cu16  1  0.79697200  0.03448800  0.46451600  1
  Cu  Cu17  1  0.20302800  0.56997200  0.53548400  1
  Cu  Cu18  1  0.20302800  0.96551200  0.53548400  1
  Cu  Cu19  1  0.99866100  0.45878200  0.41394600  1
  Cu  Cu20  1  0.99866100  0.95516400  0.41394600  1
  Cu  Cu21  1  0.00133900  0.54121800  0.58605400  1
  Cu  Cu22  1  0.00133900  0.04483600  0.58605400  1
  Cu  Cu23  1  0.19022600  0.15480000  0.30959900  1
  Cu  Cu24  1  0.80977400  0.84520000  0.69040100  1
  Cu  Cu25  1  0.07923300  0.11193500  0.22387000  1
  Cu  Cu26  1  0.92076700  0.88806500  0.77613000  1
  Cu  Cu27  1  0.56124100  0.82254700  0.28429500  1
  Cu  Cu28  1  0.56124100  0.46174800  0.28429500  1
  Cu  Cu29  1  0.43875900  0.17745300  0.71570500  1
  Cu  Cu30  1  0.43875900  0.53825200  0.71570500  1
  Cu  Cu31  1  0.58539600  0.90383700  0.20669700  1
  Cu  Cu32  1  0.58539600  0.30286100  0.20669700  1
  Cu  Cu33  1  0.41460400  0.09616300  0.79330300  1
  Cu  Cu34  1  0.41460400  0.69713900  0.79330300  1
  Cu  Cu35  1  0.03919600  0.77391400  0.90947800  1
  Cu  Cu36  1  0.03919600  0.13556400  0.90947800  1
  Cu  Cu37  1  0.96080400  0.22608600  0.09052200  1
  Cu  Cu38  1  0.96080400  0.86443600  0.09052200  1
  Cu  Cu39  1  0.28098800  0.70414900  0.91931200  1
  Cu  Cu40  1  0.28098800  0.21516300  0.91931200  1
  Cu  Cu41  1  0.71901200  0.29585100  0.08068800  1
  Cu  Cu42  1  0.71901200  0.78483700  0.08068800  1
  Cu  Cu43  1  0.34896600  0.66184800  0.09019600  1
  Cu  Cu44  1  0.34896600  0.42834800  0.09019600  1
  Cu  Cu45  1  0.65103400  0.33815200  0.90980400  1
  Cu  Cu46  1  0.65103400  0.57165200  0.90980400  1
  Cu  Cu47  1  0.15813800  0.63465800  0.26931600  1
  Cu  Cu48  1  0.84186200  0.36534200  0.73068400  1
  Cu  Cu49  1  0.92238700  0.50318100  0.24478300  1
  Cu  Cu50  1  0.92238700  0.74160200  0.24478300  1
  Cu  Cu51  1  0.07761300  0.49681900  0.75521700  1
  Cu  Cu52  1  0.07761300  0.25839800  0.75521700  1
  Cu  Cu53  1  0.05969500  0.58827100  0.17654300  1
  Cu  Cu54  1  0.94030500  0.41172900  0.82345700  1
  C  C55  1  0.01720900  0.61708700  0.23417500  1
  C  C56  1  0.98279100  0.38291300  0.76582500  1
  C  C57  1  0.47035300  0.87658000  0.11867400  1
  C  C58  1  0.47035300  0.24209400  0.11867400  1
  C  C59  1  0.52964700  0.12342000  0.88132600  1
  C  C60  1  0.52964700  0.75790600  0.88132600  1
  C  C61  1  0.11357200  0.06411300  0.12822700  1
  C  C62  1  0.88642800  0.93588700  0.87177300  1
  C  C63  1  0.39937500  0.65978400  0.31956700  1
  C  C64  1  0.60062500  0.34021600  0.68043300  1
  C  C65  1  0.25790300  0.90220400  0.43687100  1
  C  C66  1  0.25790300  0.53466700  0.43687100  1
  C  C67  1  0.74209700  0.09779600  0.56312900  1
  C  C68  1  0.74209700  0.46533300  0.56312900  1
  C  C69  1  0.43323400  0.18900300  0.37800600  1
  C  C70  1  0.56676600  0.81099700  0.62199400  1
  C  C71  1  0.84398900  0.41832600  0.40983800  1
  C  C72  1  0.84398900  0.99151200  0.40983800  1
  C  C73  1  0.15601100  0.58167400  0.59016200  1
  C  C74  1  0.15601100  0.00848800  0.59016200  1
  C  C75  1  0.05151900  0.14046400  0.28092800  1
  C  C76  1  0.94848100  0.85953600  0.71907200  1
  C  C77  1  0.65720000  0.90417600  0.25813300  1
  C  C78  1  0.65720000  0.35395800  0.25813300  1
  C  C79  1  0.34280000  0.09582500  0.74186700  1
  C  C80  1  0.34280000  0.64604200  0.74186700  1
  C  C81  1  0.12896600  0.67362800  0.92817400  1
  C  C82  1  0.12896600  0.25454600  0.92817400  1
  C  C83  1  0.87103400  0.32637200  0.07182600  1
  C  C84  1  0.87103400  0.74545400  0.07182600  1
  C  C85  1  0.26275500  0.53847600  0.07695100  1
  C  C86  1  0.73724500  0.46152400  0.92304900  1
