# generated using pymatgen
data_CuNiC8
_symmetry_space_group_name_H-M   'P 1'
_cell_length_a   7.65110943
_cell_length_b   7.96458808
_cell_length_c   7.96482570
_cell_angle_alpha   88.46475787
_cell_angle_beta   89.60420480
_cell_angle_gamma   90.39535953
_symmetry_Int_Tables_number   1
_chemical_formula_structural   CuNiC8
_chemical_formula_sum   'Cu4 Ni4 C32'
_cell_volume   485.16203911
_cell_formula_units_Z   4
loop_
 _symmetry_equiv_pos_site_id
 _symmetry_equiv_pos_as_xyz
  1  'x, y, z'
loop_
 _atom_site_type_symbol
 _atom_site_label
 _atom_site_symmetry_multiplicity
 _atom_site_fract_x
 _atom_site_fract_y
 _atom_site_fract_z
 _atom_site_occupancy
  C  C0  1  0.25019600  0.52969200  0.02042600  1
  C  C1  1  0.25019700  0.02969200  0.52042600  1
  C  C2  1  0.24978600  0.52042900  0.52969600  1
  C  C3  1  0.24978600  0.02042900  0.02969600  1
  C  C4  1  0.74980200  0.47031100  0.97957300  1
  C  C5  1  0.74980300  0.97030900  0.47957300  1
  C  C6  1  0.75021400  0.47957300  0.47030400  1
  C  C7  1  0.75021400  0.97957200  0.97030200  1
  Ni  Ni8  1  0.99999800  0.75000200  0.74999200  1
  Ni  Ni9  1  0.50000100  0.75000300  0.25000400  1
  Ni  Ni10  1  0.00000600  0.24998200  0.25001500  1
  Ni  Ni11  1  0.50000400  0.24998100  0.75000900  1
  Cu  Cu12  1  0.50000000  0.25000100  0.24999900  1
  Cu  Cu13  1  0.50000000  0.75000100  0.75000000  1
  Cu  Cu14  1  0.00000000  0.25000100  0.75000000  1
  Cu  Cu15  1  0.00000000  0.75000100  0.24999900  1
  C  C16  1  0.04706200  0.79766000  0.00537600  1
  C  C17  1  0.04706200  0.29766000  0.50537500  1
  C  C18  1  0.45294800  0.50534100  0.79765400  1
  C  C19  1  0.45294800  0.00534100  0.29765300  1
  C  C20  1  0.95293700  0.20234100  0.99462300  1
  C  C21  1  0.95293700  0.70234100  0.49462400  1
  C  C22  1  0.54705100  0.49466000  0.20234500  1
  C  C23  1  0.54705100  0.99466000  0.70234600  1
  C  C24  1  0.54848000  0.20268300  0.00801700  1
  C  C25  1  0.54847900  0.70268300  0.50801800  1
  C  C26  1  0.95152900  0.50803100  0.20267100  1
  C  C27  1  0.95152800  0.00803200  0.70267000  1
  C  C28  1  0.45152000  0.79731900  0.99198100  1
  C  C29  1  0.45152100  0.29731800  0.49198200  1
  C  C30  1  0.04847100  0.49196900  0.79732900  1
  C  C31  1  0.04847100  0.99197100  0.29732800  1
  C  C32  1  0.25706300  0.68989600  0.28050500  1
  C  C33  1  0.25706400  0.18989700  0.78050400  1
  C  C34  1  0.24297600  0.28048400  0.18987200  1
  C  C35  1  0.24297800  0.78048400  0.68987100  1
  C  C36  1  0.74293600  0.31010500  0.71949600  1
  C  C37  1  0.74293700  0.81010500  0.21949500  1
  C  C38  1  0.75702200  0.71951800  0.81012800  1
  C  C39  1  0.75702300  0.21951900  0.31012600  1
