# generated using pymatgen
data_CuNi3C11
_symmetry_space_group_name_H-M   'P 1'
_cell_length_a   5.94764331
_cell_length_b   5.94764331
_cell_length_c   14.61173600
_cell_angle_alpha   90.00000000
_cell_angle_beta   90.00000000
_cell_angle_gamma   119.99999233
_symmetry_Int_Tables_number   1
_chemical_formula_structural   CuNi3C11
_chemical_formula_sum   'Cu2 Ni6 C22'
_cell_volume   447.63322372
_cell_formula_units_Z   2
loop_
 _symmetry_equiv_pos_site_id
 _symmetry_equiv_pos_as_xyz
  1  'x, y, z'
loop_
 _atom_site_type_symbol
 _atom_site_label
 _atom_site_symmetry_multiplicity
 _atom_site_fract_x
 _atom_site_fract_y
 _atom_site_fract_z
 _atom_site_occupancy
  Ni  Ni0  1  0.00000000  0.00000000  0.24988100  1
  Ni  Ni1  1  0.00000000  0.00000000  0.74988100  1
  Ni  Ni2  1  0.33333300  0.66666700  0.59168500  1
  Ni  Ni3  1  0.66666700  0.33333300  0.40589000  1
  Ni  Ni4  1  0.66666700  0.33333300  0.09168500  1
  Ni  Ni5  1  0.33333300  0.66666700  0.90589000  1
  Cu  Cu6  1  0.00000000  0.00000000  0.49911800  1
  Cu  Cu7  1  0.00000000  0.00000000  0.99911800  1
  C  C8  1  0.33333300  0.66666700  0.33648000  1
  C  C9  1  0.66666700  0.33333300  0.83648000  1
  C  C10  1  0.66666700  0.33333300  0.66234900  1
  C  C11  1  0.33333300  0.66666700  0.16234900  1
  C  C12  1  0.48942500  0.51057500  0.24912300  1
  C  C13  1  0.48942500  0.97885100  0.24912300  1
  C  C14  1  0.02114900  0.51057500  0.24912300  1
  C  C15  1  0.51057500  0.48942500  0.74912300  1
  C  C16  1  0.51057500  0.02114900  0.74912300  1
  C  C17  1  0.97885100  0.48942500  0.74912300  1
  C  C18  1  0.17525000  0.82475000  0.08733900  1
  C  C19  1  0.17525000  0.35050000  0.08733900  1
  C  C20  1  0.64950000  0.82475000  0.08733900  1
  C  C21  1  0.82427200  0.17572800  0.91509900  1
  C  C22  1  0.82427200  0.64854400  0.91509900  1
  C  C23  1  0.35145600  0.17572800  0.91509900  1
  C  C24  1  0.82475000  0.17525000  0.58733900  1
  C  C25  1  0.82475000  0.64950000  0.58733900  1
  C  C26  1  0.35050000  0.17525000  0.58733900  1
  C  C27  1  0.17572800  0.82427200  0.41509900  1
  C  C28  1  0.17572800  0.35145600  0.41509900  1
  C  C29  1  0.64854400  0.82427200  0.41509900  1
