# generated using pymatgen
data_Cu11Ni3C13
_symmetry_space_group_name_H-M   'P 1'
_cell_length_a   5.43236963
_cell_length_b   5.43236963
_cell_length_c   19.00166600
_cell_angle_alpha   90.00000000
_cell_angle_beta   90.00000000
_cell_angle_gamma   119.99999554
_symmetry_Int_Tables_number   1
_chemical_formula_structural   Cu11Ni3C13
_chemical_formula_sum   'Cu22 Ni6 C26'
_cell_volume   485.62491159
_cell_formula_units_Z   2
loop_
 _symmetry_equiv_pos_site_id
 _symmetry_equiv_pos_as_xyz
  1  'x, y, z'
loop_
 _atom_site_type_symbol
 _atom_site_label
 _atom_site_symmetry_multiplicity
 _atom_site_fract_x
 _atom_site_fract_y
 _atom_site_fract_z
 _atom_site_occupancy
  C  C0  1  0.66666700  0.33333300  0.16729800  1
  C  C1  1  0.33333300  0.66666700  0.66729800  1
  C  C2  1  0.33333300  0.66666700  0.82367400  1
  C  C3  1  0.66666700  0.33333300  0.32367400  1
  Ni  Ni4  1  0.00000000  0.00000000  0.12761300  1
  Ni  Ni5  1  0.00000000  0.00000000  0.62761300  1
  Ni  Ni6  1  0.00000000  0.00000000  0.86920200  1
  Ni  Ni7  1  0.00000000  0.00000000  0.36920200  1
  Ni  Ni8  1  0.33333300  0.66666700  0.26447000  1
  Ni  Ni9  1  0.66666700  0.33333300  0.76447000  1
  Cu  Cu10  1  0.21556100  0.75406500  0.05244500  1
  Cu  Cu11  1  0.24593500  0.46149700  0.05244500  1
  Cu  Cu12  1  0.53850300  0.78443900  0.05244500  1
  Cu  Cu13  1  0.75406500  0.21556100  0.55244500  1
  Cu  Cu14  1  0.78443900  0.53850300  0.55244500  1
  Cu  Cu15  1  0.46149700  0.24593500  0.55244500  1
  Cu  Cu16  1  0.78374900  0.24543800  0.94881200  1
  Cu  Cu17  1  0.75456200  0.53831100  0.94881200  1
  Cu  Cu18  1  0.46168900  0.21625100  0.94881200  1
  Cu  Cu19  1  0.24543800  0.78374900  0.44881200  1
  Cu  Cu20  1  0.21625100  0.46168900  0.44881200  1
  Cu  Cu21  1  0.53831100  0.75456200  0.44881200  1
  Cu  Cu22  1  0.33333300  0.66666700  0.97861400  1
  Cu  Cu23  1  0.66666700  0.33333300  0.47861400  1
  Cu  Cu24  1  0.66666700  0.33333300  0.02253500  1
  Cu  Cu25  1  0.33333300  0.66666700  0.52253500  1
  Cu  Cu26  1  0.00000000  0.00000000  0.20169100  1
  Cu  Cu27  1  0.00000000  0.00000000  0.70169100  1
  Cu  Cu28  1  0.00000000  0.00000000  0.79507800  1
  Cu  Cu29  1  0.00000000  0.00000000  0.29507800  1
  Cu  Cu30  1  0.66666700  0.33333300  0.83817100  1
  Cu  Cu31  1  0.33333300  0.66666700  0.33817100  1
  C  C32  1  0.33333300  0.66666700  0.03301300  1
  C  C33  1  0.66666700  0.33333300  0.53301300  1
  C  C34  1  0.66666700  0.33333300  0.96814500  1
  C  C35  1  0.33333300  0.66666700  0.46814500  1
  C  C36  1  0.49194800  0.98353600  0.24397400  1
  C  C37  1  0.01646400  0.50841200  0.24397400  1
  C  C38  1  0.49158800  0.50805200  0.24397400  1
  C  C39  1  0.98353600  0.49194800  0.74397400  1
  C  C40  1  0.50805200  0.49158800  0.74397400  1
  C  C41  1  0.50841200  0.01646400  0.74397400  1
  C  C42  1  0.31197200  0.16418900  0.10187600  1
  C  C43  1  0.83581100  0.14778300  0.10187600  1
  C  C44  1  0.85221700  0.68802800  0.10187600  1
  C  C45  1  0.16418900  0.31197200  0.60187600  1
  C  C46  1  0.68802800  0.85221700  0.60187600  1
  C  C47  1  0.14778300  0.83581100  0.60187600  1
  C  C48  1  0.68962000  0.83947100  0.89402500  1
  C  C49  1  0.16052900  0.85015000  0.89402500  1
  C  C50  1  0.14985000  0.31038000  0.89402500  1
  C  C51  1  0.83947100  0.68962000  0.39402500  1
  C  C52  1  0.31038000  0.14985000  0.39402500  1
  C  C53  1  0.85015000  0.16052900  0.39402500  1
