# generated using pymatgen
data_Cu(Ni2C3)2
_symmetry_space_group_name_H-M   'P 1'
_cell_length_a   6.55016980
_cell_length_b   8.93795200
_cell_length_c   7.77201017
_cell_angle_alpha   90.00000000
_cell_angle_beta   98.92709274
_cell_angle_gamma   90.00000000
_symmetry_Int_Tables_number   1
_chemical_formula_structural   Cu(Ni2C3)2
_chemical_formula_sum   'Cu4 Ni16 C24'
_cell_volume   449.50138159
_cell_formula_units_Z   4
loop_
 _symmetry_equiv_pos_site_id
 _symmetry_equiv_pos_as_xyz
  1  'x, y, z'
loop_
 _atom_site_type_symbol
 _atom_site_label
 _atom_site_symmetry_multiplicity
 _atom_site_fract_x
 _atom_site_fract_y
 _atom_site_fract_z
 _atom_site_occupancy
  C  C0  1  0.15332700  0.13443900  0.98149900  1
  C  C1  1  0.65332700  0.36556100  0.48149900  1
  C  C2  1  0.84667300  0.86556100  0.01850100  1
  C  C3  1  0.34667300  0.63443900  0.51850100  1
  Ni  Ni4  1  0.00618700  0.98639300  0.69993600  1
  Ni  Ni5  1  0.50618700  0.51360700  0.19993600  1
  Ni  Ni6  1  0.99381300  0.01360700  0.30006400  1
  Ni  Ni7  1  0.49381300  0.48639300  0.80006400  1
  Ni  Ni8  1  0.05860800  0.14831100  0.62682000  1
  Ni  Ni9  1  0.55860800  0.35168900  0.12682000  1
  Ni  Ni10  1  0.94139200  0.85168900  0.37318000  1
  Ni  Ni11  1  0.44139200  0.64831100  0.87318000  1
  Ni  Ni12  1  0.16815700  0.42289100  0.88429500  1
  Ni  Ni13  1  0.66815700  0.07710900  0.38429500  1
  Ni  Ni14  1  0.83184300  0.57710900  0.11570500  1
  Ni  Ni15  1  0.33184300  0.92289100  0.61570500  1
  Ni  Ni16  1  0.93136300  0.36060800  0.86153200  1
  Ni  Ni17  1  0.43136300  0.13939200  0.36153200  1
  Ni  Ni18  1  0.06863700  0.63939200  0.13846800  1
  Ni  Ni19  1  0.56863700  0.86060800  0.63846800  1
  Cu  Cu20  1  0.89721300  0.65567800  0.66204700  1
  Cu  Cu21  1  0.39721300  0.84432200  0.16204700  1
  Cu  Cu22  1  0.10278700  0.34432200  0.33795300  1
  Cu  Cu23  1  0.60278700  0.15567800  0.83795300  1
  C  C24  1  0.81760700  0.82800800  0.73163500  1
  C  C25  1  0.31760700  0.67199200  0.23163500  1
  C  C26  1  0.18239300  0.17199200  0.26836500  1
  C  C27  1  0.68239300  0.32800800  0.76836500  1
  C  C28  1  0.82900100  0.09013100  0.96640500  1
  C  C29  1  0.32900100  0.40986900  0.46640500  1
  C  C30  1  0.17099900  0.90986900  0.03359500  1
  C  C31  1  0.67099900  0.59013100  0.53359500  1
  C  C32  1  0.03875300  0.70645600  0.50140000  1
  C  C33  1  0.53875300  0.79354400  0.00140000  1
  C  C34  1  0.96124700  0.29354400  0.49860000  1
  C  C35  1  0.46124700  0.20645600  0.99860000  1
  C  C36  1  0.11541200  0.06397700  0.70643400  1
  C  C37  1  0.61541200  0.43602300  0.20643400  1
  C  C38  1  0.88458800  0.93602300  0.29356600  1
  C  C39  1  0.38458800  0.56397700  0.79356600  1
  C  C40  1  0.07299000  0.35428300  0.93145100  1
  C  C41  1  0.57299000  0.14571700  0.43145100  1
  C  C42  1  0.92701000  0.64571700  0.06854900  1
  C  C43  1  0.42701000  0.85428300  0.56854900  1
