# generated using pymatgen
data_Cu3NiC24
_symmetry_space_group_name_H-M   'P 1'
_cell_length_a   7.17950005
_cell_length_b   7.17950005
_cell_length_c   5.79610200
_cell_angle_alpha   90.00000000
_cell_angle_beta   90.00000000
_cell_angle_gamma   109.89398935
_symmetry_Int_Tables_number   1
_chemical_formula_structural   Cu3NiC24
_chemical_formula_sum   'Cu3 Ni1 C24'
_cell_volume   280.93242453
_cell_formula_units_Z   1
loop_
 _symmetry_equiv_pos_site_id
 _symmetry_equiv_pos_as_xyz
  1  'x, y, z'
loop_
 _atom_site_type_symbol
 _atom_site_label
 _atom_site_symmetry_multiplicity
 _atom_site_fract_x
 _atom_site_fract_y
 _atom_site_fract_z
 _atom_site_occupancy
  Ni  Ni0  1  0.00000000  0.00000000  0.00000000  1
  Cu  Cu1  1  0.74851800  0.25148200  0.50000000  1
  Cu  Cu2  1  0.50000000  0.50000000  0.00000000  1
  Cu  Cu3  1  0.25148200  0.74851800  0.50000000  1
  C  C4  1  0.17631300  0.32508100  0.65116200  1
  C  C5  1  0.92549300  0.57449600  0.15110800  1
  C  C6  1  0.67491900  0.82368700  0.65116200  1
  C  C7  1  0.42550400  0.07450700  0.15110800  1
  C  C8  1  0.17631300  0.32508100  0.34883800  1
  C  C9  1  0.92549300  0.57449600  0.84889200  1
  C  C10  1  0.67491900  0.82368700  0.34883800  1
  C  C11  1  0.42550400  0.07450700  0.84889200  1
  C  C12  1  0.40032800  0.40032800  0.50000000  1
  C  C13  1  0.14975200  0.65015100  0.00000000  1
  C  C14  1  0.89955700  0.89955700  0.50000000  1
  C  C15  1  0.65015100  0.14975200  0.00000000  1
  C  C16  1  0.32508100  0.17631300  0.65116200  1
  C  C17  1  0.07450700  0.42550400  0.15110800  1
  C  C18  1  0.82368700  0.67491900  0.65116200  1
  C  C19  1  0.57449600  0.92549300  0.15110800  1
  C  C20  1  0.10044300  0.10044300  0.50000000  1
  C  C21  1  0.85024800  0.34984900  0.00000000  1
  C  C22  1  0.59967200  0.59967200  0.50000000  1
  C  C23  1  0.34984900  0.85024800  0.00000000  1
  C  C24  1  0.32508100  0.17631300  0.34883800  1
  C  C25  1  0.07450700  0.42550400  0.84889200  1
  C  C26  1  0.82368700  0.67491900  0.34883800  1
  C  C27  1  0.57449600  0.92549300  0.84889200  1
