# generated using pymatgen
data_Cu3NiC44
_symmetry_space_group_name_H-M   'P 1'
_cell_length_a   10.25257303
_cell_length_b   10.25257303
_cell_length_c   14.56667500
_cell_angle_alpha   90.00000000
_cell_angle_beta   90.00000000
_cell_angle_gamma   120.00000667
_symmetry_Int_Tables_number   1
_chemical_formula_structural   Cu3NiC44
_chemical_formula_sum   'Cu6 Ni2 C88'
_cell_volume   1326.04046335
_cell_formula_units_Z   2
loop_
 _symmetry_equiv_pos_site_id
 _symmetry_equiv_pos_as_xyz
  1  'x, y, z'
loop_
 _atom_site_type_symbol
 _atom_site_label
 _atom_site_symmetry_multiplicity
 _atom_site_fract_x
 _atom_site_fract_y
 _atom_site_fract_z
 _atom_site_occupancy
  Ni  Ni0  1  0.00000000  0.00000000  0.75000000  1
  Ni  Ni1  1  0.00000000  0.00000000  0.25000000  1
  Cu  Cu2  1  0.00000000  0.50000000  0.25000000  1
  Cu  Cu3  1  0.50000000  0.50000000  0.75000000  1
  Cu  Cu4  1  0.50000000  0.00000000  0.75000000  1
  Cu  Cu5  1  0.00000000  0.50000000  0.75000000  1
  Cu  Cu6  1  0.50000000  0.50000000  0.25000000  1
  Cu  Cu7  1  0.50000000  0.00000000  0.25000000  1
  C  C8  1  0.66666700  0.33333300  0.75000000  1
  C  C9  1  0.33333300  0.66666700  0.75000000  1
  C  C10  1  0.66666700  0.33333300  0.25000000  1
  C  C11  1  0.33333300  0.66666700  0.25000000  1
  C  C12  1  0.88737800  0.23906900  0.60834800  1
  C  C13  1  0.76093100  0.64830900  0.60834800  1
  C  C14  1  0.35169100  0.11262200  0.60834800  1
  C  C15  1  0.64830900  0.88737800  0.60834800  1
  C  C16  1  0.11262200  0.35169100  0.89165200  1
  C  C17  1  0.11262200  0.76093100  0.60834800  1
  C  C18  1  0.23906900  0.35169100  0.60834800  1
  C  C19  1  0.76093100  0.11262200  0.89165200  1
  C  C20  1  0.35169100  0.23906900  0.89165200  1
  C  C21  1  0.64830900  0.76093100  0.89165200  1
  C  C22  1  0.23906900  0.88737800  0.89165200  1
  C  C23  1  0.88737800  0.64830900  0.89165200  1
  C  C24  1  0.11262200  0.76093100  0.39165200  1
  C  C25  1  0.23906900  0.35169100  0.39165200  1
  C  C26  1  0.64830900  0.88737800  0.39165200  1
  C  C27  1  0.11262200  0.35169100  0.10834800  1
  C  C28  1  0.88737800  0.64830900  0.10834800  1
  C  C29  1  0.88737800  0.23906900  0.39165200  1
  C  C30  1  0.76093100  0.64830900  0.39165200  1
  C  C31  1  0.23906900  0.88737800  0.10834800  1
  C  C32  1  0.64830900  0.76093100  0.10834800  1
  C  C33  1  0.35169100  0.23906900  0.10834800  1
  C  C34  1  0.76093100  0.11262200  0.10834800  1
  C  C35  1  0.35169100  0.11262200  0.39165200  1
  C  C36  1  0.21759300  0.27691300  0.13235300  1
  C  C37  1  0.65970300  0.15646300  0.82794100  1
  C  C38  1  0.49676000  0.34029700  0.82794100  1
  C  C39  1  0.50324000  0.65970300  0.82794100  1
  C  C40  1  0.34029700  0.84353700  0.82794100  1
  C  C41  1  0.84353700  0.50324000  0.82794100  1
  C  C42  1  0.15646300  0.65970300  0.32794100  1
  C  C43  1  0.34029700  0.49676000  0.32794100  1
  C  C44  1  0.50324000  0.84353700  0.32794100  1
  C  C45  1  0.49676000  0.15646300  0.32794100  1
  C  C46  1  0.84353700  0.50324000  0.17205900  1
  C  C47  1  0.84353700  0.34029700  0.32794100  1
  C  C48  1  0.65970300  0.50324000  0.32794100  1
  C  C49  1  0.34029700  0.84353700  0.17205900  1
  C  C50  1  0.50324000  0.65970300  0.17205900  1
  C  C51  1  0.49676000  0.34029700  0.17205900  1
  C  C52  1  0.65970300  0.15646300  0.17205900  1
  C  C53  1  0.05931900  0.27691300  0.63235300  1
  C  C54  1  0.78240700  0.05931900  0.63235300  1
  C  C55  1  0.94068100  0.72308700  0.63235300  1
  C  C56  1  0.27691300  0.21759300  0.63235300  1
  C  C57  1  0.72308700  0.78240700  0.63235300  1
  C  C58  1  0.21759300  0.27691300  0.86764700  1
  C  C59  1  0.21759300  0.94068100  0.63235300  1
  C  C60  1  0.84353700  0.34029700  0.67205900  1
  C  C61  1  0.15646300  0.65970300  0.67205900  1
  C  C62  1  0.15646300  0.49676000  0.82794100  1
  C  C63  1  0.50324000  0.84353700  0.67205900  1
  C  C64  1  0.49676000  0.15646300  0.67205900  1
  C  C65  1  0.65970300  0.50324000  0.67205900  1
  C  C66  1  0.12681600  0.39564100  0.00000000  1
  C  C67  1  0.73117500  0.12681600  0.00000000  1
  C  C68  1  0.39564100  0.26882500  0.00000000  1
  C  C69  1  0.60435900  0.73117500  0.00000000  1
  C  C70  1  0.26882500  0.87318400  0.00000000  1
  C  C71  1  0.73117500  0.60435900  0.50000000  1
  C  C72  1  0.87318400  0.26882500  0.50000000  1
  C  C73  1  0.87318400  0.60435900  0.00000000  1
  C  C74  1  0.39564100  0.12681600  0.50000000  1
  C  C75  1  0.60435900  0.87318400  0.50000000  1
  C  C76  1  0.26882500  0.39564100  0.50000000  1
  C  C77  1  0.12681600  0.73117500  0.50000000  1
  C  C78  1  0.34029700  0.49676000  0.67205900  1
  C  C79  1  0.94068100  0.21759300  0.13235300  1
  C  C80  1  0.27691300  0.05931900  0.13235300  1
  C  C81  1  0.72308700  0.94068100  0.13235300  1
  C  C82  1  0.05931900  0.78240700  0.13235300  1
  C  C83  1  0.94068100  0.72308700  0.36764700  1
  C  C84  1  0.78240700  0.05931900  0.36764700  1
  C  C85  1  0.78240700  0.72308700  0.13235300  1
  C  C86  1  0.27691300  0.21759300  0.36764700  1
  C  C87  1  0.72308700  0.78240700  0.36764700  1
  C  C88  1  0.05931900  0.27691300  0.36764700  1
  C  C89  1  0.21759300  0.94068100  0.36764700  1
  C  C90  1  0.78240700  0.72308700  0.86764700  1
  C  C91  1  0.05931900  0.78240700  0.86764700  1
  C  C92  1  0.72308700  0.94068100  0.86764700  1
  C  C93  1  0.27691300  0.05931900  0.86764700  1
  C  C94  1  0.94068100  0.21759300  0.86764700  1
  C  C95  1  0.15646300  0.49676000  0.17205900  1
