# generated using pymatgen
data_CuNiC9
_symmetry_space_group_name_H-M   'P 1'
_cell_length_a   6.43618614
_cell_length_b   8.99028283
_cell_length_c   11.56487159
_cell_angle_alpha   89.07732782
_cell_angle_beta   95.28602198
_cell_angle_gamma   90.83018784
_symmetry_Int_Tables_number   1
_chemical_formula_structural   CuNiC9
_chemical_formula_sum   'Cu4 Ni4 C36'
_cell_volume   666.19058422
_cell_formula_units_Z   4
loop_
 _symmetry_equiv_pos_site_id
 _symmetry_equiv_pos_as_xyz
  1  'x, y, z'
loop_
 _atom_site_type_symbol
 _atom_site_label
 _atom_site_symmetry_multiplicity
 _atom_site_fract_x
 _atom_site_fract_y
 _atom_site_fract_z
 _atom_site_occupancy
  Ni  Ni0  1  0.75405900  0.59645500  0.27255500  1
  Ni  Ni1  1  0.24594100  0.40354500  0.72744500  1
  Ni  Ni2  1  0.30944100  0.83140700  0.77986400  1
  Ni  Ni3  1  0.69055900  0.16859300  0.22013600  1
  Cu  Cu4  1  0.71111800  0.60476100  0.61496000  1
  Cu  Cu5  1  0.28888200  0.39523800  0.38504000  1
  Cu  Cu6  1  0.22464600  0.89158100  0.11846000  1
  Cu  Cu7  1  0.77535400  0.10841900  0.88154000  1
  C  C8  1  0.47943200  0.89562800  0.42482600  1
  C  C9  1  0.68775400  0.82638300  0.04252100  1
  C  C10  1  0.98389100  0.61507700  0.93972200  1
  C  C11  1  0.31224600  0.17361700  0.95747900  1
  C  C12  1  0.83360100  0.32234200  0.48644600  1
  C  C13  1  0.16639900  0.67765800  0.51355400  1
  C  C14  1  0.52056800  0.10437200  0.57517400  1
  C  C15  1  0.01610900  0.38492300  0.06027800  1
  C  C16  1  0.35038600  0.23487100  0.55928200  1
  C  C17  1  0.46283800  0.22554100  0.85794500  1
  C  C18  1  0.03303900  0.71886900  0.62145300  1
  C  C19  1  0.58044800  0.89889100  0.92125700  1
  C  C20  1  0.44696000  0.99223200  0.30605500  1
  C  C21  1  0.96696100  0.28113100  0.37854700  1
  C  C22  1  0.78258000  0.66390900  0.00568700  1
  C  C23  1  0.86362800  0.95490300  0.08471800  1
  C  C24  1  0.96570100  0.55235500  0.81063400  1
  C  C25  1  0.73342500  0.15726500  0.51841300  1
  C  C26  1  0.17228700  0.73569100  0.96263700  1
  C  C27  1  0.51135000  0.37068500  0.24937400  1
  C  C28  1  0.34310900  0.54924100  0.54755200  1
  C  C29  1  0.82771300  0.26430900  0.03736300  1
  C  C30  1  0.55304000  0.00776800  0.69394500  1
  C  C31  1  0.65689100  0.45075900  0.45244800  1
  C  C32  1  0.53716200  0.77445900  0.14205500  1
  C  C33  1  0.94113000  0.40011100  0.60374400  1
  C  C34  1  0.13637200  0.04509700  0.91528200  1
  C  C35  1  0.48865000  0.62931500  0.75062600  1
  C  C36  1  0.99785600  0.20659500  0.76829600  1
  C  C37  1  0.21742000  0.33609100  0.99431300  1
  C  C38  1  0.64961400  0.76513000  0.44071800  1
  C  C39  1  0.03429900  0.44764500  0.18936600  1
  C  C40  1  0.26657500  0.84273500  0.48158700  1
  C  C41  1  0.05887000  0.59988900  0.39625600  1
  C  C42  1  0.41955200  0.10110900  0.07874300  1
  C  C43  1  0.00214400  0.79340500  0.23170400  1
