# generated using pymatgen
data_Cu4NiC3
_symmetry_space_group_name_H-M   'P 1'
_cell_length_a   7.58374100
_cell_length_b   8.46313800
_cell_length_c   16.64008800
_cell_angle_alpha   90.00000000
_cell_angle_beta   90.00000000
_cell_angle_gamma   90.00000000
_symmetry_Int_Tables_number   1
_chemical_formula_structural   Cu4NiC3
_chemical_formula_sum   'Cu16 Ni4 C12'
_cell_volume   1067.99823211
_cell_formula_units_Z   4
loop_
 _symmetry_equiv_pos_site_id
 _symmetry_equiv_pos_as_xyz
  1  'x, y, z'
loop_
 _atom_site_type_symbol
 _atom_site_label
 _atom_site_symmetry_multiplicity
 _atom_site_fract_x
 _atom_site_fract_y
 _atom_site_fract_z
 _atom_site_occupancy
  Ni  Ni0  1  0.09491900  0.25000000  0.57543600  1
  Ni  Ni1  1  0.59491900  0.25000000  0.92456400  1
  Ni  Ni2  1  0.90508100  0.75000000  0.42456400  1
  Ni  Ni3  1  0.40508100  0.75000000  0.07543600  1
  Cu  Cu4  1  0.12248500  0.25000000  0.06724000  1
  Cu  Cu5  1  0.62248500  0.25000000  0.43276000  1
  Cu  Cu6  1  0.87751500  0.75000000  0.93276000  1
  Cu  Cu7  1  0.37751500  0.75000000  0.56724000  1
  Cu  Cu8  1  0.88624400  0.25000000  0.78335200  1
  Cu  Cu9  1  0.38624400  0.25000000  0.71664800  1
  Cu  Cu10  1  0.11375600  0.75000000  0.21664800  1
  Cu  Cu11  1  0.61375600  0.75000000  0.28335200  1
  Cu  Cu12  1  0.63157700  0.04939400  0.50076700  1
  Cu  Cu13  1  0.13157700  0.45060600  0.99923300  1
  Cu  Cu14  1  0.36842300  0.54939400  0.49923300  1
  Cu  Cu15  1  0.86842300  0.95060600  0.00076700  1
  Cu  Cu16  1  0.36842300  0.95060600  0.49923300  1
  Cu  Cu17  1  0.86842300  0.54939400  0.00076700  1
  Cu  Cu18  1  0.63157700  0.45060600  0.50076700  1
  Cu  Cu19  1  0.13157700  0.04939400  0.99923300  1
  C  C20  1  0.74409500  0.25000000  0.85012600  1
  C  C21  1  0.24409500  0.25000000  0.64987400  1
  C  C22  1  0.25590500  0.75000000  0.14987400  1
  C  C23  1  0.75590500  0.75000000  0.35012600  1
  C  C24  1  0.99113800  0.18414800  0.29029700  1
  C  C25  1  0.49113800  0.31585200  0.20970300  1
  C  C26  1  0.00886200  0.68414800  0.70970300  1
  C  C27  1  0.50886200  0.81585200  0.79029700  1
  C  C28  1  0.00886200  0.81585200  0.70970300  1
  C  C29  1  0.50886200  0.68414800  0.79029700  1
  C  C30  1  0.99113800  0.31585200  0.29029700  1
  C  C31  1  0.49113800  0.18414800  0.20970300  1
