# generated using pymatgen
data_Cu2Ni2C15
_symmetry_space_group_name_H-M   'P 1'
_cell_length_a   10.85273900
_cell_length_b   10.85273900
_cell_length_c   10.85273900
_cell_angle_alpha   90.00000000
_cell_angle_beta   90.00000000
_cell_angle_gamma   90.00000000
_symmetry_Int_Tables_number   1
_chemical_formula_structural   Cu2Ni2C15
_chemical_formula_sum   'Cu8 Ni8 C60'
_cell_volume   1278.25669500
_cell_formula_units_Z   4
loop_
 _symmetry_equiv_pos_site_id
 _symmetry_equiv_pos_as_xyz
  1  'x, y, z'
loop_
 _atom_site_type_symbol
 _atom_site_label
 _atom_site_symmetry_multiplicity
 _atom_site_fract_x
 _atom_site_fract_y
 _atom_site_fract_z
 _atom_site_occupancy
  Ni  Ni0  1  0.04745400  0.04745400  0.04745400  1
  Ni  Ni1  1  0.45254600  0.95254600  0.54745400  1
  Ni  Ni2  1  0.95254600  0.54745400  0.45254600  1
  Ni  Ni3  1  0.54745400  0.45254600  0.95254600  1
  Ni  Ni4  1  0.81675500  0.81675500  0.81675500  1
  Ni  Ni5  1  0.68324500  0.18324500  0.31675500  1
  Ni  Ni6  1  0.18324500  0.31675500  0.68324500  1
  Ni  Ni7  1  0.31675500  0.68324500  0.18324500  1
  Cu  Cu8  1  0.33480700  0.33480700  0.33480700  1
  Cu  Cu9  1  0.16519300  0.66519300  0.83480700  1
  Cu  Cu10  1  0.66519300  0.83480700  0.16519300  1
  Cu  Cu11  1  0.83480700  0.16519300  0.66519300  1
  Cu  Cu12  1  0.59889300  0.59889300  0.59889300  1
  Cu  Cu13  1  0.90110700  0.40110700  0.09889300  1
  Cu  Cu14  1  0.40110700  0.09889300  0.90110700  1
  Cu  Cu15  1  0.09889300  0.90110700  0.40110700  1
  C  C16  1  0.01731800  0.21644300  0.37579400  1
  C  C17  1  0.48268200  0.78355700  0.87579400  1
  C  C18  1  0.98268200  0.71644300  0.12420600  1
  C  C19  1  0.37579400  0.01731800  0.21644300  1
  C  C20  1  0.51731800  0.28355700  0.62420600  1
  C  C21  1  0.87579400  0.48268200  0.78355700  1
  C  C22  1  0.12420600  0.98268200  0.71644300  1
  C  C23  1  0.62420600  0.51731800  0.28355700  1
  C  C24  1  0.21644300  0.37579400  0.01731800  1
  C  C25  1  0.71644300  0.12420600  0.98268200  1
  C  C26  1  0.28355700  0.62420600  0.51731800  1
  C  C27  1  0.78355700  0.87579400  0.48268200  1
  C  C28  1  0.00792700  0.08679000  0.33239300  1
  C  C29  1  0.49207300  0.91321000  0.83239300  1
  C  C30  1  0.99207300  0.58679000  0.16760700  1
  C  C31  1  0.33239300  0.00792700  0.08679000  1
  C  C32  1  0.50792700  0.41321000  0.66760700  1
  C  C33  1  0.83239300  0.49207300  0.91321000  1
  C  C34  1  0.16760700  0.99207300  0.58679000  1
  C  C35  1  0.66760700  0.50792700  0.41321000  1
  C  C36  1  0.08679000  0.33239300  0.00792700  1
  C  C37  1  0.58679000  0.16760700  0.99207300  1
  C  C38  1  0.41321000  0.66760700  0.50792700  1
  C  C39  1  0.91321000  0.83239300  0.49207300  1
  C  C40  1  0.26619500  0.50779300  0.44575700  1
  C  C41  1  0.23380500  0.49220700  0.94575700  1
  C  C42  1  0.73380500  0.00779300  0.05424300  1
  C  C43  1  0.44575700  0.26619500  0.50779300  1
  C  C44  1  0.76619500  0.99220700  0.55424300  1
  C  C45  1  0.94575700  0.23380500  0.49220700  1
  C  C46  1  0.05424300  0.73380500  0.00779300  1
  C  C47  1  0.55424300  0.76619500  0.99220700  1
  C  C48  1  0.50779300  0.44575700  0.26619500  1
  C  C49  1  0.00779300  0.05424300  0.73380500  1
  C  C50  1  0.99220700  0.55424300  0.76619500  1
  C  C51  1  0.49220700  0.94575700  0.23380500  1
  C  C52  1  0.03700500  0.79854800  0.21980200  1
  C  C53  1  0.46299500  0.20145200  0.71980200  1
  C  C54  1  0.96299500  0.29854800  0.28019800  1
  C  C55  1  0.21980200  0.03700500  0.79854800  1
  C  C56  1  0.53700500  0.70145200  0.78019800  1
  C  C57  1  0.71980200  0.46299500  0.20145200  1
  C  C58  1  0.28019800  0.96299500  0.29854800  1
  C  C59  1  0.78019800  0.53700500  0.70145200  1
  C  C60  1  0.79854800  0.21980200  0.03700500  1
  C  C61  1  0.29854800  0.28019800  0.96299500  1
  C  C62  1  0.70145200  0.78019800  0.53700500  1
  C  C63  1  0.20145200  0.71980200  0.46299500  1
  C  C64  1  0.14767200  0.24972000  0.40024500  1
  C  C65  1  0.35232800  0.75028000  0.90024500  1
  C  C66  1  0.85232800  0.74972000  0.09975500  1
  C  C67  1  0.40024500  0.14767200  0.24972000  1
  C  C68  1  0.64767200  0.25028000  0.59975500  1
  C  C69  1  0.90024500  0.35232800  0.75028000  1
  C  C70  1  0.09975500  0.85232800  0.74972000  1
  C  C71  1  0.59975500  0.64767200  0.25028000  1
  C  C72  1  0.24972000  0.40024500  0.14767200  1
  C  C73  1  0.74972000  0.09975500  0.85232800  1
  C  C74  1  0.25028000  0.59975500  0.64767200  1
  C  C75  1  0.75028000  0.90024500  0.35232800  1
