# generated using pymatgen
data_Cu3Ni2C
_symmetry_space_group_name_H-M   'P 1'
_cell_length_a   4.44594686
_cell_length_b   4.44594686
_cell_length_c   4.05653800
_cell_angle_alpha   90.00000000
_cell_angle_beta   90.00000000
_cell_angle_gamma   119.15290560
_symmetry_Int_Tables_number   1
_chemical_formula_structural   Cu3Ni2C
_chemical_formula_sum   'Cu6 Ni4 C2'
_cell_volume   70.02592781
_cell_formula_units_Z   2
loop_
 _symmetry_equiv_pos_site_id
 _symmetry_equiv_pos_as_xyz
  1  'x, y, z'
loop_
 _atom_site_type_symbol
 _atom_site_label
 _atom_site_symmetry_multiplicity
 _atom_site_fract_x
 _atom_site_fract_y
 _atom_site_fract_z
 _atom_site_occupancy
  C  C0  1  0.60167900  0.60167900  0.70119700  1
  C  C1  1  0.39832100  0.39832100  0.20119700  1
  Ni  Ni2  1  0.33156500  0.99013900  0.49846300  1
  Ni  Ni3  1  0.99013900  0.33156500  0.49846300  1
  Ni  Ni4  1  0.66843500  0.00986100  0.99846300  1
  Ni  Ni5  1  0.00986100  0.66843500  0.99846300  1
  Cu  Cu6  1  0.33282100  0.93735900  0.85663800  1
  Cu  Cu7  1  0.93735900  0.33282100  0.85663800  1
  Cu  Cu8  1  0.66717900  0.06264100  0.35663800  1
  Cu  Cu9  1  0.06264100  0.66717900  0.35663800  1
  Cu  Cu10  1  0.71482100  0.71482100  0.92460000  1
  Cu  Cu11  1  0.28517900  0.28517900  0.42460000  1
