# generated using pymatgen
data_Cu18Ni3C7
_symmetry_space_group_name_H-M   'P 1'
_cell_length_a   15.95719367
_cell_length_b   15.95719367
_cell_length_c   4.46201100
_cell_angle_alpha   90.00000000
_cell_angle_beta   90.00000000
_cell_angle_gamma   119.99999865
_symmetry_Int_Tables_number   1
_chemical_formula_structural   Cu18Ni3C7
_chemical_formula_sum   'Cu36 Ni6 C14'
_cell_volume   983.95289189
_cell_formula_units_Z   2
loop_
 _symmetry_equiv_pos_site_id
 _symmetry_equiv_pos_as_xyz
  1  'x, y, z'
loop_
 _atom_site_type_symbol
 _atom_site_label
 _atom_site_symmetry_multiplicity
 _atom_site_fract_x
 _atom_site_fract_y
 _atom_site_fract_z
 _atom_site_occupancy
  C  C0  1  0.53531800  0.87618700  0.75000000  1
  C  C1  1  0.46468200  0.12381300  0.25000000  1
  C  C2  1  0.34086900  0.46468200  0.75000000  1
  C  C3  1  0.65913100  0.53531800  0.25000000  1
  C  C4  1  0.12381300  0.65913100  0.75000000  1
  C  C5  1  0.87618700  0.34086900  0.25000000  1
  C  C6  1  0.91760700  0.15273300  0.75000000  1
  C  C7  1  0.08239300  0.84726700  0.25000000  1
  C  C8  1  0.23512700  0.08239300  0.75000000  1
  C  C9  1  0.76487300  0.91760700  0.25000000  1
  C  C10  1  0.84726700  0.76487300  0.75000000  1
  C  C11  1  0.15273300  0.23512700  0.25000000  1
  C  C12  1  0.66666700  0.33333300  0.75000000  1
  C  C13  1  0.33333300  0.66666700  0.25000000  1
  Ni  Ni14  1  0.56125900  0.62140600  0.75000000  1
  Ni  Ni15  1  0.43874100  0.37859400  0.25000000  1
  Ni  Ni16  1  0.06014700  0.43874100  0.75000000  1
  Ni  Ni17  1  0.93985300  0.56125900  0.25000000  1
  Ni  Ni18  1  0.37859400  0.93985300  0.75000000  1
  Ni  Ni19  1  0.62140600  0.06014700  0.25000000  1
  Cu  Cu20  1  0.83313200  0.35870300  0.75000000  1
  Cu  Cu21  1  0.16686800  0.64129700  0.25000000  1
  Cu  Cu22  1  0.52557000  0.16686800  0.75000000  1
  Cu  Cu23  1  0.47443000  0.83313200  0.25000000  1
  Cu  Cu24  1  0.64129700  0.47443000  0.75000000  1
  Cu  Cu25  1  0.35870300  0.52557000  0.25000000  1
  Cu  Cu26  1  0.70999800  0.95236500  0.75000000  1
  Cu  Cu27  1  0.29000200  0.04763500  0.25000000  1
  Cu  Cu28  1  0.24236700  0.29000200  0.75000000  1
  Cu  Cu29  1  0.75763300  0.70999800  0.25000000  1
  Cu  Cu30  1  0.04763500  0.75763300  0.75000000  1
  Cu  Cu31  1  0.95236500  0.24236700  0.25000000  1
  Cu  Cu32  1  0.85569100  0.97635300  0.75000000  1
  Cu  Cu33  1  0.14430900  0.02364700  0.25000000  1
  Cu  Cu34  1  0.12066200  0.14430900  0.75000000  1
  Cu  Cu35  1  0.87933800  0.85569100  0.25000000  1
  Cu  Cu36  1  0.02364700  0.87933800  0.75000000  1
  Cu  Cu37  1  0.97635300  0.12066200  0.25000000  1
  Cu  Cu38  1  0.82380300  0.26142700  0.75000000  1
  Cu  Cu39  1  0.17619700  0.73857300  0.25000000  1
  Cu  Cu40  1  0.43762400  0.17619700  0.75000000  1
  Cu  Cu41  1  0.56237600  0.82380300  0.25000000  1
  Cu  Cu42  1  0.73857300  0.56237600  0.75000000  1
  Cu  Cu43  1  0.26142700  0.43762400  0.25000000  1
  Cu  Cu44  1  0.72770100  0.82460100  0.75000000  1
  Cu  Cu45  1  0.27229900  0.17539900  0.25000000  1
  Cu  Cu46  1  0.09690100  0.27229900  0.75000000  1
  Cu  Cu47  1  0.90309900  0.72770100  0.25000000  1
  Cu  Cu48  1  0.17539900  0.90309900  0.75000000  1
  Cu  Cu49  1  0.82460100  0.09690100  0.25000000  1
  Cu  Cu50  1  0.42650800  0.69588300  0.75000000  1
  Cu  Cu51  1  0.57349200  0.30411700  0.25000000  1
  Cu  Cu52  1  0.26937500  0.57349200  0.75000000  1
  Cu  Cu53  1  0.73062500  0.42650800  0.25000000  1
  Cu  Cu54  1  0.30411700  0.73062500  0.75000000  1
  Cu  Cu55  1  0.69588300  0.26937500  0.25000000  1
