# generated using pymatgen
data_Cu7Ni2C15
_symmetry_space_group_name_H-M   'P 1'
_cell_length_a   6.96627054
_cell_length_b   7.73294232
_cell_length_c   23.65726600
_cell_angle_alpha   90.00000000
_cell_angle_beta   90.00000000
_cell_angle_gamma   93.78339390
_symmetry_Int_Tables_number   1
_chemical_formula_structural   Cu7Ni2C15
_chemical_formula_sum   'Cu28 Ni8 C60'
_cell_volume   1271.63403009
_cell_formula_units_Z   4
loop_
 _symmetry_equiv_pos_site_id
 _symmetry_equiv_pos_as_xyz
  1  'x, y, z'
loop_
 _atom_site_type_symbol
 _atom_site_label
 _atom_site_symmetry_multiplicity
 _atom_site_fract_x
 _atom_site_fract_y
 _atom_site_fract_z
 _atom_site_occupancy
  C  C0  1  0.20676700  0.31388100  0.30357500  1
  C  C1  1  0.79323300  0.68611900  0.69642500  1
  C  C2  1  0.29323300  0.68611900  0.80357500  1
  C  C3  1  0.70676700  0.31388100  0.19642500  1
  C  C4  1  0.37696500  0.61280000  0.20893000  1
  C  C5  1  0.62303500  0.38720000  0.79107000  1
  C  C6  1  0.12303500  0.38720000  0.70893000  1
  C  C7  1  0.87696500  0.61280000  0.29107000  1
  C  C8  1  0.47782100  0.63265100  0.26943700  1
  C  C9  1  0.52217900  0.36734900  0.73056300  1
  C  C10  1  0.02217900  0.36734900  0.76943700  1
  C  C11  1  0.97782100  0.63265100  0.23056300  1
  C  C12  1  0.00696300  0.57524300  0.38313300  1
  C  C13  1  0.99303700  0.42475700  0.61686700  1
  C  C14  1  0.49303700  0.42475700  0.88313300  1
  C  C15  1  0.50696300  0.57524300  0.11686700  1
  C  C16  1  0.20227300  0.09803100  0.82948700  1
  C  C17  1  0.79772700  0.90196900  0.17051300  1
  C  C18  1  0.29772700  0.90196900  0.32948700  1
  C  C19  1  0.70227300  0.09803100  0.67051300  1
  C  C20  1  0.42489400  0.08208700  0.83559400  1
  C  C21  1  0.57510600  0.91791300  0.16440600  1
  C  C22  1  0.07510600  0.91791300  0.33559400  1
  C  C23  1  0.92489400  0.08208700  0.66440600  1
  C  C24  1  0.22395900  0.60932300  0.39898600  1
  C  C25  1  0.77604100  0.39067700  0.60101400  1
  C  C26  1  0.27604100  0.39067700  0.89898600  1
  C  C27  1  0.72395900  0.60932300  0.10101400  1
  C  C28  1  0.43061100  0.25954300  0.46479600  1
  C  C29  1  0.56938900  0.74045700  0.53520400  1
  C  C30  1  0.06938900  0.74045700  0.96479600  1
  C  C31  1  0.93061100  0.25954300  0.03520400  1
  C  C32  1  0.18780800  0.22591800  0.16711200  1
  C  C33  1  0.81219200  0.77408200  0.83288800  1
  C  C34  1  0.31219200  0.77408200  0.66711200  1
  C  C35  1  0.68780800  0.22591800  0.33288800  1
  C  C36  1  0.08214000  0.73824800  0.06756700  1
  C  C37  1  0.91786000  0.26175200  0.93243300  1
  C  C38  1  0.41786000  0.26175200  0.56756700  1
  C  C39  1  0.58214000  0.73824800  0.43243300  1
  C  C40  1  0.10073300  0.22889900  0.00590400  1
  C  C41  1  0.89926700  0.77110100  0.99409600  1
  C  C42  1  0.39926700  0.77110100  0.50590400  1
  C  C43  1  0.60073300  0.22889900  0.49409600  1
  C  C44  1  0.13932000  0.72518100  0.12885100  1
  C  C45  1  0.86068000  0.27481900  0.87114900  1
  C  C46  1  0.36068000  0.27481900  0.62885100  1
  C  C47  1  0.63932000  0.72518100  0.37114900  1
  C  C48  1  0.11838900  0.23027000  0.10748600  1
  C  C49  1  0.88161100  0.76973000  0.89251400  1
  C  C50  1  0.38161100  0.76973000  0.60748600  1
  C  C51  1  0.61838900  0.23027000  0.39251400  1
  C  C52  1  0.25169900  0.29194100  0.51341200  1
  C  C53  1  0.74830100  0.70805900  0.48658800  1
  C  C54  1  0.24830100  0.70805900  0.01341200  1
  C  C55  1  0.75169900  0.29194100  0.98658800  1
  C  C56  1  0.28227800  0.19930200  0.05354700  1
  C  C57  1  0.71772200  0.80069800  0.94645300  1
  C  C58  1  0.21772200  0.80069800  0.55354700  1
  C  C59  1  0.78227800  0.19930200  0.44645300  1
  Ni  Ni60  1  0.44102400  0.26108000  0.40750200  1
  Ni  Ni61  1  0.55897600  0.73892000  0.59249800  1
  Ni  Ni62  1  0.05897600  0.73892000  0.90750200  1
  Ni  Ni63  1  0.94102400  0.26108000  0.09249800  1
  Ni  Ni64  1  0.59423300  0.23217000  0.55126800  1
  Ni  Ni65  1  0.40576700  0.76783000  0.44873200  1
  Ni  Ni66  1  0.90576700  0.76783000  0.05126800  1
  Ni  Ni67  1  0.09423300  0.23217000  0.94873200  1
  Cu  Cu68  1  0.18667600  0.30734500  0.63875100  1
  Cu  Cu69  1  0.81332400  0.69265500  0.36124900  1
  Cu  Cu70  1  0.31332400  0.69265500  0.13875100  1
  Cu  Cu71  1  0.68667600  0.30734500  0.86124900  1
  Cu  Cu72  1  0.36424600  0.20505800  0.17424700  1
  Cu  Cu73  1  0.63575400  0.79494200  0.82575300  1
  Cu  Cu74  1  0.13575400  0.79494200  0.67424700  1
  Cu  Cu75  1  0.86424600  0.20505800  0.32575300  1
  Cu  Cu76  1  0.00929800  0.74598000  0.16497400  1
  Cu  Cu77  1  0.99070200  0.25402000  0.83502600  1
  Cu  Cu78  1  0.49070200  0.25402000  0.66497400  1
  Cu  Cu79  1  0.50929800  0.74598000  0.33502600  1
  Cu  Cu80  1  0.12953500  0.51791900  0.38588300  1
  Cu  Cu81  1  0.87046500  0.48208100  0.61411700  1
  Cu  Cu82  1  0.37046500  0.48208100  0.88588300  1
  Cu  Cu83  1  0.62953500  0.51791900  0.11411700  1
  Cu  Cu84  1  0.30590900  0.01926500  0.82365300  1
  Cu  Cu85  1  0.69409100  0.98073500  0.17634700  1
  Cu  Cu86  1  0.19409100  0.98073500  0.32365300  1
  Cu  Cu87  1  0.80590900  0.01926500  0.67634700  1
  Cu  Cu88  1  0.42872000  0.54652900  0.24082300  1
  Cu  Cu89  1  0.57128000  0.45347100  0.75917700  1
  Cu  Cu90  1  0.07128000  0.45347100  0.74082300  1
  Cu  Cu91  1  0.92872000  0.54652900  0.25917700  1
  Cu  Cu92  1  0.06366100  0.24652500  0.20552100  1
  Cu  Cu93  1  0.93633900  0.75347500  0.79447900  1
  Cu  Cu94  1  0.43633900  0.75347500  0.70552100  1
  Cu  Cu95  1  0.56366100  0.24652500  0.29447900  1
