# generated using pymatgen
data_Cu3(NiC7)2
_symmetry_space_group_name_H-M   'P 1'
_cell_length_a   4.49816200
_cell_length_b   12.65766500
_cell_length_c   17.55378500
_cell_angle_alpha   90.00000000
_cell_angle_beta   90.00000000
_cell_angle_gamma   90.00000000
_symmetry_Int_Tables_number   1
_chemical_formula_structural   Cu3(NiC7)2
_chemical_formula_sum   'Cu12 Ni8 C56'
_cell_volume   999.44629996
_cell_formula_units_Z   4
loop_
 _symmetry_equiv_pos_site_id
 _symmetry_equiv_pos_as_xyz
  1  'x, y, z'
loop_
 _atom_site_type_symbol
 _atom_site_label
 _atom_site_symmetry_multiplicity
 _atom_site_fract_x
 _atom_site_fract_y
 _atom_site_fract_z
 _atom_site_occupancy
  C  C0  1  0.97244200  0.25000000  0.78149600  1
  C  C1  1  0.52755800  0.25000000  0.28149600  1
  C  C2  1  0.02755800  0.75000000  0.21850400  1
  C  C3  1  0.47244200  0.75000000  0.71850400  1
  Ni  Ni4  1  0.56267100  0.15056900  0.07942700  1
  Ni  Ni5  1  0.93732900  0.34943100  0.57942700  1
  Ni  Ni6  1  0.43732900  0.65056900  0.92057300  1
  Ni  Ni7  1  0.06267100  0.84943100  0.42057300  1
  Ni  Ni8  1  0.43732900  0.84943100  0.92057300  1
  Ni  Ni9  1  0.06267100  0.65056900  0.42057300  1
  Ni  Ni10  1  0.56267100  0.34943100  0.07942700  1
  Ni  Ni11  1  0.93732900  0.15056900  0.57942700  1
  Cu  Cu12  1  0.44294400  0.06366600  0.64726200  1
  Cu  Cu13  1  0.05705600  0.43633400  0.14726200  1
  Cu  Cu14  1  0.55705600  0.56366600  0.35273800  1
  Cu  Cu15  1  0.94294400  0.93633400  0.85273800  1
  Cu  Cu16  1  0.55705600  0.93633400  0.35273800  1
  Cu  Cu17  1  0.94294400  0.56366600  0.85273800  1
  Cu  Cu18  1  0.44294400  0.43633400  0.64726200  1
  Cu  Cu19  1  0.05705600  0.06366600  0.14726200  1
  Cu  Cu20  1  0.36671600  0.25000000  0.95381500  1
  Cu  Cu21  1  0.13328400  0.25000000  0.45381500  1
  Cu  Cu22  1  0.63328400  0.75000000  0.04618500  1
  Cu  Cu23  1  0.86671600  0.75000000  0.54618500  1
  C  C24  1  0.96381600  0.25000000  0.61631600  1
  C  C25  1  0.53618400  0.25000000  0.11631600  1
  C  C26  1  0.03618400  0.75000000  0.38368400  1
  C  C27  1  0.46381600  0.75000000  0.88368400  1
  C  C28  1  0.48597300  0.15289700  0.99694200  1
  C  C29  1  0.01402700  0.34710300  0.49694200  1
  C  C30  1  0.51402700  0.65289700  0.00305800  1
  C  C31  1  0.98597300  0.84710300  0.50305800  1
  C  C32  1  0.51402700  0.84710300  0.00305800  1
  C  C33  1  0.98597300  0.65289700  0.50305800  1
  C  C34  1  0.48597300  0.34710300  0.99694200  1
  C  C35  1  0.01402700  0.15289700  0.49694200  1
  C  C36  1  0.47446900  0.13476300  0.71243900  1
  C  C37  1  0.02553100  0.36523700  0.21243900  1
  C  C38  1  0.52553100  0.63476300  0.28756100  1
  C  C39  1  0.97446900  0.86523700  0.78756100  1
  C  C40  1  0.52553100  0.86523700  0.28756100  1
  C  C41  1  0.97446900  0.63476300  0.78756100  1
  C  C42  1  0.47446900  0.36523700  0.71243900  1
  C  C43  1  0.02553100  0.13476300  0.21243900  1
  C  C44  1  0.49462300  0.25000000  0.87742600  1
  C  C45  1  0.00537700  0.25000000  0.37742600  1
  C  C46  1  0.50537700  0.75000000  0.12257400  1
  C  C47  1  0.99462300  0.75000000  0.62257400  1
  C  C48  1  0.04703600  0.25000000  0.95189800  1
  C  C49  1  0.45296400  0.25000000  0.45189800  1
  C  C50  1  0.95296400  0.75000000  0.04810200  1
  C  C51  1  0.54703600  0.75000000  0.54810200  1
  C  C52  1  0.51052500  0.95440700  0.66246000  1
  C  C53  1  0.98947500  0.54559300  0.16246000  1
  C  C54  1  0.48947500  0.45440700  0.33754000  1
  C  C55  1  0.01052500  0.04559300  0.83754000  1
  C  C56  1  0.48947500  0.04559300  0.33754000  1
  C  C57  1  0.01052500  0.45440700  0.83754000  1
  C  C58  1  0.51052500  0.54559300  0.66246000  1
  C  C59  1  0.98947500  0.95440700  0.16246000  1
  C  C60  1  0.12055300  0.06651000  0.61811100  1
  C  C61  1  0.37944700  0.43349000  0.11811100  1
  C  C62  1  0.87944700  0.56651000  0.38188900  1
  C  C63  1  0.62055300  0.93349000  0.88188900  1
  C  C64  1  0.87944700  0.93349000  0.38188900  1
  C  C65  1  0.62055300  0.56651000  0.88188900  1
  C  C66  1  0.12055300  0.43349000  0.61811100  1
  C  C67  1  0.37944700  0.06651000  0.11811100  1
  C  C68  1  0.62434000  0.10510800  0.57940300  1
  C  C69  1  0.87566000  0.39489200  0.07940300  1
  C  C70  1  0.37566000  0.60510800  0.42059700  1
  C  C71  1  0.12434000  0.89489200  0.92059700  1
  C  C72  1  0.37566000  0.89489200  0.42059700  1
  C  C73  1  0.12434000  0.60510800  0.92059700  1
  C  C74  1  0.62434000  0.39489200  0.57940300  1
  C  C75  1  0.87566000  0.10510800  0.07940300  1
