# generated using pymatgen
data_Cu2NiC3
_symmetry_space_group_name_H-M   'P 1'
_cell_length_a   8.79915617
_cell_length_b   8.79915617
_cell_length_c   8.79915617
_cell_angle_alpha   60.00000000
_cell_angle_beta   60.00000000
_cell_angle_gamma   60.00000000
_symmetry_Int_Tables_number   1
_chemical_formula_structural   Cu2NiC3
_chemical_formula_sum   'Cu8 Ni4 C12'
_cell_volume   481.73486627
_cell_formula_units_Z   4
loop_
 _symmetry_equiv_pos_site_id
 _symmetry_equiv_pos_as_xyz
  1  'x, y, z'
loop_
 _atom_site_type_symbol
 _atom_site_label
 _atom_site_symmetry_multiplicity
 _atom_site_fract_x
 _atom_site_fract_y
 _atom_site_fract_z
 _atom_site_occupancy
  C  C0  1  0.80298600  0.80298600  0.19701400  1
  C  C1  1  0.19701400  0.19701400  0.80298600  1
  C  C2  1  0.80298600  0.19701400  0.80298600  1
  C  C3  1  0.19701400  0.80298600  0.19701400  1
  C  C4  1  0.19701400  0.80298600  0.80298600  1
  C  C5  1  0.80298600  0.19701400  0.19701400  1
  C  C6  1  0.44701400  0.44701400  0.05298600  1
  C  C7  1  0.05298600  0.05298600  0.44701400  1
  C  C8  1  0.44701400  0.05298600  0.44701400  1
  C  C9  1  0.05298600  0.44701400  0.05298600  1
  C  C10  1  0.05298600  0.44701400  0.44701400  1
  C  C11  1  0.44701400  0.05298600  0.05298600  1
  Ni  Ni12  1  0.12500000  0.62500000  0.62500000  1
  Ni  Ni13  1  0.62500000  0.12500000  0.62500000  1
  Ni  Ni14  1  0.62500000  0.62500000  0.12500000  1
  Ni  Ni15  1  0.62500000  0.62500000  0.62500000  1
  Cu  Cu16  1  0.76142300  0.41285900  0.41285900  1
  Cu  Cu17  1  0.41285900  0.76142300  0.41285900  1
  Cu  Cu18  1  0.41285900  0.41285900  0.76142300  1
  Cu  Cu19  1  0.41285900  0.41285900  0.41285900  1
  Cu  Cu20  1  0.48857700  0.83714100  0.83714100  1
  Cu  Cu21  1  0.83714100  0.48857700  0.83714100  1
  Cu  Cu22  1  0.83714100  0.83714100  0.48857700  1
  Cu  Cu23  1  0.83714100  0.83714100  0.83714100  1
