# generated using pymatgen
data_CuNi4C3
_symmetry_space_group_name_H-M   'P 1'
_cell_length_a   5.25497565
_cell_length_b   7.54106470
_cell_length_c   10.50297904
_cell_angle_alpha   74.71219529
_cell_angle_beta   96.68844744
_cell_angle_gamma   69.93392429
_symmetry_Int_Tables_number   1
_chemical_formula_structural   CuNi4C3
_chemical_formula_sum   'Cu4 Ni16 C12'
_cell_volume   367.14648997
_cell_formula_units_Z   4
loop_
 _symmetry_equiv_pos_site_id
 _symmetry_equiv_pos_as_xyz
  1  'x, y, z'
loop_
 _atom_site_type_symbol
 _atom_site_label
 _atom_site_symmetry_multiplicity
 _atom_site_fract_x
 _atom_site_fract_y
 _atom_site_fract_z
 _atom_site_occupancy
  C  C0  1  0.46344600  0.61998900  0.19232800  1
  C  C1  1  0.96328400  0.11996800  0.69222700  1
  C  C2  1  0.53665000  0.37998400  0.80769700  1
  C  C3  1  0.03670400  0.88004100  0.30776700  1
  C  C4  1  0.49983800  0.99980100  0.50002200  1
  C  C5  1  0.99986100  0.50012000  0.99989400  1
  C  C6  1  0.50008700  0.49989200  0.50000700  1
  C  C7  1  0.00004600  0.00001000  0.00002300  1
  C  C8  1  0.00519100  0.44206000  0.31915700  1
  C  C9  1  0.50509800  0.94210900  0.81906200  1
  C  C10  1  0.99490200  0.55792300  0.68082100  1
  C  C11  1  0.49486200  0.05798900  0.18095000  1
  Ni  Ni12  1  0.74739100  0.53721900  0.37376200  1
  Ni  Ni13  1  0.24721700  0.03723400  0.87375800  1
  Ni  Ni14  1  0.25278100  0.46276700  0.62623400  1
  Ni  Ni15  1  0.75277600  0.96286900  0.12629200  1
  Ni  Ni16  1  0.64824700  0.71607200  0.89339200  1
  Ni  Ni17  1  0.14824500  0.21593000  0.39350600  1
  Ni  Ni18  1  0.35163500  0.28395900  0.10655200  1
  Ni  Ni19  1  0.85170200  0.78407200  0.60649300  1
  Ni  Ni20  1  0.86611700  0.48994800  0.16743400  1
  Ni  Ni21  1  0.36582400  0.98985600  0.66740100  1
  Ni  Ni22  1  0.13397600  0.51012500  0.83253500  1
  Ni  Ni23  1  0.63401300  0.01015400  0.33262000  1
  Ni  Ni24  1  0.79148600  0.44982200  0.66994200  1
  Ni  Ni25  1  0.29160100  0.94970800  0.17009300  1
  Ni  Ni26  1  0.20856200  0.55015900  0.33008000  1
  Ni  Ni27  1  0.70850600  0.05031600  0.82993300  1
  Cu  Cu28  1  0.82703400  0.29206900  0.96258800  1
  Cu  Cu29  1  0.32694800  0.79205800  0.46267500  1
  Cu  Cu30  1  0.17299700  0.70796100  0.03739500  1
  Cu  Cu31  1  0.67297500  0.20781700  0.53736000  1
