# generated using pymatgen
data_Cu4NiC9
_symmetry_space_group_name_H-M   'P 1'
_cell_length_a   8.15665800
_cell_length_b   8.15665800
_cell_length_c   5.06677200
_cell_angle_alpha   90.00000000
_cell_angle_beta   90.00000000
_cell_angle_gamma   90.00000000
_symmetry_Int_Tables_number   1
_chemical_formula_structural   Cu4NiC9
_chemical_formula_sum   'Cu8 Ni2 C18'
_cell_volume   337.09776123
_cell_formula_units_Z   2
loop_
 _symmetry_equiv_pos_site_id
 _symmetry_equiv_pos_as_xyz
  1  'x, y, z'
loop_
 _atom_site_type_symbol
 _atom_site_label
 _atom_site_symmetry_multiplicity
 _atom_site_fract_x
 _atom_site_fract_y
 _atom_site_fract_z
 _atom_site_occupancy
  Ni  Ni0  1  0.00000000  0.50000000  0.71985000  1
  Ni  Ni1  1  0.50000000  0.00000000  0.28015000  1
  Cu  Cu2  1  0.68803700  0.38631600  0.26851500  1
  Cu  Cu3  1  0.38631600  0.31196300  0.73148500  1
  Cu  Cu4  1  0.88631600  0.81196300  0.26851500  1
  Cu  Cu5  1  0.18803700  0.88631600  0.73148500  1
  Cu  Cu6  1  0.31196300  0.61368400  0.26851500  1
  Cu  Cu7  1  0.11368400  0.18803700  0.26851500  1
  Cu  Cu8  1  0.81196300  0.11368400  0.73148500  1
  Cu  Cu9  1  0.61368400  0.68803700  0.73148500  1
  C  C10  1  0.50000000  0.50000000  0.50000000  1
  C  C11  1  0.00000000  0.00000000  0.50000000  1
  C  C12  1  0.50413900  0.74625700  0.08255300  1
  C  C13  1  0.75374300  0.00413900  0.08255300  1
  C  C14  1  0.24625700  0.99586100  0.08255300  1
  C  C15  1  0.49586100  0.25374300  0.08255300  1
  C  C16  1  0.99586100  0.75374300  0.91744700  1
  C  C17  1  0.74625700  0.49586100  0.91744700  1
  C  C18  1  0.25374300  0.50413900  0.91744700  1
  C  C19  1  0.00413900  0.24625700  0.91744700  1
  C  C20  1  0.20558900  0.39695400  0.44197300  1
  C  C21  1  0.10304600  0.70558900  0.44197300  1
  C  C22  1  0.89695400  0.29441100  0.44197300  1
  C  C23  1  0.79441100  0.60304600  0.44197300  1
  C  C24  1  0.70558900  0.89695400  0.55802700  1
  C  C25  1  0.39695400  0.79441100  0.55802700  1
  C  C26  1  0.60304600  0.20558900  0.55802700  1
  C  C27  1  0.29441100  0.10304600  0.55802700  1
