# generated using pymatgen
data_Cu3Ni3C13
_symmetry_space_group_name_H-M   'P 1'
_cell_length_a   6.03293800
_cell_length_b   15.01312100
_cell_length_c   15.49164322
_cell_angle_alpha   67.29023653
_cell_angle_beta   90.00000000
_cell_angle_gamma   90.00000000
_symmetry_Int_Tables_number   1
_chemical_formula_structural   Cu3Ni3C13
_chemical_formula_sum   'Cu12 Ni12 C52'
_cell_volume   1294.34686150
_cell_formula_units_Z   4
loop_
 _symmetry_equiv_pos_site_id
 _symmetry_equiv_pos_as_xyz
  1  'x, y, z'
loop_
 _atom_site_type_symbol
 _atom_site_label
 _atom_site_symmetry_multiplicity
 _atom_site_fract_x
 _atom_site_fract_y
 _atom_site_fract_z
 _atom_site_occupancy
  C  C0  1  0.11159400  0.94756300  0.33194000  1
  C  C1  1  0.61159400  0.55243700  0.66806000  1
  C  C2  1  0.88840600  0.05243700  0.66806000  1
  C  C3  1  0.38840600  0.44756300  0.33194000  1
  Ni  Ni4  1  0.29537400  0.26078500  0.77912900  1
  Ni  Ni5  1  0.79537400  0.23921500  0.22087100  1
  Ni  Ni6  1  0.70462600  0.73921500  0.22087100  1
  Ni  Ni7  1  0.20462600  0.76078500  0.77912900  1
  Ni  Ni8  1  0.33532800  0.22322300  0.88475800  1
  Ni  Ni9  1  0.83532800  0.27677700  0.11524200  1
  Ni  Ni10  1  0.66467200  0.77677700  0.11524200  1
  Ni  Ni11  1  0.16467200  0.72322300  0.88475800  1
  Ni  Ni12  1  0.23515700  0.12035500  0.94061800  1
  Ni  Ni13  1  0.73515700  0.37964500  0.05938200  1
  Ni  Ni14  1  0.76484300  0.87964500  0.05938200  1
  Ni  Ni15  1  0.26484300  0.62035500  0.94061800  1
  Cu  Cu16  1  0.06395000  0.33543200  0.73508200  1
  Cu  Cu17  1  0.56395000  0.16456800  0.26491800  1
  Cu  Cu18  1  0.93605000  0.66456800  0.26491800  1
  Cu  Cu19  1  0.43605000  0.83543200  0.73508200  1
  Cu  Cu20  1  0.10785000  0.36195100  0.59756000  1
  Cu  Cu21  1  0.60785000  0.13804900  0.40244000  1
  Cu  Cu22  1  0.89215000  0.63804900  0.40244000  1
  Cu  Cu23  1  0.39215000  0.86195100  0.59756000  1
  Cu  Cu24  1  0.39876700  0.27725100  0.61492000  1
  Cu  Cu25  1  0.89876700  0.22274900  0.38508000  1
  Cu  Cu26  1  0.60123300  0.72274900  0.38508000  1
  Cu  Cu27  1  0.10123300  0.77725100  0.61492000  1
  C  C28  1  0.42965300  0.23947100  0.72544400  1
  C  C29  1  0.92965300  0.26052900  0.27455600  1
  C  C30  1  0.57034700  0.76052900  0.27455600  1
  C  C31  1  0.07034700  0.73947100  0.72544400  1
  C  C32  1  0.55690700  0.21942400  0.90214900  1
  C  C33  1  0.05690700  0.28057600  0.09785100  1
  C  C34  1  0.44309300  0.78057600  0.09785100  1
  C  C35  1  0.94309300  0.71942400  0.90214900  1
  C  C36  1  0.23939800  0.28590900  0.91878600  1
  C  C37  1  0.73939800  0.21409100  0.08121400  1
  C  C38  1  0.76060200  0.71409100  0.08121400  1
  C  C39  1  0.26060200  0.78590900  0.91878600  1
  C  C40  1  0.32415000  0.05501400  0.91070800  1
  C  C41  1  0.82415000  0.44498600  0.08929200  1
  C  C42  1  0.67585000  0.94498600  0.08929200  1
  C  C43  1  0.17585000  0.55501400  0.91070800  1
  C  C44  1  0.01240300  0.12270700  0.92830000  1
  C  C45  1  0.51240300  0.37729300  0.07170000  1
  C  C46  1  0.98759700  0.87729300  0.07170000  1
  C  C47  1  0.48759700  0.62270700  0.92830000  1
  C  C48  1  0.27872700  0.09392900  0.03252200  1
  C  C49  1  0.77872700  0.40607100  0.96747800  1
  C  C50  1  0.72127300  0.90607100  0.96747800  1
  C  C51  1  0.22127300  0.59392900  0.03252200  1
  C  C52  1  0.01236900  0.87407700  0.27441600  1
  C  C53  1  0.51236900  0.62592300  0.72558400  1
  C  C54  1  0.98763100  0.12592300  0.72558400  1
  C  C55  1  0.48763100  0.37407700  0.27441600  1
  C  C56  1  0.21257800  0.01922100  0.39311800  1
  C  C57  1  0.71257800  0.48077900  0.60688200  1
  C  C58  1  0.78742200  0.98077900  0.60688200  1
  C  C59  1  0.28742200  0.51922100  0.39311800  1
  C  C60  1  0.00594100  0.05314000  0.24349200  1
  C  C61  1  0.50594100  0.44686000  0.75650800  1
  C  C62  1  0.99405900  0.94686000  0.75650800  1
  C  C63  1  0.49405900  0.55314000  0.24349200  1
  C  C64  1  0.86011200  0.92990100  0.39525200  1
  C  C65  1  0.36011200  0.57009900  0.60474800  1
  C  C66  1  0.13988800  0.07009900  0.60474800  1
  C  C67  1  0.63988800  0.42990100  0.39525200  1
  C  C68  1  0.22280800  0.84166900  0.42426400  1
  C  C69  1  0.72280800  0.65833100  0.57573600  1
  C  C70  1  0.77719200  0.15833100  0.57573600  1
  C  C71  1  0.27719200  0.34166900  0.42426400  1
  C  C72  1  0.36707600  0.96245000  0.27291100  1
  C  C73  1  0.86707600  0.53755000  0.72708900  1
  C  C74  1  0.63292400  0.03755000  0.72708900  1
  C  C75  1  0.13292400  0.46245000  0.27291100  1
