# generated using pymatgen
data_Cu6NiC5
_symmetry_space_group_name_H-M   'P 1'
_cell_length_a   5.74851467
_cell_length_b   5.74851467
_cell_length_c   5.70013228
_cell_angle_alpha   79.59673136
_cell_angle_beta   79.59673136
_cell_angle_gamma   119.35260479
_symmetry_Int_Tables_number   1
_chemical_formula_structural   Cu6NiC5
_chemical_formula_sum   'Cu6 Ni1 C5'
_cell_volume   153.32106747
_cell_formula_units_Z   1
loop_
 _symmetry_equiv_pos_site_id
 _symmetry_equiv_pos_as_xyz
  1  'x, y, z'
loop_
 _atom_site_type_symbol
 _atom_site_label
 _atom_site_symmetry_multiplicity
 _atom_site_fract_x
 _atom_site_fract_y
 _atom_site_fract_z
 _atom_site_occupancy
  C  C0  1  0.83340700  0.16659300  0.00000000  1
  C  C1  1  0.16659300  0.83340700  0.00000000  1
  C  C2  1  0.67061300  0.32938700  0.50000000  1
  C  C3  1  0.32938700  0.67061300  0.50000000  1
  C  C4  1  0.00000000  0.00000000  0.50000000  1
  Ni  Ni5  1  0.50000000  0.50000000  0.00000000  1
  Cu  Cu6  1  0.43054700  0.15432500  0.21462400  1
  Cu  Cu7  1  0.56945300  0.84567500  0.78537600  1
  Cu  Cu8  1  0.84567500  0.56945300  0.78537600  1
  Cu  Cu9  1  0.15432500  0.43054700  0.21462400  1
  Cu  Cu10  1  0.70229100  0.70229100  0.20247000  1
  Cu  Cu11  1  0.29770900  0.29770900  0.79753000  1
