# generated using pymatgen
data_Cu7NiC32
_symmetry_space_group_name_H-M   'P 1'
_cell_length_a   7.99176208
_cell_length_b   7.99176208
_cell_length_c   7.99176180
_cell_angle_alpha   90.02719648
_cell_angle_beta   90.02719648
_cell_angle_gamma   90.02719280
_symmetry_Int_Tables_number   1
_chemical_formula_structural   Cu7NiC32
_chemical_formula_sum   'Cu7 Ni1 C32'
_cell_volume   510.41975696
_cell_formula_units_Z   1
loop_
 _symmetry_equiv_pos_site_id
 _symmetry_equiv_pos_as_xyz
  1  'x, y, z'
loop_
 _atom_site_type_symbol
 _atom_site_label
 _atom_site_symmetry_multiplicity
 _atom_site_fract_x
 _atom_site_fract_y
 _atom_site_fract_z
 _atom_site_occupancy
  C  C0  1  0.75103300  0.24903500  0.75103300  1
  C  C1  1  0.75116900  0.24911000  0.24911000  1
  C  C2  1  0.75085900  0.75085900  0.75085900  1
  C  C3  1  0.75103300  0.75103300  0.24903500  1
  C  C4  1  0.24911000  0.24911000  0.75116900  1
  C  C5  1  0.24903500  0.75103300  0.75103300  1
  C  C6  1  0.24911000  0.75116900  0.24911000  1
  C  C7  1  0.24794600  0.24794600  0.24794600  1
  Ni  Ni8  1  0.49854300  0.49854300  0.49854300  1
  Cu  Cu9  1  0.49995600  0.00011500  0.00011500  1
  Cu  Cu10  1  0.49971100  0.99989500  0.49971100  1
  Cu  Cu11  1  0.49971100  0.49971100  0.99989500  1
  Cu  Cu12  1  0.00022800  0.00022800  0.00022800  1
  Cu  Cu13  1  0.00011500  0.00011500  0.49995600  1
  Cu  Cu14  1  0.00011500  0.49995600  0.00011500  1
  Cu  Cu15  1  0.99989500  0.49971100  0.49971100  1
  C  C16  1  0.75038400  0.00079500  0.00079500  1
  C  C17  1  0.74887700  0.00061200  0.49923400  1
  C  C18  1  0.74887700  0.49923400  0.00061200  1
  C  C19  1  0.74173500  0.49921400  0.49921400  1
  C  C20  1  0.24970200  0.00576000  0.00576000  1
  C  C21  1  0.25113000  0.00590200  0.49419600  1
  C  C22  1  0.25113000  0.49419600  0.00590200  1
  C  C23  1  0.25735200  0.49590800  0.49590800  1
  C  C24  1  0.49419600  0.25113000  0.00590200  1
  C  C25  1  0.49590800  0.25735200  0.49590800  1
  C  C26  1  0.49923400  0.74887700  0.00061200  1
  C  C27  1  0.49921400  0.74173500  0.49921400  1
  C  C28  1  0.00576000  0.24970200  0.00576000  1
  C  C29  1  0.00590200  0.25113000  0.49419600  1
  C  C30  1  0.00079500  0.75038400  0.00079500  1
  C  C31  1  0.00061200  0.74887700  0.49923400  1
  C  C32  1  0.49923400  0.00061200  0.74887700  1
  C  C33  1  0.49419600  0.00590200  0.25113000  1
  C  C34  1  0.49921400  0.49921400  0.74173500  1
  C  C35  1  0.49590800  0.49590800  0.25735200  1
  C  C36  1  0.00079500  0.00079500  0.75038400  1
  C  C37  1  0.00576000  0.00576000  0.24970200  1
  C  C38  1  0.00061200  0.49923400  0.74887700  1
  C  C39  1  0.00590200  0.49419600  0.25113000  1
