# generated using pymatgen
data_CuNi13C10
_symmetry_space_group_name_H-M   'P 1'
_cell_length_a   8.63831625
_cell_length_b   8.63831625
_cell_length_c   8.63831625
_cell_angle_alpha   60.00000000
_cell_angle_beta   60.00000000
_cell_angle_gamma   60.00000000
_symmetry_Int_Tables_number   1
_chemical_formula_structural   CuNi13C10
_chemical_formula_sum   'Cu2 Ni26 C20'
_cell_volume   455.79788042
_cell_formula_units_Z   2
loop_
 _symmetry_equiv_pos_site_id
 _symmetry_equiv_pos_as_xyz
  1  'x, y, z'
loop_
 _atom_site_type_symbol
 _atom_site_label
 _atom_site_symmetry_multiplicity
 _atom_site_fract_x
 _atom_site_fract_y
 _atom_site_fract_z
 _atom_site_occupancy
  C  C0  1  0.50000000  0.00000000  0.00000000  1
  C  C1  1  0.00000000  0.50000000  0.50000000  1
  C  C2  1  0.00000000  0.50000000  0.00000000  1
  C  C3  1  0.50000000  0.00000000  0.50000000  1
  C  C4  1  0.00000000  0.00000000  0.50000000  1
  C  C5  1  0.50000000  0.50000000  0.00000000  1
  C  C6  1  0.07994600  0.07994600  0.07994600  1
  C  C7  1  0.07994600  0.07994600  0.76016100  1
  C  C8  1  0.07994600  0.76016100  0.07994600  1
  C  C9  1  0.57994600  0.57994600  0.57994600  1
  C  C10  1  0.76016100  0.07994600  0.07994600  1
  C  C11  1  0.57994600  0.57994600  0.26016100  1
  C  C12  1  0.26016100  0.57994600  0.57994600  1
  C  C13  1  0.57994600  0.26016100  0.57994600  1
  C  C14  1  0.75000000  0.25000000  0.25000000  1
  C  C15  1  0.25000000  0.75000000  0.75000000  1
  C  C16  1  0.25000000  0.75000000  0.25000000  1
  C  C17  1  0.75000000  0.25000000  0.75000000  1
  C  C18  1  0.25000000  0.25000000  0.75000000  1
  C  C19  1  0.75000000  0.75000000  0.25000000  1
  Ni  Ni20  1  0.25661100  0.10313700  0.93598800  1
  Ni  Ni21  1  0.10313700  0.25661100  0.70426400  1
  Ni  Ni22  1  0.93598800  0.70426400  0.25661100  1
  Ni  Ni23  1  0.93598800  0.25661100  0.10313700  1
  Ni  Ni24  1  0.60313700  0.75661100  0.43598800  1
  Ni  Ni25  1  0.70426400  0.93598800  0.10313700  1
  Ni  Ni26  1  0.70426400  0.10313700  0.25661100  1
  Ni  Ni27  1  0.75661100  0.60313700  0.20426400  1
  Ni  Ni28  1  0.25661100  0.93598800  0.70426400  1
  Ni  Ni29  1  0.20426400  0.43598800  0.75661100  1
  Ni  Ni30  1  0.10313700  0.70426400  0.93598800  1
  Ni  Ni31  1  0.43598800  0.20426400  0.60313700  1
  Ni  Ni32  1  0.10313700  0.93598800  0.25661100  1
  Ni  Ni33  1  0.75661100  0.43598800  0.60313700  1
  Ni  Ni34  1  0.70426400  0.25661100  0.93598800  1
  Ni  Ni35  1  0.43598800  0.75661100  0.20426400  1
  Ni  Ni36  1  0.93598800  0.10313700  0.70426400  1
  Ni  Ni37  1  0.20426400  0.60313700  0.43598800  1
  Ni  Ni38  1  0.25661100  0.70426400  0.10313700  1
  Ni  Ni39  1  0.60313700  0.20426400  0.75661100  1
  Ni  Ni40  1  0.43598800  0.60313700  0.75661100  1
  Ni  Ni41  1  0.20426400  0.75661100  0.60313700  1
  Ni  Ni42  1  0.60313700  0.43598800  0.20426400  1
  Ni  Ni43  1  0.75661100  0.20426400  0.43598800  1
  Ni  Ni44  1  0.00000000  0.00000000  0.00000000  1
  Ni  Ni45  1  0.50000000  0.50000000  0.50000000  1
  Cu  Cu46  1  0.25000000  0.25000000  0.25000000  1
  Cu  Cu47  1  0.75000000  0.75000000  0.75000000  1
