# generated using pymatgen
data_Cu2NiC15
_symmetry_space_group_name_H-M   'P 1'
_cell_length_a   6.65148700
_cell_length_b   7.80505200
_cell_length_c   15.70425400
_cell_angle_alpha   90.00000000
_cell_angle_beta   90.00000000
_cell_angle_gamma   90.00000000
_symmetry_Int_Tables_number   1
_chemical_formula_structural   Cu2NiC15
_chemical_formula_sum   'Cu8 Ni4 C60'
_cell_volume   815.28951729
_cell_formula_units_Z   4
loop_
 _symmetry_equiv_pos_site_id
 _symmetry_equiv_pos_as_xyz
  1  'x, y, z'
loop_
 _atom_site_type_symbol
 _atom_site_label
 _atom_site_symmetry_multiplicity
 _atom_site_fract_x
 _atom_site_fract_y
 _atom_site_fract_z
 _atom_site_occupancy
  C  C0  1  0.37631100  0.74701700  0.53532200  1
  C  C1  1  0.12368900  0.74701700  0.03532200  1
  C  C2  1  0.62368900  0.24701700  0.46467800  1
  C  C3  1  0.87631100  0.24701700  0.96467800  1
  Ni  Ni4  1  0.06251800  0.75063500  0.80354300  1
  Ni  Ni5  1  0.43748200  0.75063500  0.30354300  1
  Ni  Ni6  1  0.93748200  0.25063500  0.19645700  1
  Ni  Ni7  1  0.56251800  0.25063500  0.69645700  1
  Cu  Cu8  1  0.85491700  0.93904200  0.63818600  1
  Cu  Cu9  1  0.63392800  0.55622800  0.13539400  1
  Cu  Cu10  1  0.14508300  0.43904200  0.36181400  1
  Cu  Cu11  1  0.36607200  0.05622800  0.86460600  1
  Cu  Cu12  1  0.13392800  0.05622800  0.36460600  1
  Cu  Cu13  1  0.35491700  0.43904200  0.86181400  1
  Cu  Cu14  1  0.86607200  0.55622800  0.63539400  1
  Cu  Cu15  1  0.64508300  0.93904200  0.13818600  1
  C  C16  1  0.88961000  0.14611500  0.76651700  1
  C  C17  1  0.61119000  0.35728500  0.26536300  1
  C  C18  1  0.11039000  0.64611500  0.23348300  1
  C  C19  1  0.38881000  0.85728500  0.73463700  1
  C  C20  1  0.11119000  0.85728500  0.23463700  1
  C  C21  1  0.38961000  0.64611500  0.73348300  1
  C  C22  1  0.88881000  0.35728500  0.76536300  1
  C  C23  1  0.61039000  0.14611500  0.26651700  1
  C  C24  1  0.22932100  0.15145500  0.60748800  1
  C  C25  1  0.27372600  0.35320500  0.10498700  1
  C  C26  1  0.77067900  0.65145500  0.39251200  1
  C  C27  1  0.72627400  0.85320500  0.89501300  1
  C  C28  1  0.77372600  0.85320500  0.39501300  1
  C  C29  1  0.72932100  0.65145500  0.89251200  1
  C  C30  1  0.22627400  0.35320500  0.60498700  1
  C  C31  1  0.27067900  0.15145500  0.10748800  1
  C  C32  1  0.00492600  0.99755800  0.51217600  1
  C  C33  1  0.99507400  0.49755800  0.48782400  1
  C  C34  1  0.50492600  0.49755800  0.98782400  1
  C  C35  1  0.49507400  0.99755800  0.01217600  1
  C  C36  1  0.68162500  0.05670900  0.61570800  1
  C  C37  1  0.81175700  0.44002900  0.11568300  1
  C  C38  1  0.31837500  0.55670900  0.38429200  1
  C  C39  1  0.18824300  0.94002900  0.88431700  1
  C  C40  1  0.31175700  0.94002900  0.38431700  1
  C  C41  1  0.18162500  0.55670900  0.88429200  1
  C  C42  1  0.68824300  0.44002900  0.61568300  1
  C  C43  1  0.81837500  0.05670900  0.11570800  1
  C  C44  1  0.81483600  0.25156100  0.78332300  1
  C  C45  1  0.68516400  0.25156100  0.28332300  1
  C  C46  1  0.18516400  0.75156100  0.21667700  1
  C  C47  1  0.31483600  0.75156100  0.71667700  1
  C  C48  1  0.92677600  0.94347700  0.72965600  1
  C  C49  1  0.56878500  0.55635700  0.22884700  1
  C  C50  1  0.07322400  0.44347700  0.27034400  1
  C  C51  1  0.43121500  0.05635700  0.77115300  1
  C  C52  1  0.06878500  0.05635700  0.27115300  1
  C  C53  1  0.42677600  0.44347700  0.77034400  1
  C  C54  1  0.93121500  0.55635700  0.72884700  1
  C  C55  1  0.57322400  0.94347700  0.22965600  1
  C  C56  1  0.77586800  0.74913600  0.61385100  1
  C  C57  1  0.72413200  0.74913600  0.11385100  1
  C  C58  1  0.22413200  0.24913600  0.38614900  1
  C  C59  1  0.27586800  0.24913600  0.88614900  1
  C  C60  1  0.31777200  0.25253200  0.60577900  1
  C  C61  1  0.18222800  0.25253200  0.10577900  1
  C  C62  1  0.68222800  0.75253200  0.39422100  1
  C  C63  1  0.81777200  0.75253200  0.89422100  1
  C  C64  1  0.04251400  0.97477700  0.57805900  1
  C  C65  1  0.45566900  0.52748300  0.07404300  1
  C  C66  1  0.95748600  0.47477700  0.42194100  1
  C  C67  1  0.54433100  0.02748300  0.92595700  1
  C  C68  1  0.95566900  0.02748300  0.42595700  1
  C  C69  1  0.54251400  0.47477700  0.92194100  1
  C  C70  1  0.04433100  0.52748300  0.57404300  1
  C  C71  1  0.45748600  0.97477700  0.07805900  1
