# generated using pymatgen
data_Cu8(NiC19)3
_symmetry_space_group_name_H-M   'P 1'
_cell_length_a   10.54074964
_cell_length_b   10.54074964
_cell_length_c   10.54074973
_cell_angle_alpha   63.31079049
_cell_angle_beta   63.31079049
_cell_angle_gamma   63.31079424
_symmetry_Int_Tables_number   1
_chemical_formula_structural   Cu8(NiC19)3
_chemical_formula_sum   'Cu8 Ni3 C57'
_cell_volume   888.85285465
_cell_formula_units_Z   1
loop_
 _symmetry_equiv_pos_site_id
 _symmetry_equiv_pos_as_xyz
  1  'x, y, z'
loop_
 _atom_site_type_symbol
 _atom_site_label
 _atom_site_symmetry_multiplicity
 _atom_site_fract_x
 _atom_site_fract_y
 _atom_site_fract_z
 _atom_site_occupancy
  Ni  Ni0  1  0.00000000  0.50000000  0.50000000  1
  Ni  Ni1  1  0.50000000  0.00000000  0.50000000  1
  Ni  Ni2  1  0.50000000  0.50000000  0.00000000  1
  Cu  Cu3  1  0.87283300  0.87283300  0.87283300  1
  Cu  Cu4  1  0.12716700  0.12716700  0.12716700  1
  Cu  Cu5  1  0.72681100  0.73675900  0.26569100  1
  Cu  Cu6  1  0.26569100  0.72681100  0.73675900  1
  Cu  Cu7  1  0.73675900  0.26569100  0.72681100  1
  Cu  Cu8  1  0.27318900  0.26324100  0.73430900  1
  Cu  Cu9  1  0.73430900  0.27318900  0.26324100  1
  Cu  Cu10  1  0.26324100  0.73430900  0.27318900  1
  C  C11  1  0.00000000  0.00000000  0.00000000  1
  C  C12  1  0.61149800  0.76990300  0.03704800  1
  C  C13  1  0.03704800  0.61149800  0.76990300  1
  C  C14  1  0.76990300  0.03704800  0.61149800  1
  C  C15  1  0.38850200  0.23009700  0.96295200  1
  C  C16  1  0.96295200  0.38850200  0.23009700  1
  C  C17  1  0.23009700  0.96295200  0.38850200  1
  C  C18  1  0.75172000  0.63007000  0.03609600  1
  C  C19  1  0.03609600  0.75172000  0.63007000  1
  C  C20  1  0.63007000  0.03609600  0.75172000  1
  C  C21  1  0.24828000  0.36993000  0.96390400  1
  C  C22  1  0.96390400  0.24828000  0.36993000  1
  C  C23  1  0.36993000  0.96390400  0.24828000  1
  C  C24  1  0.90005000  0.89055400  0.37703400  1
  C  C25  1  0.37703400  0.90005000  0.89055400  1
  C  C26  1  0.89055400  0.37703400  0.90005000  1
  C  C27  1  0.09995000  0.10944600  0.62296600  1
  C  C28  1  0.62296600  0.09995000  0.10944600  1
  C  C29  1  0.10944600  0.62296600  0.09995000  1
  C  C30  1  0.57292800  0.57292800  0.57292800  1
  C  C31  1  0.42707200  0.42707200  0.42707200  1
  C  C32  1  0.99125600  0.94842500  0.21356100  1
  C  C33  1  0.21356100  0.99125600  0.94842500  1
  C  C34  1  0.94842500  0.21356100  0.99125600  1
  C  C35  1  0.00874400  0.05157500  0.78643900  1
  C  C36  1  0.78643900  0.00874400  0.05157500  1
  C  C37  1  0.05157500  0.78643900  0.00874400  1
  C  C38  1  0.80843000  0.81247400  0.38666400  1
  C  C39  1  0.38666400  0.80843000  0.81247400  1
  C  C40  1  0.81247400  0.38666400  0.80843000  1
  C  C41  1  0.19157100  0.18752600  0.61333600  1
  C  C42  1  0.61333600  0.19157100  0.18752600  1
  C  C43  1  0.18752600  0.61333600  0.19157100  1
  C  C44  1  0.01171500  0.78626100  0.45716100  1
  C  C45  1  0.45716100  0.01171500  0.78626100  1
  C  C46  1  0.78626100  0.45716100  0.01171500  1
  C  C47  1  0.98828500  0.21373900  0.54283900  1
  C  C48  1  0.54283900  0.98828500  0.21373900  1
  C  C49  1  0.21373900  0.54283900  0.98828500  1
  C  C50  1  0.80467400  0.02128800  0.43247400  1
  C  C51  1  0.43247400  0.80467400  0.02128800  1
  C  C52  1  0.02128800  0.43247400  0.80467400  1
  C  C53  1  0.19532600  0.97871200  0.56752600  1
  C  C54  1  0.56752600  0.19532600  0.97871200  1
  C  C55  1  0.97871200  0.56752600  0.19532600  1
  C  C56  1  0.72990500  0.04834900  0.71181800  1
  C  C57  1  0.71181800  0.72990500  0.04834900  1
  C  C58  1  0.04834900  0.71181800  0.72990500  1
  C  C59  1  0.27009500  0.95165100  0.28818200  1
  C  C60  1  0.28818200  0.27009500  0.95165100  1
  C  C61  1  0.95165100  0.28818200  0.27009500  1
  C  C62  1  0.70525900  0.50865500  0.50440700  1
  C  C63  1  0.50440700  0.70525900  0.50865500  1
  C  C64  1  0.50865500  0.50440700  0.70525900  1
  C  C65  1  0.29474100  0.49134500  0.49559300  1
  C  C66  1  0.49559300  0.29474100  0.49134500  1
  C  C67  1  0.49134500  0.49559300  0.29474100  1
