# generated using pymatgen
data_Cu(NiC3)2
_symmetry_space_group_name_H-M   'P 1'
_cell_length_a   3.27428526
_cell_length_b   3.27428526
_cell_length_c   30.21925700
_cell_angle_alpha   90.00000000
_cell_angle_beta   90.00000000
_cell_angle_gamma   119.99998503
_symmetry_Int_Tables_number   1
_chemical_formula_structural   Cu(NiC3)2
_chemical_formula_sum   'Cu1 Ni2 C6'
_cell_volume   280.57405265
_cell_formula_units_Z   1
loop_
 _symmetry_equiv_pos_site_id
 _symmetry_equiv_pos_as_xyz
  1  'x, y, z'
loop_
 _atom_site_type_symbol
 _atom_site_label
 _atom_site_symmetry_multiplicity
 _atom_site_fract_x
 _atom_site_fract_y
 _atom_site_fract_z
 _atom_site_occupancy
  Ni  Ni0  1  0.00000000  0.00000000  0.88436500  1
  Ni  Ni1  1  0.33333300  0.66666700  0.65299900  1
  Cu  Cu2  1  0.00000000  0.00000000  0.42167800  1
  C  C3  1  0.00000000  0.00000000  0.59705200  1
  C  C4  1  0.33333300  0.66666700  0.94034400  1
  C  C5  1  0.33333300  0.66666700  0.82838200  1
  C  C6  1  0.00000000  0.00000000  0.70897500  1
  C  C7  1  0.33333300  0.66666700  0.47278700  1
  C  C8  1  0.33333300  0.66666700  0.37057700  1
