# generated using pymatgen
data_Cu(Ni10C11)3
_symmetry_space_group_name_H-M   'P 1'
_cell_length_a   8.76459978
_cell_length_b   8.77334833
_cell_length_c   8.77334833
_cell_angle_alpha   90.00000000
_cell_angle_beta   90.00000000
_cell_angle_gamma   90.00000000
_symmetry_Int_Tables_number   1
_chemical_formula_structural   Cu(Ni10C11)3
_chemical_formula_sum   'Cu1 Ni30 C33'
_cell_volume   674.62562707
_cell_formula_units_Z   1
loop_
 _symmetry_equiv_pos_site_id
 _symmetry_equiv_pos_as_xyz
  1  'x, y, z'
loop_
 _atom_site_type_symbol
 _atom_site_label
 _atom_site_symmetry_multiplicity
 _atom_site_fract_x
 _atom_site_fract_y
 _atom_site_fract_z
 _atom_site_occupancy
  C  C0  1  -0.00000000  -0.00000000  0.00000000  1
  Ni  Ni1  1  -0.00000000  -0.00000000  0.50000000  1
  Ni  Ni2  1  -0.00000000  0.50000000  0.00000000  1
  Ni  Ni3  1  0.50000000  -0.00000000  0.00000000  1
  Ni  Ni4  1  0.50000000  -0.00000000  0.50000000  1
  Ni  Ni5  1  0.50000000  0.50000000  0.00000000  1
  Ni  Ni6  1  0.50000000  0.50000000  0.50000000  1
  Ni  Ni7  1  -0.00000000  0.25023058  0.25023058  1
  Ni  Ni8  1  -0.00000000  0.25023058  0.74976942  1
  Ni  Ni9  1  -0.00000000  0.74976942  0.25023058  1
  Ni  Ni10  1  -0.00000000  0.74976942  0.74976942  1
  Ni  Ni11  1  0.50000000  0.24974705  0.24974705  1
  Ni  Ni12  1  0.50000000  0.24974705  0.75025295  1
  Ni  Ni13  1  0.50000000  0.75025295  0.24974705  1
  Ni  Ni14  1  0.50000000  0.75025295  0.75025295  1
  Ni  Ni15  1  0.25870557  -0.00000000  0.25675450  1
  Ni  Ni16  1  0.25870557  -0.00000000  0.74324550  1
  Ni  Ni17  1  0.25809141  0.50000000  0.24328093  1
  Ni  Ni18  1  0.25809141  0.50000000  0.75671907  1
  Ni  Ni19  1  0.74129443  -0.00000000  0.25675450  1
  Ni  Ni20  1  0.74129443  -0.00000000  0.74324550  1
  Ni  Ni21  1  0.74190859  0.50000000  0.24328093  1
  Ni  Ni22  1  0.74190859  0.50000000  0.75671907  1
  Ni  Ni23  1  0.25870557  0.25675450  0.00000000  1
  Ni  Ni24  1  0.25809141  0.24328093  0.50000000  1
  Ni  Ni25  1  0.25870557  0.74324550  0.00000000  1
  Ni  Ni26  1  0.25809141  0.75671907  0.50000000  1
  Ni  Ni27  1  0.74129443  0.25675450  0.00000000  1
  Ni  Ni28  1  0.74190859  0.24328093  0.50000000  1
  Ni  Ni29  1  0.74129443  0.74324550  0.00000000  1
  Ni  Ni30  1  0.74190859  0.75671907  0.50000000  1
  Cu  Cu31  1  -0.00000000  0.50000000  0.50000000  1
  C  C32  1  0.27882327  -0.00000000  0.00000000  1
  C  C33  1  0.25868431  -0.00000000  0.50000000  1
  C  C34  1  0.25868431  0.50000000  0.00000000  1
  C  C35  1  0.26838752  0.50000000  0.50000000  1
  C  C36  1  0.72117673  -0.00000000  0.00000000  1
  C  C37  1  0.74131569  -0.00000000  0.50000000  1
  C  C38  1  0.74131569  0.50000000  0.00000000  1
  C  C39  1  0.73161248  0.50000000  0.50000000  1
  C  C40  1  0.24897871  0.25043590  0.25043590  1
  C  C41  1  0.24897871  0.25043590  0.74956410  1
  C  C42  1  0.24897871  0.74956410  0.25043590  1
  C  C43  1  0.24897871  0.74956410  0.74956410  1
  C  C44  1  0.75102129  0.25043590  0.25043590  1
  C  C45  1  0.75102129  0.25043590  0.74956410  1
  C  C46  1  0.75102129  0.74956410  0.25043590  1
  C  C47  1  0.75102129  0.74956410  0.74956410  1
  C  C48  1  -0.00000000  -0.00000000  0.27719938  1
  C  C49  1  -0.00000000  -0.00000000  0.72280062  1
  C  C50  1  -0.00000000  0.50000000  0.23602166  1
  C  C51  1  -0.00000000  0.50000000  0.76397834  1
  C  C52  1  0.50000000  -0.00000000  0.25592057  1
  C  C53  1  0.50000000  -0.00000000  0.74407943  1
  C  C54  1  0.50000000  0.50000000  0.24871958  1
  C  C55  1  0.50000000  0.50000000  0.75128042  1
  C  C56  1  -0.00000000  0.27719938  0.00000000  1
  C  C57  1  -0.00000000  0.23602166  0.50000000  1
  C  C58  1  -0.00000000  0.72280062  0.00000000  1
  C  C59  1  -0.00000000  0.76397834  0.50000000  1
  C  C60  1  0.50000000  0.25592057  0.00000000  1
  C  C61  1  0.50000000  0.24871958  0.50000000  1
  C  C62  1  0.50000000  0.74407943  0.00000000  1
  C  C63  1  0.50000000  0.75128042  0.50000000  1
