# generated using pymatgen
data_CuNiC13
_symmetry_space_group_name_H-M   'P 1'
_cell_length_a   5.88165196
_cell_length_b   5.88165196
_cell_length_c   14.44801200
_cell_angle_alpha   90.00000000
_cell_angle_beta   90.00000000
_cell_angle_gamma   119.99999953
_symmetry_Int_Tables_number   1
_chemical_formula_structural   CuNiC13
_chemical_formula_sum   'Cu2 Ni2 C26'
_cell_volume   432.84994959
_cell_formula_units_Z   2
loop_
 _symmetry_equiv_pos_site_id
 _symmetry_equiv_pos_as_xyz
  1  'x, y, z'
loop_
 _atom_site_type_symbol
 _atom_site_label
 _atom_site_symmetry_multiplicity
 _atom_site_fract_x
 _atom_site_fract_y
 _atom_site_fract_z
 _atom_site_occupancy
  C  C0  1  0.66666700  0.33333300  0.59277400  1
  C  C1  1  0.33333300  0.66666700  0.40299200  1
  C  C2  1  0.33333300  0.66666700  0.09277400  1
  C  C3  1  0.66666700  0.33333300  0.90299200  1
  C  C4  1  0.00000000  0.00000000  0.75359200  1
  C  C5  1  0.00000000  0.00000000  0.25359200  1
  Ni  Ni6  1  0.66666700  0.33333300  0.35687600  1
  Ni  Ni7  1  0.33333300  0.66666700  0.85687600  1
  Cu  Cu8  1  0.00000000  0.00000000  0.49600400  1
  Cu  Cu9  1  0.00000000  0.00000000  0.99600400  1
  C  C10  1  0.33333300  0.66666700  0.65744700  1
  C  C11  1  0.66666700  0.33333300  0.15744700  1
  C  C12  1  0.17323700  0.34647400  0.58637500  1
  C  C13  1  0.17323700  0.82676300  0.58637500  1
  C  C14  1  0.65352600  0.82676300  0.58637500  1
  C  C15  1  0.82833900  0.65667800  0.41429600  1
  C  C16  1  0.82833900  0.17166100  0.41429600  1
  C  C17  1  0.34332200  0.17166100  0.41429600  1
  C  C18  1  0.82676300  0.65352600  0.08637500  1
  C  C19  1  0.82676300  0.17323700  0.08637500  1
  C  C20  1  0.34647400  0.17323700  0.08637500  1
  C  C21  1  0.17166100  0.34332200  0.91429600  1
  C  C22  1  0.17166100  0.82833900  0.91429600  1
  C  C23  1  0.65667800  0.82833900  0.91429600  1
  C  C24  1  0.48327800  0.96655600  0.74610000  1
  C  C25  1  0.48327800  0.51672200  0.74610000  1
  C  C26  1  0.03344400  0.51672200  0.74610000  1
  C  C27  1  0.51672200  0.03344400  0.24610000  1
  C  C28  1  0.51672200  0.48327800  0.24610000  1
  C  C29  1  0.96655600  0.48327800  0.24610000  1
