# generated using pymatgen
data_CuNi3C4
_symmetry_space_group_name_H-M   'P 1'
_cell_length_a   12.31359000
_cell_length_b   12.92117500
_cell_length_c   20.85294400
_cell_angle_alpha   90.00000000
_cell_angle_beta   90.00000000
_cell_angle_gamma   90.00000000
_symmetry_Int_Tables_number   1
_chemical_formula_structural   CuNi3C4
_chemical_formula_sum   'Cu16 Ni48 C64'
_cell_volume   3317.82957716
_cell_formula_units_Z   16
loop_
 _symmetry_equiv_pos_site_id
 _symmetry_equiv_pos_as_xyz
  1  'x, y, z'
loop_
 _atom_site_type_symbol
 _atom_site_label
 _atom_site_symmetry_multiplicity
 _atom_site_fract_x
 _atom_site_fract_y
 _atom_site_fract_z
 _atom_site_occupancy
  C  C0  1  0.70287100  0.46216700  0.21782700  1
  C  C1  1  0.20287100  0.03783300  0.78217300  1
  C  C2  1  0.29712900  0.96216700  0.28217300  1
  C  C3  1  0.79712900  0.53783300  0.71782700  1
  C  C4  1  0.29712900  0.53783300  0.78217300  1
  C  C5  1  0.79712900  0.96216700  0.21782700  1
  C  C6  1  0.70287100  0.03783300  0.71782700  1
  C  C7  1  0.20287100  0.46216700  0.28217300  1
  C  C8  1  0.27548400  0.74584800  0.02764000  1
  C  C9  1  0.77548400  0.75415200  0.97236000  1
  C  C10  1  0.72451600  0.24584800  0.47236000  1
  C  C11  1  0.22451600  0.25415200  0.52764000  1
  C  C12  1  0.72451600  0.25415200  0.97236000  1
  C  C13  1  0.22451600  0.24584800  0.02764000  1
  C  C14  1  0.27548400  0.75415200  0.52764000  1
  C  C15  1  0.77548400  0.74584800  0.47236000  1
  Ni  Ni16  1  0.84203400  0.49052100  0.31093900  1
  Ni  Ni17  1  0.34203400  0.00947900  0.68906100  1
  Ni  Ni18  1  0.15796600  0.99052100  0.18906100  1
  Ni  Ni19  1  0.65796600  0.50947900  0.81093900  1
  Ni  Ni20  1  0.15796600  0.50947900  0.68906100  1
  Ni  Ni21  1  0.65796600  0.99052100  0.31093900  1
  Ni  Ni22  1  0.84203400  0.00947900  0.81093900  1
  Ni  Ni23  1  0.34203400  0.49052100  0.18906100  1
  Ni  Ni24  1  0.74028200  0.57296400  0.32040800  1
  Ni  Ni25  1  0.24028200  0.92703600  0.67959200  1
  Ni  Ni26  1  0.25971800  0.07296400  0.17959200  1
  Ni  Ni27  1  0.75971800  0.42703600  0.82040800  1
  Ni  Ni28  1  0.25971800  0.42703600  0.67959200  1
  Ni  Ni29  1  0.75971800  0.07296400  0.32040800  1
  Ni  Ni30  1  0.74028200  0.92703600  0.82040800  1
  Ni  Ni31  1  0.24028200  0.57296400  0.17959200  1
  Ni  Ni32  1  0.72563300  0.45096800  0.34232300  1
  Ni  Ni33  1  0.22563300  0.04903200  0.65767700  1
  Ni  Ni34  1  0.27436700  0.95096800  0.15767700  1
  Ni  Ni35  1  0.77436700  0.54903200  0.84232300  1
  Ni  Ni36  1  0.27436700  0.54903200  0.65767700  1
  Ni  Ni37  1  0.77436700  0.95096800  0.34232300  1
  Ni  Ni38  1  0.72563300  0.04903200  0.84232300  1
  Ni  Ni39  1  0.22563300  0.45096800  0.15767700  1
  Ni  Ni40  1  0.15114800  0.71324000  0.92822400  1
  Ni  Ni41  1  0.65114800  0.78676000  0.07177600  1
  Ni  Ni42  1  0.84885200  0.21324000  0.57177600  1
  Ni  Ni43  1  0.34885200  0.28676000  0.42822400  1
  Ni  Ni44  1  0.84885200  0.28676000  0.07177600  1
  Ni  Ni45  1  0.34885200  0.21324000  0.92822400  1
  Ni  Ni46  1  0.15114800  0.78676000  0.42822400  1
  Ni  Ni47  1  0.65114800  0.71324000  0.57177600  1
  Ni  Ni48  1  0.13876700  0.83595400  0.94950500  1
  Ni  Ni49  1  0.63876700  0.66404600  0.05049500  1
  Ni  Ni50  1  0.86123300  0.33595400  0.55049500  1
  Ni  Ni51  1  0.36123300  0.16404600  0.44950500  1
  Ni  Ni52  1  0.86123300  0.16404600  0.05049500  1
  Ni  Ni53  1  0.36123300  0.33595400  0.94950500  1
  Ni  Ni54  1  0.13876700  0.66404600  0.44950500  1
  Ni  Ni55  1  0.63876700  0.83595400  0.55049500  1
  Ni  Ni56  1  0.24527400  0.79810700  0.90784400  1
  Ni  Ni57  1  0.74527400  0.70189300  0.09215600  1
  Ni  Ni58  1  0.75472600  0.29810700  0.59215600  1
  Ni  Ni59  1  0.25472600  0.20189300  0.40784400  1
  Ni  Ni60  1  0.75472600  0.20189300  0.09215600  1
  Ni  Ni61  1  0.25472600  0.29810700  0.90784400  1
  Ni  Ni62  1  0.24527400  0.70189300  0.40784400  1
  Ni  Ni63  1  0.74527400  0.79810700  0.59215600  1
  C  C64  1  0.56426400  0.58198100  0.19736900  1
  C  C65  1  0.06426400  0.91801900  0.80263100  1
  C  C66  1  0.43573600  0.08198100  0.30263100  1
  C  C67  1  0.93573600  0.41801900  0.69736900  1
  C  C68  1  0.43573600  0.41801900  0.80263100  1
  C  C69  1  0.93573600  0.08198100  0.19736900  1
  C  C70  1  0.56426400  0.91801900  0.69736900  1
  C  C71  1  0.06426400  0.58198100  0.30263100  1
  C  C72  1  0.64363500  0.29110700  0.22067400  1
  C  C73  1  0.14363500  0.20889300  0.77932600  1
  C  C74  1  0.35636500  0.79110700  0.27932600  1
  C  C75  1  0.85636500  0.70889300  0.72067400  1
  C  C76  1  0.35636500  0.70889300  0.77932600  1
  C  C77  1  0.85636500  0.79110700  0.22067400  1
  C  C78  1  0.64363500  0.20889300  0.72067400  1
  C  C79  1  0.14363500  0.29110700  0.27932600  1
  C  C80  1  0.84956800  0.48649800  0.14844800  1
  C  C81  1  0.34956800  0.01350200  0.85155200  1
  C  C82  1  0.15043200  0.98649800  0.35155200  1
  C  C83  1  0.65043200  0.51350200  0.64844800  1
  C  C84  1  0.15043200  0.51350200  0.85155200  1
  C  C85  1  0.65043200  0.98649800  0.14844800  1
  C  C86  1  0.84956800  0.01350200  0.64844800  1
  C  C87  1  0.34956800  0.48649800  0.35155200  1
  C  C88  1  0.14008900  0.73851000  0.10591700  1
  C  C89  1  0.64008900  0.76149000  0.89408300  1
  C  C90  1  0.85991100  0.23851000  0.39408300  1
  C  C91  1  0.35991100  0.26149000  0.60591700  1
  C  C92  1  0.85991100  0.26149000  0.89408300  1
  C  C93  1  0.35991100  0.23851000  0.10591700  1
  C  C94  1  0.14008900  0.76149000  0.60591700  1
  C  C95  1  0.64008900  0.73851000  0.39408300  1
  C  C96  1  0.39586100  0.88296400  0.04479700  1
  C  C97  1  0.89586100  0.61703600  0.95520300  1
  C  C98  1  0.60413900  0.38296400  0.45520300  1
  C  C99  1  0.10413900  0.11703600  0.54479700  1
  C  C100  1  0.60413900  0.11703600  0.95520300  1
  C  C101  1  0.10413900  0.38296400  0.04479700  1
  C  C102  1  0.39586100  0.61703600  0.54479700  1
  C  C103  1  0.89586100  0.88296400  0.45520300  1
  C  C104  1  0.36944300  0.59082300  0.01338300  1
  C  C105  1  0.86944300  0.90917700  0.98661700  1
  C  C106  1  0.63055700  0.09082300  0.48661700  1
  C  C107  1  0.13055700  0.40917700  0.51338300  1
  C  C108  1  0.63055700  0.40917700  0.98661700  1
  C  C109  1  0.13055700  0.09082300  0.01338300  1
  C  C110  1  0.36944300  0.90917700  0.51338300  1
  C  C111  1  0.86944300  0.59082300  0.48661700  1
  Cu  Cu112  1  0.75899500  0.49806700  0.30784700  1
  Cu  Cu113  1  0.25899500  0.00193300  0.69215300  1
  Cu  Cu114  1  0.24100500  0.99806700  0.19215300  1
  Cu  Cu115  1  0.74100500  0.50193300  0.80784700  1
  Cu  Cu116  1  0.24100500  0.50193300  0.69215300  1
  Cu  Cu117  1  0.74100500  0.99806700  0.30784700  1
  Cu  Cu118  1  0.75899500  0.00193300  0.80784700  1
  Cu  Cu119  1  0.25899500  0.49806700  0.19215300  1
  Cu  Cu120  1  0.19372600  0.77671200  0.94412700  1
  Cu  Cu121  1  0.69372600  0.72328800  0.05587300  1
  Cu  Cu122  1  0.80627400  0.27671200  0.55587300  1
  Cu  Cu123  1  0.30627400  0.22328800  0.44412700  1
  Cu  Cu124  1  0.80627400  0.22328800  0.05587300  1
  Cu  Cu125  1  0.30627400  0.27671200  0.94412700  1
  Cu  Cu126  1  0.19372600  0.72328800  0.44412700  1
  Cu  Cu127  1  0.69372600  0.77671200  0.55587300  1
