# generated using pymatgen
data_Cu15(NiC6)2
_symmetry_space_group_name_H-M   'P 1'
_cell_length_a   7.21199348
_cell_length_b   7.21199348
_cell_length_c   7.21199306
_cell_angle_alpha   62.22640315
_cell_angle_beta   62.22640315
_cell_angle_gamma   62.22640724
_symmetry_Int_Tables_number   1
_chemical_formula_structural   Cu15(NiC6)2
_chemical_formula_sum   'Cu15 Ni2 C12'
_cell_volume   278.43457605
_cell_formula_units_Z   1
loop_
 _symmetry_equiv_pos_site_id
 _symmetry_equiv_pos_as_xyz
  1  'x, y, z'
loop_
 _atom_site_type_symbol
 _atom_site_label
 _atom_site_symmetry_multiplicity
 _atom_site_fract_x
 _atom_site_fract_y
 _atom_site_fract_z
 _atom_site_occupancy
  C  C0  1  0.00184600  0.00184600  0.49444200  1
  C  C1  1  0.49444200  0.00184600  0.00184600  1
  C  C2  1  0.00184600  0.49444100  0.00184600  1
  C  C3  1  0.68863500  0.28531600  0.68863500  1
  C  C4  1  0.68863500  0.68863500  0.28531600  1
  C  C5  1  0.28531600  0.68863500  0.68863500  1
  C  C6  1  0.30019700  0.71832100  0.30019700  1
  C  C7  1  0.30019700  0.30019700  0.71832100  1
  C  C8  1  0.71832100  0.30019700  0.30019700  1
  C  C9  1  0.89259000  0.89259000  0.10124900  1
  C  C10  1  0.10124900  0.89259000  0.89259000  1
  C  C11  1  0.89259000  0.10124900  0.89259000  1
  Ni  Ni12  1  0.69370500  0.69370500  0.69370500  1
  Ni  Ni13  1  0.30676400  0.30676400  0.30676400  1
  Cu  Cu14  1  0.74619800  0.12297000  0.74619800  1
  Cu  Cu15  1  0.74619800  0.74619800  0.12297000  1
  Cu  Cu16  1  0.12297000  0.74619800  0.74619800  1
  Cu  Cu17  1  0.27130500  0.87518900  0.27130500  1
  Cu  Cu18  1  0.27130500  0.27130500  0.87518900  1
  Cu  Cu19  1  0.87518900  0.27130500  0.27130500  1
  Cu  Cu20  1  0.60899000  0.60899000  0.60899000  1
  Cu  Cu21  1  0.39155400  0.39155400  0.39155400  1
  Cu  Cu22  1  0.83210500  0.83210500  0.50410500  1
  Cu  Cu23  1  0.50410500  0.83210500  0.83210500  1
  Cu  Cu24  1  0.83210500  0.50410500  0.83210500  1
  Cu  Cu25  1  0.16879800  0.16879800  0.49613000  1
  Cu  Cu26  1  0.49613000  0.16879800  0.16879800  1
  Cu  Cu27  1  0.16879800  0.49613000  0.16879800  1
  Cu  Cu28  1  0.99001800  0.99001800  0.99001800  1
