# generated using pymatgen
data_Cu5NiC2
_symmetry_space_group_name_H-M   'P 1'
_cell_length_a   7.40258700
_cell_length_b   7.71518500
_cell_length_c   12.30939900
_cell_angle_alpha   90.00000000
_cell_angle_beta   90.00000000
_cell_angle_gamma   90.00000000
_symmetry_Int_Tables_number   1
_chemical_formula_structural   Cu5NiC2
_chemical_formula_sum   'Cu20 Ni4 C8'
_cell_volume   703.01843543
_cell_formula_units_Z   4
loop_
 _symmetry_equiv_pos_site_id
 _symmetry_equiv_pos_as_xyz
  1  'x, y, z'
loop_
 _atom_site_type_symbol
 _atom_site_label
 _atom_site_symmetry_multiplicity
 _atom_site_fract_x
 _atom_site_fract_y
 _atom_site_fract_z
 _atom_site_occupancy
  C  C0  1  0.51484000  0.50250400  0.32143400  1
  C  C1  1  0.98516000  0.99749600  0.82143400  1
  C  C2  1  0.48516000  0.00250400  0.67856600  1
  C  C3  1  0.01484000  0.49749600  0.17856600  1
  C  C4  1  0.48516000  0.49749600  0.67856600  1
  C  C5  1  0.01484000  0.00250400  0.17856600  1
  C  C6  1  0.51484000  0.99749600  0.32143400  1
  C  C7  1  0.98516000  0.50250400  0.82143400  1
  Ni  Ni8  1  0.05932100  0.75000000  0.49148600  1
  Ni  Ni9  1  0.44067900  0.75000000  0.99148600  1
  Ni  Ni10  1  0.94067900  0.25000000  0.50851400  1
  Ni  Ni11  1  0.55932100  0.25000000  0.00851400  1
  Cu  Cu12  1  0.83249700  0.96487600  0.62324300  1
  Cu  Cu13  1  0.66750300  0.53512400  0.12324300  1
  Cu  Cu14  1  0.16750300  0.46487600  0.37675700  1
  Cu  Cu15  1  0.33249700  0.03512400  0.87675700  1
  Cu  Cu16  1  0.16750300  0.03512400  0.37675700  1
  Cu  Cu17  1  0.33249700  0.46487600  0.87675700  1
  Cu  Cu18  1  0.83249700  0.53512400  0.62324300  1
  Cu  Cu19  1  0.66750300  0.96487600  0.12324300  1
  Cu  Cu20  1  0.82105600  0.75000000  0.30912900  1
  Cu  Cu21  1  0.67894400  0.75000000  0.80912900  1
  Cu  Cu22  1  0.17894400  0.25000000  0.69087100  1
  Cu  Cu23  1  0.32105600  0.25000000  0.19087100  1
  Cu  Cu24  1  0.48440100  0.75000000  0.49629800  1
  Cu  Cu25  1  0.01559900  0.75000000  0.99629800  1
  Cu  Cu26  1  0.51559900  0.25000000  0.50370200  1
  Cu  Cu27  1  0.98440100  0.25000000  0.00370200  1
  Cu  Cu28  1  0.20044800  0.75000000  0.71312200  1
  Cu  Cu29  1  0.29955200  0.75000000  0.21312200  1
  Cu  Cu30  1  0.79955200  0.25000000  0.28687800  1
  Cu  Cu31  1  0.70044800  0.25000000  0.78687800  1
