# generated using pymatgen
data_Cu7(NiC4)3
_symmetry_space_group_name_H-M   'P 1'
_cell_length_a   14.45131000
_cell_length_b   6.48983700
_cell_length_c   10.59331298
_cell_angle_alpha   85.88954419
_cell_angle_beta   90.00000000
_cell_angle_gamma   90.00000000
_symmetry_Int_Tables_number   1
_chemical_formula_structural   Cu7(NiC4)3
_chemical_formula_sum   'Cu28 Ni12 C48'
_cell_volume   990.95570754
_cell_formula_units_Z   4
loop_
 _symmetry_equiv_pos_site_id
 _symmetry_equiv_pos_as_xyz
  1  'x, y, z'
loop_
 _atom_site_type_symbol
 _atom_site_label
 _atom_site_symmetry_multiplicity
 _atom_site_fract_x
 _atom_site_fract_y
 _atom_site_fract_z
 _atom_site_occupancy
  C  C0  1  0.75032100  0.47468000  0.74924700  1
  C  C1  1  0.25032100  0.02532000  0.25075300  1
  C  C2  1  0.24967900  0.52532000  0.25075300  1
  C  C3  1  0.74967900  0.97468000  0.74924700  1
  C  C4  1  0.98455100  0.34799800  0.76459800  1
  C  C5  1  0.48455100  0.15200200  0.23540200  1
  C  C6  1  0.01544900  0.65200200  0.23540200  1
  C  C7  1  0.51544900  0.84799800  0.76459800  1
  C  C8  1  0.00898200  0.09999500  0.79649000  1
  C  C9  1  0.50898200  0.40000500  0.20351000  1
  C  C10  1  0.99101800  0.90000500  0.20351000  1
  C  C11  1  0.49101800  0.59999500  0.79649000  1
  C  C12  1  0.00780900  0.72697300  0.74617800  1
  C  C13  1  0.50780900  0.77302700  0.25382200  1
  C  C14  1  0.99219100  0.27302700  0.25382200  1
  C  C15  1  0.49219100  0.22697300  0.74617800  1
  C  C16  1  0.14231600  0.44772900  0.80672200  1
  C  C17  1  0.64231600  0.05227100  0.19327800  1
  C  C18  1  0.85768400  0.55227100  0.19327800  1
  C  C19  1  0.35768400  0.94772900  0.80672200  1
  C  C20  1  0.09329300  0.29774000  0.93991500  1
  C  C21  1  0.59329300  0.20226000  0.06008500  1
  C  C22  1  0.90670700  0.70226000  0.06008500  1
  C  C23  1  0.40670700  0.79774000  0.93991500  1
  C  C24  1  0.17196100  0.18023700  0.83616200  1
  C  C25  1  0.67196100  0.31976300  0.16383800  1
  C  C26  1  0.82803900  0.81976300  0.16383800  1
  C  C27  1  0.32803900  0.68023700  0.83616200  1
  C  C28  1  0.11457100  0.09574000  0.62067800  1
  C  C29  1  0.61457100  0.40426000  0.37932200  1
  C  C30  1  0.88542900  0.90426000  0.37932200  1
  C  C31  1  0.38542900  0.59574000  0.62067800  1
  C  C32  1  0.00155000  0.18662700  0.57304000  1
  C  C33  1  0.50155000  0.31337300  0.42696000  1
  C  C34  1  0.99845000  0.81337300  0.42696000  1
  C  C35  1  0.49845000  0.68662700  0.57304000  1
  C  C36  1  0.09419600  0.36747800  0.58907800  1
  C  C37  1  0.59419600  0.13252200  0.41092200  1
  C  C38  1  0.90580400  0.63252200  0.41092200  1
  C  C39  1  0.40580400  0.86747800  0.58907800  1
  Ni  Ni40  1  0.93126100  0.72485200  0.75007900  1
  Ni  Ni41  1  0.43126100  0.77514800  0.24992100  1
  Ni  Ni42  1  0.06873900  0.27514800  0.24992100  1
  Ni  Ni43  1  0.56873900  0.22485200  0.75007900  1
  Ni  Ni44  1  0.11711600  0.29535600  0.84205300  1
  Ni  Ni45  1  0.61711600  0.20464400  0.15794700  1
  Ni  Ni46  1  0.88288400  0.70464400  0.15794700  1
  Ni  Ni47  1  0.38288400  0.79535600  0.84205300  1
  Ni  Ni48  1  0.06403600  0.22054000  0.62611300  1
  Ni  Ni49  1  0.56403600  0.27946000  0.37388700  1
  Ni  Ni50  1  0.93596400  0.77946000  0.37388700  1
  Ni  Ni51  1  0.43596400  0.72054000  0.62611300  1
  Cu  Cu52  1  0.76996700  0.24295600  0.61891200  1
  Cu  Cu53  1  0.26996700  0.25704400  0.38108800  1
  Cu  Cu54  1  0.23003300  0.75704400  0.38108800  1
  Cu  Cu55  1  0.73003300  0.74295600  0.61891200  1
  Cu  Cu56  1  0.80242700  0.25770600  0.51415100  1
  Cu  Cu57  1  0.30242700  0.24229400  0.48584900  1
  Cu  Cu58  1  0.19757300  0.74229400  0.48584900  1
  Cu  Cu59  1  0.69757300  0.75770600  0.51415100  1
  Cu  Cu60  1  0.83334200  0.27188400  0.41168700  1
  Cu  Cu61  1  0.33334200  0.22811600  0.58831300  1
  Cu  Cu62  1  0.16665800  0.72811600  0.58831300  1
  Cu  Cu63  1  0.66665800  0.77188400  0.41168700  1
  Cu  Cu64  1  0.77564000  0.20750300  0.87824900  1
  Cu  Cu65  1  0.27564000  0.29249700  0.12175100  1
  Cu  Cu66  1  0.22436000  0.79249700  0.12175100  1
  Cu  Cu67  1  0.72436000  0.70750300  0.87824900  1
  Cu  Cu68  1  0.83656800  0.19672200  0.95643200  1
  Cu  Cu69  1  0.33656800  0.30327800  0.04356800  1
  Cu  Cu70  1  0.16343200  0.80327800  0.04356800  1
  Cu  Cu71  1  0.66343200  0.69672200  0.95643200  1
  Cu  Cu72  1  0.89491400  0.18658200  0.03277200  1
  Cu  Cu73  1  0.39491400  0.31341800  0.96722800  1
  Cu  Cu74  1  0.10508600  0.81341800  0.96722800  1
  Cu  Cu75  1  0.60508600  0.68658200  0.03277200  1
  Cu  Cu76  1  0.03796600  0.23809700  0.76128600  1
  Cu  Cu77  1  0.53796600  0.26190300  0.23871400  1
  Cu  Cu78  1  0.96203400  0.76190300  0.23871400  1
  Cu  Cu79  1  0.46203400  0.73809700  0.76128600  1
  C  C80  1  0.89402700  0.54649600  0.75089600  1
  C  C81  1  0.39402700  0.95350400  0.24910400  1
  C  C82  1  0.10597300  0.45350400  0.24910400  1
  C  C83  1  0.60597300  0.04649600  0.75089600  1
  C  C84  1  0.89233700  0.89894800  0.75293800  1
  C  C85  1  0.39233700  0.60105200  0.24706200  1
  C  C86  1  0.10766300  0.10105200  0.24706200  1
  C  C87  1  0.60766300  0.39894800  0.75293800  1
