# generated using pymatgen
data_Cu20Ni3C4
_symmetry_space_group_name_H-M   'P 1'
_cell_length_a   11.11321110
_cell_length_b   11.11321110
_cell_length_c   11.11321110
_cell_angle_alpha   90.00000000
_cell_angle_beta   90.00000000
_cell_angle_gamma   90.00000000
_symmetry_Int_Tables_number   1
_chemical_formula_structural   Cu20Ni3C4
_chemical_formula_sum   'Cu40 Ni6 C8'
_cell_volume   1372.52003315
_cell_formula_units_Z   2
loop_
 _symmetry_equiv_pos_site_id
 _symmetry_equiv_pos_as_xyz
  1  'x, y, z'
loop_
 _atom_site_type_symbol
 _atom_site_label
 _atom_site_symmetry_multiplicity
 _atom_site_fract_x
 _atom_site_fract_y
 _atom_site_fract_z
 _atom_site_occupancy
  C  C0  1  0.25000000  0.00000000  0.50000000  1
  C  C1  1  0.75000000  0.00000000  0.50000000  1
  C  C2  1  0.50000000  0.25000000  0.00000000  1
  C  C3  1  0.50000000  0.75000000  0.00000000  1
  C  C4  1  -0.00000000  0.50000000  0.25000000  1
  C  C5  1  -0.00000000  0.50000000  0.75000000  1
  C  C6  1  -0.00000000  0.00000000  0.00000000  1
  C  C7  1  0.50000000  0.50000000  0.50000000  1
  Ni  Ni8  1  0.25000000  0.50000000  0.00000000  1
  Ni  Ni9  1  0.75000000  0.50000000  0.00000000  1
  Ni  Ni10  1  -0.00000000  0.25000000  0.50000000  1
  Ni  Ni11  1  -0.00000000  0.75000000  0.50000000  1
  Ni  Ni12  1  0.50000000  0.00000000  0.25000000  1
  Ni  Ni13  1  0.50000000  0.00000000  0.75000000  1
  Cu  Cu14  1  0.18299684  0.18299684  0.18299684  1
  Cu  Cu15  1  0.81700316  0.81700316  0.81700316  1
  Cu  Cu16  1  0.81700316  0.81700316  0.18299684  1
  Cu  Cu17  1  0.81700316  0.18299684  0.81700316  1
  Cu  Cu18  1  0.68299684  0.68299684  0.31700316  1
  Cu  Cu19  1  0.18299684  0.18299684  0.81700316  1
  Cu  Cu20  1  0.18299684  0.81700316  0.18299684  1
  Cu  Cu21  1  0.31700316  0.31700316  0.68299684  1
  Cu  Cu22  1  0.18299684  0.81700316  0.81700316  1
  Cu  Cu23  1  0.31700316  0.31700316  0.31700316  1
  Cu  Cu24  1  0.81700316  0.18299684  0.18299684  1
  Cu  Cu25  1  0.68299684  0.68299684  0.68299684  1
  Cu  Cu26  1  0.68299684  0.31700316  0.68299684  1
  Cu  Cu27  1  0.31700316  0.68299684  0.31700316  1
  Cu  Cu28  1  0.31700316  0.68299684  0.68299684  1
  Cu  Cu29  1  0.68299684  0.31700316  0.31700316  1
  Cu  Cu30  1  -0.00000000  0.11337323  0.30147132  1
  Cu  Cu31  1  -0.00000000  0.88662677  0.69852868  1
  Cu  Cu32  1  -0.00000000  0.88662677  0.30147132  1
  Cu  Cu33  1  -0.00000000  0.11337323  0.69852868  1
  Cu  Cu34  1  0.30147132  0.00000000  0.11337323  1
  Cu  Cu35  1  0.61337323  0.50000000  0.19852868  1
  Cu  Cu36  1  0.69852868  0.00000000  0.88662677  1
  Cu  Cu37  1  0.38662677  0.50000000  0.80147132  1
  Cu  Cu38  1  0.30147132  0.00000000  0.88662677  1
  Cu  Cu39  1  0.38662677  0.50000000  0.19852868  1
  Cu  Cu40  1  0.69852868  0.00000000  0.11337323  1
  Cu  Cu41  1  0.61337323  0.50000000  0.80147132  1
  Cu  Cu42  1  0.11337323  0.30147132  0.00000000  1
  Cu  Cu43  1  0.50000000  0.80147132  0.38662677  1
  Cu  Cu44  1  0.88662677  0.69852868  0.00000000  1
  Cu  Cu45  1  0.50000000  0.19852868  0.61337323  1
  Cu  Cu46  1  0.11337323  0.69852868  0.00000000  1
  Cu  Cu47  1  0.50000000  0.19852868  0.38662677  1
  Cu  Cu48  1  0.88662677  0.30147132  0.00000000  1
  Cu  Cu49  1  0.50000000  0.80147132  0.61337323  1
  Cu  Cu50  1  0.19852868  0.61337323  0.50000000  1
  Cu  Cu51  1  0.80147132  0.38662677  0.50000000  1
  Cu  Cu52  1  0.19852868  0.38662677  0.50000000  1
  Cu  Cu53  1  0.80147132  0.61337323  0.50000000  1
