# generated using pymatgen
data_Cu2NiC20
_symmetry_space_group_name_H-M   'P 1'
_cell_length_a   9.84333793
_cell_length_b   9.84333793
_cell_length_c   9.84333793
_cell_angle_alpha   60.00000000
_cell_angle_beta   60.00000000
_cell_angle_gamma   60.00000000
_symmetry_Int_Tables_number   1
_chemical_formula_structural   Cu2NiC20
_chemical_formula_sum   'Cu4 Ni2 C40'
_cell_volume   674.39165457
_cell_formula_units_Z   2
loop_
 _symmetry_equiv_pos_site_id
 _symmetry_equiv_pos_as_xyz
  1  'x, y, z'
loop_
 _atom_site_type_symbol
 _atom_site_label
 _atom_site_symmetry_multiplicity
 _atom_site_fract_x
 _atom_site_fract_y
 _atom_site_fract_z
 _atom_site_occupancy
  Ni  Ni0  1  0.50000000  0.50000000  0.50000000  1
  Ni  Ni1  1  0.75000000  0.75000000  0.75000000  1
  C  C2  1  0.56853600  0.30085200  0.30085200  1
  C  C3  1  0.30085200  0.56853600  0.82976100  1
  C  C4  1  0.30085200  0.82976100  0.56853600  1
  C  C5  1  0.82976100  0.30085200  0.30085200  1
  C  C6  1  0.30085200  0.30085200  0.56853600  1
  C  C7  1  0.56853600  0.82976100  0.30085200  1
  C  C8  1  0.82976100  0.56853600  0.30085200  1
  C  C9  1  0.30085200  0.30085200  0.82976100  1
  C  C10  1  0.30085200  0.56853600  0.30085200  1
  C  C11  1  0.82976100  0.30085200  0.56853600  1
  C  C12  1  0.56853600  0.30085200  0.82976100  1
  C  C13  1  0.30085200  0.82976100  0.30085200  1
  C  C14  1  0.68146400  0.94914800  0.94914800  1
  C  C15  1  0.94914800  0.68146400  0.42023900  1
  C  C16  1  0.94914800  0.42023900  0.68146400  1
  C  C17  1  0.42023900  0.94914800  0.94914800  1
  C  C18  1  0.94914800  0.94914800  0.68146400  1
  C  C19  1  0.68146400  0.42023900  0.94914800  1
  C  C20  1  0.42023900  0.68146400  0.94914800  1
  C  C21  1  0.94914800  0.94914800  0.42023900  1
  C  C22  1  0.94914800  0.68146400  0.94914800  1
  C  C23  1  0.42023900  0.94914800  0.68146400  1
  C  C24  1  0.68146400  0.94914800  0.42023900  1
  C  C25  1  0.94914800  0.42023900  0.94914800  1
  C  C26  1  0.86331300  0.86331300  0.13668700  1
  C  C27  1  0.13668700  0.13668700  0.86331300  1
  C  C28  1  0.86331300  0.13668700  0.86331300  1
  C  C29  1  0.13668700  0.86331300  0.13668700  1
  C  C30  1  0.13668700  0.86331300  0.86331300  1
  C  C31  1  0.86331300  0.13668700  0.13668700  1
  C  C32  1  0.38668700  0.38668700  0.11331300  1
  C  C33  1  0.11331300  0.11331300  0.38668700  1
  C  C34  1  0.38668700  0.11331300  0.38668700  1
  C  C35  1  0.11331300  0.38668700  0.11331300  1
  C  C36  1  0.11331300  0.38668700  0.38668700  1
  C  C37  1  0.38668700  0.11331300  0.11331300  1
  C  C38  1  0.12500000  0.62500000  0.62500000  1
  C  C39  1  0.62500000  0.12500000  0.62500000  1
  C  C40  1  0.62500000  0.62500000  0.12500000  1
  C  C41  1  0.62500000  0.62500000  0.62500000  1
  Cu  Cu42  1  0.62500000  0.12500000  0.12500000  1
  Cu  Cu43  1  0.12500000  0.62500000  0.12500000  1
  Cu  Cu44  1  0.12500000  0.12500000  0.62500000  1
  Cu  Cu45  1  0.12500000  0.12500000  0.12500000  1
