# generated using pymatgen
data_Cu7(Ni9C11)2
_symmetry_space_group_name_H-M   'P 1'
_cell_length_a   7.57543308
_cell_length_b   10.16270223
_cell_length_c   23.75668913
_cell_angle_alpha   90.00000000
_cell_angle_beta   90.00000000
_cell_angle_gamma   90.00000000
_symmetry_Int_Tables_number   1
_chemical_formula_structural   Cu7(Ni9C11)2
_chemical_formula_sum   'Cu28 Ni72 C88'
_cell_volume   1828.95315325
_cell_formula_units_Z   4
loop_
 _symmetry_equiv_pos_site_id
 _symmetry_equiv_pos_as_xyz
  1  'x, y, z'
loop_
 _atom_site_type_symbol
 _atom_site_label
 _atom_site_symmetry_multiplicity
 _atom_site_fract_x
 _atom_site_fract_y
 _atom_site_fract_z
 _atom_site_occupancy
  C  C0  1  0.01680070  0.63581959  0.06367159  1
  C  C1  1  0.01680070  0.36418041  0.93632841  1
  C  C2  1  0.98319930  0.86418041  0.56367159  1
  C  C3  1  0.98319930  0.13581959  0.43632841  1
  C  C4  1  0.52452759  0.00401295  0.16443566  1
  C  C5  1  0.52452759  0.99598705  0.83556434  1
  C  C6  1  0.47547241  0.49598705  0.66443566  1
  C  C7  1  0.47547241  0.50401295  0.33556434  1
  C  C8  1  0.33045150  0.06929093  0.42704011  1
  C  C9  1  0.33045150  0.93070907  0.57295989  1
  C  C10  1  0.66954850  0.43070907  0.92704011  1
  C  C11  1  0.66954850  0.56929093  0.07295989  1
  C  C12  1  0.35449470  0.67573437  0.10893904  1
  C  C13  1  0.35449470  0.32426563  0.89106096  1
  C  C14  1  0.64550530  0.82426563  0.60893904  1
  C  C15  1  0.64550530  0.17573437  0.39106096  1
  C  C16  1  0.32814858  0.15194358  0.48413270  1
  C  C17  1  0.32814858  0.84805642  0.51586730  1
  C  C18  1  0.67185142  0.34805642  0.98413270  1
  C  C19  1  0.67185142  0.65194358  0.01586730  1
  C  C20  1  0.04129473  0.40538802  0.45103471  1
  C  C21  1  0.04129473  0.59461198  0.54896529  1
  C  C22  1  0.95870527  0.09461198  0.95103471  1
  C  C23  1  0.95870527  0.90538802  0.04896529  1
  C  C24  1  0.13212569  0.50987315  0.29634312  1
  C  C25  1  0.13212569  0.49012685  0.70365688  1
  C  C26  1  0.86787431  0.99012685  0.79634312  1
  C  C27  1  0.86787431  0.00987315  0.20365688  1
  C  C28  1  0.09881083  0.89064960  0.10014921  1
  C  C29  1  0.09881083  0.10935040  0.89985079  1
  C  C30  1  0.90118917  0.60935040  0.60014921  1
  C  C31  1  0.90118917  0.39064960  0.39985079  1
  C  C32  1  0.40506965  0.31913678  0.42091003  1
  C  C33  1  0.40506965  0.68086322  0.57908997  1
  C  C34  1  0.59493035  0.18086322  0.92091003  1
  C  C35  1  0.59493035  0.81913678  0.07908997  1
  C  C36  1  0.03226876  0.31683862  0.20031059  1
  C  C37  1  0.03226876  0.68316138  0.79968941  1
  C  C38  1  0.96773124  0.18316138  0.70031059  1
  C  C39  1  0.96773124  0.81683862  0.29968941  1
  C  C40  1  0.16850706  0.00262855  0.80911318  1
  C  C41  1  0.16850706  0.99737145  0.19088682  1
  C  C42  1  0.83149294  0.49737145  0.30911318  1
  C  C43  1  0.83149294  0.50262855  0.69088682  1
  C  C44  1  0.53697612  0.43121056  0.44538821  1
  C  C45  1  0.53697612  0.56878944  0.55461179  1
  C  C46  1  0.46302388  0.06878944  0.94538821  1
  C  C47  1  0.46302388  0.93121056  0.05461179  1
  C  C48  1  0.45446678  0.44700747  0.19364471  1
  C  C49  1  0.45446678  0.55299253  0.80635529  1
  C  C50  1  0.54553322  0.05299253  0.69364471  1
  C  C51  1  0.54553322  0.94700747  0.30635529  1
  C  C52  1  0.24667907  0.07332736  0.01127425  1
  C  C53  1  0.24667907  0.92667264  0.98872575  1
  C  C54  1  0.75332093  0.42667264  0.51127425  1
  C  C55  1  0.75332093  0.57332736  0.48872575  1
  C  C56  1  0.15015052  0.38045973  0.33082743  1
  C  C57  1  0.15015052  0.61954027  0.66917257  1
  C  C58  1  0.84984948  0.11954027  0.83082743  1
  C  C59  1  0.84984948  0.88045973  0.16917257  1
  C  C60  1  0.36780843  0.54420076  0.07492255  1
  C  C61  1  0.36780843  0.45579924  0.92507745  1
  C  C62  1  0.63219157  0.95579924  0.57492255  1
  C  C63  1  0.63219157  0.04420076  0.42507745  1
  C  C64  1  0.18091612  0.09000201  0.13765283  1
  C  C65  1  0.18091612  0.90999799  0.86234717  1
  C  C66  1  0.81908388  0.40999799  0.63765283  1
  C  C67  1  0.81908388  0.59000201  0.36234717  1
  C  C68  1  0.24818888  0.44235437  0.52230850  1
  C  C69  1  0.24818888  0.55764563  0.47769150  1
  C  C70  1  0.75181112  0.05764563  0.02230850  1
  C  C71  1  0.75181112  0.94235437  0.97769150  1
  C  C72  1  0.52069821  0.30640607  0.13337280  1
  C  C73  1  0.52069821  0.69359393  0.86662720  1
  C  C74  1  0.47930179  0.19359393  0.63337280  1
  C  C75  1  0.47930179  0.80640607  0.36662720  1
  C  C76  1  0.01602043  0.01398717  0.31390741  1
  C  C77  1  0.01602043  0.98601283  0.68609259  1
  C  C78  1  0.98397957  0.48601283  0.81390741  1
  C  C79  1  0.98397957  0.51398717  0.18609259  1
  C  C80  1  0.04155501  0.34930605  0.11464141  1
  C  C81  1  0.04155501  0.65069395  0.88535859  1
  C  C82  1  0.95844499  0.15069395  0.61464141  1
  C  C83  1  0.95844499  0.84930605  0.38535859  1
  C  C84  1  0.50697684  0.27078850  0.23345041  1
  C  C85  1  0.50697684  0.72921150  0.76654959  1
  C  C86  1  0.49302316  0.22921150  0.73345041  1
  C  C87  1  0.49302316  0.77078850  0.26654959  1
  Ni  Ni88  1  0.59420626  0.31245865  0.04698528  1
  Ni  Ni89  1  0.59420626  0.68754135  0.95301472  1
  Ni  Ni90  1  0.40579374  0.18754135  0.54698528  1
  Ni  Ni91  1  0.40579374  0.81245865  0.45301472  1
  Ni  Ni92  1  0.52385915  0.31931123  0.28638835  1
  Ni  Ni93  1  0.52385915  0.68068877  0.71361165  1
  Ni  Ni94  1  0.47614085  0.18068877  0.78638835  1
  Ni  Ni95  1  0.47614085  0.81931123  0.21361165  1
  Ni  Ni96  1  0.55788741  0.18217191  0.11774332  1
  Ni  Ni97  1  0.55788741  0.81782809  0.88225668  1
  Ni  Ni98  1  0.44211259  0.31782809  0.61774332  1
  Ni  Ni99  1  0.44211259  0.68217191  0.38225668  1
  Ni  Ni100  1  0.06008139  0.33890226  0.02507061  1
  Ni  Ni101  1  0.06008139  0.66109774  0.97492939  1
  Ni  Ni102  1  0.93991861  0.16109774  0.52507061  1
  Ni  Ni103  1  0.93991861  0.83890226  0.47492939  1
  Ni  Ni104  1  0.60682693  0.19025667  0.06315726  1
  Ni  Ni105  1  0.60682693  0.80974333  0.93684274  1
  Ni  Ni106  1  0.39317307  0.30974333  0.56315726  1
  Ni  Ni107  1  0.39317307  0.69025667  0.43684274  1
  Ni  Ni108  1  0.53953462  0.39059962  0.08966079  1
  Ni  Ni109  1  0.53953462  0.60940038  0.91033921  1
  Ni  Ni110  1  0.46046538  0.10940038  0.58966079  1
  Ni  Ni111  1  0.46046538  0.89059962  0.41033921  1
  Ni  Ni112  1  0.03238451  0.04977808  0.25939638  1
  Ni  Ni113  1  0.03238451  0.95022192  0.74060362  1
  Ni  Ni114  1  0.96761549  0.45022192  0.75939638  1
  Ni  Ni115  1  0.96761549  0.54977808  0.24060362  1
  Ni  Ni116  1  0.01374944  0.38726089  0.16927129  1
  Ni  Ni117  1  0.01374944  0.61273911  0.83072871  1
  Ni  Ni118  1  0.98625056  0.11273911  0.66927129  1
  Ni  Ni119  1  0.98625056  0.88726089  0.33072871  1
  Ni  Ni120  1  0.52839111  0.13942115  0.23350446  1
  Ni  Ni121  1  0.52839111  0.86057885  0.76649554  1
  Ni  Ni122  1  0.47160889  0.36057885  0.73350446  1
  Ni  Ni123  1  0.47160889  0.63942115  0.26649554  1
  Ni  Ni124  1  0.55806861  0.21308002  0.31872706  1
  Ni  Ni125  1  0.55806861  0.78691998  0.68127294  1
  Ni  Ni126  1  0.44193139  0.28691998  0.81872706  1
  Ni  Ni127  1  0.44193139  0.71308002  0.18127294  1
  Ni  Ni128  1  0.56179376  0.10787846  0.28754391  1
  Ni  Ni129  1  0.56179376  0.89212154  0.71245609  1
  Ni  Ni130  1  0.43820624  0.39212154  0.78754391  1
  Ni  Ni131  1  0.43820624  0.60787846  0.21245609  1
  Ni  Ni132  1  0.47603119  0.34598617  0.18673236  1
  Ni  Ni133  1  0.47603119  0.65401383  0.81326764  1
  Ni  Ni134  1  0.52396881  0.15401383  0.68673236  1
  Ni  Ni135  1  0.52396881  0.84598617  0.31326764  1
  Ni  Ni136  1  0.05871512  0.22194270  0.31335480  1
  Ni  Ni137  1  0.05871512  0.77805730  0.68664520  1
  Ni  Ni138  1  0.94128488  0.27805730  0.81335480  1
  Ni  Ni139  1  0.94128488  0.72194270  0.18664520  1
  Ni  Ni140  1  0.03185843  0.11858483  0.34812031  1
  Ni  Ni141  1  0.03185843  0.88141517  0.65187969  1
  Ni  Ni142  1  0.96814157  0.38141517  0.84812031  1
  Ni  Ni143  1  0.96814157  0.61858483  0.15187969  1
  Ni  Ni144  1  0.05870690  0.18172007  0.26124221  1
  Ni  Ni145  1  0.05870690  0.81827993  0.73875779  1
  Ni  Ni146  1  0.94129310  0.31827993  0.76124221  1
  Ni  Ni147  1  0.94129310  0.68172007  0.23875779  1
  Ni  Ni148  1  0.01733508  0.42190341  0.06771678  1
  Ni  Ni149  1  0.01733508  0.57809659  0.93228322  1
  Ni  Ni150  1  0.98266492  0.07809659  0.56771678  1
  Ni  Ni151  1  0.98266492  0.92190341  0.43228322  1
  Ni  Ni152  1  0.09798200  0.22720621  0.10162986  1
  Ni  Ni153  1  0.09798200  0.77279379  0.89837014  1
  Ni  Ni154  1  0.90201800  0.27279379  0.60162986  1
  Ni  Ni155  1  0.90201800  0.72720621  0.39837014  1
  Ni  Ni156  1  0.10795824  0.22439324  0.04538878  1
  Ni  Ni157  1  0.10795824  0.77560676  0.95461122  1
  Ni  Ni158  1  0.89204176  0.27560676  0.54538878  1
  Ni  Ni159  1  0.89204176  0.72439324  0.45461122  1
  Cu  Cu160  1  0.83108812  -0.00000000  -0.00000000  1
  Cu  Cu161  1  0.16891188  0.50000000  0.50000000  1
  Cu  Cu162  1  0.27517792  0.14656924  0.44467500  1
  Cu  Cu163  1  0.27517792  0.85343076  0.55532500  1
  Cu  Cu164  1  0.72482208  0.35343076  0.94467500  1
  Cu  Cu165  1  0.72482208  0.64656924  0.05532500  1
  Cu  Cu166  1  0.22953579  0.00608729  0.15429925  1
  Cu  Cu167  1  0.22953579  0.99391271  0.84570075  1
  Cu  Cu168  1  0.77046421  0.49391271  0.65429925  1
  Cu  Cu169  1  0.77046421  0.50608729  0.34570075  1
  Cu  Cu170  1  0.30507734  0.62898441  0.07565880  1
  Cu  Cu171  1  0.30507734  0.37101559  0.92434120  1
  Cu  Cu172  1  0.69492266  0.87101559  0.57565880  1
  Cu  Cu173  1  0.69492266  0.12898441  0.42434120  1
  Cu  Cu174  1  0.46855821  0.40056299  0.41218086  1
  Cu  Cu175  1  0.46855821  0.59943701  0.58781914  1
  Cu  Cu176  1  0.53144179  0.09943701  0.91218086  1
  Cu  Cu177  1  0.53144179  0.90056299  0.08781914  1
  Cu  Cu178  1  0.20074098  0.47081145  0.32752974  1
  Cu  Cu179  1  0.20074098  0.52918855  0.67247026  1
  Cu  Cu180  1  0.79925902  0.02918855  0.82752974  1
  Cu  Cu181  1  0.79925902  0.97081145  0.17247026  1
  Cu  Cu182  1  0.02554727  0.84239567  0.07303708  1
  Cu  Cu183  1  0.02554727  0.15760433  0.92696292  1
  Cu  Cu184  1  0.97445273  0.65760433  0.57303708  1
  Cu  Cu185  1  0.97445273  0.34239567  0.42696292  1
  Cu  Cu186  1  0.32517353  -0.00000000  0.00000000  1
  Cu  Cu187  1  0.67482647  0.50000000  0.50000000  1
