# generated using pymatgen
data_Cu6Ni4C25
_symmetry_space_group_name_H-M   'P 1'
_cell_length_a   6.58395900
_cell_length_b   8.12713682
_cell_length_c   9.04450609
_cell_angle_alpha   85.86972320
_cell_angle_beta   78.72490322
_cell_angle_gamma   76.25012169
_symmetry_Int_Tables_number   1
_chemical_formula_structural   Cu6Ni4C25
_chemical_formula_sum   'Cu6 Ni4 C25'
_cell_volume   460.85226240
_cell_formula_units_Z   1
loop_
 _symmetry_equiv_pos_site_id
 _symmetry_equiv_pos_as_xyz
  1  'x, y, z'
loop_
 _atom_site_type_symbol
 _atom_site_label
 _atom_site_symmetry_multiplicity
 _atom_site_fract_x
 _atom_site_fract_y
 _atom_site_fract_z
 _atom_site_occupancy
  C  C0  1  0.13571400  0.39739900  0.11794200  1
  C  C1  1  0.86428600  0.60260100  0.88205800  1
  C  C2  1  0.31407300  0.67771400  0.26508100  1
  C  C3  1  0.68592700  0.32228600  0.73491900  1
  C  C4  1  0.50000000  0.00000000  0.00000000  1
  Ni  Ni5  1  0.14620800  0.63725000  0.56004200  1
  Ni  Ni6  1  0.85379200  0.36275000  0.43995800  1
  Ni  Ni7  1  0.32053700  0.46515800  0.53589400  1
  Ni  Ni8  1  0.67946300  0.53484200  0.46410600  1
  Cu  Cu9  1  0.23581600  0.07791700  0.36545500  1
  Cu  Cu10  1  0.76418400  0.92208300  0.63454500  1
  Cu  Cu11  1  0.66941100  0.29093900  0.12888200  1
  Cu  Cu12  1  0.33058900  0.70906100  0.87111800  1
  Cu  Cu13  1  0.20062600  0.21466000  0.77547500  1
  Cu  Cu14  1  0.79937400  0.78534000  0.22452500  1
  C  C15  1  0.26392000  0.57391600  0.48510100  1
  C  C16  1  0.73608000  0.42608400  0.51489900  1
  C  C17  1  0.02392800  0.61818600  0.23363100  1
  C  C18  1  0.97607200  0.38181400  0.76636900  1
  C  C19  1  0.45861700  0.05892500  0.22293800  1
  C  C20  1  0.54138300  0.94107500  0.77706200  1
  C  C21  1  0.23430100  0.20493200  0.96710700  1
  C  C22  1  0.76569900  0.79506800  0.03289300  1
  C  C23  1  0.05654000  0.24742500  0.28946700  1
  C  C24  1  0.94346000  0.75257500  0.71053300  1
  C  C25  1  0.83091500  0.43816200  0.06963000  1
  C  C26  1  0.16908500  0.56183800  0.93037000  1
  C  C27  1  0.13712200  0.90683100  0.34677300  1
  C  C28  1  0.86287800  0.09316900  0.65322700  1
  C  C29  1  0.39706200  0.30827700  0.68379000  1
  C  C30  1  0.60293800  0.69172300  0.31621000  1
  C  C31  1  0.32969800  0.79948200  0.03685400  1
  C  C32  1  0.67030200  0.20051800  0.96314600  1
  C  C33  1  0.41688500  0.43136500  0.16192300  1
  C  C34  1  0.58311500  0.56863500  0.83807700  1
