# generated using pymatgen
data_Cu6NiC7
_symmetry_space_group_name_H-M   'P 1'
_cell_length_a   10.98346653
_cell_length_b   11.05701610
_cell_length_c   11.14612127
_cell_angle_alpha   90.89243894
_cell_angle_beta   90.20900991
_cell_angle_gamma   91.19743383
_symmetry_Int_Tables_number   1
_chemical_formula_structural   Cu6NiC7
_chemical_formula_sum   'Cu24 Ni4 C28'
_cell_volume   1353.16317432
_cell_formula_units_Z   4
loop_
 _symmetry_equiv_pos_site_id
 _symmetry_equiv_pos_as_xyz
  1  'x, y, z'
loop_
 _atom_site_type_symbol
 _atom_site_label
 _atom_site_symmetry_multiplicity
 _atom_site_fract_x
 _atom_site_fract_y
 _atom_site_fract_z
 _atom_site_occupancy
  C  C0  1  0.00013902  0.00075920  0.50189288  1
  C  C1  1  0.99522242  0.49760274  0.99943637  1
  C  C2  1  0.49558926  0.99255097  0.98571087  1
  C  C3  1  0.50003649  0.49836099  0.49918961  1
  Ni  Ni4  1  0.49085204  0.50566597  0.98602454  1
  Ni  Ni5  1  0.50381190  0.99965655  0.50395785  1
  Ni  Ni6  1  0.99926481  0.49756376  0.49731510  1
  Ni  Ni7  1  0.99570290  0.00140476  0.99782402  1
  Cu  Cu8  1  0.52570129  0.73114033  0.14720224  1
  Cu  Cu9  1  0.47436457  0.21953241  0.35341045  1
  Cu  Cu10  1  0.97461925  0.27435945  0.65011309  1
  Cu  Cu11  1  0.02477497  0.77372321  0.85544155  1
  Cu  Cu12  1  0.14276351  0.53279891  0.72559006  1
  Cu  Cu13  1  0.35696442  0.46629939  0.22385933  1
  Cu  Cu14  1  0.66442366  0.94764014  0.30687348  1
  Cu  Cu15  1  0.84314162  0.02811451  0.77268037  1
  Cu  Cu16  1  0.72869944  0.15686781  0.53620517  1
  Cu  Cu17  1  0.22156064  0.35322776  0.46141166  1
  Cu  Cu18  1  0.26790321  0.65190436  0.97314039  1
  Cu  Cu19  1  0.77010949  0.85132564  0.03050080  1
  Cu  Cu20  1  0.41050976  0.34375711  0.84151957  1
  Cu  Cu21  1  0.52984209  0.77462172  0.64450786  1
  Cu  Cu22  1  0.02939155  0.72551851  0.35131384  1
  Cu  Cu23  1  0.96386828  0.22540864  0.14021515  1
  Cu  Cu24  1  0.84605988  0.46782189  0.26776365  1
  Cu  Cu25  1  0.65481264  0.53444939  0.77091821  1
  Cu  Cu26  1  0.35975514  0.04875912  0.72227544  1
  Cu  Cu27  1  0.14470054  0.97461838  0.22925655  1
  Cu  Cu28  1  0.27200565  0.85507911  0.47140430  1
  Cu  Cu29  1  0.77951881  0.64576619  0.53021391  1
  Cu  Cu30  1  0.71213946  0.33413594  0.01386192  1
  Cu  Cu31  1  0.22863890  0.14412045  0.97482485  1
  C  C32  1  0.43621461  0.65349792  0.59374409  1
  C  C33  1  0.62533064  0.10941447  0.91847314  1
  C  C34  1  0.05921889  0.34382991  0.09025201  1
  C  C35  1  0.93730987  0.84243849  0.40499691  1
  C  C36  1  0.59410173  0.43966173  0.65721274  1
  C  C37  1  0.89964825  0.56049998  0.15168811  1
  C  C38  1  0.09040451  0.06577443  0.34725805  1
  C  C39  1  0.39666506  0.94371242  0.83369678  1
  C  C40  1  0.65725342  0.59339414  0.44039659  1
  C  C41  1  0.15373034  0.90676368  0.56320768  1
  C  C42  1  0.35519239  0.09608511  0.05732872  1
  C  C43  1  0.83587700  0.39671394  0.93620907  1
  C  C44  1  0.56456394  0.34217570  0.40647504  1
  C  C45  1  0.44250727  0.85573054  0.09573206  1
  C  C46  1  0.93356993  0.65329722  0.90753759  1
  C  C47  1  0.06561997  0.15717813  0.59643709  1
  C  C48  1  0.41058595  0.55982254  0.34272184  1
  C  C49  1  0.08891152  0.44119574  0.84165141  1
  C  C50  1  0.90673388  0.93997003  0.65720993  1
  C  C51  1  0.64849236  0.05384698  0.19515256  1
  C  C52  1  0.34083480  0.40373755  0.55594369  1
  C  C53  1  0.84323891  0.09692494  0.44516274  1
  C  C54  1  0.65508069  0.89717494  0.93182527  1
  C  C55  1  0.15202746  0.59260315  0.06383679  1
