# generated using pymatgen
data_Cu4(NiC7)3
_symmetry_space_group_name_H-M   'P 1'
_cell_length_a   5.36157709
_cell_length_b   8.69749061
_cell_length_c   9.46827660
_cell_angle_alpha   63.20134028
_cell_angle_beta   89.13372253
_cell_angle_gamma   74.65247814
_symmetry_Int_Tables_number   1
_chemical_formula_structural   Cu4(NiC7)3
_chemical_formula_sum   'Cu4 Ni3 C21'
_cell_volume   377.25551112
_cell_formula_units_Z   1
loop_
 _symmetry_equiv_pos_site_id
 _symmetry_equiv_pos_as_xyz
  1  'x, y, z'
loop_
 _atom_site_type_symbol
 _atom_site_label
 _atom_site_symmetry_multiplicity
 _atom_site_fract_x
 _atom_site_fract_y
 _atom_site_fract_z
 _atom_site_occupancy
  C  C0  1  0.50000000  0.00000000  0.50000000  1
  C  C1  1  0.20577300  0.54497100  0.24012000  1
  C  C2  1  0.79422700  0.45502900  0.75988000  1
  C  C3  1  0.84226800  0.35570000  0.13695900  1
  C  C4  1  0.15773200  0.64430000  0.86304100  1
  Ni  Ni5  1  0.00000000  0.00000000  0.00000000  1
  Ni  Ni6  1  0.65987400  0.74730800  0.29022300  1
  Ni  Ni7  1  0.34012600  0.25269200  0.70977700  1
  Cu  Cu8  1  0.43884300  0.17651800  0.07272800  1
  Cu  Cu9  1  0.56115700  0.82348200  0.92727200  1
  Cu  Cu10  1  0.23782700  0.69248400  0.52057700  1
  Cu  Cu11  1  0.76217300  0.30751600  0.47942300  1
  C  C12  1  0.24662500  0.16009900  0.93024200  1
  C  C13  1  0.75337500  0.83990100  0.06975800  1
  C  C14  1  0.47466700  0.98800500  0.25302500  1
  C  C15  1  0.52533300  0.01199500  0.74697500  1
  C  C16  1  0.73351600  0.20213200  0.00033300  1
  C  C17  1  0.26648400  0.79786800  0.99966700  1
  C  C18  1  0.28425300  0.36180600  0.09382500  1
  C  C19  1  0.71574700  0.63819400  0.90617500  1
  C  C20  1  0.57319500  0.66846800  0.50260100  1
  C  C21  1  0.42680500  0.33153200  0.49739900  1
  C  C22  1  0.23146100  0.48863100  0.69062400  1
  C  C23  1  0.76853900  0.51136900  0.30937600  1
  C  C24  1  0.07751800  0.74071400  0.34662900  1
  C  C25  1  0.92248200  0.25928600  0.65337100  1
  C  C26  1  0.14537300  0.83364000  0.60238300  1
  C  C27  1  0.85462700  0.16636000  0.39761700  1
