# generated using pymatgen
data_CuNiC8
_symmetry_space_group_name_H-M   'P 1'
_cell_length_a   5.54394300
_cell_length_b   5.80326784
_cell_length_c   5.80540466
_cell_angle_alpha   117.43636008
_cell_angle_beta   118.52703827
_cell_angle_gamma   89.95434715
_symmetry_Int_Tables_number   1
_chemical_formula_structural   CuNiC8
_chemical_formula_sum   'Cu1 Ni1 C8'
_cell_volume   139.76764367
_cell_formula_units_Z   1
loop_
 _symmetry_equiv_pos_site_id
 _symmetry_equiv_pos_as_xyz
  1  'x, y, z'
loop_
 _atom_site_type_symbol
 _atom_site_label
 _atom_site_symmetry_multiplicity
 _atom_site_fract_x
 _atom_site_fract_y
 _atom_site_fract_z
 _atom_site_occupancy
  C  C0  1  0.76614100  0.66124600  0.44453200  1
  C  C1  1  0.27430600  0.14793800  0.44303900  1
  Ni  Ni2  1  0.50223300  0.48529000  0.98840500  1
  Cu  Cu3  1  0.98468500  0.01991700  0.01809000  1
  C  C4  1  0.18909600  0.28222900  0.92500000  1
  C  C5  1  0.73040300  0.81657300  0.14736500  1
  C  C6  1  0.31960700  0.80829700  0.92239200  1
  C  C7  1  0.05575100  0.85656600  0.61438800  1
  C  C8  1  0.88754900  0.26778500  0.43887500  1
  C  C9  1  0.62637000  0.29881400  0.18051300  1
