# generated using pymatgen
data_Cu(NiC3)2
_symmetry_space_group_name_H-M   'P 1'
_cell_length_a   10.63827127
_cell_length_b   10.63827127
_cell_length_c   10.63827127
_cell_angle_alpha   90.00000000
_cell_angle_beta   90.00000000
_cell_angle_gamma   90.00000000
_symmetry_Int_Tables_number   1
_chemical_formula_structural   Cu(NiC3)2
_chemical_formula_sum   'Cu12 Ni24 C72'
_cell_volume   1203.96311289
_cell_formula_units_Z   12
loop_
 _symmetry_equiv_pos_site_id
 _symmetry_equiv_pos_as_xyz
  1  'x, y, z'
loop_
 _atom_site_type_symbol
 _atom_site_label
 _atom_site_symmetry_multiplicity
 _atom_site_fract_x
 _atom_site_fract_y
 _atom_site_fract_z
 _atom_site_occupancy
  Ni  Ni0  1  0.38628266  0.72182278  0.95236371  1
  Ni  Ni1  1  0.61371734  0.22182278  0.54763629  1
  Ni  Ni2  1  0.11371734  0.27817722  0.45236371  1
  Ni  Ni3  1  0.88628266  0.77817722  0.04763629  1
  Ni  Ni4  1  0.95236371  0.38628266  0.72182278  1
  Ni  Ni5  1  0.54763629  0.61371734  0.22182278  1
  Ni  Ni6  1  0.45236371  0.11371734  0.27817722  1
  Ni  Ni7  1  0.04763629  0.88628266  0.77817722  1
  Ni  Ni8  1  0.72182278  0.95236371  0.38628266  1
  Ni  Ni9  1  0.22182278  0.54763629  0.61371734  1
  Ni  Ni10  1  0.27817722  0.45236371  0.11371734  1
  Ni  Ni11  1  0.77817722  0.04763629  0.88628266  1
  Ni  Ni12  1  0.61371734  0.27817722  0.04763629  1
  Ni  Ni13  1  0.38628266  0.77817722  0.45236371  1
  Ni  Ni14  1  0.88628266  0.72182278  0.54763629  1
  Ni  Ni15  1  0.11371734  0.22182278  0.95236371  1
  Ni  Ni16  1  0.04763629  0.61371734  0.27817722  1
  Ni  Ni17  1  0.45236371  0.38628266  0.77817722  1
  Ni  Ni18  1  0.54763629  0.88628266  0.72182278  1
  Ni  Ni19  1  0.95236371  0.11371734  0.22182278  1
  Ni  Ni20  1  0.27817722  0.04763629  0.61371734  1
  Ni  Ni21  1  0.77817722  0.45236371  0.38628266  1
  Ni  Ni22  1  0.72182278  0.54763629  0.88628266  1
  Ni  Ni23  1  0.22182278  0.95236371  0.11371734  1
  Cu  Cu24  1  0.29502788  0.70497212  0.20497212  1
  Cu  Cu25  1  0.70497212  0.20497212  0.29502788  1
  Cu  Cu26  1  0.20497212  0.29502788  0.70497212  1
  Cu  Cu27  1  0.79502788  0.79502788  0.79502788  1
  Cu  Cu28  1  0.70497212  0.29502788  0.79502788  1
  Cu  Cu29  1  0.29502788  0.79502788  0.70497212  1
  Cu  Cu30  1  0.79502788  0.70497212  0.29502788  1
  Cu  Cu31  1  0.20497212  0.20497212  0.20497212  1
  Cu  Cu32  1  0.50000000  -0.00000000  0.00000000  1
  Cu  Cu33  1  0.50000000  0.50000000  0.50000000  1
  Cu  Cu34  1  0.00000000  -0.00000000  0.50000000  1
  Cu  Cu35  1  0.00000000  0.50000000  0.00000000  1
  C  C36  1  0.24838142  0.98463266  0.37246985  1
  C  C37  1  0.75161858  0.48463266  0.12753015  1
  C  C38  1  0.25161858  0.01536734  0.87246985  1
  C  C39  1  0.74838142  0.51536734  0.62753015  1
  C  C40  1  0.37246985  0.24838142  0.98463266  1
  C  C41  1  0.12753015  0.75161858  0.48463266  1
  C  C42  1  0.87246985  0.25161858  0.01536734  1
  C  C43  1  0.62753015  0.74838142  0.51536734  1
  C  C44  1  0.98463266  0.37246985  0.24838142  1
  C  C45  1  0.48463266  0.12753015  0.75161858  1
  C  C46  1  0.01536734  0.87246985  0.25161858  1
  C  C47  1  0.51536734  0.62753015  0.74838142  1
  C  C48  1  0.75161858  0.01536734  0.62753015  1
  C  C49  1  0.24838142  0.51536734  0.87246985  1
  C  C50  1  0.74838142  0.98463266  0.12753015  1
  C  C51  1  0.25161858  0.48463266  0.37246985  1
  C  C52  1  0.62753015  0.75161858  0.01536734  1
  C  C53  1  0.87246985  0.24838142  0.51536734  1
  C  C54  1  0.12753015  0.74838142  0.98463266  1
  C  C55  1  0.37246985  0.25161858  0.48463266  1
  C  C56  1  0.01536734  0.62753015  0.75161858  1
  C  C57  1  0.51536734  0.87246985  0.24838142  1
  C  C58  1  0.98463266  0.12753015  0.74838142  1
  C  C59  1  0.48463266  0.37246985  0.25161858  1
  C  C60  1  0.49617756  0.78118410  0.10963942  1
  C  C61  1  0.50382244  0.28118410  0.39036058  1
  C  C62  1  0.00382244  0.21881590  0.60963942  1
  C  C63  1  0.99617756  0.71881590  0.89036058  1
  C  C64  1  0.10963942  0.49617756  0.78118410  1
  C  C65  1  0.39036058  0.50382244  0.28118410  1
  C  C66  1  0.60963942  0.00382244  0.21881590  1
  C  C67  1  0.89036058  0.99617756  0.71881590  1
  C  C68  1  0.78118410  0.10963942  0.49617756  1
  C  C69  1  0.28118410  0.39036058  0.50382244  1
  C  C70  1  0.21881590  0.60963942  0.00382244  1
  C  C71  1  0.71881590  0.89036058  0.99617756  1
  C  C72  1  0.50382244  0.21881590  0.89036058  1
  C  C73  1  0.49617756  0.71881590  0.60963942  1
  C  C74  1  0.99617756  0.78118410  0.39036058  1
  C  C75  1  0.00382244  0.28118410  0.10963942  1
  C  C76  1  0.89036058  0.50382244  0.21881590  1
  C  C77  1  0.60963942  0.49617756  0.71881590  1
  C  C78  1  0.39036058  0.99617756  0.78118410  1
  C  C79  1  0.10963942  0.00382244  0.28118410  1
  C  C80  1  0.21881590  0.89036058  0.50382244  1
  C  C81  1  0.71881590  0.60963942  0.49617756  1
  C  C82  1  0.78118410  0.39036058  0.99617756  1
  C  C83  1  0.28118410  0.10963942  0.00382244  1
  C  C84  1  0.07873788  0.77572876  0.13775716  1
  C  C85  1  0.92126212  0.27572876  0.36224284  1
  C  C86  1  0.42126212  0.22427124  0.63775716  1
  C  C87  1  0.57873788  0.72427124  0.86224284  1
  C  C88  1  0.13775716  0.07873788  0.77572876  1
  C  C89  1  0.36224284  0.92126212  0.27572876  1
  C  C90  1  0.63775716  0.42126212  0.22427124  1
  C  C91  1  0.86224284  0.57873788  0.72427124  1
  C  C92  1  0.77572876  0.13775716  0.07873788  1
  C  C93  1  0.27572876  0.36224284  0.92126212  1
  C  C94  1  0.22427124  0.63775716  0.42126212  1
  C  C95  1  0.72427124  0.86224284  0.57873788  1
  C  C96  1  0.92126212  0.22427124  0.86224284  1
  C  C97  1  0.07873788  0.72427124  0.63775716  1
  C  C98  1  0.57873788  0.77572876  0.36224284  1
  C  C99  1  0.42126212  0.27572876  0.13775716  1
  C  C100  1  0.86224284  0.92126212  0.22427124  1
  C  C101  1  0.63775716  0.07873788  0.72427124  1
  C  C102  1  0.36224284  0.57873788  0.77572876  1
  C  C103  1  0.13775716  0.42126212  0.27572876  1
  C  C104  1  0.22427124  0.86224284  0.92126212  1
  C  C105  1  0.72427124  0.63775716  0.07873788  1
  C  C106  1  0.77572876  0.36224284  0.57873788  1
  C  C107  1  0.27572876  0.13775716  0.42126212  1
