# generated using pymatgen
data_CuNi4C5
_symmetry_space_group_name_H-M   'P 1'
_cell_length_a   7.87836432
_cell_length_b   7.87836432
_cell_length_c   15.74198586
_cell_angle_alpha   87.55140992
_cell_angle_beta   87.55140992
_cell_angle_gamma   30.07367508
_symmetry_Int_Tables_number   1
_chemical_formula_structural   CuNi4C5
_chemical_formula_sum   'Cu2 Ni8 C10'
_cell_volume   489.15004765
_cell_formula_units_Z   2
loop_
 _symmetry_equiv_pos_site_id
 _symmetry_equiv_pos_as_xyz
  1  'x, y, z'
loop_
 _atom_site_type_symbol
 _atom_site_label
 _atom_site_symmetry_multiplicity
 _atom_site_fract_x
 _atom_site_fract_y
 _atom_site_fract_z
 _atom_site_occupancy
  Ni  Ni0  1  0.73667700  0.73667700  0.96076700  1
  Ni  Ni1  1  0.33363200  0.33363200  0.16680300  1
  Ni  Ni2  1  0.92960400  0.92960400  0.37355900  1
  Ni  Ni3  1  0.53427700  0.53427700  0.56916600  1
  Ni  Ni4  1  0.13920300  0.13920300  0.75888400  1
  Ni  Ni5  1  0.46269400  0.46269400  0.92305800  1
  Ni  Ni6  1  0.06723100  0.06723100  0.13469300  1
  Ni  Ni7  1  0.66925700  0.66925700  0.34651600  1
  Cu  Cu8  1  0.26996400  0.26996400  0.54304400  1
  Cu  Cu9  1  0.86400200  0.86400200  0.72347200  1
  C  C10  1  0.87945300  0.87945300  0.86905100  1
  C  C11  1  0.48202900  0.48202900  0.08510000  1
  C  C12  1  0.08206900  0.08206900  0.29820100  1
  C  C13  1  0.69614800  0.69614800  0.50861500  1
  C  C14  1  0.29446300  0.29446300  0.68588700  1
  C  C15  1  0.21796100  0.21796100  0.05610300  1
  C  C16  1  0.81572900  0.81572900  0.26111500  1
  C  C17  1  0.40433100  0.40433100  0.46895300  1
  C  C18  1  0.00490000  0.00490000  0.66368600  1
  C  C19  1  0.61734900  0.61734900  0.85332600  1
