# generated using pymatgen
data_Cu2Ni2C15
_symmetry_space_group_name_H-M   'P 1'
_cell_length_a   5.47339493
_cell_length_b   9.32658485
_cell_length_c   13.88111200
_cell_angle_alpha   90.00000000
_cell_angle_beta   90.00000000
_cell_angle_gamma   117.90737503
_symmetry_Int_Tables_number   1
_chemical_formula_structural   Cu2Ni2C15
_chemical_formula_sum   'Cu4 Ni4 C30'
_cell_volume   626.19730470
_cell_formula_units_Z   2
loop_
 _symmetry_equiv_pos_site_id
 _symmetry_equiv_pos_as_xyz
  1  'x, y, z'
loop_
 _atom_site_type_symbol
 _atom_site_label
 _atom_site_symmetry_multiplicity
 _atom_site_fract_x
 _atom_site_fract_y
 _atom_site_fract_z
 _atom_site_occupancy
  Ni  Ni0  1  0.73890400  0.55602500  0.86763200  1
  Ni  Ni1  1  0.26109600  0.44397500  0.13236800  1
  Ni  Ni2  1  0.26109600  0.94397500  0.36763200  1
  Ni  Ni3  1  0.73890400  0.05602500  0.63236800  1
  Cu  Cu4  1  0.96276800  0.72965900  0.11558200  1
  Cu  Cu5  1  0.03723200  0.27034100  0.88441800  1
  Cu  Cu6  1  0.03723200  0.77034100  0.61558200  1
  Cu  Cu7  1  0.96276800  0.22965900  0.38441800  1
  C  C8  1  0.50000000  0.00000000  0.00000000  1
  C  C9  1  0.50000000  0.50000000  0.50000000  1
  C  C10  1  0.80169700  0.04077200  0.93309200  1
  C  C11  1  0.19830300  0.95922800  0.06690800  1
  C  C12  1  0.19830300  0.45922800  0.43309200  1
  C  C13  1  0.80169700  0.54077200  0.56690800  1
  C  C14  1  0.33888700  0.56617700  0.61714200  1
  C  C15  1  0.66111300  0.43382300  0.38285800  1
  C  C16  1  0.66111300  0.93382300  0.11714200  1
  C  C17  1  0.33888700  0.06617700  0.88285800  1
  C  C18  1  0.20617700  0.95208400  0.82671600  1
  C  C19  1  0.79382300  0.04791600  0.17328400  1
  C  C20  1  0.79382300  0.54791600  0.32671600  1
  C  C21  1  0.20617700  0.45208400  0.67328400  1
  C  C22  1  0.89025100  0.64370800  0.77513300  1
  C  C23  1  0.10974900  0.35629200  0.22486700  1
  C  C24  1  0.10974900  0.85629200  0.27513300  1
  C  C25  1  0.89025100  0.14370800  0.72486700  1
  C  C26  1  0.80696600  0.66667500  0.95653200  1
  C  C27  1  0.19303400  0.33332500  0.04346800  1
  C  C28  1  0.19303400  0.83332500  0.45653200  1
  C  C29  1  0.80696600  0.16667500  0.54346800  1
  C  C30  1  0.77374500  0.90082900  0.60859500  1
  C  C31  1  0.22625500  0.09917100  0.39140500  1
  C  C32  1  0.22625500  0.59917100  0.10859500  1
  C  C33  1  0.77374500  0.40082900  0.89140500  1
  C  C34  1  0.39918200  0.48371000  0.84814400  1
  C  C35  1  0.60081800  0.51629000  0.15185600  1
  C  C36  1  0.60081800  0.01629000  0.34814400  1
  C  C37  1  0.39918200  0.98371000  0.65185600  1
