# generated using pymatgen
data_Cu11Ni2C3
_symmetry_space_group_name_H-M   'P 1'
_cell_length_a   15.04129000
_cell_length_b   5.17991600
_cell_length_c   7.11971713
_cell_angle_alpha   83.07409442
_cell_angle_beta   90.00000000
_cell_angle_gamma   90.00000000
_symmetry_Int_Tables_number   1
_chemical_formula_structural   Cu11Ni2C3
_chemical_formula_sum   'Cu44 Ni8 C12'
_cell_volume   550.66800182
_cell_formula_units_Z   4
loop_
 _symmetry_equiv_pos_site_id
 _symmetry_equiv_pos_as_xyz
  1  'x, y, z'
loop_
 _atom_site_type_symbol
 _atom_site_label
 _atom_site_symmetry_multiplicity
 _atom_site_fract_x
 _atom_site_fract_y
 _atom_site_fract_z
 _atom_site_occupancy
  C  C0  1  0.91978400  0.29266300  0.08641400  1
  C  C1  1  0.41978400  0.20733700  0.91358600  1
  C  C2  1  0.08021600  0.70733700  0.91358600  1
  C  C3  1  0.58021600  0.79266300  0.08641400  1
  Ni  Ni4  1  0.35466500  0.12710400  0.57687100  1
  Ni  Ni5  1  0.85466500  0.37289600  0.42312900  1
  Ni  Ni6  1  0.64533500  0.87289600  0.42312900  1
  Ni  Ni7  1  0.14533500  0.62710400  0.57687100  1
  Ni  Ni8  1  0.41285200  0.74044000  0.05440000  1
  Ni  Ni9  1  0.91285200  0.75956000  0.94560000  1
  Ni  Ni10  1  0.58714800  0.25956000  0.94560000  1
  Ni  Ni11  1  0.08714800  0.24044000  0.05440000  1
  Cu  Cu12  1  0.31088300  0.11191500  0.72269100  1
  Cu  Cu13  1  0.81088300  0.38808500  0.27730900  1
  Cu  Cu14  1  0.68911700  0.88808500  0.27730900  1
  Cu  Cu15  1  0.18911700  0.61191500  0.72269100  1
  Cu  Cu16  1  0.31466500  0.24883200  0.44553800  1
  Cu  Cu17  1  0.81466500  0.25116800  0.55446200  1
  Cu  Cu18  1  0.68533500  0.75116800  0.55446200  1
  Cu  Cu19  1  0.18533500  0.74883200  0.44553800  1
  Cu  Cu20  1  0.42718100  0.22686500  0.59678000  1
  Cu  Cu21  1  0.92718100  0.27313500  0.40322000  1
  Cu  Cu22  1  0.57281900  0.77313500  0.40322000  1
  Cu  Cu23  1  0.07281900  0.72686500  0.59678000  1
  Cu  Cu24  1  0.32434400  0.42506300  0.12821900  1
  Cu  Cu25  1  0.82434400  0.07493700  0.87178100  1
  Cu  Cu26  1  0.67565600  0.57493700  0.87178100  1
  Cu  Cu27  1  0.17565600  0.92506300  0.12821900  1
  Cu  Cu28  1  0.30081000  0.57909800  0.92369000  1
  Cu  Cu29  1  0.80081000  0.92090200  0.07631000  1
  Cu  Cu30  1  0.69919000  0.42090200  0.07631000  1
  Cu  Cu31  1  0.19919000  0.07909800  0.92369000  1
  Cu  Cu32  1  0.39766200  0.83270400  0.39548500  1
  Cu  Cu33  1  0.89766200  0.66729600  0.60451500  1
  Cu  Cu34  1  0.60233800  0.16729600  0.60451500  1
  Cu  Cu35  1  0.10233800  0.33270400  0.39548500  1
  Cu  Cu36  1  0.40926200  0.73225300  0.62459400  1
  Cu  Cu37  1  0.90926200  0.76774700  0.37540600  1
  Cu  Cu38  1  0.59073800  0.26774700  0.37540600  1
  Cu  Cu39  1  0.09073800  0.23225300  0.62459400  1
  Cu  Cu40  1  0.30926700  0.74325000  0.52579200  1
  Cu  Cu41  1  0.80926700  0.75675000  0.47420800  1
  Cu  Cu42  1  0.69073300  0.25675000  0.47420800  1
  Cu  Cu43  1  0.19073300  0.24325000  0.52579200  1
  Cu  Cu44  1  0.45997000  0.82341900  0.91609000  1
  Cu  Cu45  1  0.95997000  0.67658100  0.08391000  1
  Cu  Cu46  1  0.54003000  0.17658100  0.08391000  1
  Cu  Cu47  1  0.04003000  0.32341900  0.91609000  1
  Cu  Cu48  1  0.46322300  0.66106200  0.18599200  1
  Cu  Cu49  1  0.96322300  0.83893800  0.81400900  1
  Cu  Cu50  1  0.53677700  0.33893800  0.81400900  1
  Cu  Cu51  1  0.03677700  0.16106200  0.18599200  1
  Cu  Cu52  1  0.37104600  0.92898000  0.10379600  1
  Cu  Cu53  1  0.87104600  0.57102000  0.89620400  1
  Cu  Cu54  1  0.62895400  0.07102000  0.89620400  1
  Cu  Cu55  1  0.12895400  0.42898000  0.10379600  1
  C  C56  1  0.36955100  0.83827600  0.52701000  1
  C  C57  1  0.86955100  0.66172400  0.47299000  1
  C  C58  1  0.63044900  0.16172400  0.47299000  1
  C  C59  1  0.13044900  0.33827600  0.52701000  1
  C  C60  1  0.35360300  0.51294000  0.00670200  1
  C  C61  1  0.85360300  0.98706000  0.99329800  1
  C  C62  1  0.64639700  0.48706000  0.99329800  1
  C  C63  1  0.14639700  0.01294000  0.00670200  1
