# generated using pymatgen
data_Cu10Ni21C4
_symmetry_space_group_name_H-M   'P 1'
_cell_length_a   10.64446080
_cell_length_b   10.64446080
_cell_length_c   15.54388372
_cell_angle_alpha   55.50050878
_cell_angle_beta   55.50050878
_cell_angle_gamma   21.98945138
_symmetry_Int_Tables_number   1
_chemical_formula_structural   Cu10Ni21C4
_chemical_formula_sum   'Cu10 Ni21 C4'
_cell_volume   538.60977537
_cell_formula_units_Z   1
loop_
 _symmetry_equiv_pos_site_id
 _symmetry_equiv_pos_as_xyz
  1  'x, y, z'
loop_
 _atom_site_type_symbol
 _atom_site_label
 _atom_site_symmetry_multiplicity
 _atom_site_fract_x
 _atom_site_fract_y
 _atom_site_fract_z
 _atom_site_occupancy
  C  C0  1  0.77051800  0.77051800  0.32393400  1
  C  C1  1  0.22948200  0.22948200  0.67606600  1
  C  C2  1  0.12046800  0.12046800  0.16683600  1
  C  C3  1  0.87953200  0.87953200  0.83316400  1
  Ni  Ni4  1  0.39844700  0.39844700  0.49686100  1
  Ni  Ni5  1  0.60155300  0.60155300  0.50313900  1
  Ni  Ni6  1  0.38556600  0.38556600  0.20486400  1
  Ni  Ni7  1  0.61443400  0.61443400  0.79513600  1
  Ni  Ni8  1  0.24815000  0.24815000  0.20615500  1
  Ni  Ni9  1  0.75185000  0.75185000  0.79384500  1
  Ni  Ni10  1  0.00689900  0.00689900  0.40903900  1
  Ni  Ni11  1  0.99310100  0.99310100  0.59096100  1
  Ni  Ni12  1  0.62723700  0.62723700  0.30551500  1
  Ni  Ni13  1  0.37276300  0.37276300  0.69448500  1
  Ni  Ni14  1  0.93576800  0.93576800  0.29467100  1
  Ni  Ni15  1  0.06423200  0.06423200  0.70532900  1
  Ni  Ni16  1  0.54022900  0.54022900  0.13165300  1
  Ni  Ni17  1  0.45977100  0.45977100  0.86834700  1
  Ni  Ni18  1  0.88174800  0.88174800  0.05514600  1
  Ni  Ni19  1  0.11825200  0.11825200  0.94485400  1
  Ni  Ni20  1  0.50000000  0.50000000  0.00000000  1
  Ni  Ni21  1  0.29759700  0.29759700  0.00282200  1
  Ni  Ni22  1  0.70240300  0.70240300  0.99717800  1
  Ni  Ni23  1  0.79950000  0.79950000  0.50196300  1
  Ni  Ni24  1  0.20050000  0.20050000  0.49803700  1
  Cu  Cu25  1  0.97555600  0.97555600  0.10613600  1
  Cu  Cu26  1  0.02444400  0.02444400  0.89386400  1
  Cu  Cu27  1  0.34738300  0.34738300  0.38828200  1
  Cu  Cu28  1  0.65261700  0.65261700  0.61171800  1
  Cu  Cu29  1  0.74885400  0.74885400  0.11549400  1
  Cu  Cu30  1  0.25114600  0.25114600  0.88450600  1
  Cu  Cu31  1  0.13282000  0.13282000  0.39767300  1
  Cu  Cu32  1  0.86718000  0.86718000  0.60232700  1
  Cu  Cu33  1  0.50322400  0.50322400  0.31368700  1
  Cu  Cu34  1  0.49677600  0.49677600  0.68631300  1
