# generated using pymatgen
data_CuNi2C15
_symmetry_space_group_name_H-M   'P 1'
_cell_length_a   5.14188000
_cell_length_b   7.17646104
_cell_length_c   15.44200572
_cell_angle_alpha   90.15727974
_cell_angle_beta   90.16390646
_cell_angle_gamma   90.16576888
_symmetry_Int_Tables_number   1
_chemical_formula_structural   CuNi2C15
_chemical_formula_sum   'Cu2 Ni4 C30'
_cell_volume   569.81087840
_cell_formula_units_Z   2
loop_
 _symmetry_equiv_pos_site_id
 _symmetry_equiv_pos_as_xyz
  1  'x, y, z'
loop_
 _atom_site_type_symbol
 _atom_site_label
 _atom_site_symmetry_multiplicity
 _atom_site_fract_x
 _atom_site_fract_y
 _atom_site_fract_z
 _atom_site_occupancy
  Ni  Ni0  1  0.79880700  0.24955900  0.06836700  1
  Ni  Ni1  1  0.79933300  0.25023900  0.39870800  1
  Ni  Ni2  1  0.80208400  0.24982700  0.73272800  1
  Ni  Ni3  1  0.20257000  0.74920700  0.26621200  1
  Cu  Cu4  1  0.20056000  0.75049900  0.59955300  1
  Cu  Cu5  1  0.20104100  0.75002800  0.93324700  1
  C  C6  1  0.30016400  0.49641100  0.10377100  1
  C  C7  1  0.30121400  0.49479600  0.42984200  1
  C  C8  1  0.30336400  0.49129400  0.76792600  1
  C  C9  1  0.70172200  0.99905300  0.23331700  1
  C  C10  1  0.69665700  0.00922200  0.56542500  1
  C  C11  1  0.69688100  0.00942500  0.89963700  1
  C  C12  1  0.26340100  0.55568800  0.19908500  1
  C  C13  1  0.26599800  0.54838200  0.52597200  1
  C  C14  1  0.26900300  0.53874800  0.86460600  1
  C  C15  1  0.58247900  0.43341900  0.08872600  1
  C  C16  1  0.58510000  0.43535400  0.41604300  1
  C  C17  1  0.58675000  0.43351400  0.75119600  1
  C  C18  1  0.73914900  0.06287400  0.13912600  1
  C  C19  1  0.74648600  0.06747400  0.47131800  1
  C  C20  1  0.74648900  0.06729800  0.80502600  1
  C  C21  1  0.41860800  0.93423900  0.24635200  1
  C  C22  1  0.40566900  0.96167200  0.57691600  1
  C  C23  1  0.40588900  0.96170600  0.91042300  1
  C  C24  1  0.11862500  0.33192300  0.08163400  1
  C  C25  1  0.12031500  0.33022400  0.40834300  1
  C  C26  1  0.12359000  0.32776200  0.74326600  1
  C  C27  1  0.24042900  0.66860400  0.04779600  1
  C  C28  1  0.24023000  0.66478000  0.37249400  1
  C  C29  1  0.24060100  0.66679800  0.71418100  1
  C  C30  1  0.88469800  0.83427700  0.25313800  1
  C  C31  1  0.85586200  0.83297300  0.58644800  1
  C  C32  1  0.85622900  0.83308200  0.91992200  1
  C  C33  1  0.75985300  0.16511800  0.29328700  1
  C  C34  1  0.76986000  0.17224700  0.62560100  1
  C  C35  1  0.77029100  0.17228400  0.96036800  1
