# generated using pymatgen
data_Cu(NiC5)4
_symmetry_space_group_name_H-M   'P 1'
_cell_length_a   8.68793003
_cell_length_b   8.68793003
_cell_length_c   6.71408750
_cell_angle_alpha   74.94544015
_cell_angle_beta   74.94544015
_cell_angle_gamma   36.80043443
_symmetry_Int_Tables_number   1
_chemical_formula_structural   Cu(NiC5)4
_chemical_formula_sum   'Cu1 Ni4 C20'
_cell_volume   291.98145185
_cell_formula_units_Z   1
loop_
 _symmetry_equiv_pos_site_id
 _symmetry_equiv_pos_as_xyz
  1  'x, y, z'
loop_
 _atom_site_type_symbol
 _atom_site_label
 _atom_site_symmetry_multiplicity
 _atom_site_fract_x
 _atom_site_fract_y
 _atom_site_fract_z
 _atom_site_occupancy
  Ni  Ni0  1  0.89945400  0.89945400  0.89962500  1
  Ni  Ni1  1  0.30022400  0.30022400  0.29946100  1
  Ni  Ni2  1  0.69977600  0.69977600  0.70053900  1
  Ni  Ni3  1  0.10054600  0.10054600  0.10037500  1
  Cu  Cu4  1  0.50000000  0.50000000  0.50000000  1
  C  C5  1  0.50000000  0.50000000  0.00000000  1
  C  C6  1  0.70037600  0.70037600  0.19906100  1
  C  C7  1  0.10060500  0.10060500  0.59973600  1
  C  C8  1  0.89939500  0.89939500  0.40026400  1
  C  C9  1  0.29962400  0.29962400  0.80093900  1
  C  C10  1  0.20744900  0.69540000  0.20737400  1
  C  C11  1  0.40073100  0.88793500  0.40188300  1
  C  C12  1  0.79255100  0.30460000  0.79262600  1
  C  C13  1  0.59926900  0.11206500  0.59811700  1
  C  C14  1  0.00000000  0.50000000  0.00000000  1
  C  C15  1  0.20104400  0.20104400  0.69549400  1
  C  C16  1  0.40257400  0.40257400  0.89178400  1
  C  C17  1  0.79895600  0.79895600  0.30450600  1
  C  C18  1  0.59742600  0.59742600  0.10821600  1
  C  C19  1  0.00000000  0.00000000  0.50000000  1
  C  C20  1  0.30460000  0.79255100  0.79262600  1
  C  C21  1  0.50000000  0.00000000  0.00000000  1
  C  C22  1  0.88793500  0.40073100  0.40188300  1
  C  C23  1  0.69540000  0.20744900  0.20737400  1
  C  C24  1  0.11206500  0.59926900  0.59811700  1
