# generated using pymatgen
data_Cu8Ni2C5
_symmetry_space_group_name_H-M   'P 1'
_cell_length_a   7.64867800
_cell_length_b   7.64867800
_cell_length_c   9.52491249
_cell_angle_alpha   67.20974476
_cell_angle_beta   67.20974476
_cell_angle_gamma   59.37032206
_symmetry_Int_Tables_number   1
_chemical_formula_structural   Cu8Ni2C5
_chemical_formula_sum   'Cu8 Ni2 C5'
_cell_volume   429.18323217
_cell_formula_units_Z   1
loop_
 _symmetry_equiv_pos_site_id
 _symmetry_equiv_pos_as_xyz
  1  'x, y, z'
loop_
 _atom_site_type_symbol
 _atom_site_label
 _atom_site_symmetry_multiplicity
 _atom_site_fract_x
 _atom_site_fract_y
 _atom_site_fract_z
 _atom_site_occupancy
  C  C0  1  0.00000000  0.50000000  0.00000000  1
  C  C1  1  0.50000000  0.00000000  0.00000000  1
  C  C2  1  0.50000000  0.50000000  0.00000000  1
  C  C3  1  0.12674500  0.12674500  0.57394400  1
  C  C4  1  0.87325500  0.87325500  0.42605600  1
  Ni  Ni5  1  0.62478200  0.62478200  0.12480400  1
  Ni  Ni6  1  0.37521800  0.37521800  0.87519600  1
  Cu  Cu7  1  0.23951000  0.76049000  0.50000000  1
  Cu  Cu8  1  0.76049000  0.23951000  0.50000000  1
  Cu  Cu9  1  0.92746200  0.45942700  0.71035400  1
  Cu  Cu10  1  0.45942700  0.92746200  0.71035400  1
  Cu  Cu11  1  0.07253800  0.54057300  0.28964600  1
  Cu  Cu12  1  0.54057300  0.07253800  0.28964600  1
  Cu  Cu13  1  0.95107000  0.95107000  0.85001600  1
  Cu  Cu14  1  0.04893000  0.04893000  0.14998400  1
