# generated using pymatgen
data_Cu9Ni6C
_symmetry_space_group_name_H-M   'P 1'
_cell_length_a   7.36891188
_cell_length_b   12.88806169
_cell_length_c   11.49184200
_cell_angle_alpha   90.00000000
_cell_angle_beta   90.00000000
_cell_angle_gamma   29.01547689
_symmetry_Int_Tables_number   1
_chemical_formula_structural   Cu9Ni6C
_chemical_formula_sum   'Cu18 Ni12 C2'
_cell_volume   529.37498509
_cell_formula_units_Z   2
loop_
 _symmetry_equiv_pos_site_id
 _symmetry_equiv_pos_as_xyz
  1  'x, y, z'
loop_
 _atom_site_type_symbol
 _atom_site_label
 _atom_site_symmetry_multiplicity
 _atom_site_fract_x
 _atom_site_fract_y
 _atom_site_fract_z
 _atom_site_occupancy
  C  C0  1  0.00000000  0.27502000  0.25000000  1
  C  C1  1  0.00000000  0.72498000  0.75000000  1
  Ni  Ni2  1  0.68216400  0.77223800  0.25000000  1
  Ni  Ni3  1  0.68216400  0.54559800  0.75000000  1
  Ni  Ni4  1  0.31783600  0.22776200  0.75000000  1
  Ni  Ni5  1  0.31783600  0.45440200  0.25000000  1
  Ni  Ni6  1  0.68230700  0.30545600  0.90794200  1
  Ni  Ni7  1  0.68230700  0.01223700  0.09205800  1
  Ni  Ni8  1  0.68230700  0.30545600  0.59205800  1
  Ni  Ni9  1  0.68230700  0.01223700  0.40794200  1
  Ni  Ni10  1  0.31769300  0.69454400  0.09205800  1
  Ni  Ni11  1  0.31769300  0.98776300  0.90794200  1
  Ni  Ni12  1  0.31769300  0.69454400  0.40794200  1
  Ni  Ni13  1  0.31769300  0.98776300  0.59205800  1
  Cu  Cu14  1  0.00000000  0.56631600  0.25000000  1
  Cu  Cu15  1  0.00000000  0.43368400  0.75000000  1
  Cu  Cu16  1  0.38168500  0.96034200  0.25000000  1
  Cu  Cu17  1  0.38168500  0.65797400  0.75000000  1
  Cu  Cu18  1  0.61831500  0.03965800  0.75000000  1
  Cu  Cu19  1  0.61831500  0.34202600  0.25000000  1
  Cu  Cu20  1  0.00000000  0.12610900  0.95531800  1
  Cu  Cu21  1  0.00000000  0.87389100  0.04468200  1
  Cu  Cu22  1  0.00000000  0.12610900  0.54468200  1
  Cu  Cu23  1  0.00000000  0.87389100  0.45531800  1
  Cu  Cu24  1  0.38170000  0.47262500  0.86986100  1
  Cu  Cu25  1  0.38170000  0.14567500  0.13013900  1
  Cu  Cu26  1  0.38170000  0.47262500  0.63013900  1
  Cu  Cu27  1  0.38170000  0.14567500  0.36986100  1
  Cu  Cu28  1  0.61830000  0.52737500  0.13013900  1
  Cu  Cu29  1  0.61830000  0.85432500  0.86986100  1
  Cu  Cu30  1  0.61830000  0.52737500  0.36986100  1
  Cu  Cu31  1  0.61830000  0.85432500  0.63013900  1
