# generated using pymatgen
data_Cu4Ni2C
_symmetry_space_group_name_H-M   'P 1'
_cell_length_a   6.21581200
_cell_length_b   14.68206500
_cell_length_c   11.91848500
_cell_angle_alpha   90.00000000
_cell_angle_beta   90.00000000
_cell_angle_gamma   90.00000000
_symmetry_Int_Tables_number   1
_chemical_formula_structural   Cu4Ni2C
_chemical_formula_sum   'Cu32 Ni16 C8'
_cell_volume   1087.69233293
_cell_formula_units_Z   8
loop_
 _symmetry_equiv_pos_site_id
 _symmetry_equiv_pos_as_xyz
  1  'x, y, z'
loop_
 _atom_site_type_symbol
 _atom_site_label
 _atom_site_symmetry_multiplicity
 _atom_site_fract_x
 _atom_site_fract_y
 _atom_site_fract_z
 _atom_site_occupancy
  C  C0  1  0.83470200  0.01944800  0.95251800  1
  C  C1  1  0.16529800  0.98055200  0.45251800  1
  C  C2  1  0.66529800  0.51944800  0.95251800  1
  C  C3  1  0.33470200  0.48055200  0.45251800  1
  C  C4  1  0.82285900  0.77550400  0.69659700  1
  C  C5  1  0.17714100  0.22449600  0.19659700  1
  C  C6  1  0.67714100  0.27550400  0.69659700  1
  C  C7  1  0.32285900  0.72449600  0.19659700  1
  Ni  Ni8  1  0.31501800  0.80784700  0.74126200  1
  Ni  Ni9  1  0.68498200  0.19215300  0.24126200  1
  Ni  Ni10  1  0.18498200  0.30784700  0.74126200  1
  Ni  Ni11  1  0.81501800  0.69215300  0.24126200  1
  Ni  Ni12  1  0.66112900  0.82309800  0.96908200  1
  Ni  Ni13  1  0.33887100  0.17690200  0.46908200  1
  Ni  Ni14  1  0.83887100  0.32309800  0.96908200  1
  Ni  Ni15  1  0.16112900  0.67690200  0.46908200  1
  Ni  Ni16  1  0.59411600  0.54888100  0.68985100  1
  Ni  Ni17  1  0.40588400  0.45111900  0.18985100  1
  Ni  Ni18  1  0.90588400  0.04888100  0.68985100  1
  Ni  Ni19  1  0.09411600  0.95111900  0.18985100  1
  Ni  Ni20  1  0.75157100  0.86325300  0.44054200  1
  Ni  Ni21  1  0.24842900  0.13674700  0.94054200  1
  Ni  Ni22  1  0.74842900  0.36325300  0.44054200  1
  Ni  Ni23  1  0.25157100  0.63674700  0.94054200  1
  Cu  Cu24  1  0.89591000  0.98604200  0.17358100  1
  Cu  Cu25  1  0.10409000  0.01395800  0.67358100  1
  Cu  Cu26  1  0.60409000  0.48604200  0.17358100  1
  Cu  Cu27  1  0.39591000  0.51395800  0.67358100  1
  Cu  Cu28  1  0.91929400  0.69042200  0.68787000  1
  Cu  Cu29  1  0.08070600  0.30957800  0.18787000  1
  Cu  Cu30  1  0.58070600  0.19042200  0.68787000  1
  Cu  Cu31  1  0.41929400  0.80957800  0.18787000  1
  Cu  Cu32  1  0.71087000  0.78055600  0.48507700  1
  Cu  Cu33  1  0.28913000  0.21944400  0.98507700  1
  Cu  Cu34  1  0.78913000  0.28055600  0.48507700  1
  Cu  Cu35  1  0.21087000  0.71944400  0.98507700  1
  Cu  Cu36  1  0.78651600  0.59779000  0.97395000  1
  Cu  Cu37  1  0.21348400  0.40221000  0.47395000  1
  Cu  Cu38  1  0.71348400  0.09779000  0.97395000  1
  Cu  Cu39  1  0.28651600  0.90221000  0.47395000  1
  Cu  Cu40  1  0.00213800  0.95823500  0.93134500  1
  Cu  Cu41  1  0.99786200  0.04176500  0.43134500  1
  Cu  Cu42  1  0.49786200  0.45823500  0.93134500  1
  Cu  Cu43  1  0.50213800  0.54176500  0.43134500  1
  Cu  Cu44  1  0.58294500  0.90915400  0.97456700  1
  Cu  Cu45  1  0.41705500  0.09084600  0.47456700  1
  Cu  Cu46  1  0.91705500  0.40915400  0.97456700  1
  Cu  Cu47  1  0.08294500  0.59084600  0.47456700  1
  Cu  Cu48  1  0.44053200  0.73570900  0.71534200  1
  Cu  Cu49  1  0.55946800  0.26429100  0.21534200  1
  Cu  Cu50  1  0.05946800  0.23570900  0.71534200  1
  Cu  Cu51  1  0.94053200  0.76429100  0.21534200  1
  Cu  Cu52  1  0.76082500  0.86624700  0.70811700  1
  Cu  Cu53  1  0.23917500  0.13375300  0.20811700  1
  Cu  Cu54  1  0.73917500  0.36624700  0.70811700  1
  Cu  Cu55  1  0.26082500  0.63375300  0.20811700  1
