# generated using pymatgen
data_Cu3Ni2C19
_symmetry_space_group_name_H-M   'P 1'
_cell_length_a   5.06506000
_cell_length_b   5.90969346
_cell_length_c   7.73512819
_cell_angle_alpha   78.62021532
_cell_angle_beta   76.81574286
_cell_angle_gamma   74.23648958
_symmetry_Int_Tables_number   1
_chemical_formula_structural   Cu3Ni2C19
_chemical_formula_sum   'Cu3 Ni2 C19'
_cell_volume   214.67884500
_cell_formula_units_Z   1
loop_
 _symmetry_equiv_pos_site_id
 _symmetry_equiv_pos_as_xyz
  1  'x, y, z'
loop_
 _atom_site_type_symbol
 _atom_site_label
 _atom_site_symmetry_multiplicity
 _atom_site_fract_x
 _atom_site_fract_y
 _atom_site_fract_z
 _atom_site_occupancy
  C  C0  1  0.50000000  0.50000000  0.50000000  1
  C  C1  1  0.99239900  0.66966100  0.33476800  1
  C  C2  1  0.00760100  0.33033900  0.66523200  1
  C  C3  1  0.50384900  0.83762500  0.16969600  1
  C  C4  1  0.00000000  0.00000000  0.00000000  1
  C  C5  1  0.49615100  0.16237500  0.83030400  1
  C  C6  1  0.50000000  0.00000000  0.50000000  1
  Ni  Ni7  1  0.00043300  0.83890600  0.66461000  1
  Ni  Ni8  1  0.99956700  0.16109400  0.33539000  1
  Cu  Cu9  1  0.50223200  0.32413200  0.17427900  1
  Cu  Cu10  1  0.00000000  0.50000000  0.00000000  1
  Cu  Cu11  1  0.49776800  0.67586800  0.82572100  1
  C  C12  1  0.21801100  0.85256100  0.42393500  1
  C  C13  1  0.76360500  0.01585400  0.25319500  1
  C  C14  1  0.75242300  0.67414000  0.60335300  1
  C  C15  1  0.23920000  0.17119100  0.09612300  1
  C  C16  1  0.74522100  0.34991700  0.93234600  1
  C  C17  1  0.23396600  0.52586200  0.74424300  1
  C  C18  1  0.78198900  0.14743900  0.57606500  1
  C  C19  1  0.24757700  0.32586000  0.39664700  1
  C  C20  1  0.23639500  0.98414600  0.74680500  1
  C  C21  1  0.76603400  0.47413800  0.25575700  1
  C  C22  1  0.25477900  0.65008300  0.06765400  1
  C  C23  1  0.76080000  0.82880900  0.90387700  1
