# generated using pymatgen
data_CuNiC6
_symmetry_space_group_name_H-M   'P 1'
_cell_length_a   14.46854400
_cell_length_b   12.91482560
_cell_length_c   7.70575853
_cell_angle_alpha   85.14867078
_cell_angle_beta   62.79998488
_cell_angle_gamma   32.05134435
_symmetry_Int_Tables_number   1
_chemical_formula_structural   CuNiC6
_chemical_formula_sum   'Cu2 Ni2 C12'
_cell_volume   521.26859519
_cell_formula_units_Z   2
loop_
 _symmetry_equiv_pos_site_id
 _symmetry_equiv_pos_as_xyz
  1  'x, y, z'
loop_
 _atom_site_type_symbol
 _atom_site_label
 _atom_site_symmetry_multiplicity
 _atom_site_fract_x
 _atom_site_fract_y
 _atom_site_fract_z
 _atom_site_occupancy
  C  C0  1  0.82123000  0.82123000  0.17877000  1
  C  C1  1  0.17877000  0.17877000  0.82123000  1
  C  C2  1  0.07123000  0.07123000  0.42877000  1
  C  C3  1  0.42877000  0.42877000  0.07123000  1
  Ni  Ni4  1  0.25000000  0.25000000  0.25000000  1
  Ni  Ni5  1  0.00000000  0.00000000  0.00000000  1
  Cu  Cu6  1  0.75000000  0.75000000  0.75000000  1
  Cu  Cu7  1  0.50000000  0.50000000  0.50000000  1
  C  C8  1  0.71118300  0.39922800  0.09211700  1
  C  C9  1  0.79747200  0.09211700  0.39922800  1
  C  C10  1  0.09211700  0.79747200  0.71118300  1
  C  C11  1  0.39922800  0.71118300  0.79747200  1
  C  C12  1  0.15788300  0.45252800  0.53881700  1
  C  C13  1  0.85077200  0.53881700  0.45252800  1
  C  C14  1  0.45252800  0.15788300  0.85077200  1
  C  C15  1  0.53881700  0.85077200  0.15788300  1
