# generated using pymatgen
data_CuNi2C13
_symmetry_space_group_name_H-M   'P 1'
_cell_length_a   15.44919900
_cell_length_b   6.84638000
_cell_length_c   6.87802125
_cell_angle_alpha   88.72487183
_cell_angle_beta   90.00000000
_cell_angle_gamma   90.00000000
_symmetry_Int_Tables_number   1
_chemical_formula_structural   CuNi2C13
_chemical_formula_sum   'Cu4 Ni8 C52'
_cell_volume   727.31562976
_cell_formula_units_Z   4
loop_
 _symmetry_equiv_pos_site_id
 _symmetry_equiv_pos_as_xyz
  1  'x, y, z'
loop_
 _atom_site_type_symbol
 _atom_site_label
 _atom_site_symmetry_multiplicity
 _atom_site_fract_x
 _atom_site_fract_y
 _atom_site_fract_z
 _atom_site_occupancy
  C  C0  1  0.02672100  0.13540400  0.30531700  1
  C  C1  1  0.52672100  0.36459600  0.69468300  1
  C  C2  1  0.97327900  0.86459600  0.69468300  1
  C  C3  1  0.47327900  0.63540400  0.30531700  1
  C  C4  1  0.09984400  0.39922700  0.82726200  1
  C  C5  1  0.59984400  0.10077300  0.17273800  1
  C  C6  1  0.90015600  0.60077300  0.17273800  1
  C  C7  1  0.40015600  0.89922700  0.82726200  1
  Ni  Ni8  1  0.90431400  0.36654900  0.67943400  1
  Ni  Ni9  1  0.40431400  0.13345100  0.32056600  1
  Ni  Ni10  1  0.09568600  0.63345100  0.32056600  1
  Ni  Ni11  1  0.59568600  0.86654900  0.67943400  1
  Ni  Ni12  1  0.16026000  0.89340200  0.97209300  1
  Ni  Ni13  1  0.66026000  0.60659800  0.02790700  1
  Ni  Ni14  1  0.83974000  0.10659800  0.02790700  1
  Ni  Ni15  1  0.33974000  0.39340200  0.97209300  1
  C  C16  1  0.18391700  0.25623400  0.49302300  1
  C  C17  1  0.68391700  0.24376600  0.50697700  1
  C  C18  1  0.81608300  0.74376600  0.50697700  1
  C  C19  1  0.31608300  0.75623400  0.49302300  1
  C  C20  1  0.21068900  0.07501900  0.62735900  1
  C  C21  1  0.71068900  0.42498100  0.37264100  1
  C  C22  1  0.78931100  0.92498100  0.37264100  1
  C  C23  1  0.28931100  0.57501900  0.62735900  1
  C  C24  1  0.76162000  0.32102700  0.81371700  1
  C  C25  1  0.26162000  0.17897300  0.18628300  1
  C  C26  1  0.23838000  0.67897300  0.18628300  1
  C  C27  1  0.73838000  0.82102700  0.81371700  1
  C  C28  1  0.79843000  0.11173100  0.68927100  1
  C  C29  1  0.29843000  0.38826900  0.31072900  1
  C  C30  1  0.20157000  0.88826900  0.31072900  1
  C  C31  1  0.70157000  0.61173100  0.68927100  1
  Cu  Cu32  1  0.81750800  0.22458400  0.79253900  1
  Cu  Cu33  1  0.31750800  0.27541600  0.20746100  1
  Cu  Cu34  1  0.18249200  0.77541600  0.20746100  1
  Cu  Cu35  1  0.68249200  0.72458400  0.79253900  1
  C  C36  1  0.10226300  0.75573700  0.85596600  1
  C  C37  1  0.60226300  0.74426300  0.14403400  1
  C  C38  1  0.89773700  0.24426300  0.14403400  1
  C  C39  1  0.39773700  0.25573700  0.85596600  1
  C  C40  1  0.98067500  0.22734600  0.63780800  1
  C  C41  1  0.48067500  0.27265400  0.36219200  1
  C  C42  1  0.01932500  0.77265400  0.36219200  1
  C  C43  1  0.51932500  0.72734600  0.63780800  1
  C  C44  1  0.93858400  0.52109300  0.82485900  1
  C  C45  1  0.43858400  0.97890700  0.17514100  1
  C  C46  1  0.06141600  0.47890700  0.17514100  1
  C  C47  1  0.56141600  0.02109300  0.82485900  1
  C  C48  1  0.11404800  0.08947800  0.00952400  1
  C  C49  1  0.61404800  0.41052200  0.99047600  1
  C  C50  1  0.88595200  0.91052200  0.99047600  1
  C  C51  1  0.38595200  0.58947800  0.00952400  1
  C  C52  1  0.86564800  0.46801300  0.49816200  1
  C  C53  1  0.36564800  0.03198700  0.50183800  1
  C  C54  1  0.13435200  0.53198700  0.50183800  1
  C  C55  1  0.63435200  0.96801300  0.49816200  1
  C  C56  1  0.24901500  0.92894500  0.87291400  1
  C  C57  1  0.74901500  0.57105500  0.12708600  1
  C  C58  1  0.75098500  0.07105500  0.12708600  1
  C  C59  1  0.25098500  0.42894500  0.87291400  1
  C  C60  1  0.16097700  0.14495700  0.56887400  1
  C  C61  1  0.66097700  0.35504300  0.43112600  1
  C  C62  1  0.83902300  0.85504300  0.43112600  1
  C  C63  1  0.33902300  0.64495700  0.56887400  1
