# generated using pymatgen
data_Cu4NiC2
_symmetry_space_group_name_H-M   'P 1'
_cell_length_a   6.50372100
_cell_length_b   7.09072300
_cell_length_c   8.52957600
_cell_angle_alpha   90.00000000
_cell_angle_beta   90.00000000
_cell_angle_gamma   90.00000000
_symmetry_Int_Tables_number   1
_chemical_formula_structural   Cu4NiC2
_chemical_formula_sum   'Cu16 Ni4 C8'
_cell_volume   393.35064399
_cell_formula_units_Z   4
loop_
 _symmetry_equiv_pos_site_id
 _symmetry_equiv_pos_as_xyz
  1  'x, y, z'
loop_
 _atom_site_type_symbol
 _atom_site_label
 _atom_site_symmetry_multiplicity
 _atom_site_fract_x
 _atom_site_fract_y
 _atom_site_fract_z
 _atom_site_occupancy
  C  C0  1  0.65092300  0.75000000  0.05474400  1
  C  C1  1  0.15092300  0.25000000  0.44525600  1
  C  C2  1  0.34907700  0.25000000  0.94525600  1
  C  C3  1  0.84907700  0.75000000  0.55474400  1
  Ni  Ni4  1  0.18639100  0.75000000  0.90833800  1
  Ni  Ni5  1  0.68639100  0.25000000  0.59166200  1
  Ni  Ni6  1  0.31360900  0.75000000  0.40833800  1
  Ni  Ni7  1  0.81360900  0.25000000  0.09166200  1
  Cu  Cu8  1  0.01317700  0.75000000  0.01838000  1
  Cu  Cu9  1  0.51317700  0.25000000  0.48162000  1
  Cu  Cu10  1  0.98682300  0.25000000  0.98162000  1
  Cu  Cu11  1  0.48682300  0.75000000  0.51838000  1
  Cu  Cu12  1  0.67483400  0.08362100  0.05981900  1
  Cu  Cu13  1  0.17483400  0.91637900  0.44018100  1
  Cu  Cu14  1  0.32516600  0.58362100  0.94018100  1
  Cu  Cu15  1  0.82516600  0.41637900  0.55981900  1
  Cu  Cu16  1  0.12042400  0.75000000  0.74447300  1
  Cu  Cu17  1  0.17483400  0.58362100  0.44018100  1
  Cu  Cu18  1  0.87957600  0.25000000  0.25552700  1
  Cu  Cu19  1  0.37957600  0.75000000  0.24447300  1
  Cu  Cu20  1  0.82516600  0.08362100  0.55981900  1
  Cu  Cu21  1  0.67483400  0.41637900  0.05981900  1
  Cu  Cu22  1  0.62042400  0.25000000  0.75552700  1
  Cu  Cu23  1  0.32516600  0.91637900  0.94018100  1
  C  C24  1  0.70131900  0.75000000  0.79411500  1
  C  C25  1  0.29868100  0.25000000  0.20588500  1
  C  C26  1  0.79868100  0.75000000  0.29411500  1
  C  C27  1  0.20131900  0.25000000  0.70588500  1
