# generated using pymatgen
data_CuNi6C25
_symmetry_space_group_name_H-M   'P 1'
_cell_length_a   7.83183717
_cell_length_b   7.83183717
_cell_length_c   7.83183752
_cell_angle_alpha   105.12696128
_cell_angle_beta   105.12696128
_cell_angle_gamma   105.12696745
_symmetry_Int_Tables_number   1
_chemical_formula_structural   CuNi6C25
_chemical_formula_sum   'Cu1 Ni6 C25'
_cell_volume   418.83525023
_cell_formula_units_Z   1
loop_
 _symmetry_equiv_pos_site_id
 _symmetry_equiv_pos_as_xyz
  1  'x, y, z'
loop_
 _atom_site_type_symbol
 _atom_site_label
 _atom_site_symmetry_multiplicity
 _atom_site_fract_x
 _atom_site_fract_y
 _atom_site_fract_z
 _atom_site_occupancy
  Ni  Ni0  1  0.35582400  0.73396700  0.84573300  1
  Ni  Ni1  1  0.84573300  0.35582400  0.73396700  1
  Ni  Ni2  1  0.73396700  0.84573300  0.35582400  1
  Ni  Ni3  1  0.64417600  0.26603300  0.15426700  1
  Ni  Ni4  1  0.15426700  0.64417600  0.26603300  1
  Ni  Ni5  1  0.26603300  0.15426700  0.64417600  1
  C  C6  1  0.00000000  0.00000000  0.00000000  1
  Cu  Cu7  1  0.50000000  0.50000000  0.50000000  1
  C  C8  1  0.38318200  0.04344900  0.29288000  1
  C  C9  1  0.29288000  0.38318200  0.04344900  1
  C  C10  1  0.04344900  0.29288000  0.38318200  1
  C  C11  1  0.70712000  0.61681800  0.95655100  1
  C  C12  1  0.95655100  0.70712000  0.61681800  1
  C  C13  1  0.61681800  0.95655100  0.70712000  1
  C  C14  1  0.43283900  0.49641100  0.21986500  1
  C  C15  1  0.21986500  0.43283900  0.49641100  1
  C  C16  1  0.80900700  0.02300200  0.73467700  1
  C  C17  1  0.02300200  0.73467700  0.80900700  1
  C  C18  1  0.73467700  0.80900700  0.02300200  1
  C  C19  1  0.26532300  0.19099300  0.97699800  1
  C  C20  1  0.19099300  0.97699800  0.26532300  1
  C  C21  1  0.97699800  0.26532300  0.19099300  1
  C  C22  1  0.53706400  0.06083500  0.80937900  1
  C  C23  1  0.06083500  0.80937900  0.53706400  1
  C  C24  1  0.80937900  0.53706400  0.06083500  1
  C  C25  1  0.46293600  0.93916500  0.19062100  1
  C  C26  1  0.93916500  0.19062100  0.46293600  1
  C  C27  1  0.19062100  0.46293600  0.93916500  1
  C  C28  1  0.50358900  0.78013500  0.56716100  1
  C  C29  1  0.78013500  0.56716100  0.50358900  1
  C  C30  1  0.56716100  0.50358900  0.78013500  1
  C  C31  1  0.49641100  0.21986500  0.43283900  1
