# generated using pymatgen
data_Cu3NiC36
_symmetry_space_group_name_H-M   'P 1'
_cell_length_a   8.99289500
_cell_length_b   5.31974400
_cell_length_c   9.78793471
_cell_angle_alpha   74.91521847
_cell_angle_beta   90.00000000
_cell_angle_gamma   90.00000000
_symmetry_Int_Tables_number   1
_chemical_formula_structural   Cu3NiC36
_chemical_formula_sum   'Cu3 Ni1 C36'
_cell_volume   452.11862195
_cell_formula_units_Z   1
loop_
 _symmetry_equiv_pos_site_id
 _symmetry_equiv_pos_as_xyz
  1  'x, y, z'
loop_
 _atom_site_type_symbol
 _atom_site_label
 _atom_site_symmetry_multiplicity
 _atom_site_fract_x
 _atom_site_fract_y
 _atom_site_fract_z
 _atom_site_occupancy
  Ni  Ni0  1  0.30289400  0.00000000  0.00000000  1
  Cu  Cu1  1  0.79799500  0.50000000  0.50000000  1
  Cu  Cu2  1  0.20156400  0.00000000  0.50000000  1
  Cu  Cu3  1  0.69597200  0.50000000  0.00000000  1
  C  C4  1  0.40820500  0.50000000  0.50000000  1
  C  C5  1  0.90620900  0.00000000  0.00000000  1
  C  C6  1  0.59121200  0.00000000  0.50000000  1
  C  C7  1  0.10246600  0.50000000  0.00000000  1
  C  C8  1  0.09385800  0.69251500  0.28581300  1
  C  C9  1  0.59097100  0.19240300  0.78761300  1
  C  C10  1  0.09385800  0.30748500  0.71418700  1
  C  C11  1  0.59097100  0.80759700  0.21238700  1
  C  C12  1  0.90778900  0.80602200  0.71313300  1
  C  C13  1  0.40747800  0.30662000  0.21205100  1
  C  C14  1  0.90778900  0.19397800  0.28686700  1
  C  C15  1  0.40747800  0.69338000  0.78794900  1
  C  C16  1  0.01695100  0.39647100  0.35136400  1
  C  C17  1  0.51735300  0.89511900  0.85005200  1
  C  C18  1  0.01695100  0.60352900  0.64863600  1
  C  C19  1  0.51735300  0.10488100  0.14994800  1
  C  C20  1  0.98368700  0.10178500  0.65110300  1
  C  C21  1  0.48512800  0.59901000  0.14955800  1
  C  C22  1  0.98368700  0.89821500  0.34889700  1
  C  C23  1  0.48512800  0.40099000  0.85044200  1
  C  C24  1  0.08299400  0.76798200  0.11434000  1
  C  C25  1  0.58704800  0.27619300  0.61573300  1
  C  C26  1  0.08299400  0.23201800  0.88566000  1
  C  C27  1  0.58704800  0.72380700  0.38426700  1
  C  C28  1  0.91692400  0.71982300  0.88558200  1
  C  C29  1  0.41073500  0.22299100  0.38360700  1
  C  C30  1  0.91692400  0.28017700  0.11441800  1
  C  C31  1  0.41073500  0.77700900  0.61639300  1
  C  C32  1  0.24941400  0.70744100  0.36198200  1
  C  C33  1  0.74935700  0.20575200  0.86200400  1
  C  C34  1  0.24941400  0.29255900  0.63801800  1
  C  C35  1  0.74935700  0.79424800  0.13799600  1
  C  C36  1  0.75059000  0.79290600  0.63875100  1
  C  C37  1  0.24646600  0.30013900  0.13848400  1
  C  C38  1  0.75059000  0.20709400  0.36124900  1
  C  C39  1  0.24646600  0.69986100  0.86151600  1
