# generated using pymatgen
data_Cu2NiC5
_symmetry_space_group_name_H-M   'P 1'
_cell_length_a   7.33542784
_cell_length_b   7.33542784
_cell_length_c   7.33542784
_cell_angle_alpha   129.28592759
_cell_angle_beta   129.28592759
_cell_angle_gamma   74.55093724
_symmetry_Int_Tables_number   1
_chemical_formula_structural   Cu2NiC5
_chemical_formula_sum   'Cu4 Ni2 C10'
_cell_volume   230.41665533
_cell_formula_units_Z   2
loop_
 _symmetry_equiv_pos_site_id
 _symmetry_equiv_pos_as_xyz
  1  'x, y, z'
loop_
 _atom_site_type_symbol
 _atom_site_label
 _atom_site_symmetry_multiplicity
 _atom_site_fract_x
 _atom_site_fract_y
 _atom_site_fract_z
 _atom_site_occupancy
  C  C0  1  0.52840600  0.69791500  0.50000000  1
  C  C1  1  0.19791500  0.02840600  0.50000000  1
  C  C2  1  0.02840600  0.52840600  0.83049100  1
  C  C3  1  0.69791500  0.19791500  0.16950900  1
  C  C4  1  0.47159400  0.30208500  0.50000000  1
  C  C5  1  0.80208500  0.97159400  0.50000000  1
  C  C6  1  0.97159400  0.47159400  0.16950900  1
  C  C7  1  0.30208500  0.80208500  0.83049100  1
  C  C8  1  0.50000000  0.50000000  0.00000000  1
  C  C9  1  0.00000000  0.00000000  0.00000000  1
  Ni  Ni10  1  0.25000000  0.25000000  0.00000000  1
  Ni  Ni11  1  0.75000000  0.75000000  0.00000000  1
  Cu  Cu12  1  0.87878500  0.62121500  0.50000000  1
  Cu  Cu13  1  0.12121500  0.37878500  0.50000000  1
  Cu  Cu14  1  0.37878500  0.87878500  0.25756900  1
  Cu  Cu15  1  0.62121500  0.12121500  0.74243100  1
