# generated using pymatgen
data_Cu5Ni2C25
_symmetry_space_group_name_H-M   'P 1'
_cell_length_a   3.02171400
_cell_length_b   9.91135008
_cell_length_c   10.22392773
_cell_angle_alpha   73.53380307
_cell_angle_beta   82.53306756
_cell_angle_gamma   87.08755140
_symmetry_Int_Tables_number   1
_chemical_formula_structural   Cu5Ni2C25
_chemical_formula_sum   'Cu5 Ni2 C25'
_cell_volume   291.11950610
_cell_formula_units_Z   1
loop_
 _symmetry_equiv_pos_site_id
 _symmetry_equiv_pos_as_xyz
  1  'x, y, z'
loop_
 _atom_site_type_symbol
 _atom_site_label
 _atom_site_symmetry_multiplicity
 _atom_site_fract_x
 _atom_site_fract_y
 _atom_site_fract_z
 _atom_site_occupancy
  C  C0  1  0.93747200  0.68066700  0.12314300  1
  C  C1  1  0.44018000  0.19083200  0.12819200  1
  C  C2  1  0.31551900  0.55982400  0.37424300  1
  C  C3  1  0.81566900  0.06396400  0.37519400  1
  C  C4  1  0.68356800  0.43855700  0.62593600  1
  C  C5  1  0.18447400  0.93824300  0.62511500  1
  C  C6  1  0.06339000  0.31781400  0.87505500  1
  C  C7  1  0.55996400  0.80965800  0.87243700  1
  C  C8  1  0.49991800  0.49952200  0.00021400  1
  Ni  Ni9  1  0.00121300  0.00218800  0.99712400  1
  Ni  Ni10  1  0.37002800  0.87278200  0.25189000  1
  Cu  Cu11  1  0.88015500  0.38149000  0.24117900  1
  Cu  Cu12  1  0.74349000  0.74826500  0.50567900  1
  Cu  Cu13  1  0.25315400  0.24912800  0.49816400  1
  Cu  Cu14  1  0.11951200  0.61766300  0.76019900  1
  Cu  Cu15  1  0.63033000  0.12728000  0.74695100  1
  C  C16  1  0.43490600  0.84856800  0.06647200  1
  C  C17  1  0.95472900  0.34373800  0.08306500  1
  C  C18  1  0.80734100  0.72254000  0.32305300  1
  C  C19  1  0.31191400  0.22884500  0.31737700  1
  C  C20  1  0.21890800  0.60131500  0.57533000  1
  C  C21  1  0.72452700  0.10291600  0.56747900  1
  C  C22  1  0.57551100  0.48120300  0.80796200  1
  C  C23  1  0.06483400  0.98157200  0.81235000  1
  C  C24  1  0.42646900  0.51830300  0.19214400  1
  C  C25  1  0.93830300  0.02402000  0.18265400  1
  C  C26  1  0.78169100  0.39759800  0.42573400  1
  C  C27  1  0.27578200  0.89847800  0.43542900  1
  C  C28  1  0.19165500  0.27298500  0.68053600  1
  C  C29  1  0.68718600  0.77084000  0.68389000  1
  C  C30  1  0.56209000  0.15257200  0.92871200  1
  C  C31  1  0.04612000  0.65663100  0.91709800  1
