# generated using pymatgen
data_Cu12Ni2C9
_symmetry_space_group_name_H-M   'P 1'
_cell_length_a   11.57436228
_cell_length_b   8.29683800
_cell_length_c   5.70543775
_cell_angle_alpha   90.00000000
_cell_angle_beta   103.17479906
_cell_angle_gamma   90.00000000
_symmetry_Int_Tables_number   1
_chemical_formula_structural   Cu12Ni2C9
_chemical_formula_sum   'Cu24 Ni4 C18'
_cell_volume   533.47560802
_cell_formula_units_Z   2
loop_
 _symmetry_equiv_pos_site_id
 _symmetry_equiv_pos_as_xyz
  1  'x, y, z'
loop_
 _atom_site_type_symbol
 _atom_site_label
 _atom_site_symmetry_multiplicity
 _atom_site_fract_x
 _atom_site_fract_y
 _atom_site_fract_z
 _atom_site_occupancy
  C  C0  1  0.00000000  0.00000000  0.00000000  1
  C  C1  1  0.50000000  0.50000000  0.00000000  1
  C  C2  1  0.02195900  0.71547300  0.21711900  1
  C  C3  1  0.15132900  0.13127300  0.78012400  1
  C  C4  1  0.18073300  0.94125300  0.79319500  1
  C  C5  1  0.14028400  0.80976300  0.32161200  1
  C  C6  1  0.35971600  0.30976300  0.67838800  1
  C  C7  1  0.31926700  0.44125300  0.20680500  1
  C  C8  1  0.34867100  0.63127300  0.21987600  1
  C  C9  1  0.47804100  0.21547300  0.78288100  1
  C  C10  1  0.52195900  0.78452700  0.21711900  1
  C  C11  1  0.65132900  0.36872700  0.78012400  1
  C  C12  1  0.68073300  0.55874700  0.79319500  1
  C  C13  1  0.64028400  0.69023700  0.32161200  1
  C  C14  1  0.85971600  0.19023700  0.67838800  1
  C  C15  1  0.81926700  0.05874700  0.20680500  1
  C  C16  1  0.84867100  0.86872700  0.21987600  1
  C  C17  1  0.97804100  0.28452700  0.78288100  1
  Ni  Ni18  1  0.13327900  0.28521700  0.36504300  1
  Ni  Ni19  1  0.36672100  0.78521700  0.63495700  1
  Ni  Ni20  1  0.63327900  0.21478300  0.36504300  1
  Ni  Ni21  1  0.86672100  0.71478300  0.63495700  1
  Cu  Cu22  1  0.07242500  0.12556500  0.28601100  1
  Cu  Cu23  1  0.07662600  0.41651400  0.20851400  1
  Cu  Cu24  1  0.07466100  0.79836000  0.17777300  1
  Cu  Cu25  1  0.12645800  0.30903200  0.61930300  1
  Cu  Cu26  1  0.14873400  0.03063100  0.87389900  1
  Cu  Cu27  1  0.23949900  0.77436600  0.64569400  1
  Cu  Cu28  1  0.26050100  0.27436600  0.35430600  1
  Cu  Cu29  1  0.35126600  0.53063100  0.12610100  1
  Cu  Cu30  1  0.37354200  0.80903200  0.38069700  1
  Cu  Cu31  1  0.42533900  0.29836000  0.82222700  1
  Cu  Cu32  1  0.42337400  0.91651400  0.79148600  1
  Cu  Cu33  1  0.42757500  0.62556500  0.71398900  1
  Cu  Cu34  1  0.57242500  0.37443500  0.28601100  1
  Cu  Cu35  1  0.57662600  0.08348600  0.20851400  1
  Cu  Cu36  1  0.57466100  0.70164000  0.17777300  1
  Cu  Cu37  1  0.62645800  0.19096800  0.61930300  1
  Cu  Cu38  1  0.64873400  0.46936900  0.87389900  1
  Cu  Cu39  1  0.73949900  0.72563400  0.64569400  1
  Cu  Cu40  1  0.76050100  0.22563400  0.35430600  1
  Cu  Cu41  1  0.85126600  0.96936900  0.12610100  1
  Cu  Cu42  1  0.87354200  0.69096800  0.38069700  1
  Cu  Cu43  1  0.92533900  0.20164000  0.82222700  1
  Cu  Cu44  1  0.92337400  0.58348600  0.79148600  1
  Cu  Cu45  1  0.92757500  0.87443500  0.71398900  1
