# generated using pymatgen
data_CuNi4C5
_symmetry_space_group_name_H-M   'P 1'
_cell_length_a   11.97372100
_cell_length_b   9.71615900
_cell_length_c   13.07077558
_cell_angle_alpha   70.41552291
_cell_angle_beta   90.00000000
_cell_angle_gamma   90.00000000
_symmetry_Int_Tables_number   1
_chemical_formula_structural   CuNi4C5
_chemical_formula_sum   'Cu8 Ni32 C40'
_cell_volume   1432.66408808
_cell_formula_units_Z   8
loop_
 _symmetry_equiv_pos_site_id
 _symmetry_equiv_pos_as_xyz
  1  'x, y, z'
loop_
 _atom_site_type_symbol
 _atom_site_label
 _atom_site_symmetry_multiplicity
 _atom_site_fract_x
 _atom_site_fract_y
 _atom_site_fract_z
 _atom_site_occupancy
  C  C0  1  0.87958400  0.40561100  0.82502200  1
  C  C1  1  0.37958400  0.59438900  0.67497800  1
  C  C2  1  0.12041600  0.59438900  0.17497800  1
  C  C3  1  0.62041600  0.40561100  0.32502200  1
  C  C4  1  0.87359000  0.81072900  0.72281900  1
  C  C5  1  0.37359000  0.18927100  0.77718100  1
  C  C6  1  0.12641000  0.18927100  0.27718100  1
  C  C7  1  0.62641000  0.81072900  0.22281900  1
  Ni  Ni8  1  0.96701200  0.41292200  0.70297600  1
  Ni  Ni9  1  0.46701200  0.58707800  0.79702400  1
  Ni  Ni10  1  0.03298800  0.58707800  0.29702400  1
  Ni  Ni11  1  0.53298800  0.41292200  0.20297600  1
  Ni  Ni12  1  0.97320300  0.26804800  0.91475600  1
  Ni  Ni13  1  0.47320300  0.73195200  0.58524400  1
  Ni  Ni14  1  0.02679700  0.73195200  0.08524400  1
  Ni  Ni15  1  0.52679700  0.26804800  0.41475600  1
  Ni  Ni16  1  0.79272700  0.26273900  0.80425700  1
  Ni  Ni17  1  0.29272700  0.73726100  0.69574300  1
  Ni  Ni18  1  0.20727300  0.73726100  0.19574300  1
  Ni  Ni19  1  0.70727300  0.26273900  0.30425700  1
  Ni  Ni20  1  0.79088000  0.40483100  0.94495000  1
  Ni  Ni21  1  0.29088000  0.59516900  0.55505000  1
  Ni  Ni22  1  0.20912000  0.59516900  0.05505000  1
  Ni  Ni23  1  0.70912000  0.40483100  0.44495000  1
  Ni  Ni24  1  0.96496900  0.80647500  0.60695900  1
  Ni  Ni25  1  0.46496900  0.19352500  0.89304100  1
  Ni  Ni26  1  0.03503100  0.19352500  0.39304100  1
  Ni  Ni27  1  0.53503100  0.80647500  0.10695900  1
  Ni  Ni28  1  0.96089800  0.95336900  0.74405200  1
  Ni  Ni29  1  0.46089800  0.04663100  0.75594800  1
  Ni  Ni30  1  0.03910200  0.04663100  0.25594800  1
  Ni  Ni31  1  0.53910200  0.95336900  0.24405200  1
  Ni  Ni32  1  0.78315600  0.94849900  0.62966900  1
  Ni  Ni33  1  0.28315600  0.05150100  0.87033100  1
  Ni  Ni34  1  0.21684400  0.05150100  0.37033100  1
  Ni  Ni35  1  0.71684400  0.94849900  0.12966900  1
  Ni  Ni36  1  0.78155200  0.80525200  0.84192500  1
  Ni  Ni37  1  0.28155200  0.19474800  0.65807500  1
  Ni  Ni38  1  0.21844800  0.19474800  0.15807500  1
  Ni  Ni39  1  0.71844800  0.80525200  0.34192500  1
  Cu  Cu40  1  0.98583600  0.61163500  0.84207500  1
  Cu  Cu41  1  0.48583600  0.38836500  0.65792500  1
  Cu  Cu42  1  0.01416400  0.38836500  0.15792500  1
  Cu  Cu43  1  0.51416400  0.61163500  0.34207500  1
  Cu  Cu44  1  0.76576500  0.60523800  0.70690700  1
  Cu  Cu45  1  0.26576500  0.39476200  0.79309300  1
  Cu  Cu46  1  0.23423500  0.39476200  0.29309300  1
  Cu  Cu47  1  0.73423500  0.60523800  0.20690700  1
  C  C48  1  0.01903600  0.41503600  0.62827600  1
  C  C49  1  0.51903600  0.58496400  0.87172400  1
  C  C50  1  0.98096400  0.58496400  0.37172400  1
  C  C51  1  0.48096400  0.41503600  0.12827600  1
  C  C52  1  0.03151500  0.17987500  0.97091400  1
  C  C53  1  0.53151500  0.82012500  0.52908600  1
  C  C54  1  0.96848500  0.82012500  0.02908600  1
  C  C55  1  0.46848500  0.17987500  0.47091400  1
  C  C56  1  0.73904700  0.17038400  0.79151100  1
  C  C57  1  0.23904700  0.82961600  0.70848900  1
  C  C58  1  0.26095300  0.82961600  0.20848900  1
  C  C59  1  0.76095300  0.17038400  0.29151100  1
  C  C60  1  0.73625200  0.40069300  0.01853200  1
  C  C61  1  0.23625200  0.59930700  0.48146800  1
  C  C62  1  0.26374800  0.59930700  0.98146800  1
  C  C63  1  0.76374800  0.40069300  0.51853200  1
  C  C64  1  0.02210700  0.80665000  0.53572200  1
  C  C65  1  0.52210700  0.19335000  0.96427800  1
  C  C66  1  0.97789300  0.19335000  0.46427800  1
  C  C67  1  0.47789300  0.80665000  0.03572200  1
  C  C68  1  0.01534000  0.04487500  0.75698700  1
  C  C69  1  0.51534000  0.95512500  0.74301300  1
  C  C70  1  0.98466000  0.95512500  0.24301300  1
  C  C71  1  0.48466000  0.04487500  0.25698700  1
  C  C72  1  0.72751000  0.03717100  0.57018000  1
  C  C73  1  0.22751000  0.96282900  0.92982000  1
  C  C74  1  0.27249000  0.96282900  0.42982000  1
  C  C75  1  0.77249000  0.03717100  0.07018000  1
  C  C76  1  0.72471400  0.80361000  0.91347100  1
  C  C77  1  0.22471400  0.19639000  0.58652900  1
  C  C78  1  0.27528600  0.19639000  0.08652900  1
  C  C79  1  0.77528600  0.80361000  0.41347100  1
