# generated using pymatgen
data_Cu2Ni3C4
_symmetry_space_group_name_H-M   'P 1'
_cell_length_a   7.71904029
_cell_length_b   7.71904029
_cell_length_c   13.59564400
_cell_angle_alpha   90.00000000
_cell_angle_beta   90.00000000
_cell_angle_gamma   120.07284211
_symmetry_Int_Tables_number   1
_chemical_formula_structural   Cu2Ni3C4
_chemical_formula_sum   'Cu8 Ni12 C16'
_cell_volume   701.03191194
_cell_formula_units_Z   4
loop_
 _symmetry_equiv_pos_site_id
 _symmetry_equiv_pos_as_xyz
  1  'x, y, z'
loop_
 _atom_site_type_symbol
 _atom_site_label
 _atom_site_symmetry_multiplicity
 _atom_site_fract_x
 _atom_site_fract_y
 _atom_site_fract_z
 _atom_site_occupancy
  C  C0  1  0.66445600  0.33554400  0.25000000  1
  C  C1  1  0.33554400  0.66445600  0.75000000  1
  C  C2  1  0.00000000  0.00000000  0.00000000  1
  C  C3  1  0.00000000  0.00000000  0.50000000  1
  C  C4  1  0.86306000  0.13694000  0.07468000  1
  C  C5  1  0.13694000  0.86306000  0.92532000  1
  C  C6  1  0.13694000  0.86306000  0.57468000  1
  C  C7  1  0.86306000  0.13694000  0.42532000  1
  C  C8  1  0.85973600  0.75465200  0.09383000  1
  C  C9  1  0.14026400  0.24534800  0.90617000  1
  C  C10  1  0.14026400  0.24534800  0.59383000  1
  C  C11  1  0.24534800  0.14026400  0.40617000  1
  C  C12  1  0.85973600  0.75465200  0.40617000  1
  C  C13  1  0.75465200  0.85973600  0.59383000  1
  C  C14  1  0.75465200  0.85973600  0.90617000  1
  C  C15  1  0.24534800  0.14026400  0.09383000  1
  Ni  Ni16  1  0.78629500  0.61336100  0.14477100  1
  Ni  Ni17  1  0.21370500  0.38663900  0.85522900  1
  Ni  Ni18  1  0.21370500  0.38663900  0.64477100  1
  Ni  Ni19  1  0.38663900  0.21370500  0.35522900  1
  Ni  Ni20  1  0.78629500  0.61336100  0.35522900  1
  Ni  Ni21  1  0.61336100  0.78629500  0.64477100  1
  Ni  Ni22  1  0.61336100  0.78629500  0.85522900  1
  Ni  Ni23  1  0.38663900  0.21370500  0.14477100  1
  Ni  Ni24  1  0.79137000  0.20863000  0.12435400  1
  Ni  Ni25  1  0.20863000  0.79137000  0.87564600  1
  Ni  Ni26  1  0.20863000  0.79137000  0.62435400  1
  Ni  Ni27  1  0.79137000  0.20863000  0.37564600  1
  Cu  Cu28  1  0.16368700  0.57249100  0.25000000  1
  Cu  Cu29  1  0.83631300  0.42750900  0.75000000  1
  Cu  Cu30  1  0.42750900  0.83631300  0.25000000  1
  Cu  Cu31  1  0.57249100  0.16368700  0.75000000  1
  Cu  Cu32  1  0.32269300  0.67730700  0.17500400  1
  Cu  Cu33  1  0.67730700  0.32269300  0.82499600  1
  Cu  Cu34  1  0.67730700  0.32269300  0.67500400  1
  Cu  Cu35  1  0.32269300  0.67730700  0.32499600  1
