# generated using pymatgen
data_Cu12Ni12C
_symmetry_space_group_name_H-M   'P 1'
_cell_length_a   7.21313187
_cell_length_b   7.21313187
_cell_length_c   11.14434609
_cell_angle_alpha   89.87784818
_cell_angle_beta   89.87784818
_cell_angle_gamma   120.88758702
_symmetry_Int_Tables_number   1
_chemical_formula_structural   Cu12Ni12C
_chemical_formula_sum   'Cu24 Ni24 C2'
_cell_volume   497.59351928
_cell_formula_units_Z   2
loop_
 _symmetry_equiv_pos_site_id
 _symmetry_equiv_pos_as_xyz
  1  'x, y, z'
loop_
 _atom_site_type_symbol
 _atom_site_label
 _atom_site_symmetry_multiplicity
 _atom_site_fract_x
 _atom_site_fract_y
 _atom_site_fract_z
 _atom_site_occupancy
  C  C0  1  0.82820400  0.17179600  0.75000000  1
  C  C1  1  0.17179600  0.82820400  0.25000000  1
  Ni  Ni2  1  0.38699200  0.91862200  0.83298700  1
  Ni  Ni3  1  0.08137800  0.61300800  0.66701300  1
  Ni  Ni4  1  0.61300800  0.08137800  0.16701300  1
  Ni  Ni5  1  0.91862200  0.38699200  0.33298700  1
  Ni  Ni6  1  0.24726300  0.06196600  0.83424100  1
  Ni  Ni7  1  0.93803400  0.75273700  0.66575900  1
  Ni  Ni8  1  0.75273700  0.93803400  0.16575900  1
  Ni  Ni9  1  0.06196600  0.24726300  0.33424100  1
  Ni  Ni10  1  0.19767500  0.64027900  0.81128100  1
  Ni  Ni11  1  0.35972100  0.80232500  0.68871900  1
  Ni  Ni12  1  0.80232500  0.35972100  0.18871900  1
  Ni  Ni13  1  0.64027900  0.19767500  0.31128100  1
  Ni  Ni14  1  0.96963300  0.87061400  0.81085500  1
  Ni  Ni15  1  0.12938600  0.03036700  0.68914500  1
  Ni  Ni16  1  0.03036700  0.12938600  0.18914500  1
  Ni  Ni17  1  0.87061400  0.96963300  0.31085500  1
  Ni  Ni18  1  0.12891500  0.80151900  0.90105800  1
  Ni  Ni19  1  0.19848100  0.87108500  0.59894200  1
  Ni  Ni20  1  0.87108500  0.19848100  0.09894200  1
  Ni  Ni21  1  0.80151900  0.12891500  0.40105800  1
  Ni  Ni22  1  0.93980000  0.61233600  0.79736900  1
  Ni  Ni23  1  0.38766400  0.06020000  0.70263100  1
  Ni  Ni24  1  0.06020000  0.38766400  0.20263100  1
  Ni  Ni25  1  0.61233600  0.93980000  0.29736900  1
  Cu  Cu26  1  0.54585500  0.97744500  0.89345300  1
  Cu  Cu27  1  0.02255500  0.45414500  0.60654700  1
  Cu  Cu28  1  0.45414500  0.02255500  0.10654700  1
  Cu  Cu29  1  0.97744500  0.54585500  0.39345300  1
  Cu  Cu30  1  0.30820300  0.22152100  0.89241600  1
  Cu  Cu31  1  0.77847900  0.69179700  0.60758400  1
  Cu  Cu32  1  0.69179700  0.77847900  0.10758400  1
  Cu  Cu33  1  0.22152100  0.30820300  0.39241600  1
  Cu  Cu34  1  0.21831000  0.49859100  0.85358200  1
  Cu  Cu35  1  0.50140900  0.78169000  0.64641800  1
  Cu  Cu36  1  0.78169000  0.50140900  0.14641800  1
  Cu  Cu37  1  0.49859100  0.21831000  0.35358200  1
  Cu  Cu38  1  0.82727300  0.88780900  0.85732200  1
  Cu  Cu39  1  0.11219100  0.17272700  0.64267800  1
  Cu  Cu40  1  0.17272700  0.11219100  0.14267800  1
  Cu  Cu41  1  0.88780900  0.82727300  0.35732200  1
  Cu  Cu42  1  0.10079300  0.77380600  0.00745700  1
  Cu  Cu43  1  0.22619400  0.89920700  0.49254300  1
  Cu  Cu44  1  0.89920700  0.22619400  0.99254300  1
  Cu  Cu45  1  0.77380600  0.10079300  0.50745700  1
  Cu  Cu46  1  0.77925500  0.45363200  0.83280700  1
  Cu  Cu47  1  0.54636800  0.22074500  0.66719300  1
  Cu  Cu48  1  0.22074500  0.54636800  0.16719300  1
  Cu  Cu49  1  0.45363200  0.77925500  0.33280700  1
