# generated using pymatgen
data_CuNi14C17
_symmetry_space_group_name_H-M   'P 1'
_cell_length_a   8.47510876
_cell_length_b   8.76521800
_cell_length_c   4.23483803
_cell_angle_alpha   90.00000000
_cell_angle_beta   90.00000000
_cell_angle_gamma   90.00000000
_symmetry_Int_Tables_number   1
_chemical_formula_structural   CuNi14C17
_chemical_formula_sum   'Cu1 Ni14 C17'
_cell_volume   314.58992261
_cell_formula_units_Z   1
loop_
 _symmetry_equiv_pos_site_id
 _symmetry_equiv_pos_as_xyz
  1  'x, y, z'
loop_
 _atom_site_type_symbol
 _atom_site_label
 _atom_site_symmetry_multiplicity
 _atom_site_fract_x
 _atom_site_fract_y
 _atom_site_fract_z
 _atom_site_occupancy
  Ni  Ni0  1  0.50000000  -0.00000000  -0.00000000  1
  Ni  Ni1  1  0.50000000  0.50000000  -0.00000000  1
  Ni  Ni2  1  0.00000000  0.26353445  0.50000000  1
  Ni  Ni3  1  0.00000000  0.73646555  0.50000000  1
  Ni  Ni4  1  0.50000000  0.25267406  0.50000000  1
  Ni  Ni5  1  0.50000000  0.74732594  0.50000000  1
  Ni  Ni6  1  0.25227497  -0.00000000  0.50000000  1
  Ni  Ni7  1  0.24501865  0.50000000  0.50000000  1
  Ni  Ni8  1  0.74772503  -0.00000000  0.50000000  1
  Ni  Ni9  1  0.75498135  0.50000000  0.50000000  1
  Ni  Ni10  1  0.24790297  0.25797660  -0.00000000  1
  Ni  Ni11  1  0.24790297  0.74202340  0.00000000  1
  Ni  Ni12  1  0.75209703  0.25797660  -0.00000000  1
  Ni  Ni13  1  0.75209703  0.74202340  0.00000000  1
  Cu  Cu14  1  0.00000000  -0.00000000  -0.00000000  1
  C  C15  1  0.00000000  0.50000000  -0.00000000  1
  C  C16  1  0.25009857  -0.00000000  -0.00000000  1
  C  C17  1  0.25914856  0.50000000  0.00000000  1
  C  C18  1  0.74990143  -0.00000000  0.00000000  1
  C  C19  1  0.74085144  0.50000000  -0.00000000  1
  C  C20  1  0.24751970  0.25066524  0.50000000  1
  C  C21  1  0.24751970  0.74933476  0.50000000  1
  C  C22  1  0.75248030  0.25066524  0.50000000  1
  C  C23  1  0.75248030  0.74933476  0.50000000  1
  C  C24  1  0.00000000  -0.00000000  0.50000000  1
  C  C25  1  0.00000000  0.50000000  0.50000000  1
  C  C26  1  0.50000000  -0.00000000  0.50000000  1
  C  C27  1  0.50000000  0.50000000  0.50000000  1
  C  C28  1  0.00000000  0.21699376  -0.00000000  1
  C  C29  1  0.00000000  0.78300624  -0.00000000  1
  C  C30  1  0.50000000  0.24764976  0.00000000  1
  C  C31  1  0.50000000  0.75235024  -0.00000000  1
