# generated using pymatgen
data_Cu9NiC2
_symmetry_space_group_name_H-M   'P 1'
_cell_length_a   8.74316648
_cell_length_b   8.74318041
_cell_length_c   10.14186500
_cell_angle_alpha   90.00000000
_cell_angle_beta   90.00000000
_cell_angle_gamma   119.99996554
_symmetry_Int_Tables_number   1
_chemical_formula_structural   Cu9NiC2
_chemical_formula_sum   'Cu54 Ni6 C12'
_cell_volume   671.40843915
_cell_formula_units_Z   6
loop_
 _symmetry_equiv_pos_site_id
 _symmetry_equiv_pos_as_xyz
  1  'x, y, z'
loop_
 _atom_site_type_symbol
 _atom_site_label
 _atom_site_symmetry_multiplicity
 _atom_site_fract_x
 _atom_site_fract_y
 _atom_site_fract_z
 _atom_site_occupancy
  C  C0  1  0.33333700  0.66667200  0.27544700  1
  C  C1  1  0.66666300  0.33332800  0.77544700  1
  Ni  Ni2  1  0.96945600  0.31090100  0.31959500  1
  Ni  Ni3  1  0.68909900  0.65855500  0.31959500  1
  Ni  Ni4  1  0.34144500  0.03054400  0.31959500  1
  Ni  Ni5  1  0.03054400  0.68909900  0.81959500  1
  Ni  Ni6  1  0.31090100  0.34144500  0.81959500  1
  Ni  Ni7  1  0.65855500  0.96945600  0.81959500  1
  Cu  Cu8  1  0.05698500  0.71609300  0.11390700  1
  Cu  Cu9  1  0.28390800  0.34089300  0.11390800  1
  Cu  Cu10  1  0.65910800  0.94301500  0.11390800  1
  Cu  Cu11  1  0.94301500  0.28390700  0.61390700  1
  Cu  Cu12  1  0.71609200  0.65910700  0.61390800  1
  Cu  Cu13  1  0.34089200  0.05698500  0.61390800  1
  Cu  Cu14  1  0.94489700  0.55732300  0.22136500  1
  Cu  Cu15  1  0.44267700  0.38757300  0.22136500  1
  Cu  Cu16  1  0.61242600  0.05510400  0.22136500  1
  Cu  Cu17  1  0.05510300  0.44267700  0.72136500  1
  Cu  Cu18  1  0.55732300  0.61242700  0.72136500  1
  Cu  Cu19  1  0.38757400  0.94489600  0.72136500  1
  Cu  Cu20  1  0.03729900  0.76406800  0.26499200  1
  Cu  Cu21  1  0.23593200  0.27323000  0.26499300  1
  Cu  Cu22  1  0.72677100  0.96270300  0.26499200  1
  Cu  Cu23  1  0.96270100  0.23593200  0.76499200  1
  Cu  Cu24  1  0.76406800  0.72677000  0.76499300  1
  Cu  Cu25  1  0.27322900  0.03729700  0.76499200  1
  Cu  Cu26  1  0.22594300  0.56156000  0.99612800  1
  Cu  Cu27  1  0.43844100  0.66438300  0.99612700  1
  Cu  Cu28  1  0.33562000  0.77406000  0.99612700  1
  Cu  Cu29  1  0.77405700  0.43844000  0.49612800  1
  Cu  Cu30  1  0.56155900  0.33561700  0.49612700  1
  Cu  Cu31  1  0.66438000  0.22594000  0.49612700  1
  Cu  Cu32  1  0.44912600  0.76324600  0.57491600  1
  Cu  Cu33  1  0.23675500  0.68588000  0.57491400  1
  Cu  Cu34  1  0.31412300  0.55087500  0.57491500  1
  Cu  Cu35  1  0.55087400  0.23675400  0.07491600  1
  Cu  Cu36  1  0.76324500  0.31412000  0.07491400  1
  Cu  Cu37  1  0.68587700  0.44912500  0.07491500  1
  Cu  Cu38  1  0.96466000  0.17962800  0.36672000  1
  Cu  Cu39  1  0.82037200  0.78503200  0.36672000  1
  Cu  Cu40  1  0.21496800  0.03534000  0.36672000  1
  Cu  Cu41  1  0.03534000  0.82037200  0.86672000  1
  Cu  Cu42  1  0.17962800  0.21496800  0.86672000  1
  Cu  Cu43  1  0.78503200  0.96466000  0.86672000  1
  Cu  Cu44  1  0.08081800  0.44226000  0.38276600  1
  Cu  Cu45  1  0.55774000  0.63855800  0.38276600  1
  Cu  Cu46  1  0.36144200  0.91918200  0.38276600  1
  Cu  Cu47  1  0.91918200  0.55774000  0.88276600  1
  Cu  Cu48  1  0.44226000  0.36144200  0.88276600  1
  Cu  Cu49  1  0.63855800  0.08081800  0.88276600  1
  Cu  Cu50  1  0.01002000  0.32669600  0.20229100  1
  Cu  Cu51  1  0.67330300  0.68332400  0.20229100  1
  Cu  Cu52  1  0.31667600  0.98998000  0.20229100  1
  Cu  Cu53  1  0.98998000  0.67330400  0.70229100  1
  Cu  Cu54  1  0.32669700  0.31667600  0.70229100  1
  Cu  Cu55  1  0.68332400  0.01002000  0.70229100  1
  Cu  Cu56  1  0.82792500  0.30593100  0.32946000  1
  Cu  Cu57  1  0.69406900  0.52199500  0.32946000  1
  Cu  Cu58  1  0.47800600  0.17207500  0.32946000  1
  Cu  Cu59  1  0.17207500  0.69406900  0.82946000  1
  Cu  Cu60  1  0.30593100  0.47800500  0.82946000  1
  Cu  Cu61  1  0.52199400  0.82792500  0.82946000  1
  C  C62  1  0.05697800  0.67703800  0.20949900  1
  C  C63  1  0.32296200  0.37993900  0.20949900  1
  C  C64  1  0.62006200  0.94302300  0.20949900  1
  C  C65  1  0.94302200  0.32296200  0.70949900  1
  C  C66  1  0.67703800  0.62006100  0.70949900  1
  C  C67  1  0.37993800  0.05697700  0.70949900  1
  C  C68  1  0.33333900  0.66666800  0.03872700  1
  C  C69  1  0.66666100  0.33333200  0.53872700  1
  C  C70  1  0.33333800  0.66667000  0.53400800  1
  C  C71  1  0.66666200  0.33333000  0.03400800  1
