# generated using pymatgen
data_Cu2Ni6C
_symmetry_space_group_name_H-M   'P 1'
_cell_length_a   7.17704924
_cell_length_b   7.17704924
_cell_length_c   12.85802556
_cell_angle_alpha   69.41638578
_cell_angle_beta   69.41638578
_cell_angle_gamma   53.29680187
_symmetry_Int_Tables_number   1
_chemical_formula_structural   Cu2Ni6C
_chemical_formula_sum   'Cu4 Ni12 C2'
_cell_volume   488.20080702
_cell_formula_units_Z   2
loop_
 _symmetry_equiv_pos_site_id
 _symmetry_equiv_pos_as_xyz
  1  'x, y, z'
loop_
 _atom_site_type_symbol
 _atom_site_label
 _atom_site_symmetry_multiplicity
 _atom_site_fract_x
 _atom_site_fract_y
 _atom_site_fract_z
 _atom_site_occupancy
  C  C0  1  0.00000000  0.00000000  0.00000000  1
  C  C1  1  0.00000000  0.00000000  0.50000000  1
  Ni  Ni2  1  0.18653700  0.58215000  0.06716900  1
  Ni  Ni3  1  0.41785000  0.81346300  0.43283100  1
  Ni  Ni4  1  0.81346300  0.41785000  0.93283100  1
  Ni  Ni5  1  0.58215000  0.18653700  0.56716900  1
  Ni  Ni6  1  0.31625000  0.93676700  0.83875700  1
  Ni  Ni7  1  0.06323300  0.68375000  0.66124300  1
  Ni  Ni8  1  0.68375000  0.06323300  0.16124300  1
  Ni  Ni9  1  0.93676700  0.31625000  0.33875700  1
  Ni  Ni10  1  0.77927800  0.98362000  0.89562000  1
  Ni  Ni11  1  0.01638000  0.22072200  0.60438000  1
  Ni  Ni12  1  0.22072200  0.01638000  0.10438000  1
  Ni  Ni13  1  0.98362000  0.77927800  0.39562000  1
  Cu  Cu14  1  0.52616700  0.62987700  0.17875800  1
  Cu  Cu15  1  0.37012300  0.47383300  0.32124200  1
  Cu  Cu16  1  0.47383300  0.37012300  0.82124200  1
  Cu  Cu17  1  0.62987700  0.52616700  0.67875800  1
