# generated using pymatgen
data_Cu(NiC2)4
_symmetry_space_group_name_H-M   'P 1'
_cell_length_a   6.09851333
_cell_length_b   6.09851333
_cell_length_c   6.09851329
_cell_angle_alpha   58.27110178
_cell_angle_beta   58.27110178
_cell_angle_gamma   58.27111062
_symmetry_Int_Tables_number   1
_chemical_formula_structural   Cu(NiC2)4
_chemical_formula_sum   'Cu1 Ni4 C8'
_cell_volume   154.03128220
_cell_formula_units_Z   1
loop_
 _symmetry_equiv_pos_site_id
 _symmetry_equiv_pos_as_xyz
  1  'x, y, z'
loop_
 _atom_site_type_symbol
 _atom_site_label
 _atom_site_symmetry_multiplicity
 _atom_site_fract_x
 _atom_site_fract_y
 _atom_site_fract_z
 _atom_site_occupancy
  Ni  Ni0  1  0.00000000  0.50000000  0.50000000  1
  Ni  Ni1  1  0.50000000  0.00000000  0.50000000  1
  Ni  Ni2  1  0.50000000  0.50000000  0.00000000  1
  Ni  Ni3  1  0.00000000  0.00000000  0.00000000  1
  Cu  Cu4  1  0.50000000  0.50000000  0.50000000  1
  C  C5  1  0.27341200  0.75674300  0.75674300  1
  C  C6  1  0.24325700  0.24325700  0.72658800  1
  C  C7  1  0.72658800  0.24325700  0.24325700  1
  C  C8  1  0.24325700  0.72658800  0.24325700  1
  C  C9  1  0.26864000  0.26864000  0.26864000  1
  C  C10  1  0.73136000  0.73136000  0.73136000  1
  C  C11  1  0.75674300  0.27341200  0.75674300  1
  C  C12  1  0.75674300  0.75674300  0.27341200  1
