# generated using pymatgen
data_Cu4(Ni2C)3
_symmetry_space_group_name_H-M   'P 1'
_cell_length_a   11.17322800
_cell_length_b   9.38986900
_cell_length_c   10.89292763
_cell_angle_alpha   86.33887074
_cell_angle_beta   90.00000000
_cell_angle_gamma   90.00000000
_symmetry_Int_Tables_number   1
_chemical_formula_structural   Cu4(Ni2C)3
_chemical_formula_sum   'Cu16 Ni24 C12'
_cell_volume   1140.50077622
_cell_formula_units_Z   4
loop_
 _symmetry_equiv_pos_site_id
 _symmetry_equiv_pos_as_xyz
  1  'x, y, z'
loop_
 _atom_site_type_symbol
 _atom_site_label
 _atom_site_symmetry_multiplicity
 _atom_site_fract_x
 _atom_site_fract_y
 _atom_site_fract_z
 _atom_site_occupancy
  Ni  Ni0  1  0.35447800  0.61610400  0.91091100  1
  Ni  Ni1  1  0.85447800  0.38389600  0.58908900  1
  Ni  Ni2  1  0.64552200  0.38389600  0.08908900  1
  Ni  Ni3  1  0.14552200  0.61610400  0.41091100  1
  Ni  Ni4  1  0.41815500  0.84361000  0.90193500  1
  Ni  Ni5  1  0.91815500  0.15639000  0.59806500  1
  Ni  Ni6  1  0.58184500  0.15639000  0.09806500  1
  Ni  Ni7  1  0.08184500  0.84361000  0.40193500  1
  Ni  Ni8  1  0.35231200  0.86903500  0.11141500  1
  Ni  Ni9  1  0.85231200  0.13096500  0.38858500  1
  Ni  Ni10  1  0.64768800  0.13096500  0.88858500  1
  Ni  Ni11  1  0.14768800  0.86903500  0.61141500  1
  Ni  Ni12  1  0.21457300  0.79465100  0.96334600  1
  Ni  Ni13  1  0.71457300  0.20534900  0.53665400  1
  Ni  Ni14  1  0.78542700  0.20534900  0.03665400  1
  Ni  Ni15  1  0.28542700  0.79465100  0.46334600  1
  Ni  Ni16  1  0.28733700  0.63039100  0.11647500  1
  Ni  Ni17  1  0.78733700  0.36960900  0.38352500  1
  Ni  Ni18  1  0.71266300  0.36960900  0.88352500  1
  Ni  Ni19  1  0.21266300  0.63039100  0.61647500  1
  Ni  Ni20  1  0.48290800  0.69129500  0.06410300  1
  Ni  Ni21  1  0.98290800  0.30870500  0.43589700  1
  Ni  Ni22  1  0.51709200  0.30870500  0.93589700  1
  Ni  Ni23  1  0.01709200  0.69129500  0.56410300  1
  C  C24  1  0.06628900  0.10576300  0.13620000  1
  C  C25  1  0.56628900  0.89423700  0.36380000  1
  C  C26  1  0.93371100  0.89423700  0.86380000  1
  C  C27  1  0.43371100  0.10576300  0.63620000  1
  C  C28  1  0.26143100  0.24298500  0.25310400  1
  C  C29  1  0.76143100  0.75701500  0.24689600  1
  C  C30  1  0.73856900  0.75701500  0.74689600  1
  C  C31  1  0.23856900  0.24298500  0.75310400  1
  C  C32  1  0.44609600  0.40667200  0.36627000  1
  C  C33  1  0.94609600  0.59332800  0.13373000  1
  C  C34  1  0.55390400  0.59332800  0.63373000  1
  C  C35  1  0.05390400  0.40667200  0.86627000  1
  Cu  Cu36  1  0.38503000  0.59871100  0.03905700  1
  Cu  Cu37  1  0.88503000  0.40128900  0.46094300  1
  Cu  Cu38  1  0.61497000  0.40128900  0.96094300  1
  Cu  Cu39  1  0.11497000  0.59871100  0.53905700  1
  Cu  Cu40  1  0.31551500  0.75876600  0.88918000  1
  Cu  Cu41  1  0.81551500  0.24123400  0.61082000  1
  Cu  Cu42  1  0.68448500  0.24123400  0.11082000  1
  Cu  Cu43  1  0.18448500  0.75876600  0.38918000  1
  Cu  Cu44  1  0.44702300  0.83374300  0.03055500  1
  Cu  Cu45  1  0.94702300  0.16625700  0.46944500  1
  Cu  Cu46  1  0.55297700  0.16625700  0.96944500  1
  Cu  Cu47  1  0.05297700  0.83374300  0.53055500  1
  Cu  Cu48  1  0.25725600  0.77577700  0.08437500  1
  Cu  Cu49  1  0.75725600  0.22422300  0.41562500  1
  Cu  Cu50  1  0.74274400  0.22422300  0.91562500  1
  Cu  Cu51  1  0.24274400  0.77577700  0.58437500  1
