# generated using pymatgen
data_Cu2NiC22
_symmetry_space_group_name_H-M   'P 1'
_cell_length_a   8.07712021
_cell_length_b   8.07712092
_cell_length_c   7.66489573
_cell_angle_alpha   61.96251200
_cell_angle_beta   61.96251160
_cell_angle_gamma   88.85131497
_symmetry_Int_Tables_number   1
_chemical_formula_structural   Cu2NiC22
_chemical_formula_sum   'Cu2 Ni1 C22'
_cell_volume   376.39511789
_cell_formula_units_Z   1
loop_
 _symmetry_equiv_pos_site_id
 _symmetry_equiv_pos_as_xyz
  1  'x, y, z'
loop_
 _atom_site_type_symbol
 _atom_site_label
 _atom_site_symmetry_multiplicity
 _atom_site_fract_x
 _atom_site_fract_y
 _atom_site_fract_z
 _atom_site_occupancy
  C  C0  1  0.92662700  0.07337300  0.75000000  1
  C  C1  1  0.19835500  0.80164400  0.25000000  1
  Ni  Ni2  1  0.66875300  0.33124700  0.75000000  1
  Cu  Cu3  1  0.21998400  0.78001600  0.75000000  1
  Cu  Cu4  1  0.76579800  0.23420200  0.25000000  1
  C  C5  1  0.67744000  0.71054200  0.80543600  1
  C  C6  1  0.67652000  0.70638900  0.30192200  1
  C  C7  1  0.29361100  0.32348000  0.19807800  1
  C  C8  1  0.28945800  0.32256000  0.69456400  1
  C  C9  1  0.60512000  0.40312900  0.46224600  1
  C  C10  1  0.27787200  0.06731500  0.76205400  1
  C  C11  1  0.02828300  0.32781900  0.87637100  1
  C  C12  1  0.28382000  0.06804500  0.39054000  1
  C  C13  1  0.73127500  0.65106200  0.55213200  1
  C  C14  1  0.34893800  0.26872500  0.94786800  1
  C  C15  1  0.67218100  0.97171700  0.62362900  1
  C  C16  1  0.38391900  0.62178300  0.54742400  1
  C  C17  1  0.03707300  0.30845900  0.27356300  1
  C  C18  1  0.69154100  0.96292700  0.22643700  1
  C  C19  1  0.37821700  0.61608100  0.95257600  1
  C  C20  1  0.93195500  0.71618000  0.10946000  1
  C  C21  1  0.25605500  0.38901900  0.42092200  1
  C  C22  1  0.61098100  0.74394500  0.07907800  1
  C  C23  1  0.93268500  0.72212800  0.73794600  1
  C  C24  1  0.59687100  0.39488000  0.03775400  1
