# generated using pymatgen
data_Cu(Ni3C2)4
_symmetry_space_group_name_H-M   'P 1'
_cell_length_a   10.51615132
_cell_length_b   10.51615132
_cell_length_c   7.78055500
_cell_angle_alpha   90.00000000
_cell_angle_beta   90.00000000
_cell_angle_gamma   119.99999574
_symmetry_Int_Tables_number   1
_chemical_formula_structural   Cu(Ni3C2)4
_chemical_formula_sum   'Cu2 Ni24 C16'
_cell_volume   745.16917428
_cell_formula_units_Z   2
loop_
 _symmetry_equiv_pos_site_id
 _symmetry_equiv_pos_as_xyz
  1  'x, y, z'
loop_
 _atom_site_type_symbol
 _atom_site_label
 _atom_site_symmetry_multiplicity
 _atom_site_fract_x
 _atom_site_fract_y
 _atom_site_fract_z
 _atom_site_occupancy
  C  C0  1  0.66666700  0.33333300  0.50120500  1
  C  C1  1  0.33333300  0.66666700  0.00120500  1
  C  C2  1  0.33333300  0.66666700  0.49879500  1
  C  C3  1  0.66666700  0.33333300  0.99879500  1
  C  C4  1  0.23250500  0.99042500  0.75000000  1
  C  C5  1  0.00957500  0.24207900  0.75000000  1
  C  C6  1  0.75792100  0.76749500  0.75000000  1
  C  C7  1  0.76749500  0.00957500  0.25000000  1
  C  C8  1  0.99042500  0.75792100  0.25000000  1
  C  C9  1  0.24207900  0.23250500  0.25000000  1
  C  C10  1  0.96830800  0.59614600  0.75000000  1
  C  C11  1  0.40385400  0.37216300  0.75000000  1
  C  C12  1  0.62783700  0.03169200  0.75000000  1
  C  C13  1  0.03169200  0.40385400  0.25000000  1
  C  C14  1  0.59614600  0.62783700  0.25000000  1
  C  C15  1  0.37216300  0.96830800  0.25000000  1
  Ni  Ni16  1  0.15629100  0.67854600  0.75000000  1
  Ni  Ni17  1  0.32145400  0.47774500  0.75000000  1
  Ni  Ni18  1  0.52225500  0.84370900  0.75000000  1
  Ni  Ni19  1  0.84370900  0.32145400  0.25000000  1
  Ni  Ni20  1  0.67854600  0.52225500  0.25000000  1
  Ni  Ni21  1  0.47774500  0.15629100  0.25000000  1
  Ni  Ni22  1  0.88091600  0.40748700  0.75000000  1
  Ni  Ni23  1  0.59251300  0.47342900  0.75000000  1
  Ni  Ni24  1  0.52657100  0.11908400  0.75000000  1
  Ni  Ni25  1  0.11908400  0.59251300  0.25000000  1
  Ni  Ni26  1  0.40748700  0.52657100  0.25000000  1
  Ni  Ni27  1  0.47342900  0.88091600  0.25000000  1
  Ni  Ni28  1  0.90612800  0.64865700  0.57496100  1
  Ni  Ni29  1  0.35134300  0.25747100  0.57496100  1
  Ni  Ni30  1  0.74252900  0.09387200  0.57496100  1
  Ni  Ni31  1  0.09387200  0.35134300  0.07496100  1
  Ni  Ni32  1  0.64865700  0.74252900  0.07496100  1
  Ni  Ni33  1  0.25747100  0.90612800  0.07496100  1
  Ni  Ni34  1  0.09387200  0.35134300  0.42503900  1
  Ni  Ni35  1  0.64865700  0.74252900  0.42503900  1
  Ni  Ni36  1  0.25747100  0.90612800  0.42503900  1
  Ni  Ni37  1  0.90612800  0.64865700  0.92503900  1
  Ni  Ni38  1  0.35134300  0.25747100  0.92503900  1
  Ni  Ni39  1  0.74252900  0.09387200  0.92503900  1
  Cu  Cu40  1  0.00000000  0.00000000  0.50000000  1
  Cu  Cu41  1  0.00000000  0.00000000  0.00000000  1
