# generated using pymatgen
data_CuNiC14
_symmetry_space_group_name_H-M   'P 1'
_cell_length_a   5.29831500
_cell_length_b   8.47419000
_cell_length_c   17.08338491
_cell_angle_alpha   62.51760833
_cell_angle_beta   90.00000000
_cell_angle_gamma   90.00000000
_symmetry_Int_Tables_number   1
_chemical_formula_structural   CuNiC14
_chemical_formula_sum   'Cu4 Ni4 C56'
_cell_volume   680.46889097
_cell_formula_units_Z   4
loop_
 _symmetry_equiv_pos_site_id
 _symmetry_equiv_pos_as_xyz
  1  'x, y, z'
loop_
 _atom_site_type_symbol
 _atom_site_label
 _atom_site_symmetry_multiplicity
 _atom_site_fract_x
 _atom_site_fract_y
 _atom_site_fract_z
 _atom_site_occupancy
  C  C0  1  0.35371800  0.60256600  0.70423500  1
  C  C1  1  0.14628200  0.60256600  0.20423500  1
  C  C2  1  0.64628200  0.39743400  0.29576500  1
  C  C3  1  0.85371800  0.39743400  0.79576500  1
  C  C4  1  0.84511400  0.21331800  0.68437800  1
  C  C5  1  0.65488600  0.21331800  0.18437800  1
  C  C6  1  0.15488600  0.78668200  0.31562200  1
  C  C7  1  0.34511400  0.78668200  0.81562200  1
  C  C8  1  0.85953400  0.01045700  0.67972100  1
  C  C9  1  0.64046600  0.01045700  0.17972100  1
  C  C10  1  0.14046600  0.98954300  0.32027900  1
  C  C11  1  0.35953400  0.98954300  0.82027900  1
  C  C12  1  0.49605000  0.40002500  0.62486200  1
  C  C13  1  0.00395000  0.40002500  0.12486200  1
  C  C14  1  0.50395000  0.59997500  0.37513800  1
  C  C15  1  0.99605000  0.59997500  0.87513800  1
  C  C16  1  0.28954000  0.35470700  0.55717600  1
  C  C17  1  0.21046000  0.35470700  0.05717600  1
  C  C18  1  0.71046000  0.64529300  0.44282400  1
  C  C19  1  0.78954000  0.64529300  0.94282400  1
  C  C20  1  0.56187800  0.94144800  0.60352700  1
  C  C21  1  0.93812200  0.94144800  0.10352700  1
  C  C22  1  0.43812200  0.05855200  0.39647300  1
  C  C23  1  0.06187800  0.05855200  0.89647300  1
  C  C24  1  0.30553400  0.08959900  0.55355500  1
  C  C25  1  0.19446600  0.08959900  0.05355500  1
  C  C26  1  0.69446600  0.91040100  0.44644500  1
  C  C27  1  0.80553400  0.91040100  0.94644500  1
  Ni  Ni28  1  0.55476400  0.16409300  0.62094400  1
  Ni  Ni29  1  0.94523600  0.16409300  0.12094400  1
  Ni  Ni30  1  0.44523600  0.83590700  0.37905600  1
  Ni  Ni31  1  0.05476400  0.83590700  0.87905600  1
  Cu  Cu32  1  0.98774400  0.64959000  0.62547700  1
  Cu  Cu33  1  0.51225600  0.64959000  0.12547700  1
  Cu  Cu34  1  0.01225600  0.35041000  0.37452300  1
  Cu  Cu35  1  0.48774400  0.35041000  0.87452300  1
  C  C36  1  0.75796100  0.11715700  0.67401900  1
  C  C37  1  0.74203900  0.11715700  0.17401900  1
  C  C38  1  0.24203900  0.88284300  0.32598100  1
  C  C39  1  0.25796100  0.88284300  0.82598100  1
  C  C40  1  0.43526500  0.31679600  0.60097300  1
  C  C41  1  0.06473500  0.31679600  0.10097300  1
  C  C42  1  0.56473500  0.68320400  0.39902700  1
  C  C43  1  0.93526500  0.68320400  0.89902700  1
  C  C44  1  0.46481700  0.05461100  0.59111200  1
  C  C45  1  0.03518300  0.05461100  0.09111200  1
  C  C46  1  0.53518300  0.94538900  0.40888800  1
  C  C47  1  0.96481700  0.94538900  0.90888800  1
  C  C48  1  0.95147200  0.69976200  0.52090000  1
  C  C49  1  0.54852800  0.69976200  0.02090000  1
  C  C50  1  0.04852800  0.30023800  0.47910000  1
  C  C51  1  0.45147200  0.30023800  0.97910000  1
  C  C52  1  0.88086200  0.80075200  0.65260400  1
  C  C53  1  0.61913800  0.80075200  0.15260400  1
  C  C54  1  0.11913800  0.19924800  0.34739600  1
  C  C55  1  0.38086200  0.19924800  0.84739600  1
  C  C56  1  0.88238200  0.44459600  0.69387100  1
  C  C57  1  0.61761800  0.44459600  0.19387100  1
  C  C58  1  0.11761800  0.55540400  0.30612900  1
  C  C59  1  0.38238200  0.55540400  0.80612900  1
  C  C60  1  0.32108400  0.64072300  0.63858400  1
  C  C61  1  0.17891600  0.64072300  0.13858400  1
  C  C62  1  0.67891600  0.35927700  0.36141600  1
  C  C63  1  0.82108400  0.35927700  0.86141600  1
