# generated using pymatgen
data_CuNi3C17
_symmetry_space_group_name_H-M   'P 1'
_cell_length_a   7.65076421
_cell_length_b   7.65076421
_cell_length_c   7.65076433
_cell_angle_alpha   59.43496534
_cell_angle_beta   59.43496534
_cell_angle_gamma   59.43496405
_symmetry_Int_Tables_number   1
_chemical_formula_structural   CuNi3C17
_chemical_formula_sum   'Cu1 Ni3 C17'
_cell_volume   312.59368781
_cell_formula_units_Z   1
loop_
 _symmetry_equiv_pos_site_id
 _symmetry_equiv_pos_as_xyz
  1  'x, y, z'
loop_
 _atom_site_type_symbol
 _atom_site_label
 _atom_site_symmetry_multiplicity
 _atom_site_fract_x
 _atom_site_fract_y
 _atom_site_fract_z
 _atom_site_occupancy
  Ni  Ni0  1  0.00031800  0.50000200  0.50000200  1
  Ni  Ni1  1  0.50000200  0.00031800  0.50000200  1
  Ni  Ni2  1  0.50000200  0.50000200  0.00031800  1
  Cu  Cu3  1  0.49959500  0.49959500  0.49959500  1
  C  C4  1  0.50095000  0.99902200  0.99902200  1
  C  C5  1  0.99902200  0.50095000  0.99902200  1
  C  C6  1  0.99902200  0.99902200  0.50095000  1
  C  C7  1  0.99965500  0.99965500  0.99965500  1
  C  C8  1  0.82978100  0.82978100  0.42550000  1
  C  C9  1  0.42963100  0.42963100  0.80807700  1
  C  C10  1  0.82978100  0.42550000  0.82978100  1
  C  C11  1  0.42963100  0.80807700  0.42963100  1
  C  C12  1  0.42550000  0.82978100  0.82978100  1
  C  C13  1  0.80807700  0.42963100  0.42963100  1
  C  C14  1  0.17237100  0.17237100  0.57222000  1
  C  C15  1  0.56838300  0.56838300  0.19336900  1
  C  C16  1  0.17237100  0.57222000  0.17237100  1
  C  C17  1  0.56838300  0.19336900  0.56838300  1
  C  C18  1  0.57222000  0.17237100  0.17237100  1
  C  C19  1  0.19336900  0.56838300  0.56838300  1
  C  C20  1  0.12693700  0.12693700  0.12693700  1
