# generated using pymatgen
data_Cu10NiC3
_symmetry_space_group_name_H-M   'P 1'
_cell_length_a   8.11103300
_cell_length_b   13.79469500
_cell_length_c   15.15904363
_cell_angle_alpha   81.77914267
_cell_angle_beta   90.00000000
_cell_angle_gamma   90.00000000
_symmetry_Int_Tables_number   1
_chemical_formula_structural   Cu10NiC3
_chemical_formula_sum   'Cu40 Ni4 C12'
_cell_volume   1678.70460899
_cell_formula_units_Z   4
loop_
 _symmetry_equiv_pos_site_id
 _symmetry_equiv_pos_as_xyz
  1  'x, y, z'
loop_
 _atom_site_type_symbol
 _atom_site_label
 _atom_site_symmetry_multiplicity
 _atom_site_fract_x
 _atom_site_fract_y
 _atom_site_fract_z
 _atom_site_occupancy
  C  C0  1  0.50625200  0.45042800  0.40703000  1
  C  C1  1  0.49374800  0.95042800  0.40703000  1
  C  C2  1  0.52793500  0.20635900  0.90914900  1
  C  C3  1  0.47206500  0.70635900  0.90914900  1
  C  C4  1  0.06673300  0.05857300  0.13495700  1
  C  C5  1  0.93326700  0.55857300  0.13495700  1
  C  C6  1  0.05918400  0.81810400  0.63210100  1
  C  C7  1  0.94081600  0.31810400  0.63210100  1
  C  C8  1  0.06267700  0.11244300  0.62770000  1
  C  C9  1  0.93732300  0.61244300  0.62770000  1
  C  C10  1  0.05556200  0.35287900  0.13116800  1
  C  C11  1  0.94443800  0.85287900  0.13116800  1
  Ni  Ni12  1  0.59349000  0.45720600  0.70261700  1
  Ni  Ni13  1  0.40651000  0.95720600  0.70261700  1
  Ni  Ni14  1  0.40620200  0.20302500  0.20448900  1
  Ni  Ni15  1  0.59379800  0.70302500  0.20448900  1
  Cu  Cu16  1  0.15316300  0.22864800  0.74900200  1
  Cu  Cu17  1  0.84683700  0.72864800  0.74900200  1
  Cu  Cu18  1  0.14212200  0.46916900  0.25230100  1
  Cu  Cu19  1  0.85787800  0.96916900  0.25230100  1
  Cu  Cu20  1  0.15772100  0.95011900  0.01286100  1
  Cu  Cu21  1  0.84227900  0.45011900  0.01286100  1
  Cu  Cu22  1  0.39666300  0.09482700  0.60413900  1
  Cu  Cu23  1  0.60333700  0.59482700  0.60413900  1
  Cu  Cu24  1  0.39173300  0.34152600  0.10730200  1
  Cu  Cu25  1  0.60826700  0.84152600  0.10730200  1
  Cu  Cu26  1  0.05997000  0.98519500  0.50642100  1
  Cu  Cu27  1  0.94003000  0.48519500  0.50642100  1
  Cu  Cu28  1  0.06069200  0.22614500  0.00944200  1
  Cu  Cu29  1  0.93930800  0.72614500  0.00944200  1
  Cu  Cu30  1  0.14058300  0.71249600  0.50578500  1
  Cu  Cu31  1  0.85941700  0.21249600  0.50578500  1
  Cu  Cu32  1  0.16300500  0.46938100  0.60837300  1
  Cu  Cu33  1  0.83699500  0.96938100  0.60837300  1
  Cu  Cu34  1  0.16212400  0.70614700  0.11169200  1
  Cu  Cu35  1  0.83787600  0.20614700  0.11169200  1
  Cu  Cu36  1  0.13499600  0.26124800  0.50400200  1
  Cu  Cu37  1  0.86500400  0.76124800  0.50400200  1
  Cu  Cu38  1  0.11781400  0.49920300  0.00353500  1
  Cu  Cu39  1  0.88218600  0.99920300  0.00353500  1
  Cu  Cu40  1  0.59489300  0.32062700  0.63855500  1
  Cu  Cu41  1  0.40510700  0.82062700  0.63855500  1
  Cu  Cu42  1  0.40989700  0.06769400  0.13889400  1
  Cu  Cu43  1  0.59010300  0.56769400  0.13889400  1
  Cu  Cu44  1  0.14311300  0.19036800  0.25585200  1
  Cu  Cu45  1  0.85688700  0.69036800  0.25585200  1
  Cu  Cu46  1  0.14191900  0.94903200  0.75266100  1
  Cu  Cu47  1  0.85808100  0.44903200  0.75266100  1
  Cu  Cu48  1  0.11537200  0.66335100  0.75903400  1
  Cu  Cu49  1  0.88462800  0.16335100  0.75903400  1
  Cu  Cu50  1  0.12564000  0.90213200  0.26248700  1
  Cu  Cu51  1  0.87436000  0.40213200  0.26248700  1
  Cu  Cu52  1  0.39793500  0.45848800  0.80047000  1
  Cu  Cu53  1  0.60206500  0.95848700  0.80047000  1
  Cu  Cu54  1  0.60230800  0.20553600  0.30209900  1
  Cu  Cu55  1  0.39769200  0.70553600  0.30209900  1
