# generated using pymatgen
data_Cu3NiC32
_symmetry_space_group_name_H-M   'P 1'
_cell_length_a   8.65819094
_cell_length_b   8.65819094
_cell_length_c   8.65819094
_cell_angle_alpha   98.25477739
_cell_angle_beta   98.25477739
_cell_angle_gamma   135.46725197
_symmetry_Int_Tables_number   1
_chemical_formula_structural   Cu3NiC32
_chemical_formula_sum   'Cu3 Ni1 C32'
_cell_volume   421.25043580
_cell_formula_units_Z   1
loop_
 _symmetry_equiv_pos_site_id
 _symmetry_equiv_pos_as_xyz
  1  'x, y, z'
loop_
 _atom_site_type_symbol
 _atom_site_label
 _atom_site_symmetry_multiplicity
 _atom_site_fract_x
 _atom_site_fract_y
 _atom_site_fract_z
 _atom_site_occupancy
  Ni  Ni0  1  0.00000000  0.00000000  0.00000000  1
  Cu  Cu1  1  0.25000000  0.75000000  0.50000000  1
  Cu  Cu2  1  0.75000000  0.25000000  0.50000000  1
  Cu  Cu3  1  0.50000000  0.50000000  0.00000000  1
  C  C4  1  0.28446600  0.07748800  0.36195400  1
  C  C5  1  0.92251200  0.28446600  0.20697800  1
  C  C6  1  0.07748800  0.71553400  0.79302200  1
  C  C7  1  0.71553400  0.92251200  0.63804600  1
  C  C8  1  0.97783900  0.64248600  0.13138600  1
  C  C9  1  0.84645400  0.97783900  0.33535300  1
  C  C10  1  0.64248600  0.51110100  0.66464700  1
  C  C11  1  0.51110100  0.84645400  0.86861400  1
  C  C12  1  0.35751400  0.48889900  0.33535300  1
  C  C13  1  0.48889900  0.15354600  0.13138600  1
  C  C14  1  0.02216100  0.35751400  0.86861400  1
  C  C15  1  0.15354600  0.02216100  0.66464700  1
  C  C16  1  0.78113200  0.58044000  0.36157200  1
  C  C17  1  0.41956000  0.78113200  0.20069300  1
  C  C18  1  0.58044000  0.21886800  0.79930700  1
  C  C19  1  0.21886800  0.41956000  0.63842800  1
  C  C20  1  0.56766100  0.83852600  0.40618700  1
  C  C21  1  0.90183800  0.67991500  0.58175300  1
  C  C22  1  0.67991500  0.09816200  0.77807700  1
  C  C23  1  0.09816200  0.32008500  0.41824700  1
  C  C24  1  0.18700500  0.46850700  0.10583600  1
  C  C25  1  0.08116900  0.18700500  0.71849800  1
  C  C26  1  0.46850700  0.36267100  0.28150200  1
  C  C27  1  0.36267100  0.08116900  0.89416400  1
  C  C28  1  0.81299500  0.53149300  0.89416400  1
  C  C29  1  0.91883100  0.81299500  0.28150200  1
  C  C30  1  0.53149300  0.63732900  0.71849800  1
  C  C31  1  0.63732900  0.91883100  0.10583600  1
  C  C32  1  0.83852600  0.43233900  0.27086500  1
  C  C33  1  0.43233900  0.16147400  0.59381300  1
  C  C34  1  0.32008500  0.90183800  0.22192300  1
  C  C35  1  0.16147400  0.56766100  0.72913500  1
