# generated using pymatgen
data_CuNiC8
_symmetry_space_group_name_H-M   'P 1'
_cell_length_a   8.58862246
_cell_length_b   8.55031220
_cell_length_c   8.56664513
_cell_angle_alpha   90.00000000
_cell_angle_beta   90.00000000
_cell_angle_gamma   90.00000000
_symmetry_Int_Tables_number   1
_chemical_formula_structural   CuNiC8
_chemical_formula_sum   'Cu4 Ni4 C32'
_cell_volume   629.09504091
_cell_formula_units_Z   4
loop_
 _symmetry_equiv_pos_site_id
 _symmetry_equiv_pos_as_xyz
  1  'x, y, z'
loop_
 _atom_site_type_symbol
 _atom_site_label
 _atom_site_symmetry_multiplicity
 _atom_site_fract_x
 _atom_site_fract_y
 _atom_site_fract_z
 _atom_site_occupancy
  C  C0  1  -0.00000000  0.00000000  0.00000000  1
  C  C1  1  0.50000000  0.50000000  0.50000000  1
  C  C2  1  0.50000000  0.00000000  0.50000000  1
  C  C3  1  -0.00000000  0.50000000  0.00000000  1
  Ni  Ni4  1  0.25000000  0.25000000  0.25000000  1
  Ni  Ni5  1  0.75000000  0.75000000  0.25000000  1
  Ni  Ni6  1  0.75000000  0.25000000  0.75000000  1
  Ni  Ni7  1  0.25000000  0.75000000  0.75000000  1
  Cu  Cu8  1  -0.00000000  0.50000000  0.50000000  1
  Cu  Cu9  1  0.50000000  0.50000000  0.00000000  1
  Cu  Cu10  1  0.50000000  0.00000000  0.00000000  1
  Cu  Cu11  1  -0.00000000  0.00000000  0.50000000  1
  C  C12  1  0.75000000  0.75000000  0.75000000  1
  C  C13  1  0.25000000  0.25000000  0.75000000  1
  C  C14  1  0.25000000  0.75000000  0.25000000  1
  C  C15  1  0.75000000  0.25000000  0.25000000  1
  C  C16  1  0.98941192  0.18658849  0.29238416  1
  C  C17  1  0.01058808  0.81341151  0.29238416  1
  C  C18  1  0.01058808  0.18658849  0.70761584  1
  C  C19  1  0.98941192  0.81341151  0.70761584  1
  C  C20  1  0.30918852  0.98926932  0.19946948  1
  C  C21  1  0.30918852  0.01073068  0.80053052  1
  C  C22  1  0.69081148  0.01073068  0.19946948  1
  C  C23  1  0.69081148  0.98926932  0.80053052  1
  C  C24  1  0.21720024  0.28429831  0.99139959  1
  C  C25  1  0.78279976  0.28429831  0.00860041  1
  C  C26  1  0.21720024  0.71570169  0.00860041  1
  C  C27  1  0.78279976  0.71570169  0.99139959  1
  C  C28  1  0.51058808  0.31341151  0.20761584  1
  C  C29  1  0.48941192  0.68658849  0.20761584  1
  C  C30  1  0.48941192  0.31341151  0.79238416  1
  C  C31  1  0.51058808  0.68658849  0.79238416  1
  C  C32  1  0.19081148  0.51073068  0.30053052  1
  C  C33  1  0.19081148  0.48926932  0.69946948  1
  C  C34  1  0.80918852  0.48926932  0.30053052  1
  C  C35  1  0.80918852  0.51073068  0.69946948  1
  C  C36  1  0.28279976  0.21570169  0.50860041  1
  C  C37  1  0.71720024  0.21570169  0.49139959  1
  C  C38  1  0.28279976  0.78429831  0.49139959  1
  C  C39  1  0.71720024  0.78429831  0.50860041  1
