# generated using pymatgen
data_Cu9NiC5
_symmetry_space_group_name_H-M   'P 1'
_cell_length_a   10.22667985
_cell_length_b   10.22667985
_cell_length_c   13.92757400
_cell_angle_alpha   90.00000000
_cell_angle_beta   90.00000000
_cell_angle_gamma   90.69151314
_symmetry_Int_Tables_number   1
_chemical_formula_structural   Cu9NiC5
_chemical_formula_sum   'Cu36 Ni4 C20'
_cell_volume   1456.50897028
_cell_formula_units_Z   4
loop_
 _symmetry_equiv_pos_site_id
 _symmetry_equiv_pos_as_xyz
  1  'x, y, z'
loop_
 _atom_site_type_symbol
 _atom_site_label
 _atom_site_symmetry_multiplicity
 _atom_site_fract_x
 _atom_site_fract_y
 _atom_site_fract_z
 _atom_site_occupancy
  C  C0  1  0.08995100  0.12723300  0.18506500  1
  C  C1  1  0.87276700  0.91004900  0.81493500  1
  C  C2  1  0.58995100  0.62723300  0.31493500  1
  C  C3  1  0.37276700  0.41004900  0.68506500  1
  C  C4  1  0.32267400  0.33347100  0.39893300  1
  C  C5  1  0.66652900  0.67732600  0.60106700  1
  C  C6  1  0.82267400  0.83347100  0.10106700  1
  C  C7  1  0.16652900  0.17732600  0.89893300  1
  C  C8  1  0.04341900  0.62472000  0.32064400  1
  C  C9  1  0.37528000  0.95658100  0.67935600  1
  C  C10  1  0.54341900  0.12472000  0.17935600  1
  C  C11  1  0.87528000  0.45658100  0.82064400  1
  C  C12  1  0.32315700  0.45115000  0.10406300  1
  C  C13  1  0.54885000  0.67684300  0.89593700  1
  C  C14  1  0.82315700  0.95115000  0.39593700  1
  C  C15  1  0.04885000  0.17684300  0.60406300  1
  C  C16  1  0.82427800  0.38343800  0.09325800  1
  C  C17  1  0.61656200  0.17572200  0.90674200  1
  C  C18  1  0.32427800  0.88343800  0.40674200  1
  C  C19  1  0.11656200  0.67572200  0.59325800  1
  Ni  Ni20  1  0.82904900  0.32381100  0.38617300  1
  Ni  Ni21  1  0.67618900  0.17095100  0.61382700  1
  Ni  Ni22  1  0.32904900  0.82381100  0.11382700  1
  Ni  Ni23  1  0.17618900  0.67095100  0.88617300  1
  Cu  Cu24  1  0.01091900  0.16619100  0.39954900  1
  Cu  Cu25  1  0.83380900  0.98908100  0.60045100  1
  Cu  Cu26  1  0.51091900  0.66619100  0.10045100  1
  Cu  Cu27  1  0.33380900  0.48908100  0.89954900  1
  Cu  Cu28  1  0.14610100  0.66890000  0.07897800  1
  Cu  Cu29  1  0.33110000  0.85389900  0.92102200  1
  Cu  Cu30  1  0.64610100  0.16890000  0.42102200  1
  Cu  Cu31  1  0.83110000  0.35389900  0.57897800  1
  Cu  Cu32  1  0.81729000  0.20909800  0.20088600  1
  Cu  Cu33  1  0.79090200  0.18271000  0.79911400  1
  Cu  Cu34  1  0.31729000  0.70909800  0.29911400  1
  Cu  Cu35  1  0.29090200  0.68271000  0.70088600  1
  Cu  Cu36  1  0.82067800  0.56914600  0.18946100  1
  Cu  Cu37  1  0.43085400  0.17932200  0.81053900  1
  Cu  Cu38  1  0.32067800  0.06914600  0.31053900  1
  Cu  Cu39  1  0.93085400  0.67932200  0.68946100  1
  Cu  Cu40  1  0.13348900  0.86651100  0.50000000  1
  Cu  Cu41  1  0.63348900  0.36651100  0.00000000  1
  Cu  Cu42  1  0.12268700  0.49174000  0.49808400  1
  Cu  Cu43  1  0.50826000  0.87731300  0.50191600  1
  Cu  Cu44  1  0.62268700  0.99174000  0.00191600  1
  Cu  Cu45  1  0.00826000  0.37731300  0.99808400  1
  Cu  Cu46  1  0.81502800  0.68070600  0.43146500  1
  Cu  Cu47  1  0.31929400  0.18497200  0.56853500  1
  Cu  Cu48  1  0.31502800  0.18070600  0.06853500  1
  Cu  Cu49  1  0.81929400  0.68497200  0.93146500  1
  Cu  Cu50  1  0.00312900  0.88118700  0.25054800  1
  Cu  Cu51  1  0.11881300  0.99687100  0.74945200  1
  Cu  Cu52  1  0.50312900  0.38118700  0.24945200  1
  Cu  Cu53  1  0.61881300  0.49687100  0.75054800  1
  Cu  Cu54  1  0.49924700  0.50075300  0.50000000  1
  Cu  Cu55  1  0.99924700  0.00075300  0.00000000  1
  Cu  Cu56  1  0.14105500  0.38956100  0.24832800  1
  Cu  Cu57  1  0.61043900  0.85894500  0.75167200  1
  Cu  Cu58  1  0.64105500  0.88956100  0.25167200  1
  Cu  Cu59  1  0.11043900  0.35894500  0.74832800  1
