# generated using pymatgen
data_CuNiC9
_symmetry_space_group_name_H-M   'P 1'
_cell_length_a   10.45882272
_cell_length_b   10.45882272
_cell_length_c   13.77049647
_cell_angle_alpha   49.95226718
_cell_angle_beta   49.95226718
_cell_angle_gamma   30.88726164
_symmetry_Int_Tables_number   1
_chemical_formula_structural   CuNiC9
_chemical_formula_sum   'Cu4 Ni4 C36'
_cell_volume   575.76230880
_cell_formula_units_Z   4
loop_
 _symmetry_equiv_pos_site_id
 _symmetry_equiv_pos_as_xyz
  1  'x, y, z'
loop_
 _atom_site_type_symbol
 _atom_site_label
 _atom_site_symmetry_multiplicity
 _atom_site_fract_x
 _atom_site_fract_y
 _atom_site_fract_z
 _atom_site_occupancy
  C  C0  1  0.61579700  0.91717800  0.37767100  1
  C  C1  1  0.08282200  0.38420300  0.12232900  1
  C  C2  1  0.38420300  0.08282200  0.62232900  1
  C  C3  1  0.91717800  0.61579700  0.87767100  1
  C  C4  1  0.04155100  0.75011200  0.40946400  1
  C  C5  1  0.24988800  0.95844900  0.09053600  1
  C  C6  1  0.95844900  0.24988800  0.59053600  1
  C  C7  1  0.75011200  0.04155100  0.90946400  1
  Ni  Ni8  1  0.76492600  0.29632700  0.26827300  1
  Ni  Ni9  1  0.70367300  0.23507400  0.23172700  1
  Ni  Ni10  1  0.23507400  0.70367300  0.73172700  1
  Ni  Ni11  1  0.29632700  0.76492600  0.76827300  1
  Cu  Cu12  1  0.22810600  0.52302500  0.17615100  1
  Cu  Cu13  1  0.47697500  0.77189400  0.32384900  1
  Cu  Cu14  1  0.77189400  0.47697500  0.82384900  1
  Cu  Cu15  1  0.52302500  0.22810600  0.67615100  1
  C  C16  1  0.83824900  0.16175100  0.25000000  1
  C  C17  1  0.16175200  0.83824900  0.75000000  1
  C  C18  1  0.00410700  0.86567700  0.48520200  1
  C  C19  1  0.13432300  0.99589300  0.01479800  1
  C  C20  1  0.99589300  0.13432300  0.51479800  1
  C  C21  1  0.86567700  0.00410700  0.98520200  1
  C  C22  1  0.30153200  0.69846800  0.25000000  1
  C  C23  1  0.69846800  0.30153200  0.75000000  1
  C  C24  1  0.23326900  0.42650300  0.49699300  1
  C  C25  1  0.57349700  0.76673100  0.00300700  1
  C  C26  1  0.76673100  0.57349700  0.50300700  1
  C  C27  1  0.42650300  0.23326900  0.99699300  1
  C  C28  1  0.70292700  0.92096100  0.47487200  1
  C  C29  1  0.07903900  0.29707300  0.02512800  1
  C  C30  1  0.29707300  0.07903900  0.52512800  1
  C  C31  1  0.92096100  0.70292700  0.97487200  1
  C  C32  1  0.98440100  0.72828000  0.28416100  1
  C  C33  1  0.27172000  0.01559900  0.21583900  1
  C  C34  1  0.01559900  0.27172000  0.71583900  1
  C  C35  1  0.72828000  0.98440100  0.78416100  1
  C  C36  1  0.47772400  0.25444200  0.25386200  1
  C  C37  1  0.74555800  0.52227600  0.24613800  1
  C  C38  1  0.52227600  0.74555800  0.74613800  1
  C  C39  1  0.25444200  0.47772400  0.75386200  1
  C  C40  1  0.10310000  0.44820300  0.21492300  1
  C  C41  1  0.55179700  0.89690000  0.28507700  1
  C  C42  1  0.89690000  0.55179700  0.78507700  1
  C  C43  1  0.44820300  0.10310000  0.71492300  1
