# generated using pymatgen
data_Cu4NiC5
_symmetry_space_group_name_H-M   'P 1'
_cell_length_a   12.37434083
_cell_length_b   12.37434083
_cell_length_c   12.37434099
_cell_angle_alpha   13.93826728
_cell_angle_beta   13.93826728
_cell_angle_gamma   13.93826763
_symmetry_Int_Tables_number   1
_chemical_formula_structural   Cu4NiC5
_chemical_formula_sum   'Cu4 Ni1 C5'
_cell_volume   95.68006569
_cell_formula_units_Z   1
loop_
 _symmetry_equiv_pos_site_id
 _symmetry_equiv_pos_as_xyz
  1  'x, y, z'
loop_
 _atom_site_type_symbol
 _atom_site_label
 _atom_site_symmetry_multiplicity
 _atom_site_fract_x
 _atom_site_fract_y
 _atom_site_fract_z
 _atom_site_occupancy
  Ni  Ni0  1  0.00000000  0.00000000  0.00000000  1
  Cu  Cu1  1  0.59977600  0.59977600  0.59977600  1
  Cu  Cu2  1  0.20000100  0.20000100  0.20000100  1
  Cu  Cu3  1  0.79999900  0.79999900  0.79999900  1
  Cu  Cu4  1  0.40022400  0.40022400  0.40022400  1
  C  C5  1  0.70075100  0.70075100  0.70075100  1
  C  C6  1  0.10002100  0.10002100  0.10002100  1
  C  C7  1  0.50000000  0.50000000  0.50000000  1
  C  C8  1  0.29924900  0.29924900  0.29924900  1
  C  C9  1  0.89997900  0.89997900  0.89997900  1
