# generated using pymatgen
data_Cu5Ni2C25
_symmetry_space_group_name_H-M   'P 1'
_cell_length_a   7.78764355
_cell_length_b   7.78764355
_cell_length_c   12.99639138
_cell_angle_alpha   87.59448130
_cell_angle_beta   87.59448130
_cell_angle_gamma   21.44545925
_symmetry_Int_Tables_number   1
_chemical_formula_structural   Cu5Ni2C25
_chemical_formula_sum   'Cu5 Ni2 C25'
_cell_volume   287.91398164
_cell_formula_units_Z   1
loop_
 _symmetry_equiv_pos_site_id
 _symmetry_equiv_pos_as_xyz
  1  'x, y, z'
loop_
 _atom_site_type_symbol
 _atom_site_label
 _atom_site_symmetry_multiplicity
 _atom_site_fract_x
 _atom_site_fract_y
 _atom_site_fract_z
 _atom_site_occupancy
  C  C0  1  0.44012100  0.44012100  0.18284500  1
  C  C1  1  0.31074500  0.31074500  0.56377200  1
  C  C2  1  0.19150800  0.19150800  0.94862200  1
  C  C3  1  0.06628700  0.06628700  0.29944600  1
  C  C4  1  0.94191100  0.94191100  0.69344000  1
  C  C5  1  0.80698700  0.80698700  0.06296800  1
  C  C6  1  0.68417300  0.68417300  0.43369700  1
  C  C7  1  0.56116400  0.56116400  0.81413700  1
  C  C8  1  0.62134300  0.62134300  0.12553900  1
  Ni  Ni9  1  0.00443700  0.00443700  0.00447400  1
  Ni  Ni10  1  0.87293600  0.87293600  0.37290200  1
  Cu  Cu11  1  0.74974900  0.74974900  0.75143400  1
  Cu  Cu12  1  0.50138900  0.50138900  0.50173700  1
  Cu  Cu13  1  0.37419800  0.37419800  0.87802900  1
  Cu  Cu14  1  0.24056600  0.24056600  0.23569000  1
  Cu  Cu15  1  0.12800800  0.12800800  0.62436600  1
  C  C16  1  0.41706100  0.41706100  0.02404000  1
  C  C17  1  0.29218200  0.29218200  0.40403200  1
  C  C18  1  0.16663200  0.16663200  0.77543800  1
  C  C19  1  0.02705400  0.02705400  0.14154000  1
  C  C20  1  0.91036900  0.91036900  0.51927200  1
  C  C21  1  0.78827900  0.78827900  0.90654700  1
  C  C22  1  0.66063300  0.66063300  0.28141300  1
  C  C23  1  0.53460600  0.53460600  0.65209900  1
  C  C24  1  0.45792100  0.45792100  0.34722800  1
  C  C25  1  0.33500100  0.33500100  0.72909900  1
  C  C26  1  0.22356600  0.22356600  0.10067100  1
  C  C27  1  0.08622800  0.08622800  0.47318800  1
  C  C28  1  0.96576200  0.96576200  0.85367200  1
  C  C29  1  0.83858700  0.83858700  0.23435700  1
  C  C30  1  0.71609000  0.71609000  0.59421300  1
  C  C31  1  0.58450600  0.58450600  0.97009500  1
