# generated using pymatgen
data_CuNiC11
_symmetry_space_group_name_H-M   'P 1'
_cell_length_a   5.60995000
_cell_length_b   6.95922203
_cell_length_c   9.39964060
_cell_angle_alpha   109.39576054
_cell_angle_beta   102.65584447
_cell_angle_gamma   98.79594774
_symmetry_Int_Tables_number   1
_chemical_formula_structural   CuNiC11
_chemical_formula_sum   'Cu2 Ni2 C22'
_cell_volume   327.42258647
_cell_formula_units_Z   2
loop_
 _symmetry_equiv_pos_site_id
 _symmetry_equiv_pos_as_xyz
  1  'x, y, z'
loop_
 _atom_site_type_symbol
 _atom_site_label
 _atom_site_symmetry_multiplicity
 _atom_site_fract_x
 _atom_site_fract_y
 _atom_site_fract_z
 _atom_site_occupancy
  C  C0  1  0.19943300  0.74678100  0.05307400  1
  C  C1  1  0.80056700  0.25321900  0.94692600  1
  Ni  Ni2  1  0.35459900  0.73852700  0.64142100  1
  Ni  Ni3  1  0.64540100  0.26147300  0.35857900  1
  Cu  Cu4  1  0.08932500  0.29362000  0.54659500  1
  Cu  Cu5  1  0.91067500  0.70638000  0.45340500  1
  C  C6  1  0.15810100  0.18914300  0.23223300  1
  C  C7  1  0.84189900  0.81085700  0.76776700  1
  C  C8  1  0.53823300  0.72349300  0.29634300  1
  C  C9  1  0.46176700  0.27650700  0.70365700  1
  C  C10  1  0.90618000  0.66138200  0.90250700  1
  C  C11  1  0.44437900  0.26283700  0.21655900  1
  C  C12  1  0.90143100  0.03993800  0.75775700  1
  C  C13  1  0.25984200  0.41494600  0.68843400  1
  C  C14  1  0.55562100  0.73716300  0.78344100  1
  C  C15  1  0.44911900  0.15815600  0.58910500  1
  C  C16  1  0.55088100  0.84184400  0.41089500  1
  C  C17  1  0.39246900  0.12980400  0.87394500  1
  C  C18  1  0.09856900  0.96006200  0.24224300  1
  C  C19  1  0.60753100  0.87019600  0.12605500  1
  C  C20  1  0.09382000  0.33861800  0.09749300  1
  C  C21  1  0.96882200  0.19314600  0.38914000  1
  C  C22  1  0.03117800  0.80685400  0.61086000  1
  C  C23  1  0.26706700  0.57362100  0.35109500  1
  C  C24  1  0.74015800  0.58505400  0.31156600  1
  C  C25  1  0.73293300  0.42637900  0.64890500  1
