# generated using pymatgen
data_CuNi3C25
_symmetry_space_group_name_H-M   'P 1'
_cell_length_a   4.79773400
_cell_length_b   11.85026200
_cell_length_c   20.27312200
_cell_angle_alpha   90.00000000
_cell_angle_beta   90.00000000
_cell_angle_gamma   90.00000000
_symmetry_Int_Tables_number   1
_chemical_formula_structural   CuNi3C25
_chemical_formula_sum   'Cu4 Ni12 C100'
_cell_volume   1152.61628690
_cell_formula_units_Z   4
loop_
 _symmetry_equiv_pos_site_id
 _symmetry_equiv_pos_as_xyz
  1  'x, y, z'
loop_
 _atom_site_type_symbol
 _atom_site_label
 _atom_site_symmetry_multiplicity
 _atom_site_fract_x
 _atom_site_fract_y
 _atom_site_fract_z
 _atom_site_occupancy
  C  C0  1  0.88960800  0.25000000  0.24962400  1
  C  C1  1  0.38960800  0.25000000  0.25037600  1
  C  C2  1  0.11039200  0.75000000  0.75037600  1
  C  C3  1  0.61039200  0.75000000  0.74962400  1
  C  C4  1  0.05881600  0.38988500  0.47220700  1
  C  C5  1  0.55881600  0.11011500  0.02779300  1
  C  C6  1  0.94118400  0.88988500  0.52779300  1
  C  C7  1  0.44118400  0.61011500  0.97220700  1
  C  C8  1  0.94118400  0.61011500  0.52779300  1
  C  C9  1  0.44118400  0.88988500  0.97220700  1
  C  C10  1  0.05881600  0.11011500  0.47220700  1
  C  C11  1  0.55881600  0.38988500  0.02779300  1
  C  C12  1  0.55975400  0.50862500  0.43061600  1
  C  C13  1  0.05975400  0.99137500  0.06938400  1
  C  C14  1  0.44024600  0.00862500  0.56938400  1
  C  C15  1  0.94024600  0.49137500  0.93061600  1
  C  C16  1  0.44024600  0.49137500  0.56938400  1
  C  C17  1  0.94024600  0.00862500  0.93061600  1
  C  C18  1  0.55975400  0.99137500  0.43061600  1
  C  C19  1  0.05975400  0.50862500  0.06938400  1
  C  C20  1  0.55408200  0.64353800  0.28705700  1
  C  C21  1  0.05408200  0.85646200  0.21294300  1
  C  C22  1  0.44591800  0.14353800  0.71294300  1
  C  C23  1  0.94591800  0.35646200  0.78705700  1
  C  C24  1  0.44591800  0.35646200  0.71294300  1
  C  C25  1  0.94591800  0.14353800  0.78705700  1
  C  C26  1  0.55408200  0.85646200  0.28705700  1
  C  C27  1  0.05408200  0.64353800  0.21294300  1
  Ni  Ni28  1  0.58903600  0.25000000  0.40374200  1
  Ni  Ni29  1  0.08903600  0.25000000  0.09625800  1
  Ni  Ni30  1  0.41096400  0.75000000  0.59625800  1
  Ni  Ni31  1  0.91096400  0.75000000  0.90374200  1
  Ni  Ni32  1  0.08698700  0.47449800  0.32753900  1
  Ni  Ni33  1  0.58698700  0.02550200  0.17246100  1
  Ni  Ni34  1  0.91301300  0.97449800  0.67246100  1
  Ni  Ni35  1  0.41301300  0.52550200  0.82753900  1
  Ni  Ni36  1  0.91301300  0.52550200  0.67246100  1
  Ni  Ni37  1  0.41301300  0.97449800  0.82753900  1
  Ni  Ni38  1  0.08698700  0.02550200  0.32753900  1
  Ni  Ni39  1  0.58698700  0.47449800  0.17246100  1
  Cu  Cu40  1  0.72262500  0.75000000  0.41607000  1
  Cu  Cu41  1  0.22262500  0.75000000  0.08393000  1
  Cu  Cu42  1  0.27737500  0.25000000  0.58393000  1
  Cu  Cu43  1  0.77737500  0.25000000  0.91607000  1
  C  C44  1  0.64266100  0.25000000  0.32303500  1
  C  C45  1  0.14266100  0.25000000  0.17696500  1
  C  C46  1  0.35733900  0.75000000  0.67696500  1
  C  C47  1  0.85733900  0.75000000  0.82303500  1
  C  C48  1  0.14017600  0.35711500  0.28578100  1
  C  C49  1  0.64017600  0.14288500  0.21421900  1
  C  C50  1  0.85982400  0.85711500  0.71421900  1
  C  C51  1  0.35982400  0.64288500  0.78578100  1
  C  C52  1  0.85982400  0.64288500  0.71421900  1
  C  C53  1  0.35982400  0.85711500  0.78578100  1
  C  C54  1  0.14017600  0.14288500  0.28578100  1
  C  C55  1  0.64017600  0.35711500  0.21421900  1
  C  C56  1  0.39778900  0.36038400  0.42360100  1
  C  C57  1  0.89778900  0.13961600  0.07639900  1
  C  C58  1  0.60221100  0.86038400  0.57639900  1
  C  C59  1  0.10221100  0.63961600  0.92360100  1
  C  C60  1  0.60221100  0.63961600  0.57639900  1
  C  C61  1  0.10221100  0.86038400  0.92360100  1
  C  C62  1  0.39778900  0.13961600  0.42360100  1
  C  C63  1  0.89778900  0.36038400  0.07639900  1
  C  C64  1  0.89664500  0.44861600  0.39297300  1
  C  C65  1  0.39664500  0.05138400  0.10702700  1
  C  C66  1  0.10335500  0.94861600  0.60702700  1
  C  C67  1  0.60335500  0.55138400  0.89297300  1
  C  C68  1  0.10335500  0.55138400  0.60702700  1
  C  C69  1  0.60335500  0.94861600  0.89297300  1
  C  C70  1  0.89664500  0.05138400  0.39297300  1
  C  C71  1  0.39664500  0.44861600  0.10702700  1
  C  C72  1  0.89611900  0.56168800  0.28278900  1
  C  C73  1  0.39611900  0.93831200  0.21721100  1
  C  C74  1  0.10388100  0.06168800  0.71721100  1
  C  C75  1  0.60388100  0.43831200  0.78278900  1
  C  C76  1  0.10388100  0.43831200  0.71721100  1
  C  C77  1  0.60388100  0.06168800  0.78278900  1
  C  C78  1  0.89611900  0.93831200  0.28278900  1
  C  C79  1  0.39611900  0.56168800  0.21721100  1
  C  C80  1  0.87754400  0.25000000  0.45231400  1
  C  C81  1  0.37754400  0.25000000  0.04768600  1
  C  C82  1  0.12245600  0.75000000  0.54768600  1
  C  C83  1  0.62245600  0.75000000  0.95231400  1
  C  C84  1  0.37906500  0.54343900  0.34890100  1
  C  C85  1  0.87906500  0.95656100  0.15109900  1
  C  C86  1  0.62093500  0.04343900  0.65109900  1
  C  C87  1  0.12093500  0.45656100  0.84890100  1
  C  C88  1  0.62093500  0.45656100  0.65109900  1
  C  C89  1  0.12093500  0.04343900  0.84890100  1
  C  C90  1  0.37906500  0.95656100  0.34890100  1
  C  C91  1  0.87906500  0.54343900  0.15109900  1
  C  C92  1  0.26098400  0.75000000  0.27071300  1
  C  C93  1  0.76098400  0.75000000  0.22928700  1
  C  C94  1  0.73901600  0.25000000  0.72928700  1
  C  C95  1  0.23901600  0.25000000  0.77071300  1
  C  C96  1  0.64966300  0.75000000  0.35143100  1
  C  C97  1  0.14966300  0.75000000  0.14856900  1
  C  C98  1  0.35033700  0.25000000  0.64856900  1
  C  C99  1  0.85033700  0.25000000  0.85143100  1
  C  C100  1  0.75560600  0.64860500  0.44811200  1
  C  C101  1  0.25560600  0.85139500  0.05188800  1
  C  C102  1  0.24439400  0.14860500  0.55188800  1
  C  C103  1  0.74439400  0.35139500  0.94811200  1
  C  C104  1  0.24439400  0.35139500  0.55188800  1
  C  C105  1  0.74439400  0.14860500  0.94811200  1
  C  C106  1  0.75560600  0.85139500  0.44811200  1
  C  C107  1  0.25560600  0.64860500  0.05188800  1
  C  C108  1  0.25040800  0.53378500  0.48793800  1
  C  C109  1  0.75040800  0.96621500  0.01206200  1
  C  C110  1  0.74959200  0.03378500  0.51206200  1
  C  C111  1  0.24959200  0.46621500  0.98793800  1
  C  C112  1  0.74959200  0.46621500  0.51206200  1
  C  C113  1  0.24959200  0.03378500  0.98793800  1
  C  C114  1  0.25040800  0.96621500  0.48793800  1
  C  C115  1  0.75040800  0.53378500  0.01206200  1
