# generated using pymatgen
data_Cu17Ni11C19
_symmetry_space_group_name_H-M   'P 1'
_cell_length_a   7.22363440
_cell_length_b   7.22363440
_cell_length_c   20.93275281
_cell_angle_alpha   85.96741322
_cell_angle_beta   85.96741322
_cell_angle_gamma   79.92911990
_symmetry_Int_Tables_number   1
_chemical_formula_structural   Cu17Ni11C19
_chemical_formula_sum   'Cu34 Ni22 C38'
_cell_volume   1070.92338001
_cell_formula_units_Z   2
loop_
 _symmetry_equiv_pos_site_id
 _symmetry_equiv_pos_as_xyz
  1  'x, y, z'
loop_
 _atom_site_type_symbol
 _atom_site_label
 _atom_site_symmetry_multiplicity
 _atom_site_fract_x
 _atom_site_fract_y
 _atom_site_fract_z
 _atom_site_occupancy
  C  C0  1  0.63923500  0.36076500  0.75000000  1
  C  C1  1  0.36076500  0.63923500  0.25000000  1
  C  C2  1  0.17469900  0.32901200  0.08794000  1
  C  C3  1  0.67098800  0.82530100  0.41206000  1
  C  C4  1  0.82530100  0.67098800  0.91206000  1
  C  C5  1  0.32901200  0.17469900  0.58794000  1
  C  C6  1  0.21629100  0.08432000  0.08271600  1
  C  C7  1  0.91568000  0.78370900  0.41728400  1
  C  C8  1  0.78370900  0.91568000  0.91728400  1
  C  C9  1  0.08432000  0.21629100  0.58271600  1
  C  C10  1  0.20908600  0.52666900  0.99811800  1
  C  C11  1  0.47333100  0.79091400  0.50188200  1
  C  C12  1  0.79091400  0.47333100  0.00188200  1
  C  C13  1  0.52666900  0.20908600  0.49811800  1
  C  C14  1  0.27711500  0.43451100  0.92291600  1
  C  C15  1  0.56548900  0.72288500  0.57708400  1
  C  C16  1  0.72288500  0.56548900  0.07708400  1
  C  C17  1  0.43451100  0.27711500  0.42291600  1
  C  C18  1  0.31722400  0.10300800  0.91406200  1
  C  C19  1  0.89699200  0.68277600  0.58593800  1
  C  C20  1  0.68277600  0.89699200  0.08593800  1
  C  C21  1  0.10300800  0.31722400  0.41406200  1
  C  C22  1  0.27861700  0.95912900  0.98213900  1
  C  C23  1  0.04087100  0.72138300  0.51786100  1
  C  C24  1  0.72138300  0.04087100  0.01786100  1
  C  C25  1  0.95912900  0.27861700  0.48213900  1
  C  C26  1  0.44813600  0.99550600  0.78087300  1
  C  C27  1  0.00449400  0.55186400  0.71912700  1
  C  C28  1  0.55186400  0.00449400  0.21912700  1
  C  C29  1  0.99550600  0.44813600  0.28087300  1
  C  C30  1  0.27829600  0.16054900  0.76886300  1
  C  C31  1  0.83945100  0.72170400  0.73113700  1
  C  C32  1  0.72170400  0.83945100  0.23113700  1
  C  C33  1  0.16054900  0.27829600  0.26886300  1
  C  C34  1  0.23927300  0.24012000  0.99744100  1
  C  C35  1  0.75988000  0.76072700  0.50255900  1
  C  C36  1  0.76072700  0.75988000  0.00255900  1
  C  C37  1  0.24012000  0.23927300  0.49744100  1
  Ni  Ni38  1  0.40576500  0.65551800  0.83806300  1
  Ni  Ni39  1  0.34448200  0.59423500  0.66193700  1
  Ni  Ni40  1  0.59423500  0.34448200  0.16193700  1
  Ni  Ni41  1  0.65551800  0.40576500  0.33806300  1
  Ni  Ni42  1  0.19333000  0.21579100  0.06021600  1
  Ni  Ni43  1  0.78420900  0.80667000  0.43978400  1
  Ni  Ni44  1  0.80667000  0.78420900  0.93978400  1
  Ni  Ni45  1  0.21579100  0.19333000  0.56021600  1
  Ni  Ni46  1  0.23369900  0.41340300  0.97016500  1
  Ni  Ni47  1  0.58659700  0.76630100  0.52983500  1
  Ni  Ni48  1  0.76630100  0.58659700  0.02983500  1
  Ni  Ni49  1  0.41340300  0.23369900  0.47016500  1
  Ni  Ni50  1  0.97023100  0.02976900  0.75000000  1
  Ni  Ni51  1  0.02976900  0.97023100  0.25000000  1
  Ni  Ni52  1  0.76593700  0.28596200  0.89295800  1
  Ni  Ni53  1  0.71403800  0.23406300  0.60704200  1
  Ni  Ni54  1  0.23406300  0.71403800  0.10704200  1
  Ni  Ni55  1  0.28596200  0.76593700  0.39295800  1
  Ni  Ni56  1  0.28867500  0.08945500  0.96209000  1
  Ni  Ni57  1  0.91054500  0.71132500  0.53791000  1
  Ni  Ni58  1  0.71132500  0.91054500  0.03791000  1
  Ni  Ni59  1  0.08945500  0.28867500  0.46209000  1
  Cu  Cu60  1  0.99260500  0.19749600  0.76063100  1
  Cu  Cu61  1  0.80250400  0.00739500  0.73936900  1
  Cu  Cu62  1  0.00739500  0.80250400  0.23936900  1
  Cu  Cu63  1  0.19749600  0.99260500  0.26063100  1
  Cu  Cu64  1  0.10344600  0.89655400  0.75000000  1
  Cu  Cu65  1  0.89655400  0.10344600  0.25000000  1
  Cu  Cu66  1  0.78467700  0.43951500  0.86151600  1
  Cu  Cu67  1  0.56048500  0.21532300  0.63848400  1
  Cu  Cu68  1  0.21532300  0.56048500  0.13848400  1
  Cu  Cu69  1  0.43951500  0.78467700  0.36151600  1
  Cu  Cu70  1  0.70848800  0.15977400  0.86362500  1
  Cu  Cu71  1  0.84022600  0.29151200  0.63637500  1
  Cu  Cu72  1  0.29151200  0.84022600  0.13637500  1
  Cu  Cu73  1  0.15977400  0.70848800  0.36362500  1
  Cu  Cu74  1  0.80176500  0.25831100  0.95108700  1
  Cu  Cu75  1  0.74168900  0.19823500  0.54891300  1
  Cu  Cu76  1  0.19823500  0.74168900  0.04891300  1
  Cu  Cu77  1  0.25831100  0.80176500  0.45108700  1
  Cu  Cu78  1  0.39499300  0.47833900  0.84218600  1
  Cu  Cu79  1  0.52166100  0.60500700  0.65781400  1
  Cu  Cu80  1  0.60500700  0.52166100  0.15781400  1
  Cu  Cu81  1  0.47833900  0.39499300  0.34218600  1
  Cu  Cu82  1  0.50930800  0.71091400  0.79099600  1
  Cu  Cu83  1  0.28908600  0.49069200  0.70900400  1
  Cu  Cu84  1  0.49069200  0.28908600  0.20900400  1
  Cu  Cu85  1  0.71091400  0.50930800  0.29099600  1
  Cu  Cu86  1  0.32116300  0.76286500  0.87797400  1
  Cu  Cu87  1  0.23713500  0.67883700  0.62202600  1
  Cu  Cu88  1  0.67883700  0.23713500  0.12202600  1
  Cu  Cu89  1  0.76286500  0.32116300  0.37797400  1
  Cu  Cu90  1  0.41133600  0.13339400  0.77913600  1
  Cu  Cu91  1  0.86660600  0.58866400  0.72086400  1
  Cu  Cu92  1  0.58866400  0.86660600  0.22086400  1
  Cu  Cu93  1  0.13339400  0.41133600  0.27913600  1
