# generated using pymatgen
data_CuNiC11
_symmetry_space_group_name_H-M   'P 1'
_cell_length_a   5.73033900
_cell_length_b   6.96447538
_cell_length_c   9.57771984
_cell_angle_alpha   109.34407689
_cell_angle_beta   101.49958353
_cell_angle_gamma   98.28271396
_symmetry_Int_Tables_number   1
_chemical_formula_structural   CuNiC11
_chemical_formula_sum   'Cu2 Ni2 C22'
_cell_volume   344.17240512
_cell_formula_units_Z   2
loop_
 _symmetry_equiv_pos_site_id
 _symmetry_equiv_pos_as_xyz
  1  'x, y, z'
loop_
 _atom_site_type_symbol
 _atom_site_label
 _atom_site_symmetry_multiplicity
 _atom_site_fract_x
 _atom_site_fract_y
 _atom_site_fract_z
 _atom_site_occupancy
  Ni  Ni0  1  0.20925600  0.74824800  0.05995100  1
  Ni  Ni1  1  0.79074400  0.25175200  0.94004900  1
  Cu  Cu2  1  0.34658100  0.75640400  0.66277300  1
  Cu  Cu3  1  0.65341900  0.24359600  0.33722700  1
  C  C4  1  0.07664400  0.28954900  0.55734700  1
  C  C5  1  0.92335600  0.71045100  0.44265300  1
  C  C6  1  0.16342900  0.19202100  0.22282200  1
  C  C7  1  0.83657100  0.80797900  0.77717800  1
  C  C8  1  0.54392100  0.73580200  0.29817500  1
  C  C9  1  0.45607900  0.26419800  0.70182500  1
  C  C10  1  0.97106100  0.68307900  0.87842700  1
  C  C11  1  0.44950300  0.29068900  0.16277800  1
  C  C12  1  0.88892400  0.03803400  0.76369200  1
  C  C13  1  0.26602000  0.40643200  0.68992100  1
  C  C14  1  0.55049700  0.70931100  0.83722200  1
  C  C15  1  0.42561400  0.13593800  0.59776600  1
  C  C16  1  0.57438600  0.86406200  0.40223400  1
  C  C17  1  0.39277600  0.12773900  0.87018300  1
  C  C18  1  0.11107600  0.96196600  0.23630800  1
  C  C19  1  0.60722400  0.87226100  0.12981700  1
  C  C20  1  0.02893900  0.31692100  0.12157300  1
  C  C21  1  0.03307400  0.20070300  0.38544400  1
  C  C22  1  0.96692600  0.79929700  0.61455600  1
  C  C23  1  0.26693200  0.59523000  0.36702900  1
  C  C24  1  0.73398000  0.59356800  0.31007900  1
  C  C25  1  0.73306800  0.40477000  0.63297100  1
