# generated using pymatgen
data_Cu3Ni2C9
_symmetry_space_group_name_H-M   'P 1'
_cell_length_a   7.64855684
_cell_length_b   7.59844550
_cell_length_c   7.64840471
_cell_angle_alpha   59.82221588
_cell_angle_beta   59.98526031
_cell_angle_gamma   59.77630444
_symmetry_Int_Tables_number   1
_chemical_formula_structural   Cu3Ni2C9
_chemical_formula_sum   'Cu3 Ni2 C9'
_cell_volume   313.31952114
_cell_formula_units_Z   1
loop_
 _symmetry_equiv_pos_site_id
 _symmetry_equiv_pos_as_xyz
  1  'x, y, z'
loop_
 _atom_site_type_symbol
 _atom_site_label
 _atom_site_symmetry_multiplicity
 _atom_site_fract_x
 _atom_site_fract_y
 _atom_site_fract_z
 _atom_site_occupancy
  Ni  Ni0  1  0.87424200  0.87649300  0.87462800  1
  Ni  Ni1  1  0.12565200  0.12393300  0.12535900  1
  C  C2  1  0.50034700  0.99968900  0.50019300  1
  Cu  Cu3  1  0.50010600  0.49964300  0.50004600  1
  Cu  Cu4  1  0.49961100  0.50003200  0.00005000  1
  Cu  Cu5  1  0.00001100  0.50012100  0.49995600  1
  C  C6  1  0.73362900  0.75839200  0.73372000  1
  C  C7  1  0.26636000  0.24172000  0.72568100  1
  C  C8  1  0.25785000  0.72666100  0.25760100  1
  C  C9  1  0.72581000  0.24168400  0.26592200  1
  C  C10  1  0.74201200  0.27381300  0.74227300  1
  C  C11  1  0.27414100  0.75845100  0.73369900  1
  C  C12  1  0.26655700  0.24118900  0.26661100  1
  C  C13  1  0.73367800  0.75817500  0.27426200  1
