# generated using pymatgen
data_Cu3(NiC)10
_symmetry_space_group_name_H-M   'P 1'
_cell_length_a   11.23775508
_cell_length_b   11.23775508
_cell_length_c   9.14473550
_cell_angle_alpha   73.38555226
_cell_angle_beta   73.38555226
_cell_angle_gamma   97.54149253
_symmetry_Int_Tables_number   1
_chemical_formula_structural   Cu3(NiC)10
_chemical_formula_sum   'Cu12 Ni40 C40'
_cell_volume   1031.52111065
_cell_formula_units_Z   4
loop_
 _symmetry_equiv_pos_site_id
 _symmetry_equiv_pos_as_xyz
  1  'x, y, z'
loop_
 _atom_site_type_symbol
 _atom_site_label
 _atom_site_symmetry_multiplicity
 _atom_site_fract_x
 _atom_site_fract_y
 _atom_site_fract_z
 _atom_site_occupancy
  C  C0  1  0.90562800  0.09437200  0.75000000  1
  C  C1  1  0.09437200  0.90562800  0.25000000  1
  C  C2  1  0.63804400  0.36195600  0.75000000  1
  C  C3  1  0.36195600  0.63804400  0.25000000  1
  C  C4  1  0.81939800  0.34061400  0.12110400  1
  C  C5  1  0.65938600  0.18060200  0.37889600  1
  C  C6  1  0.18060200  0.65938600  0.87889600  1
  C  C7  1  0.34061400  0.81939800  0.62110400  1
  C  C8  1  0.93927200  0.57257800  0.61405400  1
  C  C9  1  0.42742200  0.06072800  0.88594600  1
  C  C10  1  0.06072800  0.42742200  0.38594600  1
  C  C11  1  0.57257800  0.93927200  0.11405400  1
  C  C12  1  0.85269200  0.74916500  0.98029100  1
  C  C13  1  0.25083500  0.14730800  0.51970900  1
  C  C14  1  0.14730800  0.25083500  0.01970900  1
  C  C15  1  0.74916500  0.85269200  0.48029100  1
  C  C16  1  0.83419900  0.37464300  0.37267300  1
  C  C17  1  0.62535700  0.16580100  0.12732700  1
  C  C18  1  0.16580100  0.62535700  0.62732700  1
  C  C19  1  0.37464300  0.83419900  0.87267300  1
  C  C20  1  0.66854500  0.67934800  0.20710300  1
  C  C21  1  0.32065200  0.33145500  0.29289700  1
  C  C22  1  0.33145500  0.32065200  0.79289700  1
  C  C23  1  0.67934800  0.66854500  0.70710300  1
  Ni  Ni24  1  0.82711700  0.54282700  0.06859100  1
  Ni  Ni25  1  0.45717300  0.17288300  0.43140900  1
  Ni  Ni26  1  0.17288300  0.45717300  0.93140900  1
  Ni  Ni27  1  0.54282700  0.82711700  0.56859100  1
  Ni  Ni28  1  0.84133700  0.43414900  0.02780500  1
  Ni  Ni29  1  0.56585100  0.15866300  0.47219500  1
  Ni  Ni30  1  0.15866300  0.56585100  0.97219500  1
  Ni  Ni31  1  0.43414900  0.84133700  0.52780500  1
  Ni  Ni32  1  0.88276700  0.44490900  0.86371300  1
  Ni  Ni33  1  0.55509100  0.11723300  0.63628700  1
  Ni  Ni34  1  0.11723300  0.55509100  0.13628700  1
  Ni  Ni35  1  0.44490900  0.88276700  0.36371300  1
  Ni  Ni36  1  0.90934800  0.56451900  0.74207400  1
  Ni  Ni37  1  0.43548100  0.09065200  0.75792600  1
  Ni  Ni38  1  0.09065200  0.43548100  0.25792600  1
  Ni  Ni39  1  0.56451900  0.90934800  0.24207400  1
  Ni  Ni40  1  0.89917800  0.67418500  0.78557000  1
  Ni  Ni41  1  0.32581500  0.10082200  0.71443000  1
  Ni  Ni42  1  0.10082200  0.32581500  0.21443000  1
  Ni  Ni43  1  0.67418500  0.89917800  0.28557000  1
  Ni  Ni44  1  0.85887200  0.66277800  0.94943100  1
  Ni  Ni45  1  0.33722200  0.14112800  0.55056900  1
  Ni  Ni46  1  0.14112800  0.33722200  0.05056900  1
  Ni  Ni47  1  0.66277800  0.85887200  0.44943100  1
  Ni  Ni48  1  0.77816100  0.44627900  0.37111900  1
  Ni  Ni49  1  0.55372100  0.22183900  0.12888100  1
  Ni  Ni50  1  0.22183900  0.55372100  0.62888100  1
  Ni  Ni51  1  0.44627900  0.77816100  0.87111900  1
  Ni  Ni52  1  0.69374500  0.60475100  0.28950600  1
  Ni  Ni53  1  0.39524900  0.30625500  0.21049400  1
  Ni  Ni54  1  0.30625500  0.39524900  0.71049400  1
  Ni  Ni55  1  0.60475100  0.69374500  0.78950600  1
  Ni  Ni56  1  0.89369300  0.32478400  0.82317800  1
  Ni  Ni57  1  0.67521600  0.10630700  0.67682200  1
  Ni  Ni58  1  0.10630700  0.67521600  0.17682200  1
  Ni  Ni59  1  0.32478400  0.89369300  0.32317800  1
  Ni  Ni60  1  0.92473900  0.80569500  0.65972600  1
  Ni  Ni61  1  0.19430500  0.07526100  0.84027400  1
  Ni  Ni62  1  0.07526100  0.19430500  0.34027400  1
  Ni  Ni63  1  0.80569500  0.92473900  0.15972600  1
  Cu  Cu64  1  0.77258800  0.53176200  0.23486300  1
  Cu  Cu65  1  0.46823800  0.22741200  0.26513700  1
  Cu  Cu66  1  0.22741200  0.46823800  0.76513700  1
  Cu  Cu67  1  0.53176200  0.77258800  0.73486300  1
  Cu  Cu68  1  0.70685800  0.46766400  0.49941300  1
  Cu  Cu69  1  0.53233600  0.29314200  0.00058700  1
  Cu  Cu70  1  0.29314200  0.53233600  0.50058700  1
  Cu  Cu71  1  0.46766400  0.70685800  0.99941300  1
  Cu  Cu72  1  0.65318700  0.56847100  0.44844600  1
  Cu  Cu73  1  0.43152900  0.34681300  0.05155400  1
  Cu  Cu74  1  0.34681300  0.43152900  0.55155400  1
  Cu  Cu75  1  0.56847100  0.65318700  0.94844600  1
  C  C76  1  0.88287600  0.22195300  0.93610600  1
  C  C77  1  0.77804700  0.11712400  0.56389400  1
  C  C78  1  0.11712400  0.77804700  0.06389400  1
  C  C79  1  0.22195300  0.88287600  0.43610600  1
  C  C80  1  0.91165800  0.32770300  0.67747500  1
  C  C81  1  0.67229700  0.08834200  0.82252500  1
  C  C82  1  0.08834200  0.67229700  0.32252500  1
  C  C83  1  0.32770300  0.91165800  0.17747500  1
  C  C84  1  0.95249500  0.81176700  0.51332500  1
  C  C85  1  0.18823300  0.04750500  0.98667500  1
  C  C86  1  0.04750500  0.18823300  0.48667500  1
  C  C87  1  0.81176700  0.95249500  0.01332500  1
  C  C88  1  0.91111200  0.89872500  0.71076800  1
  C  C89  1  0.10127500  0.08888800  0.78923200  1
  C  C90  1  0.08888800  0.10127500  0.28923200  1
  C  C91  1  0.89872500  0.91111200  0.21076800  1
