# generated using pymatgen
data_Cu5NiC4
_symmetry_space_group_name_H-M   'P 1'
_cell_length_a   8.04881886
_cell_length_b   8.04881886
_cell_length_c   8.33291900
_cell_angle_alpha   90.00000000
_cell_angle_beta   90.00000000
_cell_angle_gamma   101.36950973
_symmetry_Int_Tables_number   1
_chemical_formula_structural   Cu5NiC4
_chemical_formula_sum   'Cu10 Ni2 C8'
_cell_volume   529.24192014
_cell_formula_units_Z   2
loop_
 _symmetry_equiv_pos_site_id
 _symmetry_equiv_pos_as_xyz
  1  'x, y, z'
loop_
 _atom_site_type_symbol
 _atom_site_label
 _atom_site_symmetry_multiplicity
 _atom_site_fract_x
 _atom_site_fract_y
 _atom_site_fract_z
 _atom_site_occupancy
  C  C0  1  0.18640800  0.32951300  0.56622100  1
  C  C1  1  0.67048700  0.81359200  0.56622100  1
  C  C2  1  0.81359200  0.67048700  0.06622100  1
  C  C3  1  0.32951300  0.18640800  0.06622100  1
  C  C4  1  0.23655000  0.76345000  0.95525700  1
  C  C5  1  0.76345000  0.23655000  0.45525700  1
  C  C6  1  0.78070600  0.21929400  0.84310200  1
  C  C7  1  0.21929400  0.78070600  0.34310200  1
  Ni  Ni8  1  0.06260600  0.93739400  0.74655800  1
  Ni  Ni9  1  0.93739400  0.06260600  0.24655800  1
  Cu  Cu10  1  0.91590900  0.40025500  0.61805400  1
  Cu  Cu11  1  0.59974500  0.08409100  0.61805400  1
  Cu  Cu12  1  0.08409100  0.59974500  0.11805400  1
  Cu  Cu13  1  0.40025500  0.91590900  0.11805400  1
  Cu  Cu14  1  0.97635500  0.02364500  0.66179800  1
  Cu  Cu15  1  0.02364500  0.97635500  0.16179800  1
  Cu  Cu16  1  0.99738500  0.78186300  0.79096800  1
  Cu  Cu17  1  0.21813700  0.00261500  0.79096800  1
  Cu  Cu18  1  0.00261500  0.21813700  0.29096800  1
  Cu  Cu19  1  0.78186300  0.99738500  0.29096800  1
