# generated using pymatgen
data_Cu13(Ni2C)3
_symmetry_space_group_name_H-M   'P 1'
_cell_length_a   10.02726513
_cell_length_b   10.21024942
_cell_length_c   15.54361863
_cell_angle_alpha   82.98708595
_cell_angle_beta   75.60281564
_cell_angle_gamma   60.59109370
_symmetry_Int_Tables_number   1
_chemical_formula_structural   Cu13(Ni2C)3
_chemical_formula_sum   'Cu52 Ni24 C12'
_cell_volume   1342.76521117
_cell_formula_units_Z   4
loop_
 _symmetry_equiv_pos_site_id
 _symmetry_equiv_pos_as_xyz
  1  'x, y, z'
loop_
 _atom_site_type_symbol
 _atom_site_label
 _atom_site_symmetry_multiplicity
 _atom_site_fract_x
 _atom_site_fract_y
 _atom_site_fract_z
 _atom_site_occupancy
  C  C0  1  0.77691348  0.56028555  0.11226381  1
  C  C1  1  0.66280096  0.56028555  0.38773619  1
  C  C2  1  0.22308652  0.43971445  0.88773619  1
  C  C3  1  0.33719904  0.43971445  0.61226381  1
  C  C4  1  0.07919942  0.18145865  0.46159405  1
  C  C5  1  0.73934193  0.18145865  0.03840595  1
  C  C6  1  0.92080058  0.81854135  0.53840595  1
  C  C7  1  0.26065807  0.81854135  0.96159405  1
  C  C8  1  0.35832064  0.28335872  0.25000000  1
  C  C9  1  0.64167936  0.71664128  0.75000000  1
  C  C10  1  0.06171585  0.87656831  0.25000000  1
  C  C11  1  0.93828415  0.12343169  0.75000000  1
  Ni  Ni12  1  0.87432521  0.17261986  0.21312084  1
  Ni  Ni13  1  0.95305493  0.17261986  0.28687916  1
  Ni  Ni14  1  0.12567479  0.82738014  0.78687916  1
  Ni  Ni15  1  0.04694507  0.82738014  0.71312084  1
  Ni  Ni16  1  0.93134681  0.69183499  0.26177945  1
  Ni  Ni17  1  0.37681820  0.69183499  0.23822055  1
  Ni  Ni18  1  0.06865319  0.30816501  0.73822055  1
  Ni  Ni19  1  0.62318180  0.30816501  0.76177945  1
  Ni  Ni20  1  0.87151193  0.76982070  0.35322347  1
  Ni  Ni21  1  0.35866737  0.76982070  0.14677653  1
  Ni  Ni22  1  0.12848807  0.23017930  0.64677653  1
  Ni  Ni23  1  0.64133263  0.23017930  0.85322347  1
  Ni  Ni24  1  0.45288897  0.98577873  0.29638037  1
  Ni  Ni25  1  0.56133231  0.98577873  0.20361963  1
  Ni  Ni26  1  0.54711103  0.01422127  0.70361963  1
  Ni  Ni27  1  0.43866769  0.01422127  0.79638037  1
  Ni  Ni28  1  0.43845475  0.36521557  0.38197624  1
  Ni  Ni29  1  0.19632968  0.36521557  0.11802376  1
  Ni  Ni30  1  0.56154525  0.63478443  0.61802376  1
  Ni  Ni31  1  0.80367032  0.63478443  0.88197624  1
  Ni  Ni32  1  0.25550047  0.45381802  0.39876071  1
  Ni  Ni33  1  0.29068151  0.45381802  0.10123929  1
  Ni  Ni34  1  0.74449953  0.54618198  0.60123929  1
  Ni  Ni35  1  0.70931849  0.54618198  0.89876071  1
  Cu  Cu36  1  0.90120465  0.03734413  0.19579612  1
  Cu  Cu37  1  0.06145122  0.03734413  0.30420388  1
  Cu  Cu38  1  0.09879535  0.96265587  0.80420388  1
  Cu  Cu39  1  0.93854878  0.96265587  0.69579612  1
  Cu  Cu40  1  0.79655818  0.28749961  0.17467317  1
  Cu  Cu41  1  0.91594220  0.28749961  0.32532683  1
  Cu  Cu42  1  0.20344182  0.71250039  0.82532683  1
  Cu  Cu43  1  0.08405780  0.71250039  0.67467317  1
  Cu  Cu44  1  0.02624128  0.73237085  0.20471346  1
  Cu  Cu45  1  0.24138787  0.73237085  0.29528654  1
  Cu  Cu46  1  0.97375872  0.26762915  0.79528654  1
  Cu  Cu47  1  0.75861213  0.26762915  0.70471346  1
  Cu  Cu48  1  0.89285112  0.60153754  0.24678689  1
  Cu  Cu49  1  0.50561134  0.60153754  0.25321311  1
  Cu  Cu50  1  0.10714888  0.39846246  0.75321311  1
  Cu  Cu51  1  0.49438866  0.39846246  0.74678689  1
  Cu  Cu52  1  0.92312988  0.86553729  0.35698672  1
  Cu  Cu53  1  0.21133283  0.86553729  0.14301328  1
  Cu  Cu54  1  0.07687012  0.13446271  0.64301328  1
  Cu  Cu55  1  0.78866717  0.13446271  0.85698672  1
  Cu  Cu56  1  0.78618809  0.74384480  0.41627434  1
  Cu  Cu57  1  0.46996710  0.74384480  0.08372566  1
  Cu  Cu58  1  0.21381191  0.25615520  0.58372566  1
  Cu  Cu59  1  0.53003290  0.25615520  0.91627434  1
  Cu  Cu60  1  0.34645583  0.12208148  0.32529275  1
  Cu  Cu61  1  0.53146268  0.12208148  0.17470725  1
  Cu  Cu62  1  0.65354417  0.87791852  0.67470725  1
  Cu  Cu63  1  0.46853732  0.87791852  0.82529275  1
  Cu  Cu64  1  0.46848026  0.86947320  0.33578014  1
  Cu  Cu65  1  0.66204654  0.86947320  0.16421986  1
  Cu  Cu66  1  0.53151974  0.13052680  0.66421986  1
  Cu  Cu67  1  0.33795346  0.13052680  0.83578014  1
  Cu  Cu68  1  0.50465113  0.28427090  0.30904766  1
  Cu  Cu69  1  0.21107797  0.28427090  0.19095234  1
  Cu  Cu70  1  0.49534887  0.71572910  0.69095234  1
  Cu  Cu71  1  0.78892203  0.71572910  0.80904766  1
  Cu  Cu72  1  0.50911333  0.37233389  0.43401004  1
  Cu  Cu73  1  0.11855278  0.37233389  0.06598996  1
  Cu  Cu74  1  0.49088667  0.62766611  0.56598996  1
  Cu  Cu75  1  0.88144722  0.62766611  0.93401004  1
  Cu  Cu76  1  0.19967104  0.42679900  0.33803833  1
  Cu  Cu77  1  0.37352996  0.42679900  0.16196167  1
  Cu  Cu78  1  0.80032896  0.57320100  0.66196167  1
  Cu  Cu79  1  0.62647004  0.57320100  0.83803833  1
  Cu  Cu80  1  0.17481715  0.53738901  0.46258204  1
  Cu  Cu81  1  0.28779384  0.53738901  0.03741796  1
  Cu  Cu82  1  0.82518285  0.46261099  0.53741796  1
  Cu  Cu83  1  0.71220616  0.46261099  0.96258204  1
  Cu  Cu84  1  0.94256265  0.85448989  0.01458591  1
  Cu  Cu85  1  0.20294747  0.85448989  0.48541409  1
  Cu  Cu86  1  0.05743735  0.14551011  0.98541409  1
  Cu  Cu87  1  0.79705253  0.14551011  0.51458591  1
