# generated using pymatgen
data_Cu9(NiC17)2
_symmetry_space_group_name_H-M   'P 1'
_cell_length_a   12.02490144
_cell_length_b   12.02490144
_cell_length_c   19.69313600
_cell_angle_alpha   90.00000000
_cell_angle_beta   90.00000000
_cell_angle_gamma   155.57161635
_symmetry_Int_Tables_number   1
_chemical_formula_structural   Cu9(NiC17)2
_chemical_formula_sum   'Cu18 Ni4 C68'
_cell_volume   1177.63784460
_cell_formula_units_Z   2
loop_
 _symmetry_equiv_pos_site_id
 _symmetry_equiv_pos_as_xyz
  1  'x, y, z'
loop_
 _atom_site_type_symbol
 _atom_site_label
 _atom_site_symmetry_multiplicity
 _atom_site_fract_x
 _atom_site_fract_y
 _atom_site_fract_z
 _atom_site_occupancy
  C  C0  1  0.84680400  0.67637200  0.65154500  1
  C  C1  1  0.15319600  0.32362800  0.34845500  1
  C  C2  1  0.15319600  0.32362800  0.15154500  1
  C  C3  1  0.67637200  0.84680400  0.84845500  1
  C  C4  1  0.84680400  0.67637200  0.84845500  1
  C  C5  1  0.32362800  0.15319600  0.15154500  1
  C  C6  1  0.32362800  0.15319600  0.34845500  1
  C  C7  1  0.67637200  0.84680400  0.65154500  1
  C  C8  1  0.05528200  0.30827900  0.75000000  1
  C  C9  1  0.94471800  0.69172100  0.25000000  1
  C  C10  1  0.30827900  0.05528200  0.75000000  1
  C  C11  1  0.69172100  0.94471800  0.25000000  1
  Ni  Ni12  1  0.59524900  0.40475100  0.50000000  1
  Ni  Ni13  1  0.40475100  0.59524900  0.50000000  1
  Ni  Ni14  1  0.40475100  0.59524900  0.00000000  1
  Ni  Ni15  1  0.59524900  0.40475100  0.00000000  1
  Cu  Cu16  1  0.22308600  0.22308600  0.75000000  1
  Cu  Cu17  1  0.77691400  0.77691400  0.25000000  1
  Cu  Cu18  1  0.92549100  0.35441900  0.64303500  1
  Cu  Cu19  1  0.07450900  0.64558100  0.35696500  1
  Cu  Cu20  1  0.07450900  0.64558100  0.14303500  1
  Cu  Cu21  1  0.35441900  0.92549100  0.85696500  1
  Cu  Cu22  1  0.92549100  0.35441900  0.85696500  1
  Cu  Cu23  1  0.64558100  0.07450900  0.14303500  1
  Cu  Cu24  1  0.64558100  0.07450900  0.35696500  1
  Cu  Cu25  1  0.35441900  0.92549100  0.64303500  1
  Cu  Cu26  1  0.83033100  0.16966900  0.50000000  1
  Cu  Cu27  1  0.16966900  0.83033100  0.50000000  1
  Cu  Cu28  1  0.16966900  0.83033100  0.00000000  1
  Cu  Cu29  1  0.83033100  0.16966900  0.00000000  1
  Cu  Cu30  1  0.27884100  0.27884100  0.60511300  1
  Cu  Cu31  1  0.72115900  0.72115900  0.39488700  1
  Cu  Cu32  1  0.72115900  0.72115900  0.10511300  1
  Cu  Cu33  1  0.27884100  0.27884100  0.89488700  1
  C  C34  1  0.42582900  0.42582900  0.68323400  1
  C  C35  1  0.57417100  0.57417100  0.31676600  1
  C  C36  1  0.57417100  0.57417100  0.18323400  1
  C  C37  1  0.42582900  0.42582900  0.81676600  1
  C  C38  1  0.60795200  0.38453400  0.75000000  1
  C  C39  1  0.39204800  0.61546600  0.25000000  1
  C  C40  1  0.38453400  0.60795200  0.75000000  1
  C  C41  1  0.61546600  0.39204800  0.25000000  1
  C  C42  1  0.99206900  0.11016500  0.75000000  1
  C  C43  1  0.00793100  0.88983500  0.25000000  1
  C  C44  1  0.11016500  0.99206900  0.75000000  1
  C  C45  1  0.88983500  0.00793100  0.25000000  1
  C  C46  1  0.92443200  0.33981200  0.56005600  1
  C  C47  1  0.07556800  0.66018800  0.43994400  1
  C  C48  1  0.07556800  0.66018800  0.06005600  1
  C  C49  1  0.33981200  0.92443200  0.93994400  1
  C  C50  1  0.92443200  0.33981200  0.93994400  1
  C  C51  1  0.66018800  0.07556800  0.06005600  1
  C  C52  1  0.66018800  0.07556800  0.43994400  1
  C  C53  1  0.33981200  0.92443200  0.56005600  1
  C  C54  1  0.03417000  0.03417000  0.11488600  1
  C  C55  1  0.96583000  0.96583000  0.88511400  1
  C  C56  1  0.96583000  0.96583000  0.61488600  1
  C  C57  1  0.03417000  0.03417000  0.38511400  1
  C  C58  1  0.91584700  0.22542800  0.68045400  1
  C  C59  1  0.08415300  0.77457200  0.31954600  1
  C  C60  1  0.08415300  0.77457200  0.18045400  1
  C  C61  1  0.22542800  0.91584700  0.81954600  1
  C  C62  1  0.91584700  0.22542800  0.81954600  1
  C  C63  1  0.77457200  0.08415300  0.18045400  1
  C  C64  1  0.77457200  0.08415300  0.31954600  1
  C  C65  1  0.22542800  0.91584700  0.68045400  1
  C  C66  1  0.90094200  0.63902700  0.53621800  1
  C  C67  1  0.09905800  0.36097300  0.46378200  1
  C  C68  1  0.09905800  0.36097300  0.03621800  1
  C  C69  1  0.63902700  0.90094200  0.96378200  1
  C  C70  1  0.90094200  0.63902700  0.96378200  1
  C  C71  1  0.36097300  0.09905800  0.03621800  1
  C  C72  1  0.36097300  0.09905800  0.46378200  1
  C  C73  1  0.63902700  0.90094200  0.53621800  1
  C  C74  1  0.20273100  0.67124100  0.66419000  1
  C  C75  1  0.79726900  0.32875900  0.33581000  1
  C  C76  1  0.79726900  0.32875900  0.16419000  1
  C  C77  1  0.67124100  0.20273100  0.83581000  1
  C  C78  1  0.20273100  0.67124100  0.83581000  1
  C  C79  1  0.32875900  0.79726900  0.16419000  1
  C  C80  1  0.32875900  0.79726900  0.33581000  1
  C  C81  1  0.67124100  0.20273100  0.66419000  1
  C  C82  1  0.34522800  0.46019700  0.57227400  1
  C  C83  1  0.65477200  0.53980300  0.42772600  1
  C  C84  1  0.65477200  0.53980300  0.07227400  1
  C  C85  1  0.46019700  0.34522800  0.92772600  1
  C  C86  1  0.34522800  0.46019700  0.92772600  1
  C  C87  1  0.53980300  0.65477200  0.07227400  1
  C  C88  1  0.53980300  0.65477200  0.42772600  1
  C  C89  1  0.46019700  0.34522800  0.57227400  1
