# generated using pymatgen
data_Cu(NiC2)2
_symmetry_space_group_name_H-M   'P 1'
_cell_length_a   6.92225377
_cell_length_b   6.92225377
_cell_length_c   6.30467647
_cell_angle_alpha   63.18648064
_cell_angle_beta   63.18648064
_cell_angle_gamma   30.58834324
_symmetry_Int_Tables_number   1
_chemical_formula_structural   Cu(NiC2)2
_chemical_formula_sum   'Cu1 Ni2 C4'
_cell_volume   135.88493564
_cell_formula_units_Z   1
loop_
 _symmetry_equiv_pos_site_id
 _symmetry_equiv_pos_as_xyz
  1  'x, y, z'
loop_
 _atom_site_type_symbol
 _atom_site_label
 _atom_site_symmetry_multiplicity
 _atom_site_fract_x
 _atom_site_fract_y
 _atom_site_fract_z
 _atom_site_occupancy
  Ni  Ni0  1  0.50023600  0.50023600  0.49562300  1
  Ni  Ni1  1  0.00263400  0.00263400  0.00547700  1
  Cu  Cu2  1  0.67660600  0.67660600  0.99142100  1
  C  C3  1  0.37337700  0.37337700  0.29375800  1
  C  C4  1  0.87254100  0.87254100  0.79013200  1
  C  C5  1  0.62813000  0.62813000  0.69917000  1
  C  C6  1  0.13596700  0.13596700  0.20106700  1
