# generated using pymatgen
data_Cu3NiC16
_symmetry_space_group_name_H-M   'P 1'
_cell_length_a   4.02098300
_cell_length_b   9.04197000
_cell_length_c   14.82634524
_cell_angle_alpha   89.97659298
_cell_angle_beta   90.00000000
_cell_angle_gamma   90.00000000
_symmetry_Int_Tables_number   1
_chemical_formula_structural   Cu3NiC16
_chemical_formula_sum   'Cu3 Ni1 C16'
_cell_volume   539.05039813
_cell_formula_units_Z   1
loop_
 _symmetry_equiv_pos_site_id
 _symmetry_equiv_pos_as_xyz
  1  'x, y, z'
loop_
 _atom_site_type_symbol
 _atom_site_label
 _atom_site_symmetry_multiplicity
 _atom_site_fract_x
 _atom_site_fract_y
 _atom_site_fract_z
 _atom_site_occupancy
  Ni  Ni0  1  0.50000000  0.93231300  0.82349200  1
  Cu  Cu1  1  0.50000000  0.43643100  0.67607700  1
  Cu  Cu2  1  0.00000000  0.06268800  0.17855500  1
  Cu  Cu3  1  0.00000000  0.56357000  0.32225800  1
  C  C4  1  0.50000000  0.66593900  0.06034100  1
  C  C5  1  0.50000000  0.16988200  0.44150600  1
  C  C6  1  0.00000000  0.33371800  0.94261500  1
  C  C7  1  0.00000000  0.83021300  0.55561800  1
  C  C8  1  0.50000000  0.66086300  0.48686700  1
  C  C9  1  0.50000000  0.16425400  0.01237800  1
  C  C10  1  0.00000000  0.33843600  0.51096100  1
  C  C11  1  0.00000000  0.83824800  0.99515300  1
  C  C12  1  0.50000000  0.52500400  0.89332600  1
  C  C13  1  0.50000000  0.02137700  0.60607800  1
  C  C14  1  0.00000000  0.47601300  0.10906700  1
  C  C15  1  0.00000000  0.97862300  0.39151000  1
  C  C16  1  0.50000000  0.79084300  0.21899000  1
  C  C17  1  0.50000000  0.29127000  0.28197000  1
  C  C18  1  0.00000000  0.22124200  0.78091900  1
  C  C19  1  0.00000000  0.69907300  0.71231900  1
