# generated using pymatgen
data_Cu4NiC2
_symmetry_space_group_name_H-M   'P 1'
_cell_length_a   8.30359502
_cell_length_b   8.30359502
_cell_length_c   10.37236729
_cell_angle_alpha   88.35976869
_cell_angle_beta   88.35976869
_cell_angle_gamma   53.07808766
_symmetry_Int_Tables_number   1
_chemical_formula_structural   Cu4NiC2
_chemical_formula_sum   'Cu16 Ni4 C8'
_cell_volume   571.45470702
_cell_formula_units_Z   4
loop_
 _symmetry_equiv_pos_site_id
 _symmetry_equiv_pos_as_xyz
  1  'x, y, z'
loop_
 _atom_site_type_symbol
 _atom_site_label
 _atom_site_symmetry_multiplicity
 _atom_site_fract_x
 _atom_site_fract_y
 _atom_site_fract_z
 _atom_site_occupancy
  C  C0  1  0.22444300  0.35450200  0.50563100  1
  C  C1  1  0.64549800  0.77555700  0.99436900  1
  C  C2  1  0.77555700  0.64549800  0.49436900  1
  C  C3  1  0.35450200  0.22444300  0.00563100  1
  C  C4  1  0.05553400  0.40164400  0.78593000  1
  C  C5  1  0.59835600  0.94446600  0.71407000  1
  C  C6  1  0.94446600  0.59835600  0.21407000  1
  C  C7  1  0.40164400  0.05553400  0.28593000  1
  Ni  Ni8  1  0.18247100  0.77084400  0.34023200  1
  Ni  Ni9  1  0.22915600  0.81752900  0.15976800  1
  Ni  Ni10  1  0.81752900  0.22915600  0.65976800  1
  Ni  Ni11  1  0.77084400  0.18247100  0.84023200  1
  Cu  Cu12  1  0.00531700  0.54188100  0.61967500  1
  Cu  Cu13  1  0.45811900  0.99468300  0.88032500  1
  Cu  Cu14  1  0.99468300  0.45811900  0.38032500  1
  Cu  Cu15  1  0.54188100  0.00531700  0.11967500  1
  Cu  Cu16  1  0.45210100  0.20199600  0.39272200  1
  Cu  Cu17  1  0.79800400  0.54789900  0.10727800  1
  Cu  Cu18  1  0.54789900  0.79800400  0.60727800  1
  Cu  Cu19  1  0.20199600  0.45210100  0.89272200  1
  Cu  Cu20  1  0.32526000  0.20782200  0.66762400  1
  Cu  Cu21  1  0.79217800  0.67474000  0.83237600  1
  Cu  Cu22  1  0.67474000  0.79217800  0.33237600  1
  Cu  Cu23  1  0.20782200  0.32526000  0.16762400  1
  Cu  Cu24  1  0.33423800  0.66576200  0.25000000  1
  Cu  Cu25  1  0.66576200  0.33423800  0.75000000  1
  Cu  Cu26  1  0.92319900  0.07680100  0.75000000  1
  Cu  Cu27  1  0.07680100  0.92319900  0.25000000  1
