# generated using pymatgen
data_CuNiC4
_symmetry_space_group_name_H-M   'P 1'
_cell_length_a   9.03929675
_cell_length_b   9.03929675
_cell_length_c   24.42782480
_cell_angle_alpha   84.68275908
_cell_angle_beta   84.68275908
_cell_angle_gamma   90.01102575
_symmetry_Int_Tables_number   1
_chemical_formula_structural   CuNiC4
_chemical_formula_sum   'Cu8 Ni8 C32'
_cell_volume   1978.75181185
_cell_formula_units_Z   8
loop_
 _symmetry_equiv_pos_site_id
 _symmetry_equiv_pos_as_xyz
  1  'x, y, z'
loop_
 _atom_site_type_symbol
 _atom_site_label
 _atom_site_symmetry_multiplicity
 _atom_site_fract_x
 _atom_site_fract_y
 _atom_site_fract_z
 _atom_site_occupancy
  C  C0  1  0.76946500  0.39435400  0.42156100  1
  C  C1  1  0.60564600  0.23053500  0.07843900  1
  C  C2  1  0.23053500  0.60564600  0.57843900  1
  C  C3  1  0.39435400  0.76946500  0.92156100  1
  C  C4  1  0.10503300  0.23020600  0.07844000  1
  C  C5  1  0.76979400  0.89496700  0.42156000  1
  C  C6  1  0.89496700  0.76979400  0.92156000  1
  C  C7  1  0.23020600  0.10503300  0.57844000  1
  Ni  Ni8  1  0.06417500  0.93582500  0.25000000  1
  Ni  Ni9  1  0.93582500  0.06417500  0.75000000  1
  Ni  Ni10  1  0.06425500  0.43912900  0.25004100  1
  Ni  Ni11  1  0.56087100  0.93574500  0.24995900  1
  Ni  Ni12  1  0.93574500  0.56087100  0.74995900  1
  Ni  Ni13  1  0.43912900  0.06425500  0.75004100  1
  Ni  Ni14  1  0.56054300  0.43945700  0.25000000  1
  Ni  Ni15  1  0.43945700  0.56054300  0.75000000  1
  Cu  Cu16  1  0.84380500  0.71888800  0.12402200  1
  Cu  Cu17  1  0.28111200  0.15619500  0.37597800  1
  Cu  Cu18  1  0.15619500  0.28111200  0.87597800  1
  Cu  Cu19  1  0.71888800  0.84380500  0.62402200  1
  Cu  Cu20  1  0.28079700  0.65636200  0.37574700  1
  Cu  Cu21  1  0.34363800  0.71920300  0.12425300  1
  Cu  Cu22  1  0.71920300  0.34363800  0.62425300  1
  Cu  Cu23  1  0.65636200  0.28079700  0.87574700  1
  C  C24  1  0.26331600  0.38822500  0.44719500  1
  C  C25  1  0.61177500  0.73668400  0.05280500  1
  C  C26  1  0.73668400  0.61177500  0.55280500  1
  C  C27  1  0.38822500  0.26331600  0.94719500  1
  C  C28  1  0.11157500  0.73702800  0.05277900  1
  C  C29  1  0.26297200  0.88842500  0.44722100  1
  C  C30  1  0.88842500  0.26297200  0.94722100  1
  C  C31  1  0.73702800  0.11157500  0.55277900  1
  C  C32  1  0.32869400  0.43713700  0.18519200  1
  C  C33  1  0.56286300  0.67130600  0.31480800  1
  C  C34  1  0.67130600  0.56286300  0.81480800  1
  C  C35  1  0.43713700  0.32869400  0.68519200  1
  C  C36  1  0.03045500  0.17147700  0.31417000  1
  C  C37  1  0.82852300  0.96954500  0.18583000  1
  C  C38  1  0.96954500  0.82852300  0.68583000  1
  C  C39  1  0.17147700  0.03045500  0.81417000  1
  C  C40  1  0.03014600  0.67131300  0.31454300  1
  C  C41  1  0.32868700  0.96985400  0.18545700  1
  C  C42  1  0.96985400  0.32868700  0.68545700  1
  C  C43  1  0.67131300  0.03014600  0.81454300  1
  C  C44  1  0.82836500  0.43816500  0.18610500  1
  C  C45  1  0.56183500  0.17163500  0.31389500  1
  C  C46  1  0.17163500  0.56183500  0.81389500  1
  C  C47  1  0.43816500  0.82836500  0.68610500  1
