# generated using pymatgen
data_Cu3Ni12C7
_symmetry_space_group_name_H-M   'P 1'
_cell_length_a   7.17617200
_cell_length_b   9.82376500
_cell_length_c   12.42461971
_cell_angle_alpha   80.10346728
_cell_angle_beta   90.00000000
_cell_angle_gamma   90.00000000
_symmetry_Int_Tables_number   1
_chemical_formula_structural   Cu3Ni12C7
_chemical_formula_sum   'Cu6 Ni24 C14'
_cell_volume   862.86514427
_cell_formula_units_Z   2
loop_
 _symmetry_equiv_pos_site_id
 _symmetry_equiv_pos_as_xyz
  1  'x, y, z'
loop_
 _atom_site_type_symbol
 _atom_site_label
 _atom_site_symmetry_multiplicity
 _atom_site_fract_x
 _atom_site_fract_y
 _atom_site_fract_z
 _atom_site_occupancy
  C  C0  1  0.73705700  0.00765300  0.24537300  1
  C  C1  1  0.23705700  0.99234700  0.75462700  1
  C  C2  1  0.32855600  0.37625500  0.42215500  1
  C  C3  1  0.82855600  0.62374500  0.57784500  1
  C  C4  1  0.31496500  0.37683600  0.23797600  1
  C  C5  1  0.81496500  0.62316400  0.76202400  1
  C  C6  1  0.37796300  0.57705100  0.30219300  1
  C  C7  1  0.87796300  0.42294900  0.69780700  1
  C  C8  1  0.88512200  0.59224800  0.17232300  1
  C  C9  1  0.38512200  0.40775200  0.82767700  1
  C  C10  1  0.82162700  0.39236500  0.29138800  1
  C  C11  1  0.32162700  0.60763500  0.70861200  1
  C  C12  1  0.81389500  0.39455800  0.10665500  1
  C  C13  1  0.31389500  0.60544200  0.89334500  1
  Ni  Ni14  1  0.78145600  0.32199600  0.20864800  1
  Ni  Ni15  1  0.28145600  0.67800400  0.79135200  1
  Ni  Ni16  1  0.36700000  0.51352400  0.40856100  1
  Ni  Ni17  1  0.86700000  0.48647600  0.59143900  1
  Ni  Ni18  1  0.36259700  0.51284000  0.21338500  1
  Ni  Ni19  1  0.86259700  0.48716000  0.78661500  1
  Ni  Ni20  1  0.41043100  0.71478600  0.28253400  1
  Ni  Ni21  1  0.91043100  0.28521400  0.71746600  1
  Ni  Ni22  1  0.87692000  0.52696000  0.27829500  1
  Ni  Ni23  1  0.37692000  0.47304000  0.72170500  1
  Ni  Ni24  1  0.29283800  0.30320300  0.34062200  1
  Ni  Ni25  1  0.79283800  0.69679700  0.65937800  1
  Ni  Ni26  1  0.80190600  0.32240500  0.39465400  1
  Ni  Ni27  1  0.30190600  0.67759500  0.60534600  1
  Ni  Ni28  1  0.86383700  0.53019500  0.08333900  1
  Ni  Ni29  1  0.36383700  0.46980500  0.91666100  1
  Ni  Ni30  1  0.79190000  0.32524700  0.02217000  1
  Ni  Ni31  1  0.29190000  0.67475300  0.97783000  1
  Ni  Ni32  1  0.32143500  0.30569500  0.52597600  1
  Ni  Ni33  1  0.82143500  0.69430500  0.47402400  1
  Ni  Ni34  1  0.28288300  0.30921500  0.15348000  1
  Ni  Ni35  1  0.78288300  0.69078500  0.84652000  1
  Ni  Ni36  1  0.91912100  0.73007300  0.15481000  1
  Ni  Ni37  1  0.41912100  0.26992700  0.84519000  1
  Cu  Cu38  1  0.56208100  0.01265800  0.08289200  1
  Cu  Cu39  1  0.06208100  0.98734200  0.91710800  1
  Cu  Cu40  1  0.56314600  0.00938200  0.41627900  1
  Cu  Cu41  1  0.06314600  0.99061800  0.58372100  1
  Cu  Cu42  1  0.06356600  0.00768800  0.28617400  1
  Cu  Cu43  1  0.56356600  0.99231200  0.71382600  1
