# generated using pymatgen
data_CuNi2C17
_symmetry_space_group_name_H-M   'P 1'
_cell_length_a   6.52770500
_cell_length_b   8.57391632
_cell_length_c   10.84283071
_cell_angle_alpha   112.98154514
_cell_angle_beta   90.00000000
_cell_angle_gamma   90.00000000
_symmetry_Int_Tables_number   1
_chemical_formula_structural   CuNi2C17
_chemical_formula_sum   'Cu2 Ni4 C34'
_cell_volume   558.68610637
_cell_formula_units_Z   2
loop_
 _symmetry_equiv_pos_site_id
 _symmetry_equiv_pos_as_xyz
  1  'x, y, z'
loop_
 _atom_site_type_symbol
 _atom_site_label
 _atom_site_symmetry_multiplicity
 _atom_site_fract_x
 _atom_site_fract_y
 _atom_site_fract_z
 _atom_site_occupancy
  C  C0  1  0.75000000  0.75599200  0.98917300  1
  C  C1  1  0.25000000  0.24400800  0.01082700  1
  C  C2  1  0.75000000  0.74585100  0.66839300  1
  C  C3  1  0.25000000  0.25414900  0.33160700  1
  C  C4  1  0.75000000  0.16593600  0.62393400  1
  C  C5  1  0.25000000  0.83406400  0.37606600  1
  Ni  Ni6  1  0.75000000  0.15514400  0.93597100  1
  Ni  Ni7  1  0.25000000  0.84485600  0.06402900  1
  Ni  Ni8  1  0.25000000  0.87911800  0.69893000  1
  Ni  Ni9  1  0.75000000  0.12088200  0.30107000  1
  Cu  Cu10  1  0.25000000  0.50610500  0.73848400  1
  Cu  Cu11  1  0.75000000  0.49389500  0.26151600  1
  C  C12  1  0.75000000  0.60377200  0.05633300  1
  C  C13  1  0.25000000  0.39622800  0.94366700  1
  C  C14  1  0.75000000  0.96582000  0.16927500  1
  C  C15  1  0.25000000  0.03418000  0.83072500  1
  C  C16  1  0.06305200  0.77014300  0.97089200  1
  C  C17  1  0.56305200  0.22985700  0.02910800  1
  C  C18  1  0.93694800  0.22985700  0.02910800  1
  C  C19  1  0.43694800  0.77014300  0.97089200  1
  C  C20  1  0.75000000  0.63134300  0.79624700  1
  C  C21  1  0.25000000  0.36865700  0.20375300  1
  C  C22  1  0.75000000  0.95945800  0.88122500  1
  C  C23  1  0.25000000  0.04054200  0.11877500  1
  C  C24  1  0.75000000  0.57525200  0.51502100  1
  C  C25  1  0.25000000  0.42474800  0.48497900  1
  C  C26  1  0.75000000  0.94246300  0.61202000  1
  C  C27  1  0.25000000  0.05753700  0.38798000  1
  C  C28  1  0.06445500  0.76161300  0.69119200  1
  C  C29  1  0.56445500  0.23838700  0.30880800  1
  C  C30  1  0.93554500  0.23838700  0.30880800  1
  C  C31  1  0.43554500  0.76161300  0.69119200  1
  C  C32  1  0.52548200  0.28501300  0.63771800  1
  C  C33  1  0.02548200  0.71498700  0.36228200  1
  C  C34  1  0.47451800  0.71498700  0.36228200  1
  C  C35  1  0.97451800  0.28501300  0.63771800  1
  C  C36  1  0.75000000  0.22351700  0.82428000  1
  C  C37  1  0.25000000  0.77648300  0.17572000  1
  C  C38  1  0.75000000  0.06316000  0.41946600  1
  C  C39  1  0.25000000  0.93684000  0.58053400  1
