# generated using pymatgen
data_Cu5Ni2C25
_symmetry_space_group_name_H-M   'P 1'
_cell_length_a   5.04665800
_cell_length_b   5.84823822
_cell_length_c   10.12268353
_cell_angle_alpha   88.92873785
_cell_angle_beta   99.03755184
_cell_angle_gamma   107.07933804
_symmetry_Int_Tables_number   1
_chemical_formula_structural   Cu5Ni2C25
_chemical_formula_sum   'Cu5 Ni2 C25'
_cell_volume   281.92125665
_cell_formula_units_Z   1
loop_
 _symmetry_equiv_pos_site_id
 _symmetry_equiv_pos_as_xyz
  1  'x, y, z'
loop_
 _atom_site_type_symbol
 _atom_site_label
 _atom_site_symmetry_multiplicity
 _atom_site_fract_x
 _atom_site_fract_y
 _atom_site_fract_z
 _atom_site_occupancy
  C  C0  1  0.99179900  0.24545100  0.24422500  1
  C  C1  1  0.49941000  0.87581500  0.62713900  1
  C  C2  1  0.99683600  0.00062400  0.49629600  1
  C  C3  1  0.50008200  0.62614800  0.88139400  1
  C  C4  1  0.00431100  0.75006000  0.75363600  1
  C  C5  1  0.50659100  0.37731800  0.12336900  1
  C  C6  1  0.00672000  0.50471400  0.00229300  1
  C  C7  1  0.49697600  0.12105000  0.36857500  1
  C  C8  1  0.50059700  0.87473000  0.12609700  1
  Ni  Ni9  1  0.00196700  0.99784300  0.00694900  1
  Ni  Ni10  1  0.49663100  0.62921500  0.36738900  1
  Cu  Cu11  1  0.00201600  0.25168500  0.75201200  1
  Cu  Cu12  1  0.99816200  0.49730400  0.49946600  1
  Cu  Cu13  1  0.50290800  0.11830800  0.88392700  1
  Cu  Cu14  1  0.99765000  0.75072300  0.24842500  1
  Cu  Cu15  1  0.49642300  0.37132800  0.62550100  1
  C  C16  1  0.76536100  0.17711800  0.05443300  1
  C  C17  1  0.24348700  0.79196600  0.42609000  1
  C  C18  1  0.74890600  0.91084600  0.31370800  1
  C  C19  1  0.24294800  0.55197600  0.68312600  1
  C  C20  1  0.73026500  0.66758500  0.55210600  1
  C  C21  1  0.24298200  0.29639400  0.93953300  1
  C  C22  1  0.74440200  0.41576300  0.80757700  1
  C  C23  1  0.21949700  0.04276000  0.18053300  1
  C  C24  1  0.25895900  0.33533600  0.43783800  1
  C  C25  1  0.76775700  0.94788500  0.82497400  1
  C  C26  1  0.25346000  0.08274900  0.68685600  1
  C  C27  1  0.78352100  0.70659300  0.06963100  1
  C  C28  1  0.24844700  0.83809100  0.93624000  1
  C  C29  1  0.74266900  0.46182000  0.31327300  1
  C  C30  1  0.24864400  0.57782100  0.20324400  1
  C  C31  1  0.75961600  0.20297800  0.56415200  1
