# generated using pymatgen
data_CuNiC5
_symmetry_space_group_name_H-M   'P 1'
_cell_length_a   5.98272300
_cell_length_b   9.11968000
_cell_length_c   15.55476500
_cell_angle_alpha   90.00000000
_cell_angle_beta   90.00000000
_cell_angle_gamma   90.00000000
_symmetry_Int_Tables_number   1
_chemical_formula_structural   CuNiC5
_chemical_formula_sum   'Cu8 Ni8 C40'
_cell_volume   848.67605581
_cell_formula_units_Z   8
loop_
 _symmetry_equiv_pos_site_id
 _symmetry_equiv_pos_as_xyz
  1  'x, y, z'
loop_
 _atom_site_type_symbol
 _atom_site_label
 _atom_site_symmetry_multiplicity
 _atom_site_fract_x
 _atom_site_fract_y
 _atom_site_fract_z
 _atom_site_occupancy
  C  C0  1  0.50261200  0.57390600  0.62067300  1
  C  C1  1  0.50261200  0.42609400  0.37932700  1
  C  C2  1  0.49738800  0.92609400  0.12067300  1
  C  C3  1  0.49738800  0.07390600  0.87932700  1
  C  C4  1  0.99700100  0.21321100  0.02136600  1
  C  C5  1  0.99700100  0.78678900  0.97863400  1
  C  C6  1  0.00299900  0.28678900  0.52136600  1
  C  C7  1  0.00299900  0.71321100  0.47863400  1
  Ni  Ni8  1  0.74675600  0.46182200  0.84555400  1
  Ni  Ni9  1  0.74675600  0.53817800  0.15444600  1
  Ni  Ni10  1  0.25324400  0.03817800  0.34555400  1
  Ni  Ni11  1  0.25324400  0.96182200  0.65444600  1
  Ni  Ni12  1  0.24748300  0.46355200  0.84647400  1
  Ni  Ni13  1  0.24748300  0.53644800  0.15352600  1
  Ni  Ni14  1  0.75251700  0.03644800  0.34647400  1
  Ni  Ni15  1  0.75251700  0.96355200  0.65352600  1
  Cu  Cu16  1  0.00023300  0.51974100  0.68685000  1
  Cu  Cu17  1  0.00023300  0.48025900  0.31315000  1
  Cu  Cu18  1  0.99976700  0.98025900  0.18685000  1
  Cu  Cu19  1  0.99976700  0.01974100  0.81315000  1
  Cu  Cu20  1  0.50234000  0.20724000  0.57579200  1
  Cu  Cu21  1  0.50234000  0.79276000  0.42420800  1
  Cu  Cu22  1  0.49766000  0.29276000  0.07579200  1
  Cu  Cu23  1  0.49766000  0.70724000  0.92420800  1
  C  C24  1  0.00293300  0.53070400  0.59901000  1
  C  C25  1  0.00293300  0.46929600  0.40099000  1
  C  C26  1  0.99706700  0.96929600  0.09901000  1
  C  C27  1  0.99706700  0.03070400  0.90099000  1
  C  C28  1  0.29379400  0.64095300  0.90543700  1
  C  C29  1  0.29379400  0.35904700  0.09456300  1
  C  C30  1  0.70620600  0.85904700  0.40543700  1
  C  C31  1  0.70620600  0.14095300  0.59456300  1
  C  C32  1  0.49648700  0.34604600  0.85396100  1
  C  C33  1  0.49648700  0.65395400  0.14603900  1
  C  C34  1  0.50351300  0.15395400  0.35396100  1
  C  C35  1  0.50351300  0.84604600  0.64603900  1
  C  C36  1  0.70042500  0.35783900  0.09808900  1
  C  C37  1  0.70042500  0.64216100  0.90191100  1
  C  C38  1  0.29957500  0.14216100  0.59808900  1
  C  C39  1  0.29957500  0.85783900  0.40191100  1
  C  C40  1  0.20314200  0.51783100  0.73119700  1
  C  C41  1  0.20314200  0.48216900  0.26880300  1
  C  C42  1  0.79685800  0.98216900  0.23119700  1
  C  C43  1  0.79685800  0.01783100  0.76880300  1
  C  C44  1  0.79539100  0.50739100  0.72920300  1
  C  C45  1  0.79539100  0.49260900  0.27079700  1
  C  C46  1  0.20460900  0.99260900  0.22920300  1
  C  C47  1  0.20460900  0.00739100  0.77079700  1
  C  C48  1  0.99704000  0.37662400  0.89176900  1
  C  C49  1  0.99704000  0.62337600  0.10823100  1
  C  C50  1  0.00296000  0.12337600  0.39176900  1
  C  C51  1  0.00296000  0.87662400  0.60823100  1
  C  C52  1  0.50100000  0.34030300  0.53433400  1
  C  C53  1  0.50100000  0.65969700  0.46566600  1
  C  C54  1  0.49900000  0.15969700  0.03433400  1
  C  C55  1  0.49900000  0.84030300  0.96566600  1
