# generated using pymatgen
data_Cu2Ni5C11
_symmetry_space_group_name_H-M   'P 1'
_cell_length_a   3.09821900
_cell_length_b   9.46768600
_cell_length_c   12.47011700
_cell_angle_alpha   90.00000000
_cell_angle_beta   90.00000000
_cell_angle_gamma   90.00000000
_symmetry_Int_Tables_number   1
_chemical_formula_structural   Cu2Ni5C11
_chemical_formula_sum   'Cu4 Ni10 C22'
_cell_volume   365.78550116
_cell_formula_units_Z   2
loop_
 _symmetry_equiv_pos_site_id
 _symmetry_equiv_pos_as_xyz
  1  'x, y, z'
loop_
 _atom_site_type_symbol
 _atom_site_label
 _atom_site_symmetry_multiplicity
 _atom_site_fract_x
 _atom_site_fract_y
 _atom_site_fract_z
 _atom_site_occupancy
  C  C0  1  0.00000000  0.00696900  0.61502700  1
  C  C1  1  0.00000000  0.99303100  0.11502700  1
  Ni  Ni2  1  0.50000000  0.26057600  0.22118300  1
  Ni  Ni3  1  0.50000000  0.25223300  0.77934900  1
  Ni  Ni4  1  0.50000000  0.74776700  0.27934900  1
  Ni  Ni5  1  0.50000000  0.73942400  0.72118300  1
  Ni  Ni6  1  0.50000000  0.25833300  0.49943700  1
  Ni  Ni7  1  0.50000000  0.74166700  0.99943700  1
  Ni  Ni8  1  0.00000000  0.73791600  0.49580800  1
  Ni  Ni9  1  0.00000000  0.26208400  0.99580800  1
  Ni  Ni10  1  0.00000000  0.48795800  0.38137900  1
  Ni  Ni11  1  0.00000000  0.51204200  0.88137900  1
  Cu  Cu12  1  0.00000000  0.52553900  0.13881100  1
  Cu  Cu13  1  0.00000000  0.97983900  0.86193400  1
  Cu  Cu14  1  0.00000000  0.02016100  0.36193400  1
  Cu  Cu15  1  0.00000000  0.47446100  0.63881100  1
  C  C16  1  0.00000000  0.37693600  0.13935300  1
  C  C17  1  0.00000000  0.12473600  0.86047500  1
  C  C18  1  0.00000000  0.87526400  0.36047500  1
  C  C19  1  0.00000000  0.62306400  0.63935300  1
  C  C20  1  0.50000000  0.35401400  0.35771300  1
  C  C21  1  0.50000000  0.13501100  0.64200600  1
  C  C22  1  0.50000000  0.86498900  0.14200600  1
  C  C23  1  0.50000000  0.64598600  0.85771300  1
  C  C24  1  0.00000000  0.59960900  0.23458700  1
  C  C25  1  0.00000000  0.90608200  0.76461900  1
  C  C26  1  0.00000000  0.09391800  0.26461900  1
  C  C27  1  0.00000000  0.40039100  0.73458700  1
  C  C28  1  0.00000000  0.39947300  0.54370100  1
  C  C29  1  0.00000000  0.09542000  0.45888500  1
  C  C30  1  0.00000000  0.90458000  0.95888500  1
  C  C31  1  0.00000000  0.60052700  0.04370100  1
  C  C32  1  0.50000000  0.64000700  0.42111000  1
  C  C33  1  0.50000000  0.87422100  0.58462400  1
  C  C34  1  0.50000000  0.12577900  0.08462400  1
  C  C35  1  0.50000000  0.35999300  0.92111000  1
