# generated using pymatgen
data_CuNiC12
_symmetry_space_group_name_H-M   'P 1'
_cell_length_a   6.25211700
_cell_length_b   7.41924400
_cell_length_c   14.11134700
_cell_angle_alpha   90.00000000
_cell_angle_beta   90.00000000
_cell_angle_gamma   90.00000000
_symmetry_Int_Tables_number   1
_chemical_formula_structural   CuNiC12
_chemical_formula_sum   'Cu4 Ni4 C48'
_cell_volume   654.56868144
_cell_formula_units_Z   4
loop_
 _symmetry_equiv_pos_site_id
 _symmetry_equiv_pos_as_xyz
  1  'x, y, z'
loop_
 _atom_site_type_symbol
 _atom_site_label
 _atom_site_symmetry_multiplicity
 _atom_site_fract_x
 _atom_site_fract_y
 _atom_site_fract_z
 _atom_site_occupancy
  C  C0  1  0.25000000  0.38791500  0.77694600  1
  C  C1  1  0.25000000  0.11208500  0.27694600  1
  C  C2  1  0.75000000  0.61208500  0.22305400  1
  C  C3  1  0.75000000  0.88791500  0.72305400  1
  Ni  Ni4  1  0.25000000  0.85496100  0.88410400  1
  Ni  Ni5  1  0.75000000  0.14503900  0.11589600  1
  Ni  Ni6  1  0.75000000  0.35496100  0.61589600  1
  Ni  Ni7  1  0.25000000  0.64503900  0.38410400  1
  Cu  Cu8  1  0.00000000  0.50000000  0.00000000  1
  Cu  Cu9  1  0.00000000  0.00000000  0.50000000  1
  Cu  Cu10  1  0.50000000  0.00000000  0.50000000  1
  Cu  Cu11  1  0.50000000  0.50000000  0.00000000  1
  C  C12  1  0.75000000  0.85596300  0.93348300  1
  C  C13  1  0.25000000  0.14403700  0.06651700  1
  C  C14  1  0.25000000  0.35596300  0.56651700  1
  C  C15  1  0.75000000  0.64403700  0.43348300  1
  C  C16  1  0.25000000  0.89140500  0.69920100  1
  C  C17  1  0.75000000  0.10859500  0.30079900  1
  C  C18  1  0.75000000  0.39140500  0.80079900  1
  C  C19  1  0.25000000  0.60859500  0.19920100  1
  C  C20  1  0.53794600  0.11254900  0.35933500  1
  C  C21  1  0.03794600  0.88745100  0.64066500  1
  C  C22  1  0.46205400  0.61254900  0.14066500  1
  C  C23  1  0.96205400  0.38745100  0.85933500  1
  C  C24  1  0.46205400  0.88745100  0.64066500  1
  C  C25  1  0.96205400  0.11254900  0.35933500  1
  C  C26  1  0.53794600  0.38745100  0.85933500  1
  C  C27  1  0.03794600  0.61254900  0.14066500  1
  C  C28  1  0.75000000  0.83830300  0.47966000  1
  C  C29  1  0.25000000  0.16169700  0.52034000  1
  C  C30  1  0.25000000  0.33830300  0.02034000  1
  C  C31  1  0.75000000  0.66169700  0.97966000  1
  C  C32  1  0.25000000  0.65280400  0.94856700  1
  C  C33  1  0.75000000  0.34719600  0.05143300  1
  C  C34  1  0.75000000  0.15280400  0.55143300  1
  C  C35  1  0.25000000  0.84719600  0.44856700  1
  C  C36  1  0.25000000  0.71653000  0.76244200  1
  C  C37  1  0.75000000  0.28347000  0.23755800  1
  C  C38  1  0.75000000  0.21653000  0.73755800  1
  C  C39  1  0.25000000  0.78347000  0.26244200  1
  C  C40  1  0.93839700  0.63128000  0.36270800  1
  C  C41  1  0.43839700  0.36872000  0.63729200  1
  C  C42  1  0.06160300  0.13128000  0.13729200  1
  C  C43  1  0.56160300  0.86872000  0.86270800  1
  C  C44  1  0.06160300  0.36872000  0.63729200  1
  C  C45  1  0.56160300  0.63128000  0.36270800  1
  C  C46  1  0.93839700  0.86872000  0.86270800  1
  C  C47  1  0.43839700  0.13128000  0.13729200  1
  C  C48  1  0.25000000  0.46576000  0.27475000  1
  C  C49  1  0.75000000  0.53424000  0.72525000  1
  C  C50  1  0.75000000  0.96576000  0.22525000  1
  C  C51  1  0.25000000  0.03424000  0.77475000  1
  C  C52  1  0.25000000  0.49931500  0.48960800  1
  C  C53  1  0.75000000  0.50068500  0.51039200  1
  C  C54  1  0.75000000  0.99931500  0.01039200  1
  C  C55  1  0.25000000  0.00068500  0.98960800  1
