# generated using pymatgen
data_CuNiC4
_symmetry_space_group_name_H-M   'P 1'
_cell_length_a   3.43835631
_cell_length_b   3.43835631
_cell_length_c   39.16074500
_cell_angle_alpha   90.00000000
_cell_angle_beta   90.00000000
_cell_angle_gamma   120.00000594
_symmetry_Int_Tables_number   1
_chemical_formula_structural   CuNiC4
_chemical_formula_sum   'Cu2 Ni2 C8'
_cell_volume   400.94362281
_cell_formula_units_Z   2
loop_
 _symmetry_equiv_pos_site_id
 _symmetry_equiv_pos_as_xyz
  1  'x, y, z'
loop_
 _atom_site_type_symbol
 _atom_site_label
 _atom_site_symmetry_multiplicity
 _atom_site_fract_x
 _atom_site_fract_y
 _atom_site_fract_z
 _atom_site_occupancy
  C  C0  1  0.00000000  0.00000000  0.32913500  1
  C  C1  1  0.33333300  0.66666700  0.42203700  1
  C  C2  1  0.33333300  0.66666700  0.51736400  1
  C  C3  1  0.00000000  0.00000000  0.23438300  1
  Ni  Ni4  1  0.00000000  0.00000000  0.09392500  1
  Ni  Ni5  1  0.33333300  0.66666700  0.28175200  1
  Cu  Cu6  1  0.00000000  0.00000000  0.46968400  1
  Cu  Cu7  1  0.33333300  0.66666700  0.65753300  1
  C  C8  1  0.00000000  0.00000000  0.69945800  1
  C  C9  1  0.33333300  0.66666700  0.05213300  1
  C  C10  1  0.33333300  0.66666700  0.13571500  1
  C  C11  1  0.00000000  0.00000000  0.61563000  1
