# generated using pymatgen
data_CuNi6C7
_symmetry_space_group_name_H-M   'P 1'
_cell_length_a   9.32782700
_cell_length_b   7.83620700
_cell_length_c   23.26907198
_cell_angle_alpha   80.99966800
_cell_angle_beta   90.00000000
_cell_angle_gamma   90.00000000
_symmetry_Int_Tables_number   1
_chemical_formula_structural   CuNi6C7
_chemical_formula_sum   'Cu8 Ni48 C56'
_cell_volume   1679.90597227
_cell_formula_units_Z   8
loop_
 _symmetry_equiv_pos_site_id
 _symmetry_equiv_pos_as_xyz
  1  'x, y, z'
loop_
 _atom_site_type_symbol
 _atom_site_label
 _atom_site_symmetry_multiplicity
 _atom_site_fract_x
 _atom_site_fract_y
 _atom_site_fract_z
 _atom_site_occupancy
  Ni  Ni0  1  0.04710100  0.42288600  0.63657600  1
  Ni  Ni1  1  0.95289900  0.57711400  0.36342400  1
  Ni  Ni2  1  0.54710100  0.07711400  0.36342400  1
  Ni  Ni3  1  0.45289900  0.92288600  0.63657600  1
  Ni  Ni4  1  0.04602400  0.13333400  0.16750800  1
  Ni  Ni5  1  0.95397600  0.86666600  0.83249200  1
  Ni  Ni6  1  0.54602400  0.36666600  0.83249200  1
  Ni  Ni7  1  0.45397600  0.63333400  0.16750800  1
  Ni  Ni8  1  0.44445200  0.19378400  0.33685300  1
  Ni  Ni9  1  0.55554800  0.80621600  0.66314700  1
  Ni  Ni10  1  0.94445200  0.30621600  0.66314700  1
  Ni  Ni11  1  0.05554800  0.69378400  0.33685300  1
  Ni  Ni12  1  0.09129100  0.41257200  0.57985400  1
  Ni  Ni13  1  0.90870900  0.58742800  0.42014600  1
  Ni  Ni14  1  0.59129100  0.08742800  0.42014600  1
  Ni  Ni15  1  0.40870900  0.91257200  0.57985400  1
  Ni  Ni16  1  0.12680800  0.34947800  0.08910000  1
  Ni  Ni17  1  0.87319200  0.65052200  0.91090000  1
  Ni  Ni18  1  0.62680800  0.15052200  0.91090000  1
  Ni  Ni19  1  0.37319200  0.84947800  0.08910000  1
  Ni  Ni20  1  0.38590600  0.31814400  0.36661400  1
  Ni  Ni21  1  0.61409400  0.68185600  0.63338600  1
  Ni  Ni22  1  0.88590600  0.18185600  0.63338600  1
  Ni  Ni23  1  0.11409400  0.81814400  0.36661400  1
  Ni  Ni24  1  0.96527700  0.12569800  0.06931800  1
  Ni  Ni25  1  0.03472300  0.87430200  0.93068200  1
  Ni  Ni26  1  0.46527700  0.37430200  0.93068200  1
  Ni  Ni27  1  0.53472300  0.62569800  0.06931800  1
  Ni  Ni28  1  0.96698700  0.05299600  0.12815400  1
  Ni  Ni29  1  0.03301300  0.94700400  0.87184600  1
  Ni  Ni30  1  0.46698700  0.44700400  0.87184600  1
  Ni  Ni31  1  0.53301300  0.55299600  0.12815400  1
  Ni  Ni32  1  0.12371600  0.28338900  0.14844200  1
  Ni  Ni33  1  0.87628400  0.71661100  0.85155800  1
  Ni  Ni34  1  0.62371600  0.21661100  0.85155800  1
  Ni  Ni35  1  0.37628400  0.78338900  0.14844200  1
  Ni  Ni36  1  0.04726200  0.27120500  0.04931400  1
  Ni  Ni37  1  0.95273800  0.72879500  0.95068600  1
  Ni  Ni38  1  0.54726200  0.22879500  0.95068600  1
  Ni  Ni39  1  0.45273800  0.77120500  0.04931400  1
  Ni  Ni40  1  0.03387000  0.28876900  0.54961100  1
  Ni  Ni41  1  0.96613000  0.71123100  0.45038900  1
  Ni  Ni42  1  0.53387000  0.21123100  0.45038900  1
  Ni  Ni43  1  0.46613000  0.78876900  0.54961100  1
  Ni  Ni44  1  0.43045400  0.32667400  0.42351100  1
  Ni  Ni45  1  0.56954600  0.67332600  0.57648900  1
  Ni  Ni46  1  0.93045400  0.17332600  0.57648900  1
  Ni  Ni47  1  0.06954600  0.82667400  0.42351100  1
  Cu  Cu48  1  0.62821700  0.31318300  0.15416100  1
  Cu  Cu49  1  0.37178300  0.68681700  0.84583900  1
  Cu  Cu50  1  0.12821700  0.18681700  0.84583900  1
  Cu  Cu51  1  0.87178300  0.81318300  0.15416100  1
  Cu  Cu52  1  0.86076400  0.39747900  0.31733700  1
  Cu  Cu53  1  0.13923600  0.60252100  0.68266300  1
  Cu  Cu54  1  0.36076400  0.10252100  0.68266300  1
  Cu  Cu55  1  0.63923600  0.89747900  0.31733700  1
  C  C56  1  0.94708300  0.66525900  0.00786300  1
  C  C57  1  0.05291700  0.33474100  0.99213700  1
  C  C58  1  0.44708300  0.83474100  0.99213700  1
  C  C59  1  0.55291700  0.16525900  0.00786300  1
  C  C60  1  0.25279000  0.39030700  0.72466500  1
  C  C61  1  0.74721000  0.60969300  0.27533500  1
  C  C62  1  0.75279000  0.10969300  0.27533500  1
  C  C63  1  0.24721000  0.89030700  0.72466500  1
  C  C64  1  0.28659300  0.42899200  0.34113100  1
  C  C65  1  0.71340700  0.57100800  0.65886900  1
  C  C66  1  0.78659300  0.07100800  0.65886900  1
  C  C67  1  0.21340700  0.92899200  0.34113100  1
  C  C68  1  0.44287100  0.21190400  0.13183200  1
  C  C69  1  0.55712900  0.78809600  0.86816800  1
  C  C70  1  0.94287100  0.28809600  0.86816800  1
  C  C71  1  0.05712900  0.71190400  0.13183200  1
  C  C72  1  0.88566600  0.05464700  0.03083100  1
  C  C73  1  0.11433400  0.94535300  0.96916900  1
  C  C74  1  0.38566600  0.44535300  0.96916900  1
  C  C75  1  0.61433400  0.55464700  0.03083100  1
  C  C76  1  0.81100700  0.44496300  0.17261200  1
  C  C77  1  0.18899300  0.55503700  0.82738800  1
  C  C78  1  0.31100700  0.05503700  0.82738800  1
  C  C79  1  0.68899300  0.94496300  0.17261200  1
  C  C80  1  0.47749800  0.28450800  0.63371600  1
  C  C81  1  0.52250200  0.71549200  0.36628400  1
  C  C82  1  0.97749800  0.21549200  0.36628400  1
  C  C83  1  0.02250200  0.78450800  0.63371600  1
  C  C84  1  0.19602900  0.36217400  0.18672800  1
  C  C85  1  0.80397100  0.63782600  0.81327200  1
  C  C86  1  0.69602900  0.13782600  0.81327200  1
  C  C87  1  0.30397100  0.86217400  0.18672800  1
  C  C88  1  0.20707900  0.48788100  0.06956800  1
  C  C89  1  0.79292100  0.51211900  0.93043200  1
  C  C90  1  0.70707900  0.01211900  0.93043200  1
  C  C91  1  0.29292100  0.98788100  0.06956800  1
  C  C92  1  0.37329700  0.44441600  0.45258000  1
  C  C93  1  0.62670300  0.55558400  0.54742000  1
  C  C94  1  0.87329700  0.05558400  0.54742000  1
  C  C95  1  0.12670300  0.94441600  0.45258000  1
  C  C96  1  0.07626300  0.27941300  0.49490000  1
  C  C97  1  0.92373700  0.72058700  0.50510000  1
  C  C98  1  0.57626300  0.22058700  0.50510000  1
  C  C99  1  0.42373700  0.77941300  0.49490000  1
  C  C100  1  0.04939900  0.06777900  0.22450600  1
  C  C101  1  0.95060100  0.93222100  0.77549400  1
  C  C102  1  0.54939900  0.43222100  0.77549400  1
  C  C103  1  0.45060100  0.56777900  0.22450600  1
  C  C104  1  0.40077200  0.18801000  0.28207300  1
  C  C105  1  0.59922800  0.81199000  0.71792700  1
  C  C106  1  0.90077200  0.31199000  0.71792700  1
  C  C107  1  0.09922800  0.68801000  0.28207300  1
  C  C108  1  0.30933900  0.02286900  0.55312900  1
  C  C109  1  0.69066100  0.97713100  0.44687100  1
  C  C110  1  0.80933900  0.47713100  0.44687100  1
  C  C111  1  0.19066100  0.52286900  0.55312900  1
