# generated using pymatgen
data_Cu2NiC11
_symmetry_space_group_name_H-M   'P 1'
_cell_length_a   6.50205100
_cell_length_b   8.72888400
_cell_length_c   11.05596401
_cell_angle_alpha   68.20416052
_cell_angle_beta   90.00000000
_cell_angle_gamma   90.00000000
_symmetry_Int_Tables_number   1
_chemical_formula_structural   Cu2NiC11
_chemical_formula_sum   'Cu4 Ni2 C22'
_cell_volume   582.63101679
_cell_formula_units_Z   2
loop_
 _symmetry_equiv_pos_site_id
 _symmetry_equiv_pos_as_xyz
  1  'x, y, z'
loop_
 _atom_site_type_symbol
 _atom_site_label
 _atom_site_symmetry_multiplicity
 _atom_site_fract_x
 _atom_site_fract_y
 _atom_site_fract_z
 _atom_site_occupancy
  C  C0  1  0.25000000  0.00254700  0.26259800  1
  C  C1  1  0.75000000  0.99745300  0.73740200  1
  C  C2  1  0.25000000  0.38624500  0.44831700  1
  C  C3  1  0.75000000  0.61375500  0.55168300  1
  C  C4  1  0.25000000  0.60367500  0.05189400  1
  C  C5  1  0.75000000  0.39632500  0.94810600  1
  Ni  Ni6  1  0.25000000  0.00184700  0.77476000  1
  Ni  Ni7  1  0.75000000  0.99815300  0.22524000  1
  Cu  Cu8  1  0.25000000  0.76585300  0.67886300  1
  Cu  Cu9  1  0.75000000  0.23414700  0.32113700  1
  Cu  Cu10  1  0.25000000  0.23721100  0.82391700  1
  Cu  Cu11  1  0.75000000  0.76278900  0.17608300  1
  C  C12  1  0.03778900  0.68777200  0.76601400  1
  C  C13  1  0.53778900  0.31222800  0.23398600  1
  C  C14  1  0.96221100  0.31222800  0.23398600  1
  C  C15  1  0.46221100  0.68777200  0.76601400  1
  C  C16  1  0.25000000  0.97327100  0.64701100  1
  C  C17  1  0.75000000  0.02672900  0.35298900  1
  C  C18  1  0.25000000  0.73271700  0.53960800  1
  C  C19  1  0.75000000  0.26728300  0.46039200  1
  C  C20  1  0.03699800  0.30480300  0.73756300  1
  C  C21  1  0.53699800  0.69519700  0.26243700  1
  C  C22  1  0.96300200  0.69519700  0.26243700  1
  C  C23  1  0.46300200  0.30480300  0.73756300  1
  C  C24  1  0.25000000  0.02006700  0.86395800  1
  C  C25  1  0.75000000  0.97993300  0.13604200  1
  C  C26  1  0.25000000  0.25823600  0.96637100  1
  C  C27  1  0.75000000  0.74176400  0.03362900  1
