# generated using pymatgen
data_Cu2Ni4C5
_symmetry_space_group_name_H-M   'P 1'
_cell_length_a   9.34310117
_cell_length_b   9.34310117
_cell_length_c   7.13289175
_cell_angle_alpha   89.34065877
_cell_angle_beta   89.34065877
_cell_angle_gamma   119.54689407
_symmetry_Int_Tables_number   1
_chemical_formula_structural   Cu2Ni4C5
_chemical_formula_sum   'Cu4 Ni8 C10'
_cell_volume   541.53898159
_cell_formula_units_Z   2
loop_
 _symmetry_equiv_pos_site_id
 _symmetry_equiv_pos_as_xyz
  1  'x, y, z'
loop_
 _atom_site_type_symbol
 _atom_site_label
 _atom_site_symmetry_multiplicity
 _atom_site_fract_x
 _atom_site_fract_y
 _atom_site_fract_z
 _atom_site_occupancy
  Ni  Ni0  1  0.47283200  0.94380100  0.38289100  1
  Ni  Ni1  1  0.94380100  0.47283200  0.88289100  1
  Ni  Ni2  1  0.86457100  0.72315800  0.18843600  1
  Ni  Ni3  1  0.28427400  0.13355100  0.21241900  1
  Ni  Ni4  1  0.85107100  0.13660200  0.20363900  1
  Ni  Ni5  1  0.13355100  0.28427400  0.71241900  1
  Ni  Ni6  1  0.72315800  0.86457100  0.68843600  1
  Ni  Ni7  1  0.13660200  0.85107100  0.70363900  1
  Cu  Cu8  1  0.05046100  0.52913900  0.38116800  1
  Cu  Cu9  1  0.48153800  0.53183300  0.37931100  1
  Cu  Cu10  1  0.52913900  0.05046100  0.88116800  1
  Cu  Cu11  1  0.53183300  0.48153800  0.87931100  1
  C  C12  1  0.66288000  0.32671700  0.49919200  1
  C  C13  1  0.32671700  0.66288000  0.99919200  1
  C  C14  1  0.66003900  0.33646600  0.15856000  1
  C  C15  1  0.33646600  0.66003900  0.65856000  1
  C  C16  1  0.19785800  0.38531300  0.11581900  1
  C  C17  1  0.61367900  0.80576300  0.09122200  1
  C  C18  1  0.19735300  0.81066300  0.10124200  1
  C  C19  1  0.80576300  0.61367900  0.59122200  1
  C  C20  1  0.38531300  0.19785800  0.61581900  1
  C  C21  1  0.81066300  0.19735300  0.60124200  1
