# generated using pymatgen
data_Cu2(NiC12)3
_symmetry_space_group_name_H-M   'P 1'
_cell_length_a   13.65664682
_cell_length_b   13.65664682
_cell_length_c   13.65664682
_cell_angle_alpha   90.00000000
_cell_angle_beta   90.00000000
_cell_angle_gamma   90.00000000
_symmetry_Int_Tables_number   1
_chemical_formula_structural   Cu2(NiC12)3
_chemical_formula_sum   'Cu8 Ni12 C144'
_cell_volume   2547.01929083
_cell_formula_units_Z   4
loop_
 _symmetry_equiv_pos_site_id
 _symmetry_equiv_pos_as_xyz
  1  'x, y, z'
loop_
 _atom_site_type_symbol
 _atom_site_label
 _atom_site_symmetry_multiplicity
 _atom_site_fract_x
 _atom_site_fract_y
 _atom_site_fract_z
 _atom_site_occupancy
  Ni  Ni0  1  0.12500000  0.18839367  0.43839367  1
  Ni  Ni1  1  0.37500000  0.81160633  0.93839367  1
  Ni  Ni2  1  0.87500000  0.68839367  0.06160633  1
  Ni  Ni3  1  0.43839367  0.12500000  0.18839367  1
  Ni  Ni4  1  0.93839367  0.37500000  0.81160633  1
  Ni  Ni5  1  0.62500000  0.31160633  0.56160633  1
  Ni  Ni6  1  0.56160633  0.62500000  0.31160633  1
  Ni  Ni7  1  0.06160633  0.87500000  0.68839367  1
  Ni  Ni8  1  0.18839367  0.43839367  0.12500000  1
  Ni  Ni9  1  0.68839367  0.06160633  0.87500000  1
  Ni  Ni10  1  0.31160633  0.56160633  0.62500000  1
  Ni  Ni11  1  0.81160633  0.93839367  0.37500000  1
  Cu  Cu12  1  0.04846667  0.04846667  0.04846667  1
  Cu  Cu13  1  0.45153333  0.95153333  0.54846667  1
  Cu  Cu14  1  0.95153333  0.54846667  0.45153333  1
  Cu  Cu15  1  0.79846667  0.29846667  0.20153333  1
  Cu  Cu16  1  0.54846667  0.45153333  0.95153333  1
  Cu  Cu17  1  0.70153333  0.70153333  0.70153333  1
  Cu  Cu18  1  0.29846667  0.20153333  0.79846667  1
  Cu  Cu19  1  0.20153333  0.79846667  0.29846667  1
  C  C20  1  0.10036964  0.41537868  0.36374820  1
  C  C21  1  0.39963036  0.58462132  0.86374820  1
  C  C22  1  0.89963036  0.91537868  0.13625180  1
  C  C23  1  0.36374820  0.10036964  0.41537868  1
  C  C24  1  0.16537868  0.35036964  0.88625180  1
  C  C25  1  0.60036964  0.08462132  0.63625180  1
  C  C26  1  0.86374820  0.39963036  0.58462132  1
  C  C27  1  0.33462132  0.64963036  0.38625180  1
  C  C28  1  0.13625180  0.89963036  0.91537868  1
  C  C29  1  0.66537868  0.14963036  0.11374820  1
  C  C30  1  0.63625180  0.60036964  0.08462132  1
  C  C31  1  0.83462132  0.85036964  0.61374820  1
  C  C32  1  0.41537868  0.36374820  0.10036964  1
  C  C33  1  0.85036964  0.61374820  0.83462132  1
  C  C34  1  0.91537868  0.13625180  0.89963036  1
  C  C35  1  0.64963036  0.38625180  0.33462132  1
  C  C36  1  0.08462132  0.63625180  0.60036964  1
  C  C37  1  0.35036964  0.88625180  0.16537868  1
  C  C38  1  0.58462132  0.86374820  0.39963036  1
  C  C39  1  0.14963036  0.11374820  0.66537868  1
  C  C40  1  0.88625180  0.16537868  0.35036964  1
  C  C41  1  0.38625180  0.33462132  0.64963036  1
  C  C42  1  0.61374820  0.83462132  0.85036964  1
  C  C43  1  0.11374820  0.66537868  0.14963036  1
  C  C44  1  0.12500000  0.01284979  0.26284979  1
  C  C45  1  0.37500000  0.98715021  0.76284979  1
  C  C46  1  0.87500000  0.51284979  0.23715021  1
  C  C47  1  0.26284979  0.12500000  0.01284979  1
  C  C48  1  0.76284979  0.37500000  0.98715021  1
  C  C49  1  0.62500000  0.48715021  0.73715021  1
  C  C50  1  0.73715021  0.62500000  0.48715021  1
  C  C51  1  0.23715021  0.87500000  0.51284979  1
  C  C52  1  0.01284979  0.26284979  0.12500000  1
  C  C53  1  0.51284979  0.23715021  0.87500000  1
  C  C54  1  0.48715021  0.73715021  0.62500000  1
  C  C55  1  0.98715021  0.76284979  0.37500000  1
  C  C56  1  0.12500000  0.94605678  0.19605678  1
  C  C57  1  0.37500000  0.05394322  0.69605678  1
  C  C58  1  0.87500000  0.44605678  0.30394322  1
  C  C59  1  0.19605678  0.12500000  0.94605678  1
  C  C60  1  0.69605678  0.37500000  0.05394322  1
  C  C61  1  0.62500000  0.55394322  0.80394322  1
  C  C62  1  0.80394322  0.62500000  0.55394322  1
  C  C63  1  0.30394322  0.87500000  0.44605678  1
  C  C64  1  0.94605678  0.19605678  0.12500000  1
  C  C65  1  0.44605678  0.30394322  0.87500000  1
  C  C66  1  0.55394322  0.80394322  0.62500000  1
  C  C67  1  0.05394322  0.69605678  0.37500000  1
  C  C68  1  0.05348951  0.39158747  0.44154629  1
  C  C69  1  0.44651049  0.60841253  0.94154629  1
  C  C70  1  0.94651049  0.89158747  0.05845371  1
  C  C71  1  0.44154629  0.05348951  0.39158747  1
  C  C72  1  0.14158747  0.30348951  0.80845371  1
  C  C73  1  0.55348951  0.10841253  0.55845371  1
  C  C74  1  0.94154629  0.44651049  0.60841253  1
  C  C75  1  0.35841253  0.69651049  0.30845371  1
  C  C76  1  0.05845371  0.94651049  0.89158747  1
  C  C77  1  0.64158747  0.19651049  0.19154629  1
  C  C78  1  0.55845371  0.55348951  0.10841253  1
  C  C79  1  0.85841253  0.80348951  0.69154629  1
  C  C80  1  0.39158747  0.44154629  0.05348951  1
  C  C81  1  0.80348951  0.69154629  0.85841253  1
  C  C82  1  0.89158747  0.05845371  0.94651049  1
  C  C83  1  0.69651049  0.30845371  0.35841253  1
  C  C84  1  0.10841253  0.55845371  0.55348951  1
  C  C85  1  0.30348951  0.80845371  0.14158747  1
  C  C86  1  0.60841253  0.94154629  0.44651049  1
  C  C87  1  0.19651049  0.19154629  0.64158747  1
  C  C88  1  0.80845371  0.14158747  0.30348951  1
  C  C89  1  0.30845371  0.35841253  0.69651049  1
  C  C90  1  0.69154629  0.85841253  0.80348951  1
  C  C91  1  0.19154629  0.64158747  0.19651049  1
  C  C92  1  0.08130205  0.49952120  0.32740718  1
  C  C93  1  0.41869795  0.50047880  0.82740718  1
  C  C94  1  0.91869795  0.99952120  0.17259282  1
  C  C95  1  0.32740718  0.08130205  0.49952120  1
  C  C96  1  0.24952120  0.33130205  0.92259282  1
  C  C97  1  0.58130205  0.00047880  0.67259282  1
  C  C98  1  0.82740718  0.41869795  0.50047880  1
  C  C99  1  0.25047880  0.66869795  0.42259282  1
  C  C100  1  0.17259282  0.91869795  0.99952120  1
  C  C101  1  0.74952120  0.16869795  0.07740718  1
  C  C102  1  0.67259282  0.58130205  0.00047880  1
  C  C103  1  0.75047880  0.83130205  0.57740718  1
  C  C104  1  0.49952120  0.32740718  0.08130205  1
  C  C105  1  0.83130205  0.57740718  0.75047880  1
  C  C106  1  0.99952120  0.17259282  0.91869795  1
  C  C107  1  0.66869795  0.42259282  0.25047880  1
  C  C108  1  0.00047880  0.67259282  0.58130205  1
  C  C109  1  0.33130205  0.92259282  0.24952120  1
  C  C110  1  0.50047880  0.82740718  0.41869795  1
  C  C111  1  0.16869795  0.07740718  0.74952120  1
  C  C112  1  0.92259282  0.24952120  0.33130205  1
  C  C113  1  0.42259282  0.25047880  0.66869795  1
  C  C114  1  0.57740718  0.75047880  0.83130205  1
  C  C115  1  0.07740718  0.74952120  0.16869795  1
  C  C116  1  0.16118825  0.35935040  0.32541871  1
  C  C117  1  0.33881175  0.64064960  0.82541871  1
  C  C118  1  0.83881175  0.85935040  0.17458129  1
  C  C119  1  0.32541871  0.16118825  0.35935040  1
  C  C120  1  0.10935040  0.41118825  0.92458129  1
  C  C121  1  0.66118825  0.14064960  0.67458129  1
  C  C122  1  0.82541871  0.33881175  0.64064960  1
  C  C123  1  0.39064960  0.58881175  0.42458129  1
  C  C124  1  0.17458129  0.83881175  0.85935040  1
  C  C125  1  0.60935040  0.08881175  0.07541871  1
  C  C126  1  0.67458129  0.66118825  0.14064960  1
  C  C127  1  0.89064960  0.91118825  0.57541871  1
  C  C128  1  0.35935040  0.32541871  0.16118825  1
  C  C129  1  0.91118825  0.57541871  0.89064960  1
  C  C130  1  0.85935040  0.17458129  0.83881175  1
  C  C131  1  0.58881175  0.42458129  0.39064960  1
  C  C132  1  0.14064960  0.67458129  0.66118825  1
  C  C133  1  0.41118825  0.92458129  0.10935040  1
  C  C134  1  0.64064960  0.82541871  0.33881175  1
  C  C135  1  0.08881175  0.07541871  0.60935040  1
  C  C136  1  0.92458129  0.10935040  0.41118825  1
  C  C137  1  0.42458129  0.39064960  0.58881175  1
  C  C138  1  0.57541871  0.89064960  0.91118825  1
  C  C139  1  0.07541871  0.60935040  0.08881175  1
  C  C140  1  0.09181178  0.09591083  0.24178028  1
  C  C141  1  0.40818822  0.90408917  0.74178028  1
  C  C142  1  0.90818822  0.59591083  0.25821972  1
  C  C143  1  0.24178028  0.09181178  0.09591083  1
  C  C144  1  0.84591083  0.34181178  0.00821972  1
  C  C145  1  0.59181178  0.40408917  0.75821972  1
  C  C146  1  0.74178028  0.40818822  0.90408917  1
  C  C147  1  0.65408917  0.65818822  0.50821972  1
  C  C148  1  0.25821972  0.90818822  0.59591083  1
  C  C149  1  0.34591083  0.15818822  0.99178028  1
  C  C150  1  0.75821972  0.59181178  0.40408917  1
  C  C151  1  0.15408917  0.84181178  0.49178028  1
  C  C152  1  0.09591083  0.24178028  0.09181178  1
  C  C153  1  0.84181178  0.49178028  0.15408917  1
  C  C154  1  0.59591083  0.25821972  0.90818822  1
  C  C155  1  0.65818822  0.50821972  0.65408917  1
  C  C156  1  0.40408917  0.75821972  0.59181178  1
  C  C157  1  0.34181178  0.00821972  0.84591083  1
  C  C158  1  0.90408917  0.74178028  0.40818822  1
  C  C159  1  0.15818822  0.99178028  0.34591083  1
  C  C160  1  0.00821972  0.84591083  0.34181178  1
  C  C161  1  0.50821972  0.65408917  0.65818822  1
  C  C162  1  0.49178028  0.15408917  0.84181178  1
  C  C163  1  0.99178028  0.34591083  0.15818822  1
