# generated using pymatgen
data_CuNiC30
_symmetry_space_group_name_H-M   'P 1'
_cell_length_a   8.63119885
_cell_length_b   8.60254266
_cell_length_c   4.32318103
_cell_angle_alpha   90.00000000
_cell_angle_beta   90.00000000
_cell_angle_gamma   90.00000000
_symmetry_Int_Tables_number   1
_chemical_formula_structural   CuNiC30
_chemical_formula_sum   'Cu1 Ni1 C30'
_cell_volume   320.99729957
_cell_formula_units_Z   1
loop_
 _symmetry_equiv_pos_site_id
 _symmetry_equiv_pos_as_xyz
  1  'x, y, z'
loop_
 _atom_site_type_symbol
 _atom_site_label
 _atom_site_symmetry_multiplicity
 _atom_site_fract_x
 _atom_site_fract_y
 _atom_site_fract_z
 _atom_site_occupancy
  C  C0  1  0.50000000  0.00000000  0.00000000  1
  C  C1  1  0.50000000  0.50000000  0.00000000  1
  C  C2  1  0.00000000  0.24487434  0.50000000  1
  C  C3  1  0.00000000  0.75512566  0.50000000  1
  C  C4  1  0.50000000  0.24880629  0.50000000  1
  C  C5  1  0.50000000  0.75119371  0.50000000  1
  C  C6  1  0.25015920  0.00000000  0.50000000  1
  C  C7  1  0.25540436  0.50000000  0.50000000  1
  C  C8  1  0.74984080  0.00000000  0.50000000  1
  C  C9  1  0.74459564  0.50000000  0.50000000  1
  C  C10  1  0.25405522  0.24728072  0.00000000  1
  C  C11  1  0.25405522  0.75271928  0.00000000  1
  C  C12  1  0.74594478  0.24728072  0.00000000  1
  C  C13  1  0.74594478  0.75271928  0.00000000  1
  Ni  Ni14  1  0.00000000  0.50000000  0.00000000  1
  Cu  Cu15  1  0.00000000  0.00000000  0.00000000  1
  C  C16  1  0.25892522  0.00000000  0.00000000  1
  C  C17  1  0.26515585  0.50000000  0.00000000  1
  C  C18  1  0.74107478  0.00000000  0.00000000  1
  C  C19  1  0.73484415  0.50000000  0.00000000  1
  C  C20  1  0.24860923  0.25057467  0.50000000  1
  C  C21  1  0.24860923  0.74942533  0.50000000  1
  C  C22  1  0.75139077  0.25057467  0.50000000  1
  C  C23  1  0.75139077  0.74942533  0.50000000  1
  C  C24  1  0.00000000  0.00000000  0.50000000  1
  C  C25  1  0.00000000  0.50000000  0.50000000  1
  C  C26  1  0.50000000  0.00000000  0.50000000  1
  C  C27  1  0.50000000  0.50000000  0.50000000  1
  C  C28  1  0.00000000  0.23650000  0.00000000  1
  C  C29  1  0.00000000  0.76350000  0.00000000  1
  C  C30  1  0.50000000  0.24866344  0.00000000  1
  C  C31  1  0.50000000  0.75133656  0.00000000  1
