# generated using pymatgen
data_Cu4Ni4C27
_symmetry_space_group_name_H-M   'P 1'
_cell_length_a   5.69567179
_cell_length_b   11.39533268
_cell_length_c   11.11483239
_cell_angle_alpha   39.88545737
_cell_angle_beta   63.61750752
_cell_angle_gamma   68.08368991
_symmetry_Int_Tables_number   1
_chemical_formula_structural   Cu4Ni4C27
_chemical_formula_sum   'Cu4 Ni4 C27'
_cell_volume   413.76422869
_cell_formula_units_Z   1
loop_
 _symmetry_equiv_pos_site_id
 _symmetry_equiv_pos_as_xyz
  1  'x, y, z'
loop_
 _atom_site_type_symbol
 _atom_site_label
 _atom_site_symmetry_multiplicity
 _atom_site_fract_x
 _atom_site_fract_y
 _atom_site_fract_z
 _atom_site_occupancy
  C  C0  1  0.49968000  0.49897300  0.50146600  1
  C  C1  1  0.50032000  0.00102700  0.49853400  1
  Ni  Ni2  1  0.00000000  0.25000000  0.00000000  1
  Ni  Ni3  1  0.50228000  0.00062400  0.99828100  1
  Ni  Ni4  1  0.49772000  0.49937600  0.00171900  1
  Ni  Ni5  1  0.00000000  0.75000000  0.00000000  1
  Cu  Cu6  1  0.07637500  0.17977400  0.71698500  1
  Cu  Cu7  1  0.07816300  0.68037600  0.71781900  1
  Cu  Cu8  1  0.92362500  0.32022600  0.28301500  1
  Cu  Cu9  1  0.92183700  0.81962400  0.28218100  1
  C  C10  1  0.32113200  0.04906600  0.22209100  1
  C  C11  1  0.31743900  0.54757000  0.22223500  1
  C  C12  1  0.50000000  0.75000000  0.00000000  1
  C  C13  1  0.67886800  0.45093400  0.77790900  1
  C  C14  1  0.68256100  0.95243000  0.77776500  1
  C  C15  1  0.33497700  0.12610400  0.08521700  1
  C  C16  1  0.27103300  0.27769700  0.26041100  1
  C  C17  1  0.23492300  0.37718300  0.48195300  1
  C  C18  1  0.35398500  0.63774900  0.07941400  1
  C  C19  1  0.16447400  0.13796100  0.88989600  1
  C  C20  1  0.81277000  0.00557600  0.25812500  1
  C  C21  1  0.26922400  0.77556300  0.25885100  1
  C  C22  1  0.18723000  0.49442400  0.74187500  1
  C  C23  1  0.83552600  0.36203900  0.11010400  1
  C  C24  1  0.76507700  0.12281700  0.51804700  1
  C  C25  1  0.23814800  0.87741900  0.48268800  1
  C  C26  1  0.16708000  0.63852600  0.89065400  1
  C  C27  1  0.81308100  0.50632700  0.25856300  1
  C  C28  1  0.72896700  0.22230300  0.73958900  1
  C  C29  1  0.18691900  0.99367300  0.74143700  1
  C  C30  1  0.83292000  0.86147400  0.10934600  1
  C  C31  1  0.66502300  0.37389600  0.91478300  1
  C  C32  1  0.76185200  0.62258100  0.51731200  1
  C  C33  1  0.73077600  0.72443700  0.74114900  1
  C  C34  1  0.64601500  0.86225100  0.92058600  1
