# generated using pymatgen
data_Cu2Ni2C3
_symmetry_space_group_name_H-M   'P 1'
_cell_length_a   7.46358322
_cell_length_b   7.46358322
_cell_length_c   12.01011800
_cell_angle_alpha   90.00000000
_cell_angle_beta   90.00000000
_cell_angle_gamma   109.58452763
_symmetry_Int_Tables_number   1
_chemical_formula_structural   Cu2Ni2C3
_chemical_formula_sum   'Cu4 Ni4 C6'
_cell_volume   630.32011512
_cell_formula_units_Z   2
loop_
 _symmetry_equiv_pos_site_id
 _symmetry_equiv_pos_as_xyz
  1  'x, y, z'
loop_
 _atom_site_type_symbol
 _atom_site_label
 _atom_site_symmetry_multiplicity
 _atom_site_fract_x
 _atom_site_fract_y
 _atom_site_fract_z
 _atom_site_occupancy
  C  C0  1  0.61255400  0.61255400  0.50000000  1
  C  C1  1  0.61255400  0.61255400  0.00000000  1
  C  C2  1  0.25015900  0.89400700  0.25000000  1
  C  C3  1  0.89400700  0.25015900  0.75000000  1
  C  C4  1  0.84738800  0.29890100  0.25000000  1
  C  C5  1  0.29890100  0.84738800  0.75000000  1
  Ni  Ni6  1  0.05032700  0.47332900  0.44146800  1
  Ni  Ni7  1  0.47332900  0.05032700  0.55853200  1
  Ni  Ni8  1  0.05032700  0.47332900  0.05853200  1
  Ni  Ni9  1  0.47332900  0.05032700  0.94146800  1
  Cu  Cu10  1  0.51698000  0.36203400  0.25000000  1
  Cu  Cu11  1  0.36203400  0.51698000  0.75000000  1
  Cu  Cu12  1  0.77106100  0.92504900  0.25000000  1
  Cu  Cu13  1  0.92504900  0.77106100  0.75000000  1
