# generated using pymatgen
data_Cu16(NiC5)5
_symmetry_space_group_name_H-M   'P 1'
_cell_length_a   12.30463305
_cell_length_b   12.30463305
_cell_length_c   9.44708958
_cell_angle_alpha   83.77214399
_cell_angle_beta   83.77214399
_cell_angle_gamma   140.71266271
_symmetry_Int_Tables_number   1
_chemical_formula_structural   Cu16(NiC5)5
_chemical_formula_sum   'Cu32 Ni10 C50'
_cell_volume   857.24283733
_cell_formula_units_Z   2
loop_
 _symmetry_equiv_pos_site_id
 _symmetry_equiv_pos_as_xyz
  1  'x, y, z'
loop_
 _atom_site_type_symbol
 _atom_site_label
 _atom_site_symmetry_multiplicity
 _atom_site_fract_x
 _atom_site_fract_y
 _atom_site_fract_z
 _atom_site_occupancy
  C  C0  1  0.07483700  0.92332400  0.50183300  1
  C  C1  1  0.92332400  0.07483700  0.00183300  1
  C  C2  1  0.27469400  0.65735700  0.62520600  1
  C  C3  1  0.65735700  0.27469400  0.12520600  1
  C  C4  1  0.21528400  0.69403700  0.49234700  1
  C  C5  1  0.69403700  0.21528400  0.99234700  1
  C  C6  1  0.43275400  0.83593400  0.47185800  1
  C  C7  1  0.83593400  0.43275400  0.97185800  1
  C  C8  1  0.29156600  0.62891500  0.45600800  1
  C  C9  1  0.62891500  0.29156600  0.95600800  1
  C  C10  1  0.54225200  0.72338600  0.85359600  1
  C  C11  1  0.72338600  0.54225200  0.35359600  1
  C  C12  1  0.63366900  0.68006700  0.77909300  1
  C  C13  1  0.68006700  0.63366900  0.27909300  1
  C  C14  1  0.58560900  0.74767300  0.66756800  1
  C  C15  1  0.74767300  0.58560900  0.16756800  1
  C  C16  1  0.41439900  0.54083500  0.79240700  1
  C  C17  1  0.54083500  0.41439900  0.29240700  1
  C  C18  1  0.26957200  0.45352400  0.15049900  1
  C  C19  1  0.45352400  0.26957200  0.65049900  1
  C  C20  1  0.31279700  0.36217800  0.22558400  1
  C  C21  1  0.36217800  0.31279700  0.72558400  1
  C  C22  1  0.25307800  0.41751600  0.33550100  1
  C  C23  1  0.41751600  0.25307800  0.83550100  1
  C  C24  1  0.45602000  0.58384300  0.20557100  1
  C  C25  1  0.58384300  0.45602000  0.70557100  1
  C  C26  1  0.97029100  0.37580800  0.20853300  1
  C  C27  1  0.37580800  0.97029100  0.70853300  1
  C  C28  1  0.88745100  0.33641400  0.39000400  1
  C  C29  1  0.33641400  0.88745100  0.89000400  1
  C  C30  1  0.91496800  0.22433200  0.34260900  1
  C  C31  1  0.22433200  0.91496800  0.84260900  1
  C  C32  1  0.75696100  0.17820900  0.30117900  1
  C  C33  1  0.17820900  0.75696100  0.80117900  1
  C  C34  1  0.63052600  0.04276500  0.79909800  1
  C  C35  1  0.04276500  0.63052600  0.29909800  1
  C  C36  1  0.66382700  0.10939100  0.61453800  1
  C  C37  1  0.10939100  0.66382700  0.11453800  1
  C  C38  1  0.77322000  0.08154600  0.67124000  1
  C  C39  1  0.08154600  0.77322000  0.17124000  1
  C  C40  1  0.82904700  0.25112500  0.69321300  1
  C  C41  1  0.25112500  0.82904700  0.19321300  1
  C  C42  1  0.10179100  0.22532000  0.63018800  1
  C  C43  1  0.22532000  0.10179100  0.13018800  1
  C  C44  1  0.77609200  0.89936800  0.37256600  1
  C  C45  1  0.89936800  0.77609200  0.87256600  1
  C  C46  1  0.46907000  0.11467500  0.42162200  1
  C  C47  1  0.11467500  0.46907000  0.92162200  1
  C  C48  1  0.88209600  0.52974200  0.58471400  1
  C  C49  1  0.52974200  0.88209600  0.08471400  1
  Ni  Ni50  1  0.30358700  0.70405000  0.51041500  1
  Ni  Ni51  1  0.70405000  0.30358700  0.01041500  1
  Ni  Ni52  1  0.54300400  0.67147600  0.77444300  1
  Ni  Ni53  1  0.67147600  0.54300400  0.27444300  1
  Ni  Ni54  1  0.32433500  0.45515600  0.22799000  1
  Ni  Ni55  1  0.45515600  0.32433500  0.72799000  1
  Ni  Ni56  1  0.88321000  0.27916000  0.31386900  1
  Ni  Ni57  1  0.27916000  0.88321000  0.81386900  1
  Ni  Ni58  1  0.72350200  0.12008200  0.69151900  1
  Ni  Ni59  1  0.12008200  0.72350200  0.19151900  1
  Cu  Cu60  1  0.90642100  0.06564700  0.71990100  1
  Cu  Cu61  1  0.06564700  0.90642100  0.21990100  1
  Cu  Cu62  1  0.15610400  0.17226700  0.54324000  1
  Cu  Cu63  1  0.17226700  0.15610400  0.04324000  1
  Cu  Cu64  1  0.20201000  0.30134800  0.74472900  1
  Cu  Cu65  1  0.30134800  0.20201000  0.24472900  1
  Cu  Cu66  1  0.14197400  0.35822800  0.52515000  1
  Cu  Cu67  1  0.35822800  0.14197400  0.02515000  1
  Cu  Cu68  1  0.82974500  0.84515500  0.45899600  1
  Cu  Cu69  1  0.84515500  0.82974500  0.95899600  1
  Cu  Cu70  1  0.69222700  0.79261600  0.26321300  1
  Cu  Cu71  1  0.79261600  0.69222700  0.76321300  1
  Cu  Cu72  1  0.93680500  0.09287800  0.27770900  1
  Cu  Cu73  1  0.09287800  0.93680500  0.77770900  1
  Cu  Cu74  1  0.65072900  0.86786300  0.47833400  1
  Cu  Cu75  1  0.86786300  0.65072900  0.97833400  1
  Cu  Cu76  1  0.39675000  0.15130100  0.51321400  1
  Cu  Cu77  1  0.15130100  0.39675000  0.01321400  1
  Cu  Cu78  1  0.50543700  0.04885700  0.52218500  1
  Cu  Cu79  1  0.04885700  0.50543700  0.02218500  1
  Cu  Cu80  1  0.63858500  0.28026800  0.30267800  1
  Cu  Cu81  1  0.28026800  0.63858500  0.80267800  1
  Cu  Cu82  1  0.32333600  0.97140300  0.36010000  1
  Cu  Cu83  1  0.97140300  0.32333600  0.86010000  1
  Cu  Cu84  1  0.84535000  0.60169300  0.49151600  1
  Cu  Cu85  1  0.60169300  0.84535000  0.99151600  1
  Cu  Cu86  1  0.71869100  0.36046300  0.70228800  1
  Cu  Cu87  1  0.36046300  0.71869100  0.20228800  1
  Cu  Cu88  1  0.02628700  0.67858300  0.64486600  1
  Cu  Cu89  1  0.67858300  0.02628700  0.14486600  1
  Cu  Cu90  1  0.95573100  0.50033000  0.48297000  1
  Cu  Cu91  1  0.50033000  0.95573100  0.98297000  1
