# generated using pymatgen
data_Cu(Ni4C3)4
_symmetry_space_group_name_H-M   'P 1'
_cell_length_a   9.16747819
_cell_length_b   9.16747819
_cell_length_c   9.16747819
_cell_angle_alpha   109.47122063
_cell_angle_beta   109.47122063
_cell_angle_gamma   109.47122063
_symmetry_Int_Tables_number   1
_chemical_formula_structural   Cu(Ni4C3)4
_chemical_formula_sum   'Cu1 Ni16 C12'
_cell_volume   593.09978325
_cell_formula_units_Z   1
loop_
 _symmetry_equiv_pos_site_id
 _symmetry_equiv_pos_as_xyz
  1  'x, y, z'
loop_
 _atom_site_type_symbol
 _atom_site_label
 _atom_site_symmetry_multiplicity
 _atom_site_fract_x
 _atom_site_fract_y
 _atom_site_fract_z
 _atom_site_occupancy
  Ni  Ni0  1  0.65378400  0.00000000  0.00000000  1
  Ni  Ni1  1  0.28531800  0.60028100  0.60028100  1
  Ni  Ni2  1  0.34621600  0.34621600  0.34621600  1
  Ni  Ni3  1  0.71468200  0.31496300  0.31496300  1
  Ni  Ni4  1  0.00000000  0.68503700  0.39971900  1
  Ni  Ni5  1  0.39971900  0.00000000  0.68503700  1
  Ni  Ni6  1  0.60028100  0.60028100  0.28531800  1
  Ni  Ni7  1  0.00000000  0.00000000  0.65378400  1
  Ni  Ni8  1  0.68503700  0.39971900  0.00000000  1
  Ni  Ni9  1  0.31496300  0.71468200  0.31496300  1
  Ni  Ni10  1  0.31496300  0.31496300  0.71468200  1
  Ni  Ni11  1  0.68503700  0.00000000  0.39971900  1
  Ni  Ni12  1  0.00000000  0.65378400  0.00000000  1
  Ni  Ni13  1  0.60028100  0.28531800  0.60028100  1
  Ni  Ni14  1  0.39971900  0.68503700  0.00000000  1
  Ni  Ni15  1  0.00000000  0.39971900  0.68503700  1
  C  C16  1  0.18427900  0.81235000  0.81235000  1
  C  C17  1  0.81572100  0.62807100  0.62807100  1
  C  C18  1  0.00000000  0.37192900  0.18765000  1
  C  C19  1  0.37192900  0.18765000  0.00000000  1
  C  C20  1  0.62807100  0.81572100  0.62807100  1
  C  C21  1  0.81235000  0.18427900  0.81235000  1
  C  C22  1  0.18765000  0.37192900  0.00000000  1
  C  C23  1  0.18765000  0.00000000  0.37192900  1
  C  C24  1  0.81235000  0.81235000  0.18427900  1
  C  C25  1  0.37192900  0.00000000  0.18765000  1
  C  C26  1  0.62807100  0.62807100  0.81572100  1
  C  C27  1  0.00000000  0.18765000  0.37192900  1
  Cu  Cu28  1  0.00000000  0.00000000  0.00000000  1
