# generated using pymatgen
data_Cu5Ni3C46
_symmetry_space_group_name_H-M   'P 1'
_cell_length_a   7.11338100
_cell_length_b   11.76475325
_cell_length_c   11.81383887
_cell_angle_alpha   119.63621119
_cell_angle_beta   90.67744310
_cell_angle_gamma   90.62647571
_symmetry_Int_Tables_number   1
_chemical_formula_structural   Cu5Ni3C46
_chemical_formula_sum   'Cu5 Ni3 C46'
_cell_volume   859.11169868
_cell_formula_units_Z   1
loop_
 _symmetry_equiv_pos_site_id
 _symmetry_equiv_pos_as_xyz
  1  'x, y, z'
loop_
 _atom_site_type_symbol
 _atom_site_label
 _atom_site_symmetry_multiplicity
 _atom_site_fract_x
 _atom_site_fract_y
 _atom_site_fract_z
 _atom_site_occupancy
  C  C0  1  0.99883700  0.66415500  0.34004800  1
  C  C1  1  0.51589400  0.33660900  0.66547600  1
  C  C2  1  0.49994000  0.99653600  0.99716300  1
  C  C3  1  0.01163500  0.99697700  0.99852200  1
  C  C4  1  0.32080600  0.34231500  0.17433500  1
  C  C5  1  0.33115100  0.82408100  0.64946100  1
  C  C6  1  0.32500200  0.83013600  0.18349400  1
  C  C7  1  0.82729200  0.65059100  0.82358000  1
  C  C8  1  0.82375500  0.17547400  0.34454700  1
  C  C9  1  0.82628300  0.18175600  0.82769200  1
  C  C10  1  0.65976100  0.95550200  0.47931800  1
  C  C11  1  0.15723500  0.47751400  0.95303200  1
  C  C12  1  0.65543500  0.52416700  0.04194700  1
  C  C13  1  0.64915000  0.52106800  0.47878800  1
  C  C14  1  0.16372800  0.04792200  0.52282300  1
  C  C15  1  0.14453300  0.47853000  0.52078500  1
  Ni  Ni16  1  0.33486200  0.63576900  0.81391800  1
  Ni  Ni17  1  0.32218900  0.18660800  0.36100300  1
  Ni  Ni18  1  0.33067400  0.18296300  0.82215600  1
  Cu  Cu19  1  0.45949100  0.66221800  0.33569800  1
  Cu  Cu20  1  0.97538400  0.33969400  0.66615900  1
  Cu  Cu21  1  0.81479800  0.35415200  0.17987100  1
  Cu  Cu22  1  0.83945400  0.82531800  0.64549400  1
  Cu  Cu23  1  0.82965500  0.82524000  0.18193800  1
  C  C24  1  0.42933200  0.07486900  0.40000400  1
  C  C25  1  0.47687800  0.32154900  0.92829600  1
  C  C26  1  0.46095400  0.60044300  0.67053700  1
  C  C27  1  0.44560600  0.06937900  0.67992700  1
  C  C28  1  0.45762000  0.33002900  0.39972500  1
  C  C29  1  0.47468400  0.60245200  0.92085200  1
  C  C30  1  0.98495600  0.92779500  0.60384500  1
  C  C31  1  0.92691800  0.66818000  0.05799500  1
  C  C32  1  0.94895800  0.40252300  0.33869700  1
  C  C33  1  0.98158900  0.93606000  0.32855100  1
  C  C34  1  0.96108100  0.66256700  0.59547600  1
  C  C35  1  0.92061400  0.40486000  0.07155100  1
  C  C36  1  0.31257900  0.82974200  0.41718700  1
  C  C37  1  0.33731800  0.58643500  0.17611600  1
  C  C38  1  0.31914600  0.57964000  0.42160100  1
  C  C39  1  0.84346600  0.18230400  0.58766000  1
  C  C40  1  0.81324400  0.41294400  0.82721600  1
  C  C41  1  0.82301500  0.41769000  0.57985700  1
  C  C42  1  0.63715600  0.49140800  0.25788100  1
  C  C43  1  0.65046700  0.73568900  0.50250500  1
  C  C44  1  0.65622800  0.73959100  0.24039100  1
  C  C45  1  0.15313400  0.50537400  0.73838500  1
  C  C46  1  0.14816100  0.25198100  0.48627500  1
  C  C47  1  0.15851500  0.23607900  0.74312900  1
  C  C48  1  0.23978100  0.79364900  0.89566500  1
  C  C49  1  0.24319700  0.10990900  0.19754700  1
  C  C50  1  0.23261400  0.11474300  0.91231100  1
  C  C51  1  0.74621700  0.18458000  0.10521400  1
  C  C52  1  0.73638800  0.89737300  0.80352000  1
  C  C53  1  0.73904200  0.91487000  0.10483600  1
