# generated using pymatgen
data_Cu6Ni2C31
_symmetry_space_group_name_H-M   'P 1'
_cell_length_a   12.57217500
_cell_length_b   6.16431700
_cell_length_c   9.20713337
_cell_angle_alpha   73.27821840
_cell_angle_beta   90.00000000
_cell_angle_gamma   90.00000000
_symmetry_Int_Tables_number   1
_chemical_formula_structural   Cu6Ni2C31
_chemical_formula_sum   'Cu12 Ni4 C62'
_cell_volume   683.36901173
_cell_formula_units_Z   2
loop_
 _symmetry_equiv_pos_site_id
 _symmetry_equiv_pos_as_xyz
  1  'x, y, z'
loop_
 _atom_site_type_symbol
 _atom_site_label
 _atom_site_symmetry_multiplicity
 _atom_site_fract_x
 _atom_site_fract_y
 _atom_site_fract_z
 _atom_site_occupancy
  C  C0  1  0.35820900  0.25341800  0.90297500  1
  C  C1  1  0.85820900  0.74658200  0.59702500  1
  C  C2  1  0.64179100  0.74658200  0.09702500  1
  C  C3  1  0.14179100  0.25341800  0.40297500  1
  C  C4  1  0.50000000  0.00000000  0.50000000  1
  C  C5  1  0.00000000  0.00000000  0.00000000  1
  C  C6  1  0.16771100  0.78594600  0.55746300  1
  C  C7  1  0.66771100  0.21405400  0.94253700  1
  C  C8  1  0.83228900  0.21405400  0.44253700  1
  C  C9  1  0.33228900  0.78594600  0.05746300  1
  C  C10  1  0.20263400  0.58578000  0.72237300  1
  C  C11  1  0.70263400  0.41422000  0.77762700  1
  C  C12  1  0.79736600  0.41422000  0.27762700  1
  C  C13  1  0.29736600  0.58578000  0.22237300  1
  C  C14  1  0.15017300  0.50707100  0.57751900  1
  C  C15  1  0.65017300  0.49292900  0.92248100  1
  C  C16  1  0.84982700  0.49292900  0.42248100  1
  C  C17  1  0.34982700  0.50707100  0.07751900  1
  C  C18  1  0.07262000  0.63701700  0.67575500  1
  C  C19  1  0.57262000  0.36298300  0.82424500  1
  C  C20  1  0.92738000  0.36298300  0.32424500  1
  C  C21  1  0.42738000  0.63701700  0.17575500  1
  C  C22  1  0.40963200  0.66789400  0.70423400  1
  C  C23  1  0.90963200  0.33210600  0.79576600  1
  C  C24  1  0.59036800  0.33210600  0.29576600  1
  C  C25  1  0.09036800  0.66789400  0.20423400  1
  C  C26  1  0.37134600  0.89413800  0.74088600  1
  C  C27  1  0.87134600  0.10586200  0.75911400  1
  C  C28  1  0.62865400  0.10586200  0.25911400  1
  C  C29  1  0.12865400  0.89413800  0.24088600  1
  C  C30  1  0.40563300  0.06162500  0.22920100  1
  C  C31  1  0.90563300  0.93837500  0.27079900  1
  C  C32  1  0.59436700  0.93837500  0.77079900  1
  C  C33  1  0.09436700  0.06162500  0.72920100  1
  C  C34  1  0.32071200  0.97785600  0.36079800  1
  C  C35  1  0.82071200  0.02214400  0.13920200  1
  C  C36  1  0.67928800  0.02214400  0.63920200  1
  C  C37  1  0.17928800  0.97785600  0.86079800  1
  C  C38  1  0.56035500  0.65971500  0.40741400  1
  C  C39  1  0.06035500  0.34028500  0.09258600  1
  C  C40  1  0.43964500  0.34028500  0.59258600  1
  C  C41  1  0.93964500  0.65971500  0.90741400  1
  C  C42  1  0.64318300  0.66656900  0.53654900  1
  C  C43  1  0.14318300  0.33343100  0.96345100  1
  C  C44  1  0.35681700  0.33343100  0.46345100  1
  C  C45  1  0.85681700  0.66656900  0.03654900  1
  Ni  Ni46  1  0.14881400  0.63096700  0.63312900  1
  Ni  Ni47  1  0.64881400  0.36903300  0.86687100  1
  Ni  Ni48  1  0.85118600  0.36903300  0.36687100  1
  Ni  Ni49  1  0.35118600  0.63096700  0.13312900  1
  Cu  Cu50  1  0.38801600  0.82709600  0.65799100  1
  Cu  Cu51  1  0.88801600  0.17290400  0.84200900  1
  Cu  Cu52  1  0.61198400  0.17290400  0.34200900  1
  Cu  Cu53  1  0.11198400  0.82709600  0.15799100  1
  Cu  Cu54  1  0.39552800  0.95980300  0.33454600  1
  Cu  Cu55  1  0.89552800  0.04019700  0.16545400  1
  Cu  Cu56  1  0.60447200  0.04019700  0.66545400  1
  Cu  Cu57  1  0.10447200  0.95980300  0.83454600  1
  Cu  Cu58  1  0.56808200  0.69751300  0.50405700  1
  Cu  Cu59  1  0.06808200  0.30248700  0.99594300  1
  Cu  Cu60  1  0.43191800  0.30248700  0.49594300  1
  Cu  Cu61  1  0.93191800  0.69751300  0.00405700  1
  C  C62  1  0.26056900  0.41578000  0.89606400  1
  C  C63  1  0.76056900  0.58422000  0.60393600  1
  C  C64  1  0.73943100  0.58422000  0.10393600  1
  C  C65  1  0.23943100  0.41578000  0.39606400  1
  C  C66  1  0.41387000  0.21921700  0.05819600  1
  C  C67  1  0.91387000  0.78078300  0.44180400  1
  C  C68  1  0.58613000  0.78078300  0.94180400  1
  C  C69  1  0.08613000  0.21921700  0.55819600  1
  C  C70  1  0.43603200  0.38126200  0.77089500  1
  C  C71  1  0.93603200  0.61873800  0.72910500  1
  C  C72  1  0.56396800  0.61873800  0.22910500  1
  C  C73  1  0.06396800  0.38126200  0.27089500  1
  C  C74  1  0.31894200  0.02219200  0.88089400  1
  C  C75  1  0.81894200  0.97780800  0.61910600  1
  C  C76  1  0.68105800  0.97780800  0.11910600  1
  C  C77  1  0.18105800  0.02219200  0.38089400  1
