# generated using pymatgen
data_Cu3Ni5C4
_symmetry_space_group_name_H-M   'P 1'
_cell_length_a   4.63564150
_cell_length_b   4.81266722
_cell_length_c   13.62472420
_cell_angle_alpha   88.69229496
_cell_angle_beta   88.97708595
_cell_angle_gamma   110.53370742
_symmetry_Int_Tables_number   1
_chemical_formula_structural   Cu3Ni5C4
_chemical_formula_sum   'Cu3 Ni5 C4'
_cell_volume   284.47007001
_cell_formula_units_Z   1
loop_
 _symmetry_equiv_pos_site_id
 _symmetry_equiv_pos_as_xyz
  1  'x, y, z'
loop_
 _atom_site_type_symbol
 _atom_site_label
 _atom_site_symmetry_multiplicity
 _atom_site_fract_x
 _atom_site_fract_y
 _atom_site_fract_z
 _atom_site_occupancy
  Ni  Ni0  1  0.92140600  0.30961000  0.24323700  1
  Ni  Ni1  1  0.29699100  0.03638100  0.73998500  1
  Ni  Ni2  1  0.47594200  0.89320100  0.39614200  1
  Ni  Ni3  1  0.65541800  0.27094800  0.01431900  1
  Ni  Ni4  1  0.86245800  0.47708000  0.44996500  1
  Cu  Cu5  1  0.77115000  0.77387900  0.13923400  1
  Cu  Cu6  1  0.74112500  0.79659800  0.62036000  1
  Cu  Cu7  1  0.76959600  0.78884600  0.87985300  1
  C  C8  1  0.06950400  0.05157000  0.00624900  1
  C  C9  1  0.02822900  0.03236000  0.48049000  1
  C  C10  1  0.47992500  0.49439200  0.27343500  1
  C  C11  1  0.42825600  0.57513500  0.75673100  1
