# generated using pymatgen
data_Cu3NiC3
_symmetry_space_group_name_H-M   'P 1'
_cell_length_a   12.89722400
_cell_length_b   8.89278400
_cell_length_c   9.01841427
_cell_angle_alpha   59.62239805
_cell_angle_beta   90.00000000
_cell_angle_gamma   90.00000000
_symmetry_Int_Tables_number   1
_chemical_formula_structural   Cu3NiC3
_chemical_formula_sum   'Cu12 Ni4 C12'
_cell_volume   892.33867392
_cell_formula_units_Z   4
loop_
 _symmetry_equiv_pos_site_id
 _symmetry_equiv_pos_as_xyz
  1  'x, y, z'
loop_
 _atom_site_type_symbol
 _atom_site_label
 _atom_site_symmetry_multiplicity
 _atom_site_fract_x
 _atom_site_fract_y
 _atom_site_fract_z
 _atom_site_occupancy
  C  C0  1  0.22905500  0.02913500  0.72358700  1
  C  C1  1  0.72905500  0.97086500  0.77641300  1
  C  C2  1  0.77094500  0.97086500  0.27641300  1
  C  C3  1  0.27094500  0.02913500  0.22358700  1
  C  C4  1  0.55783200  0.27352900  0.02650100  1
  C  C5  1  0.05783200  0.72647100  0.47349900  1
  C  C6  1  0.44216800  0.72647100  0.97349900  1
  C  C7  1  0.94216800  0.27352900  0.52650100  1
  C  C8  1  0.15194900  0.50608600  0.97923600  1
  C  C9  1  0.65194900  0.49391400  0.52076400  1
  C  C10  1  0.84805100  0.49391400  0.02076400  1
  C  C11  1  0.34805100  0.50608600  0.47923600  1
  Ni  Ni12  1  0.00923700  0.85348700  0.03250000  1
  Ni  Ni13  1  0.50923700  0.14651300  0.46750000  1
  Ni  Ni14  1  0.99076300  0.14651300  0.96750000  1
  Ni  Ni15  1  0.49076300  0.85348700  0.53250000  1
  Cu  Cu16  1  0.62296600  0.66493800  0.75949100  1
  Cu  Cu17  1  0.12296600  0.33506200  0.74050900  1
  Cu  Cu18  1  0.37703400  0.33506200  0.24050900  1
  Cu  Cu19  1  0.87703400  0.66493800  0.25949100  1
  Cu  Cu20  1  0.52548100  0.84906700  0.25839000  1
  Cu  Cu21  1  0.02548100  0.15093300  0.24161000  1
  Cu  Cu22  1  0.47451900  0.15093300  0.74161000  1
  Cu  Cu23  1  0.97451900  0.84906700  0.75839000  1
  Cu  Cu24  1  0.30733100  0.75030300  0.63596400  1
  Cu  Cu25  1  0.80733100  0.24969700  0.86403600  1
  Cu  Cu26  1  0.69266900  0.24969700  0.36403600  1
  Cu  Cu27  1  0.19266900  0.75030300  0.13596400  1
