# generated using pymatgen
data_Cu(Ni5C9)2
_symmetry_space_group_name_H-M   'P 1'
_cell_length_a   5.67081178
_cell_length_b   5.67081178
_cell_length_c   22.82302500
_cell_angle_alpha   90.00000000
_cell_angle_beta   90.00000000
_cell_angle_gamma   119.99999745
_symmetry_Int_Tables_number   1
_chemical_formula_structural   Cu(Ni5C9)2
_chemical_formula_sum   'Cu2 Ni20 C36'
_cell_volume   635.61525923
_cell_formula_units_Z   2
loop_
 _symmetry_equiv_pos_site_id
 _symmetry_equiv_pos_as_xyz
  1  'x, y, z'
loop_
 _atom_site_type_symbol
 _atom_site_label
 _atom_site_symmetry_multiplicity
 _atom_site_fract_x
 _atom_site_fract_y
 _atom_site_fract_z
 _atom_site_occupancy
  C  C0  1  0.00000000  0.00000000  0.24809500  1
  C  C1  1  0.66666700  0.33333300  0.74731900  1
  Ni  Ni2  1  0.00000000  0.00000000  0.67244800  1
  Ni  Ni3  1  0.66666700  0.33333300  0.32375600  1
  Ni  Ni4  1  0.66666700  0.33333300  0.17171800  1
  Ni  Ni5  1  0.00000000  0.00000000  0.82290200  1
  Ni  Ni6  1  0.33333300  0.66666700  0.50191400  1
  Ni  Ni7  1  0.33333300  0.66666700  0.00044100  1
  Ni  Ni8  1  0.16501400  0.33002900  0.39424200  1
  Ni  Ni9  1  0.16501400  0.83498600  0.39424200  1
  Ni  Ni10  1  0.66997100  0.83498600  0.39424200  1
  Ni  Ni11  1  0.49761100  0.99522100  0.60726600  1
  Ni  Ni12  1  0.49761100  0.50238900  0.60726600  1
  Ni  Ni13  1  0.00477900  0.50238900  0.60726600  1
  Ni  Ni14  1  0.50210200  0.00420300  0.89273100  1
  Ni  Ni15  1  0.50210200  0.49789800  0.89273100  1
  Ni  Ni16  1  0.99579700  0.49789800  0.89273100  1
  Ni  Ni17  1  0.16929000  0.33857900  0.10582300  1
  Ni  Ni18  1  0.16929000  0.83071000  0.10582300  1
  Ni  Ni19  1  0.66142100  0.83071000  0.10582300  1
  Ni  Ni20  1  0.66666700  0.33333300  0.47795100  1
  Ni  Ni21  1  0.00000000  0.00000000  0.97700000  1
  Cu  Cu22  1  0.00000000  0.00000000  0.52535500  1
  Cu  Cu23  1  0.66666700  0.33333300  0.02473200  1
  C  C24  1  0.18513700  0.37027400  0.55493000  1
  C  C25  1  0.18513700  0.81486300  0.55493000  1
  C  C26  1  0.62972600  0.81486300  0.55493000  1
  C  C27  1  0.49124400  0.98248800  0.45032300  1
  C  C28  1  0.49124400  0.50875600  0.45032300  1
  C  C29  1  0.01751200  0.50875600  0.45032300  1
  C  C30  1  0.48120400  0.96240900  0.05365900  1
  C  C31  1  0.48120400  0.51879600  0.05365900  1
  C  C32  1  0.03759100  0.51879600  0.05365900  1
  C  C33  1  0.17501100  0.35002300  0.94911400  1
  C  C34  1  0.17501100  0.82498900  0.94911400  1
  C  C35  1  0.64997700  0.82498900  0.94911400  1
  C  C36  1  0.00000000  0.00000000  0.43654800  1
  C  C37  1  0.66666700  0.33333300  0.55764800  1
  C  C38  1  0.66666700  0.33333300  0.93546100  1
  C  C39  1  0.00000000  0.00000000  0.05663300  1
  C  C40  1  0.82609000  0.65218100  0.64965400  1
  C  C41  1  0.82609000  0.17391000  0.64965400  1
  C  C42  1  0.34781900  0.17391000  0.64965400  1
  C  C43  1  0.83671700  0.67343300  0.35039700  1
  C  C44  1  0.83671700  0.16328300  0.35039700  1
  C  C45  1  0.32656700  0.16328300  0.35039700  1
  C  C46  1  0.83907100  0.67814200  0.14752400  1
  C  C47  1  0.83907100  0.16092900  0.14752400  1
  C  C48  1  0.32185800  0.16092900  0.14752400  1
  C  C49  1  0.82851700  0.65703400  0.84823800  1
  C  C50  1  0.82851700  0.17148300  0.84823800  1
  C  C51  1  0.34296600  0.17148300  0.84823800  1
  C  C52  1  0.33333300  0.66666700  0.64829000  1
  C  C53  1  0.33333300  0.66666700  0.35871500  1
  C  C54  1  0.33333300  0.66666700  0.14741000  1
  C  C55  1  0.33333300  0.66666700  0.85796600  1
  C  C56  1  0.00000000  0.00000000  0.74802000  1
  C  C57  1  0.66666700  0.33333300  0.24797800  1
