# generated using pymatgen
data_CuNi14C
_symmetry_space_group_name_H-M   'P 1'
_cell_length_a   6.51273447
_cell_length_b   6.41742405
_cell_length_c   10.33730448
_cell_angle_alpha   90.00000000
_cell_angle_beta   90.00000000
_cell_angle_gamma   119.51707049
_symmetry_Int_Tables_number   1
_chemical_formula_structural   CuNi14C
_chemical_formula_sum   'Cu1 Ni14 C1'
_cell_volume   375.97153220
_cell_formula_units_Z   1
loop_
 _symmetry_equiv_pos_site_id
 _symmetry_equiv_pos_as_xyz
  1  'x, y, z'
loop_
 _atom_site_type_symbol
 _atom_site_label
 _atom_site_symmetry_multiplicity
 _atom_site_fract_x
 _atom_site_fract_y
 _atom_site_fract_z
 _atom_site_occupancy
  C  C0  1  0.15743075  0.82871487  0.12500000  1
  Ni  Ni1  1  0.16187000  0.33093450  0.62500000  1
  Ni  Ni2  1  0.16640039  0.83319970  0.62500000  1
  Ni  Ni3  1  0.65290835  0.33573566  0.12500000  1
  Ni  Ni4  1  0.66592187  0.32947586  0.62500000  1
  Ni  Ni5  1  0.65290835  0.81717169  0.12500000  1
  Ni  Ni6  1  0.66592187  0.83644501  0.62500000  1
  Ni  Ni7  1  0.33559972  0.17258209  0.37936055  1
  Ni  Ni8  1  0.33559972  0.17258209  0.87063945  1
  Ni  Ni9  1  0.33559972  0.66301863  0.37936055  1
  Ni  Ni10  1  0.33559972  0.66301863  0.87063945  1
  Ni  Ni11  1  0.84135598  0.17067849  0.35984108  1
  Ni  Ni12  1  0.84135598  0.17067849  0.89015892  1
  Ni  Ni13  1  0.83041580  0.66520840  0.38458445  1
  Ni  Ni14  1  0.83041580  0.66520840  0.86541555  1
  Cu  Cu15  1  0.19069599  0.34534750  0.12500000  1
