# generated using pymatgen
data_Cu26Ni10C9
_symmetry_space_group_name_H-M   'P 1'
_cell_length_a   6.76246000
_cell_length_b   7.31691034
_cell_length_c   18.44776498
_cell_angle_alpha   80.63618923
_cell_angle_beta   79.43874025
_cell_angle_gamma   62.47654308
_symmetry_Int_Tables_number   1
_chemical_formula_structural   Cu26Ni10C9
_chemical_formula_sum   'Cu52 Ni20 C18'
_cell_volume   792.58693954
_cell_formula_units_Z   2
loop_
 _symmetry_equiv_pos_site_id
 _symmetry_equiv_pos_as_xyz
  1  'x, y, z'
loop_
 _atom_site_type_symbol
 _atom_site_label
 _atom_site_symmetry_multiplicity
 _atom_site_fract_x
 _atom_site_fract_y
 _atom_site_fract_z
 _atom_site_occupancy
  C  C0  1  0.50000000  0.50000000  0.00000000  1
  C  C1  1  0.00000000  0.00000000  0.50000000  1
  Ni  Ni2  1  0.34490800  0.11929400  0.84550700  1
  Ni  Ni3  1  0.30970800  0.38070600  0.65449300  1
  Ni  Ni4  1  0.65509200  0.88070600  0.15449300  1
  Ni  Ni5  1  0.69029200  0.61929400  0.34550700  1
  Ni  Ni6  1  0.19603800  0.12861500  0.77854600  1
  Ni  Ni7  1  0.10319800  0.37138500  0.72145400  1
  Ni  Ni8  1  0.80396200  0.87138500  0.22145400  1
  Ni  Ni9  1  0.89680200  0.62861500  0.27854600  1
  Ni  Ni10  1  0.50408600  0.03112300  0.76400200  1
  Ni  Ni11  1  0.29921100  0.46887700  0.73599800  1
  Ni  Ni12  1  0.49591400  0.96887700  0.23599800  1
  Ni  Ni13  1  0.70078900  0.53112300  0.26400200  1
  Ni  Ni14  1  0.47168700  0.26577500  0.79886500  1
  Ni  Ni15  1  0.53632800  0.23422500  0.70113500  1
  Ni  Ni16  1  0.52831300  0.73422500  0.20113500  1
  Ni  Ni17  1  0.46367200  0.76577500  0.29886500  1
  Ni  Ni18  1  0.34036400  0.13790100  0.68672800  1
  Ni  Ni19  1  0.16499300  0.36209900  0.81327200  1
  Ni  Ni20  1  0.65963600  0.86209900  0.31327200  1
  Ni  Ni21  1  0.83500700  0.63790100  0.18672800  1
  Cu  Cu22  1  0.57055200  0.20898300  0.55729300  1
  Cu  Cu23  1  0.33682700  0.29101700  0.94270700  1
  Cu  Cu24  1  0.42944800  0.79101700  0.44270700  1
  Cu  Cu25  1  0.66317300  0.70898300  0.05729300  1
  Cu  Cu26  1  0.55210800  0.24283600  0.47124000  1
  Cu  Cu27  1  0.26618400  0.25716400  0.02876000  1
  Cu  Cu28  1  0.44789200  0.75716400  0.52876000  1
  Cu  Cu29  1  0.73381600  0.74283600  0.97124000  1
  Cu  Cu30  1  0.89909500  0.30606000  0.91883300  1
  Cu  Cu31  1  0.12398900  0.19394000  0.58116700  1
  Cu  Cu32  1  0.10090500  0.69394000  0.08116700  1
  Cu  Cu33  1  0.87601100  0.80606000  0.41883300  1
  Cu  Cu34  1  0.80951700  0.13665300  0.94418500  1
  Cu  Cu35  1  0.89035600  0.36334700  0.55581500  1
  Cu  Cu36  1  0.19048300  0.86334700  0.05581500  1
  Cu  Cu37  1  0.10964400  0.63665300  0.44418500  1
  Cu  Cu38  1  0.42238700  0.77495800  0.87519200  1
  Cu  Cu39  1  0.07253700  0.72504200  0.62480800  1
  Cu  Cu40  1  0.57761300  0.22504200  0.12480800  1
  Cu  Cu41  1  0.92746300  0.27495800  0.37519200  1
  Cu  Cu42  1  0.46586000  0.55537600  0.85435400  1
  Cu  Cu43  1  0.87559100  0.94462400  0.64564600  1
  Cu  Cu44  1  0.53414000  0.44462400  0.14564600  1
  Cu  Cu45  1  0.12440900  0.05537600  0.35435400  1
  Cu  Cu46  1  0.74377000  0.69438400  0.58541000  1
  Cu  Cu47  1  0.02356500  0.80561600  0.91459000  1
  Cu  Cu48  1  0.25623000  0.30561600  0.41459000  1
  Cu  Cu49  1  0.97643500  0.19438400  0.08541000  1
  Cu  Cu50  1  0.60997600  0.57727500  0.63152800  1
  Cu  Cu51  1  0.81877900  0.92272500  0.86847200  1
  Cu  Cu52  1  0.39002400  0.42272500  0.36847200  1
  Cu  Cu53  1  0.18122100  0.07727500  0.13152800  1
  Cu  Cu54  1  0.35574600  0.03592900  0.90755700  1
  Cu  Cu55  1  0.29923200  0.46407100  0.59244300  1
  Cu  Cu56  1  0.64425400  0.96407100  0.09244300  1
  Cu  Cu57  1  0.70076800  0.53592900  0.40755700  1
  Cu  Cu58  1  0.07998500  0.04039800  0.78980000  1
  Cu  Cu59  1  0.91018300  0.45960200  0.71020000  1
  Cu  Cu60  1  0.92001500  0.95960200  0.21020000  1
  Cu  Cu61  1  0.08981700  0.54039800  0.28980000  1
  Cu  Cu62  1  0.65661100  0.85878500  0.76296200  1
  Cu  Cu63  1  0.27835700  0.64121500  0.73703800  1
  Cu  Cu64  1  0.34338900  0.14121500  0.23703800  1
  Cu  Cu65  1  0.72164300  0.35878500  0.26296200  1
  Cu  Cu66  1  0.59914200  0.29694100  0.82742700  1
  Cu  Cu67  1  0.72351000  0.20305900  0.67257300  1
  Cu  Cu68  1  0.40085800  0.70305900  0.17257300  1
  Cu  Cu69  1  0.27649000  0.79694100  0.32742700  1
  Cu  Cu70  1  0.35691000  0.01963800  0.64465900  1
  Cu  Cu71  1  0.02120600  0.48036200  0.85534100  1
  Cu  Cu72  1  0.64309000  0.98036200  0.35534100  1
  Cu  Cu73  1  0.97879400  0.51963800  0.14465900  1
  C  C74  1  0.65610700  0.16335700  0.50915100  1
  C  C75  1  0.32861500  0.33664300  0.99084900  1
  C  C76  1  0.34389300  0.83664300  0.49084900  1
  C  C77  1  0.67138500  0.66335700  0.00915100  1
  C  C78  1  0.80037900  0.26731700  0.95712400  1
  C  C79  1  0.02482000  0.23268300  0.54287600  1
  C  C80  1  0.19962100  0.73268300  0.04287600  1
  C  C81  1  0.97518000  0.76731700  0.45712400  1
  C  C82  1  0.40983900  0.64647100  0.89470100  1
  C  C83  1  0.95101100  0.85352900  0.60529900  1
  C  C84  1  0.59016100  0.35352900  0.10529900  1
  C  C85  1  0.04898900  0.14647100  0.39470100  1
  C  C86  1  0.66968900  0.60905400  0.58116600  1
  C  C87  1  0.85990900  0.89094600  0.91883400  1
  C  C88  1  0.33031100  0.39094600  0.41883400  1
  C  C89  1  0.14009100  0.10905400  0.08116600  1
