# generated using pymatgen
data_Cu3NiC15
_symmetry_space_group_name_H-M   'P 1'
_cell_length_a   8.25726620
_cell_length_b   8.25726620
_cell_length_c   8.23564671
_cell_angle_alpha   79.86348075
_cell_angle_beta   79.86348075
_cell_angle_gamma   100.30906113
_symmetry_Int_Tables_number   1
_chemical_formula_structural   Cu3NiC15
_chemical_formula_sum   'Cu6 Ni2 C30'
_cell_volume   531.21125691
_cell_formula_units_Z   2
loop_
 _symmetry_equiv_pos_site_id
 _symmetry_equiv_pos_as_xyz
  1  'x, y, z'
loop_
 _atom_site_type_symbol
 _atom_site_label
 _atom_site_symmetry_multiplicity
 _atom_site_fract_x
 _atom_site_fract_y
 _atom_site_fract_z
 _atom_site_occupancy
  Ni  Ni0  1  0.67724900  0.32275100  0.75000000  1
  Ni  Ni1  1  0.32275100  0.67724900  0.25000000  1
  Cu  Cu2  1  0.25102900  0.74897100  0.75000000  1
  Cu  Cu3  1  0.74897100  0.25102900  0.25000000  1
  Cu  Cu4  1  0.82291300  0.75317800  0.32404800  1
  Cu  Cu5  1  0.24682200  0.17708700  0.17595200  1
  Cu  Cu6  1  0.17708700  0.24682200  0.67595200  1
  Cu  Cu7  1  0.75317800  0.82291300  0.82404800  1
  C  C8  1  0.15111700  0.18461800  0.94718000  1
  C  C9  1  0.68724200  0.56673900  0.85064100  1
  C  C10  1  0.03533800  0.65434300  0.31703000  1
  C  C11  1  0.65434300  0.03533800  0.81703000  1
  C  C12  1  0.56673900  0.68724200  0.35064100  1
  C  C13  1  0.18461800  0.15111700  0.44718000  1
  C  C14  1  0.84888300  0.81538200  0.05282000  1
  C  C15  1  0.31275800  0.43326100  0.14935900  1
  C  C16  1  0.96466200  0.34565700  0.68297000  1
  C  C17  1  0.34565700  0.96466200  0.18297000  1
  C  C18  1  0.43326100  0.31275800  0.64935900  1
  C  C19  1  0.81538200  0.84888300  0.55282000  1
  C  C20  1  0.21704200  0.72666300  0.00254800  1
  C  C21  1  0.22509200  0.49422800  0.77931600  1
  C  C22  1  0.99397700  0.72547400  0.77517200  1
  C  C23  1  0.72547400  0.99397700  0.27517200  1
  C  C24  1  0.49422800  0.22509200  0.27931600  1
  C  C25  1  0.72666300  0.21704200  0.50254800  1
  C  C26  1  0.78295800  0.27333700  0.99745200  1
  C  C27  1  0.77490800  0.50577200  0.22068400  1
  C  C28  1  0.00602300  0.27452600  0.22482800  1
  C  C29  1  0.27452600  0.00602300  0.72482800  1
  C  C30  1  0.50577200  0.77490800  0.72068400  1
  C  C31  1  0.27333700  0.78295800  0.49745200  1
  C  C32  1  0.96589100  0.03410900  0.75000000  1
  C  C33  1  0.54766000  0.75372600  0.02612400  1
  C  C34  1  0.24627400  0.45234000  0.47387600  1
  C  C35  1  0.45234000  0.24627400  0.97387600  1
  C  C36  1  0.75372600  0.54766000  0.52612400  1
  C  C37  1  0.03410900  0.96589100  0.25000000  1
