# generated using pymatgen
data_CuNiC7
_symmetry_space_group_name_H-M   'P 1'
_cell_length_a   7.39094279
_cell_length_b   7.39094279
_cell_length_c   7.39094279
_cell_angle_alpha   121.93401277
_cell_angle_beta   119.73766412
_cell_angle_gamma   88.56907318
_symmetry_Int_Tables_number   1
_chemical_formula_structural   CuNiC7
_chemical_formula_sum   'Cu2 Ni2 C14'
_cell_volume   281.65021948
_cell_formula_units_Z   2
loop_
 _symmetry_equiv_pos_site_id
 _symmetry_equiv_pos_as_xyz
  1  'x, y, z'
loop_
 _atom_site_type_symbol
 _atom_site_label
 _atom_site_symmetry_multiplicity
 _atom_site_fract_x
 _atom_site_fract_y
 _atom_site_fract_z
 _atom_site_occupancy
  C  C0  1  0.36966600  0.61966600  0.75000000  1
  C  C1  1  0.63033400  0.38033400  0.25000000  1
  Ni  Ni2  1  0.00000000  0.00000000  0.00000000  1
  Ni  Ni3  1  0.50000000  0.00000000  0.50000000  1
  Cu  Cu4  1  0.00000000  0.00000000  0.50000000  1
  Cu  Cu5  1  0.00000000  0.50000000  0.00000000  1
  C  C6  1  0.31232700  0.06232700  0.25000000  1
  C  C7  1  0.93121400  0.68121400  0.25000000  1
  C  C8  1  0.33399100  0.68264100  0.25993600  1
  C  C9  1  0.92270400  0.07405400  0.24006400  1
  C  C10  1  0.33399100  0.07405400  0.65135000  1
  C  C11  1  0.92270400  0.68264100  0.84865000  1
  C  C12  1  0.68767300  0.93767300  0.75000000  1
  C  C13  1  0.06878600  0.31878600  0.75000000  1
  C  C14  1  0.66600900  0.31735900  0.74006400  1
  C  C15  1  0.07729600  0.92594600  0.75993600  1
  C  C16  1  0.66600900  0.92594600  0.34865000  1
  C  C17  1  0.07729600  0.31735900  0.15135000  1
