# generated using pymatgen
data_Cu2Ni4C3
_symmetry_space_group_name_H-M   'P 1'
_cell_length_a   3.17024200
_cell_length_b   7.42267424
_cell_length_c   17.86689756
_cell_angle_alpha   130.42889013
_cell_angle_beta   90.00000000
_cell_angle_gamma   90.00000000
_symmetry_Int_Tables_number   1
_chemical_formula_structural   Cu2Ni4C3
_chemical_formula_sum   'Cu4 Ni8 C6'
_cell_volume   320.04220470
_cell_formula_units_Z   2
loop_
 _symmetry_equiv_pos_site_id
 _symmetry_equiv_pos_as_xyz
  1  'x, y, z'
loop_
 _atom_site_type_symbol
 _atom_site_label
 _atom_site_symmetry_multiplicity
 _atom_site_fract_x
 _atom_site_fract_y
 _atom_site_fract_z
 _atom_site_occupancy
  C  C0  1  0.50000000  0.43844600  0.12449100  1
  C  C1  1  0.50000000  0.56056800  0.54028400  1
  C  C2  1  0.00000000  0.00459100  0.33020800  1
  C  C3  1  0.00000000  0.04996400  0.69001100  1
  C  C4  1  0.00000000  0.96145700  0.98204300  1
  C  C5  1  0.50000000  0.49739300  0.83671700  1
  Ni  Ni6  1  0.00000000  0.69096500  0.22381500  1
  Ni  Ni7  1  0.00000000  0.27452600  0.12926900  1
  Ni  Ni8  1  0.00000000  0.73878700  0.54276600  1
  Ni  Ni9  1  0.00000000  0.32112400  0.43954800  1
  Ni  Ni10  1  0.50000000  0.20423000  0.69530700  1
  Ni  Ni11  1  0.50000000  0.81588400  0.67439100  1
  Ni  Ni12  1  0.50000000  0.17740200  0.99175900  1
  Ni  Ni13  1  0.50000000  0.79397200  0.97045200  1
  Cu  Cu14  1  0.00000000  0.66982800  0.83122500  1
  Cu  Cu15  1  0.00000000  0.31283400  0.83966300  1
  Cu  Cu16  1  0.50000000  0.63935900  0.09143700  1
  Cu  Cu17  1  0.50000000  0.34867200  0.56661400  1
