# generated using pymatgen
data_Cu31(Ni3C4)2
_symmetry_space_group_name_H-M   'P 1'
_cell_length_a   11.98883300
_cell_length_b   9.95920900
_cell_length_c   15.71443304
_cell_angle_alpha   69.61291087
_cell_angle_beta   90.00000000
_cell_angle_gamma   90.00000000
_symmetry_Int_Tables_number   1
_chemical_formula_structural   Cu31(Ni3C4)2
_chemical_formula_sum   'Cu62 Ni12 C16'
_cell_volume   1758.76221999
_cell_formula_units_Z   2
loop_
 _symmetry_equiv_pos_site_id
 _symmetry_equiv_pos_as_xyz
  1  'x, y, z'
loop_
 _atom_site_type_symbol
 _atom_site_label
 _atom_site_symmetry_multiplicity
 _atom_site_fract_x
 _atom_site_fract_y
 _atom_site_fract_z
 _atom_site_occupancy
  C  C0  1  0.46037700  0.87793300  0.42883800  1
  C  C1  1  0.96037700  0.12206700  0.07116200  1
  C  C2  1  0.53962300  0.12206700  0.57116200  1
  C  C3  1  0.03962300  0.87793300  0.92883800  1
  C  C4  1  0.74481200  0.91619300  0.46205500  1
  C  C5  1  0.24481200  0.08380700  0.03794500  1
  C  C6  1  0.25518800  0.08380700  0.53794500  1
  C  C7  1  0.75518800  0.91619300  0.96205500  1
  C  C8  1  0.62542000  0.57815500  0.54115200  1
  C  C9  1  0.12542000  0.42184500  0.95884800  1
  C  C10  1  0.37458000  0.42184500  0.45884800  1
  C  C11  1  0.87458000  0.57815500  0.04115200  1
  C  C12  1  0.41224600  0.77515200  0.65534500  1
  C  C13  1  0.91224600  0.22484800  0.84465500  1
  C  C14  1  0.58775400  0.22484800  0.34465500  1
  C  C15  1  0.08775400  0.77515200  0.15534500  1
  Ni  Ni16  1  0.00098000  0.77210400  0.69679300  1
  Ni  Ni17  1  0.50098000  0.22789600  0.80320700  1
  Ni  Ni18  1  0.99902000  0.22789600  0.30320700  1
  Ni  Ni19  1  0.49902000  0.77210400  0.19679300  1
  Ni  Ni20  1  0.09118100  0.72612400  0.46011700  1
  Ni  Ni21  1  0.59118100  0.27387600  0.03988300  1
  Ni  Ni22  1  0.90881900  0.27387600  0.53988300  1
  Ni  Ni23  1  0.40881900  0.72612400  0.96011700  1
  Ni  Ni24  1  0.70729600  0.82863400  0.79829500  1
  Ni  Ni25  1  0.20729600  0.17136600  0.70170500  1
  Ni  Ni26  1  0.29270400  0.17136600  0.20170500  1
  Ni  Ni27  1  0.79270400  0.82863400  0.29829500  1
  Cu  Cu28  1  0.48982000  0.73466300  0.55919600  1
  Cu  Cu29  1  0.98982000  0.26533700  0.94080400  1
  Cu  Cu30  1  0.51018000  0.26533700  0.44080400  1
  Cu  Cu31  1  0.01018000  0.73466300  0.05919600  1
  Cu  Cu32  1  0.63000300  0.03274500  0.48460900  1
  Cu  Cu33  1  0.13000300  0.96725500  0.01539100  1
  Cu  Cu34  1  0.36999700  0.96725500  0.51539100  1
  Cu  Cu35  1  0.86999700  0.03274500  0.98460900  1
  Cu  Cu36  1  0.59216100  0.79616100  0.41343500  1
  Cu  Cu37  1  0.09216100  0.20383900  0.08656500  1
  Cu  Cu38  1  0.40783900  0.20383900  0.58656500  1
  Cu  Cu39  1  0.90783900  0.79616100  0.91343500  1
  Cu  Cu40  1  0.35757600  0.80387300  0.38468600  1
  Cu  Cu41  1  0.85757600  0.19612700  0.11531400  1
  Cu  Cu42  1  0.64242400  0.19612700  0.61531400  1
  Cu  Cu43  1  0.14242400  0.80387300  0.88468600  1
  Cu  Cu44  1  0.72904000  0.74638200  0.55187500  1
  Cu  Cu45  1  0.22904000  0.25361800  0.94812500  1
  Cu  Cu46  1  0.27096000  0.25361800  0.44812500  1
  Cu  Cu47  1  0.77096000  0.74638200  0.05187500  1
  Cu  Cu48  1  0.86720200  0.98126200  0.48646600  1
  Cu  Cu49  1  0.36720200  0.01873800  0.01353400  1
  Cu  Cu50  1  0.13279800  0.01873800  0.51353400  1
  Cu  Cu51  1  0.63279800  0.98126200  0.98646600  1
  Cu  Cu52  1  0.82017700  0.79641600  0.37857300  1
  Cu  Cu53  1  0.32017700  0.20358400  0.12142700  1
  Cu  Cu54  1  0.17982300  0.20358400  0.62142700  1
  Cu  Cu55  1  0.67982300  0.79641600  0.87857300  1
  Cu  Cu56  1  0.63240300  0.48012300  0.65482400  1
  Cu  Cu57  1  0.13240300  0.51987700  0.84517600  1
  Cu  Cu58  1  0.36759700  0.51987700  0.34517600  1
  Cu  Cu59  1  0.86759700  0.48012300  0.15482400  1
  Cu  Cu60  1  0.73243100  0.51803900  0.49100300  1
  Cu  Cu61  1  0.23243100  0.48196100  0.00899700  1
  Cu  Cu62  1  0.26756900  0.48196100  0.50899700  1
  Cu  Cu63  1  0.76756900  0.51803900  0.99100300  1
  Cu  Cu64  1  0.50000000  0.50000000  0.50000000  1
  Cu  Cu65  1  0.00000000  0.50000000  0.00000000  1
  Cu  Cu66  1  0.46903000  0.63152200  0.76474200  1
  Cu  Cu67  1  0.96903000  0.36847800  0.73525800  1
  Cu  Cu68  1  0.53097000  0.36847800  0.23525800  1
  Cu  Cu69  1  0.03097000  0.63152200  0.26474200  1
  Cu  Cu70  1  0.51725200  0.94080200  0.65580700  1
  Cu  Cu71  1  0.01725200  0.05919800  0.84419300  1
  Cu  Cu72  1  0.48274800  0.05919800  0.34419300  1
  Cu  Cu73  1  0.98274800  0.94080200  0.15580700  1
  Cu  Cu74  1  0.27578600  0.97078500  0.67610500  1
  Cu  Cu75  1  0.77578600  0.02921500  0.82389500  1
  Cu  Cu76  1  0.72421400  0.02921500  0.32389500  1
  Cu  Cu77  1  0.22421400  0.97078500  0.17610500  1
  Cu  Cu78  1  0.27734300  0.71860500  0.65698900  1
  Cu  Cu79  1  0.77734300  0.28139500  0.84301100  1
  Cu  Cu80  1  0.72265700  0.28139500  0.34301100  1
  Cu  Cu81  1  0.22265700  0.71860500  0.15698900  1
  Cu  Cu82  1  0.76343200  0.94862800  0.76333300  1
  Cu  Cu83  1  0.26343200  0.05137200  0.73666700  1
  Cu  Cu84  1  0.23656800  0.05137200  0.23666700  1
  Cu  Cu85  1  0.73656800  0.94862800  0.26333300  1
  Cu  Cu86  1  0.92828500  0.48468400  0.67727700  1
  Cu  Cu87  1  0.42828500  0.51531600  0.82272300  1
  Cu  Cu88  1  0.07171500  0.51531600  0.32272300  1
  Cu  Cu89  1  0.57171500  0.48468400  0.17727700  1
