# generated using pymatgen
data_Cu5NiC2
_symmetry_space_group_name_H-M   'P 1'
_cell_length_a   6.34166600
_cell_length_b   10.57110700
_cell_length_c   12.74033600
_cell_angle_alpha   90.00000000
_cell_angle_beta   90.00000000
_cell_angle_gamma   90.00000000
_symmetry_Int_Tables_number   1
_chemical_formula_structural   Cu5NiC2
_chemical_formula_sum   'Cu40 Ni8 C16'
_cell_volume   854.09212113
_cell_formula_units_Z   8
loop_
 _symmetry_equiv_pos_site_id
 _symmetry_equiv_pos_as_xyz
  1  'x, y, z'
loop_
 _atom_site_type_symbol
 _atom_site_label
 _atom_site_symmetry_multiplicity
 _atom_site_fract_x
 _atom_site_fract_y
 _atom_site_fract_z
 _atom_site_occupancy
  C  C0  1  0.25205900  0.26121200  0.61868400  1
  C  C1  1  0.25205900  0.73878800  0.38131600  1
  C  C2  1  0.75205900  0.76121200  0.88131600  1
  C  C3  1  0.75205900  0.23878800  0.11868400  1
  C  C4  1  0.48555900  0.00399200  0.74409600  1
  C  C5  1  0.48555900  0.99600800  0.25590400  1
  C  C6  1  0.98555900  0.50399200  0.75590400  1
  C  C7  1  0.98555900  0.49600800  0.24409600  1
  C  C8  1  0.91069300  0.50000000  0.00000000  1
  C  C9  1  0.41069300  0.00000000  0.50000000  1
  C  C10  1  0.75806100  0.24279400  0.68528500  1
  C  C11  1  0.75806100  0.75720600  0.31471500  1
  C  C12  1  0.25806100  0.74279400  0.81471500  1
  C  C13  1  0.25806100  0.25720600  0.18528500  1
  C  C14  1  0.08516000  0.50000000  0.50000000  1
  C  C15  1  0.58516000  0.00000000  0.00000000  1
  Ni  Ni16  1  0.46942100  0.41972400  0.88475600  1
  Ni  Ni17  1  0.46942100  0.58027600  0.11524400  1
  Ni  Ni18  1  0.96942100  0.91972400  0.61524400  1
  Ni  Ni19  1  0.96942100  0.08027600  0.38475600  1
  Ni  Ni20  1  0.58423700  0.67109100  0.60002600  1
  Ni  Ni21  1  0.58423700  0.32890900  0.39997400  1
  Ni  Ni22  1  0.08423700  0.17109100  0.89997400  1
  Ni  Ni23  1  0.08423700  0.82890900  0.10002600  1
  Cu  Cu24  1  0.95228500  0.21759100  0.61404800  1
  Cu  Cu25  1  0.95228500  0.78240900  0.38595200  1
  Cu  Cu26  1  0.45228500  0.71759100  0.88595200  1
  Cu  Cu27  1  0.45228500  0.28240900  0.11404800  1
  Cu  Cu28  1  0.80576500  0.35872500  0.75633900  1
  Cu  Cu29  1  0.80576500  0.64127500  0.24366100  1
  Cu  Cu30  1  0.30576500  0.85872500  0.74366100  1
  Cu  Cu31  1  0.30576500  0.14127500  0.25633900  1
  Cu  Cu32  1  0.55958400  0.27100700  0.61859300  1
  Cu  Cu33  1  0.55958400  0.72899300  0.38140700  1
  Cu  Cu34  1  0.05958400  0.77100700  0.88140700  1
  Cu  Cu35  1  0.05958400  0.22899300  0.11859300  1
  Cu  Cu36  1  0.71303600  0.12365100  0.75403900  1
  Cu  Cu37  1  0.71303600  0.87634900  0.24596100  1
  Cu  Cu38  1  0.21303600  0.62365100  0.74596100  1
  Cu  Cu39  1  0.21303600  0.37634900  0.25403900  1
  Cu  Cu40  1  0.77984300  0.37986600  0.01606800  1
  Cu  Cu41  1  0.77984300  0.62013400  0.98393200  1
  Cu  Cu42  1  0.27984300  0.87986600  0.48393200  1
  Cu  Cu43  1  0.27984300  0.12013400  0.51606800  1
  Cu  Cu44  1  0.05181200  0.47872100  0.90002100  1
  Cu  Cu45  1  0.05181200  0.52127900  0.09997900  1
  Cu  Cu46  1  0.55181200  0.97872100  0.59997900  1
  Cu  Cu47  1  0.55181200  0.02127900  0.40002100  1
  Cu  Cu48  1  0.22860200  0.38003400  0.51106500  1
  Cu  Cu49  1  0.22860200  0.61996600  0.48893500  1
  Cu  Cu50  1  0.72860200  0.88003400  0.98893500  1
  Cu  Cu51  1  0.72860200  0.11996600  0.01106500  1
  Cu  Cu52  1  0.21179800  0.36335000  0.71721300  1
  Cu  Cu53  1  0.21179800  0.63665000  0.28278700  1
  Cu  Cu54  1  0.71179800  0.86335000  0.78278700  1
  Cu  Cu55  1  0.71179800  0.13665000  0.21721300  1
  Cu  Cu56  1  0.29936700  0.11255700  0.71820900  1
  Cu  Cu57  1  0.29936700  0.88744300  0.28179100  1
  Cu  Cu58  1  0.79936700  0.61255700  0.78179100  1
  Cu  Cu59  1  0.79936700  0.38744300  0.21820900  1
  Cu  Cu60  1  0.45259500  0.01378200  0.89964500  1
  Cu  Cu61  1  0.45259500  0.98621800  0.10035500  1
  Cu  Cu62  1  0.95259500  0.51378200  0.60035500  1
  Cu  Cu63  1  0.95259500  0.48621800  0.39964500  1
