# generated using pymatgen
data_Cu5Ni25C12
_symmetry_space_group_name_H-M   'P 1'
_cell_length_a   9.09291000
_cell_length_b   14.44412000
_cell_length_c   14.44549500
_cell_angle_alpha   90.00000000
_cell_angle_beta   90.00000000
_cell_angle_gamma   90.00000000
_symmetry_Int_Tables_number   1
_chemical_formula_structural   Cu5Ni25C12
_chemical_formula_sum   'Cu20 Ni100 C48'
_cell_volume   1897.25806951
_cell_formula_units_Z   4
loop_
 _symmetry_equiv_pos_site_id
 _symmetry_equiv_pos_as_xyz
  1  'x, y, z'
loop_
 _atom_site_type_symbol
 _atom_site_label
 _atom_site_symmetry_multiplicity
 _atom_site_fract_x
 _atom_site_fract_y
 _atom_site_fract_z
 _atom_site_occupancy
  C  C0  1  0.98660900  0.84185500  0.57060900  1
  C  C1  1  0.51339100  0.65814500  0.07060900  1
  C  C2  1  0.48660900  0.15814500  0.42939100  1
  C  C3  1  0.01339100  0.34185500  0.92939100  1
  C  C4  1  0.01339100  0.15814500  0.42939100  1
  C  C5  1  0.48660900  0.34185500  0.92939100  1
  C  C6  1  0.51339100  0.84185500  0.57060900  1
  C  C7  1  0.98660900  0.65814500  0.07060900  1
  C  C8  1  0.25000000  0.65998600  0.68468000  1
  C  C9  1  0.25000000  0.84001400  0.18468000  1
  C  C10  1  0.75000000  0.34001400  0.31532000  1
  C  C11  1  0.75000000  0.15998600  0.81532000  1
  C  C12  1  0.25000000  0.53899500  0.91214100  1
  C  C13  1  0.25000000  0.96100500  0.41214100  1
  C  C14  1  0.75000000  0.46100500  0.08785900  1
  C  C15  1  0.75000000  0.03899500  0.58785900  1
  C  C16  1  0.14931200  0.68009700  0.78180800  1
  C  C17  1  0.35068800  0.81990300  0.28180800  1
  C  C18  1  0.64931200  0.31990300  0.21819200  1
  C  C19  1  0.85068800  0.18009700  0.71819200  1
  C  C20  1  0.85068800  0.31990300  0.21819200  1
  C  C21  1  0.64931200  0.18009700  0.71819200  1
  C  C22  1  0.35068800  0.68009700  0.78180800  1
  C  C23  1  0.14931200  0.81990300  0.28180800  1
  C  C24  1  0.14921700  0.56810600  0.72218400  1
  C  C25  1  0.35078300  0.93189400  0.22218400  1
  C  C26  1  0.64921700  0.43189400  0.27781600  1
  C  C27  1  0.85078300  0.06810600  0.77781600  1
  C  C28  1  0.85078300  0.43189400  0.27781600  1
  C  C29  1  0.64921700  0.06810600  0.77781600  1
  C  C30  1  0.35078300  0.56810600  0.72218400  1
  C  C31  1  0.14921700  0.93189400  0.22218400  1
  C  C32  1  0.25000000  0.49591800  0.80238500  1
  C  C33  1  0.25000000  0.00408200  0.30238500  1
  C  C34  1  0.75000000  0.50408200  0.19761500  1
  C  C35  1  0.75000000  0.99591800  0.69761500  1
  C  C36  1  0.10775600  0.57497200  0.84442800  1
  C  C37  1  0.39224400  0.92502800  0.34442800  1
  C  C38  1  0.60775600  0.42502800  0.15557200  1
  C  C39  1  0.89224400  0.07497200  0.65557200  1
  C  C40  1  0.89224400  0.42502800  0.15557200  1
  C  C41  1  0.60775600  0.07497200  0.65557200  1
  C  C42  1  0.39224400  0.57497200  0.84442800  1
  C  C43  1  0.10775600  0.92502800  0.34442800  1
  C  C44  1  0.25000000  0.65396400  0.88640700  1
  C  C45  1  0.25000000  0.84603600  0.38640700  1
  C  C46  1  0.75000000  0.34603600  0.11359300  1
  C  C47  1  0.75000000  0.15396400  0.61359300  1
  Ni  Ni48  1  0.25000000  0.69929700  0.61144300  1
  Ni  Ni49  1  0.25000000  0.80070300  0.11144300  1
  Ni  Ni50  1  0.75000000  0.30070300  0.38855700  1
  Ni  Ni51  1  0.75000000  0.19929700  0.88855700  1
  Ni  Ni52  1  0.25000000  0.50054200  0.98582800  1
  Ni  Ni53  1  0.25000000  0.99945800  0.48582800  1
  Ni  Ni54  1  0.75000000  0.49945800  0.01417200  1
  Ni  Ni55  1  0.75000000  0.00054200  0.51417200  1
  Ni  Ni56  1  0.06110000  0.74248000  0.78364500  1
  Ni  Ni57  1  0.43890000  0.75752000  0.28364500  1
  Ni  Ni58  1  0.56110000  0.25752000  0.21635500  1
  Ni  Ni59  1  0.93890000  0.24248000  0.71635500  1
  Ni  Ni60  1  0.93890000  0.25752000  0.21635500  1
  Ni  Ni61  1  0.56110000  0.24248000  0.71635500  1
  Ni  Ni62  1  0.43890000  0.74248000  0.78364500  1
  Ni  Ni63  1  0.06110000  0.75752000  0.28364500  1
  Ni  Ni64  1  0.06039600  0.53229200  0.67149900  1
  Ni  Ni65  1  0.43960400  0.96770800  0.17149900  1
  Ni  Ni66  1  0.56039600  0.46770800  0.32850100  1
  Ni  Ni67  1  0.93960400  0.03229200  0.82850100  1
  Ni  Ni68  1  0.93960400  0.46770800  0.32850100  1
  Ni  Ni69  1  0.56039600  0.03229200  0.82850100  1
  Ni  Ni70  1  0.43960400  0.53229200  0.67149900  1
  Ni  Ni71  1  0.06039600  0.96770800  0.17149900  1
  Ni  Ni72  1  0.25000000  0.41344400  0.78934600  1
  Ni  Ni73  1  0.25000000  0.08655600  0.28934600  1
  Ni  Ni74  1  0.75000000  0.58655600  0.21065400  1
  Ni  Ni75  1  0.75000000  0.91344400  0.71065400  1
  Ni  Ni76  1  0.98298900  0.56169300  0.86944600  1
  Ni  Ni77  1  0.51701100  0.93830700  0.36944600  1
  Ni  Ni78  1  0.48298900  0.43830700  0.13055400  1
  Ni  Ni79  1  0.01701100  0.06169300  0.63055400  1
  Ni  Ni80  1  0.01701100  0.43830700  0.13055400  1
  Ni  Ni81  1  0.48298900  0.06169300  0.63055400  1
  Ni  Ni82  1  0.51701100  0.56169300  0.86944600  1
  Ni  Ni83  1  0.98298900  0.93830700  0.36944600  1
  Ni  Ni84  1  0.25000000  0.71015700  0.94840700  1
  Ni  Ni85  1  0.25000000  0.78984300  0.44840700  1
  Ni  Ni86  1  0.75000000  0.28984300  0.05159300  1
  Ni  Ni87  1  0.75000000  0.21015700  0.55159300  1
  Ni  Ni88  1  0.08737300  0.66185900  0.42303200  1
  Ni  Ni89  1  0.41262700  0.83814100  0.92303200  1
  Ni  Ni90  1  0.58737300  0.33814100  0.57696800  1
  Ni  Ni91  1  0.91262700  0.16185900  0.07696800  1
  Ni  Ni92  1  0.91262700  0.33814100  0.57696800  1
  Ni  Ni93  1  0.58737300  0.16185900  0.07696800  1
  Ni  Ni94  1  0.41262700  0.66185900  0.42303200  1
  Ni  Ni95  1  0.08737300  0.83814100  0.92303200  1
  Ni  Ni96  1  0.95264100  0.58813200  0.43561000  1
  Ni  Ni97  1  0.54735900  0.91186800  0.93561000  1
  Ni  Ni98  1  0.45264100  0.41186800  0.56439000  1
  Ni  Ni99  1  0.04735900  0.08813200  0.06439000  1
  Ni  Ni100  1  0.04735900  0.41186800  0.56439000  1
  Ni  Ni101  1  0.45264100  0.08813200  0.06439000  1
  Ni  Ni102  1  0.54735900  0.58813200  0.43561000  1
  Ni  Ni103  1  0.95264100  0.91186800  0.93561000  1
  Ni  Ni104  1  0.06157800  0.61134700  0.52357000  1
  Ni  Ni105  1  0.43842200  0.88865300  0.02357000  1
  Ni  Ni106  1  0.56157800  0.38865300  0.47643000  1
  Ni  Ni107  1  0.93842200  0.11134700  0.97643000  1
  Ni  Ni108  1  0.93842200  0.38865300  0.47643000  1
  Ni  Ni109  1  0.56157800  0.11134700  0.97643000  1
  Ni  Ni110  1  0.43842200  0.61134700  0.52357000  1
  Ni  Ni111  1  0.06157800  0.88865300  0.02357000  1
  Ni  Ni112  1  0.75000000  0.84302400  0.37193900  1
  Ni  Ni113  1  0.75000000  0.65697600  0.87193900  1
  Ni  Ni114  1  0.25000000  0.15697600  0.62806100  1
  Ni  Ni115  1  0.25000000  0.34302400  0.12806100  1
  Ni  Ni116  1  0.83942900  0.75234800  0.41260000  1
  Ni  Ni117  1  0.66057100  0.74765200  0.91260000  1
  Ni  Ni118  1  0.33942900  0.24765200  0.58740000  1
  Ni  Ni119  1  0.16057100  0.25234800  0.08740000  1
  Ni  Ni120  1  0.16057100  0.24765200  0.58740000  1
  Ni  Ni121  1  0.33942900  0.25234800  0.08740000  1
  Ni  Ni122  1  0.66057100  0.75234800  0.41260000  1
  Ni  Ni123  1  0.83942900  0.74765200  0.91260000  1
  Ni  Ni124  1  0.83990500  0.67031000  0.69123700  1
  Ni  Ni125  1  0.66009500  0.82969000  0.19123700  1
  Ni  Ni126  1  0.33990500  0.32969000  0.30876300  1
  Ni  Ni127  1  0.16009500  0.17031000  0.80876300  1
  Ni  Ni128  1  0.16009500  0.32969000  0.30876300  1
  Ni  Ni129  1  0.33990500  0.17031000  0.80876300  1
  Ni  Ni130  1  0.66009500  0.67031000  0.69123700  1
  Ni  Ni131  1  0.83990500  0.82969000  0.19123700  1
  Ni  Ni132  1  0.75000000  0.65036400  0.59506500  1
  Ni  Ni133  1  0.75000000  0.84963600  0.09506500  1
  Ni  Ni134  1  0.25000000  0.34963600  0.40493500  1
  Ni  Ni135  1  0.25000000  0.15036400  0.90493500  1
  Ni  Ni136  1  0.16047200  0.95892200  0.73414600  1
  Ni  Ni137  1  0.33952800  0.54107800  0.23414600  1
  Ni  Ni138  1  0.66047200  0.04107800  0.26585400  1
  Ni  Ni139  1  0.83952800  0.45892200  0.76585400  1
  Ni  Ni140  1  0.83952800  0.04107800  0.26585400  1
  Ni  Ni141  1  0.66047200  0.45892200  0.76585400  1
  Ni  Ni142  1  0.33952800  0.95892200  0.73414600  1
  Ni  Ni143  1  0.16047200  0.54107800  0.23414600  1
  Ni  Ni144  1  0.25000000  0.86228900  0.75599500  1
  Ni  Ni145  1  0.25000000  0.63771100  0.25599500  1
  Ni  Ni146  1  0.75000000  0.13771100  0.24400500  1
  Ni  Ni147  1  0.75000000  0.36228900  0.74400500  1
  Cu  Cu148  1  0.00810500  0.64027300  0.46831800  1
  Cu  Cu149  1  0.49189500  0.85972700  0.96831800  1
  Cu  Cu150  1  0.50810500  0.35972700  0.53168200  1
  Cu  Cu151  1  0.99189500  0.14027300  0.03168200  1
  Cu  Cu152  1  0.99189500  0.35972700  0.53168200  1
  Cu  Cu153  1  0.50810500  0.14027300  0.03168200  1
  Cu  Cu154  1  0.49189500  0.64027300  0.46831800  1
  Cu  Cu155  1  0.00810500  0.85972700  0.96831800  1
  Cu  Cu156  1  0.75000000  0.79426000  0.42314900  1
  Cu  Cu157  1  0.75000000  0.70574000  0.92314900  1
  Cu  Cu158  1  0.25000000  0.20574000  0.57685100  1
  Cu  Cu159  1  0.25000000  0.29426000  0.07685100  1
  Cu  Cu160  1  0.75000000  0.69025300  0.65348700  1
  Cu  Cu161  1  0.75000000  0.80974700  0.15348700  1
  Cu  Cu162  1  0.25000000  0.30974700  0.34651300  1
  Cu  Cu163  1  0.25000000  0.19025300  0.84651300  1
  Cu  Cu164  1  0.25000000  0.92025900  0.71520900  1
  Cu  Cu165  1  0.25000000  0.57974100  0.21520900  1
  Cu  Cu166  1  0.75000000  0.07974100  0.28479100  1
  Cu  Cu167  1  0.75000000  0.42025900  0.78479100  1
