# generated using pymatgen
data_Cu11NiC5
_symmetry_space_group_name_H-M   'P 1'
_cell_length_a   5.24496000
_cell_length_b   5.49708912
_cell_length_c   17.22917987
_cell_angle_alpha   84.29377073
_cell_angle_beta   82.09178378
_cell_angle_gamma   61.70368312
_symmetry_Int_Tables_number   1
_chemical_formula_structural   Cu11NiC5
_chemical_formula_sum   'Cu22 Ni2 C10'
_cell_volume   432.90085590
_cell_formula_units_Z   2
loop_
 _symmetry_equiv_pos_site_id
 _symmetry_equiv_pos_as_xyz
  1  'x, y, z'
loop_
 _atom_site_type_symbol
 _atom_site_label
 _atom_site_symmetry_multiplicity
 _atom_site_fract_x
 _atom_site_fract_y
 _atom_site_fract_z
 _atom_site_occupancy
  C  C0  1  0.27940500  0.39954500  0.06157500  1
  C  C1  1  0.63872700  0.76916300  0.92900100  1
  C  C2  1  0.23524400  0.25646200  0.24653500  1
  C  C3  1  0.12149600  0.13030000  0.62242600  1
  C  C4  1  0.01636300  0.98314900  0.99921300  1
  C  C5  1  0.49809800  0.50348400  0.49769100  1
  C  C6  1  0.37196900  0.40511200  0.87594100  1
  C  C7  1  0.65388400  0.60348800  0.13279000  1
  C  C8  1  0.74658200  0.75887300  0.74750000  1
  C  C9  1  0.86605200  0.87762300  0.37279200  1
  Ni  Ni10  1  0.03407100  0.40045500  0.15523500  1
  Ni  Ni11  1  0.30984300  0.68861200  0.93886400  1
  Cu  Cu12  1  0.03621600  0.03124600  0.28367500  1
  Cu  Cu13  1  0.04591900  0.43634200  0.68989300  1
  Cu  Cu14  1  0.28081800  0.29139600  0.53374000  1
  Cu  Cu15  1  0.47499000  0.09315100  0.33923600  1
  Cu  Cu16  1  0.23174000  0.81138000  0.08985400  1
  Cu  Cu17  1  0.23875400  0.21597500  0.97110200  1
  Cu  Cu18  1  0.26445500  0.66261600  0.40885900  1
  Cu  Cu19  1  0.46173200  0.46116200  0.22056100  1
  Cu  Cu20  1  0.19739100  0.81360900  0.56425800  1
  Cu  Cu21  1  0.45967100  0.05693800  0.81948100  1
  Cu  Cu22  1  0.68482000  0.30701700  0.05987200  1
  Cu  Cu23  1  0.79699400  0.18372800  0.43869700  1
  Cu  Cu24  1  0.55378400  0.94446700  0.18008500  1
  Cu  Cu25  1  0.52817100  0.54704800  0.78166900  1
  Cu  Cu26  1  0.72699800  0.34603900  0.59121700  1
  Cu  Cu27  1  0.79020300  0.76392800  0.02579000  1
  Cu  Cu28  1  0.77907600  0.15244100  0.91016300  1
  Cu  Cu29  1  0.51915800  0.91884300  0.65775300  1
  Cu  Cu30  1  0.70326200  0.71999100  0.46631500  1
  Cu  Cu31  1  0.93327900  0.56587600  0.31516100  1
  Cu  Cu32  1  0.95133900  0.59952200  0.84592600  1
  Cu  Cu33  1  0.96140300  0.96623500  0.71648700  1
