# generated using pymatgen
data_Cu4Ni3C13
_symmetry_space_group_name_H-M   'P 1'
_cell_length_a   5.91753734
_cell_length_b   5.91753734
_cell_length_c   5.91753691
_cell_angle_alpha   104.31389990
_cell_angle_beta   104.31389990
_cell_angle_gamma   104.31388914
_symmetry_Int_Tables_number   1
_chemical_formula_structural   Cu4Ni3C13
_chemical_formula_sum   'Cu4 Ni3 C13'
_cell_volume   183.75757140
_cell_formula_units_Z   1
loop_
 _symmetry_equiv_pos_site_id
 _symmetry_equiv_pos_as_xyz
  1  'x, y, z'
loop_
 _atom_site_type_symbol
 _atom_site_label
 _atom_site_symmetry_multiplicity
 _atom_site_fract_x
 _atom_site_fract_y
 _atom_site_fract_z
 _atom_site_occupancy
  C  C0  1  0.00000000  0.00000000  0.00000000  1
  Ni  Ni1  1  0.00000000  0.44437000  0.55563000  1
  Ni  Ni2  1  0.44437000  0.55563000  0.00000000  1
  Ni  Ni3  1  0.55563000  0.00000000  0.44437000  1
  Cu  Cu4  1  0.50000000  0.50000000  0.50000000  1
  Cu  Cu5  1  0.50000000  0.05666400  0.94333600  1
  Cu  Cu6  1  0.05666400  0.94333600  0.50000000  1
  Cu  Cu7  1  0.94333600  0.50000000  0.05666400  1
  C  C8  1  0.50000000  0.64880000  0.35120000  1
  C  C9  1  0.64880000  0.35120000  0.50000000  1
  C  C10  1  0.35120000  0.50000000  0.64880000  1
  C  C11  1  0.50000000  0.90812100  0.09187900  1
  C  C12  1  0.90812100  0.09187900  0.50000000  1
  C  C13  1  0.09187900  0.50000000  0.90812100  1
  C  C14  1  0.63023400  0.02886600  0.78064900  1
  C  C15  1  0.02886600  0.78064900  0.63023400  1
  C  C16  1  0.78064900  0.63023400  0.02886600  1
  C  C17  1  0.36976600  0.21935100  0.97113400  1
  C  C18  1  0.97113400  0.36976600  0.21935100  1
  C  C19  1  0.21935100  0.97113400  0.36976600  1
