# generated using pymatgen
data_Cu(Ni4C3)2
_symmetry_space_group_name_H-M   'P 1'
_cell_length_a   7.84894300
_cell_length_b   8.04497600
_cell_length_c   11.02933600
_cell_angle_alpha   90.00000000
_cell_angle_beta   90.00000000
_cell_angle_gamma   90.00000000
_symmetry_Int_Tables_number   1
_chemical_formula_structural   Cu(Ni4C3)2
_chemical_formula_sum   'Cu2 Ni16 C12'
_cell_volume   696.44254742
_cell_formula_units_Z   2
loop_
 _symmetry_equiv_pos_site_id
 _symmetry_equiv_pos_as_xyz
  1  'x, y, z'
loop_
 _atom_site_type_symbol
 _atom_site_label
 _atom_site_symmetry_multiplicity
 _atom_site_fract_x
 _atom_site_fract_y
 _atom_site_fract_z
 _atom_site_occupancy
  Ni  Ni0  1  0.27539000  0.00000000  0.48108900  1
  Ni  Ni1  1  0.72461000  0.50000000  0.98108900  1
  Ni  Ni2  1  0.84489500  0.20012100  0.15710400  1
  Ni  Ni3  1  0.15510500  0.29987900  0.65710400  1
  Ni  Ni4  1  0.15510500  0.70012100  0.65710400  1
  Ni  Ni5  1  0.84489500  0.79987900  0.15710400  1
  Ni  Ni6  1  0.46415100  0.19809100  0.26832700  1
  Ni  Ni7  1  0.53584900  0.30190900  0.76832700  1
  Ni  Ni8  1  0.53584900  0.69809100  0.76832700  1
  Ni  Ni9  1  0.46415100  0.80190900  0.26832700  1
  Ni  Ni10  1  0.89790700  0.20839900  0.86358300  1
  Ni  Ni11  1  0.10209300  0.29160100  0.36358300  1
  Ni  Ni12  1  0.10209300  0.70839900  0.36358300  1
  Ni  Ni13  1  0.89790700  0.79160100  0.86358300  1
  Ni  Ni14  1  0.61777900  0.50000000  0.54266300  1
  Ni  Ni15  1  0.38222100  0.00000000  0.04266300  1
  Cu  Cu16  1  0.75044600  0.00000000  0.51899300  1
  Cu  Cu17  1  0.24955400  0.50000000  0.01899300  1
  C  C18  1  0.75001200  0.75136300  0.39904200  1
  C  C19  1  0.24998800  0.74863700  0.89904200  1
  C  C20  1  0.49062800  0.50000000  0.15033200  1
  C  C21  1  0.50937200  0.00000000  0.65033200  1
  C  C22  1  0.00452800  0.50000000  0.15059600  1
  C  C23  1  0.99547200  0.00000000  0.65059600  1
  C  C24  1  0.81045000  0.50000000  0.74665100  1
  C  C25  1  0.18955000  0.00000000  0.24665100  1
  C  C26  1  0.28387300  0.50000000  0.49736300  1
  C  C27  1  0.71612700  0.00000000  0.99736300  1
  C  C28  1  0.75001200  0.24863700  0.39904200  1
  C  C29  1  0.24998800  0.25136300  0.89904200  1
