# generated using pymatgen
data_Cu8NiC5
_symmetry_space_group_name_H-M   'P 1'
_cell_length_a   7.33278900
_cell_length_b   8.31234444
_cell_length_c   12.53941467
_cell_angle_alpha   94.66300104
_cell_angle_beta   90.00000000
_cell_angle_gamma   90.00000000
_symmetry_Int_Tables_number   1
_chemical_formula_structural   Cu8NiC5
_chemical_formula_sum   'Cu32 Ni4 C20'
_cell_volume   761.78097861
_cell_formula_units_Z   4
loop_
 _symmetry_equiv_pos_site_id
 _symmetry_equiv_pos_as_xyz
  1  'x, y, z'
loop_
 _atom_site_type_symbol
 _atom_site_label
 _atom_site_symmetry_multiplicity
 _atom_site_fract_x
 _atom_site_fract_y
 _atom_site_fract_z
 _atom_site_occupancy
  C  C0  1  0.84577200  0.46817700  0.79715900  1
  C  C1  1  0.15422800  0.53182300  0.20284100  1
  C  C2  1  0.34577200  0.53182300  0.70284100  1
  C  C3  1  0.65422800  0.46817700  0.29715900  1
  C  C4  1  0.65185700  0.90146400  0.74187900  1
  C  C5  1  0.34814300  0.09853600  0.25812100  1
  C  C6  1  0.15185700  0.09853600  0.75812100  1
  C  C7  1  0.84814300  0.90146400  0.24187900  1
  C  C8  1  0.99952600  0.79487700  0.61215400  1
  C  C9  1  0.00047400  0.20512300  0.38784600  1
  C  C10  1  0.49952600  0.20512300  0.88784600  1
  C  C11  1  0.50047400  0.79487700  0.11215400  1
  C  C12  1  0.72529700  0.59146000  0.57941800  1
  C  C13  1  0.27470300  0.40854000  0.42058200  1
  C  C14  1  0.22529700  0.40854000  0.92058200  1
  C  C15  1  0.77470300  0.59146000  0.07941800  1
  C  C16  1  0.58320400  0.67296000  0.93005600  1
  C  C17  1  0.41679600  0.32704000  0.06994400  1
  C  C18  1  0.08320400  0.32704000  0.56994400  1
  C  C19  1  0.91679600  0.67296000  0.43005600  1
  Ni  Ni20  1  0.95009900  0.90729500  0.88460000  1
  Ni  Ni21  1  0.04990100  0.09270500  0.11540000  1
  Ni  Ni22  1  0.45009900  0.09270500  0.61540000  1
  Ni  Ni23  1  0.54990100  0.90729500  0.38460000  1
  Cu  Cu24  1  0.56554000  0.69223900  0.60091600  1
  Cu  Cu25  1  0.43446000  0.30776100  0.39908400  1
  Cu  Cu26  1  0.06554000  0.30776100  0.89908400  1
  Cu  Cu27  1  0.93446000  0.69223900  0.10091600  1
  Cu  Cu28  1  0.48446600  0.78031300  0.99696100  1
  Cu  Cu29  1  0.51553400  0.21968700  0.00303900  1
  Cu  Cu30  1  0.98446600  0.21968700  0.50303900  1
  Cu  Cu31  1  0.01553400  0.78031300  0.49696100  1
  Cu  Cu32  1  0.86697600  0.67282000  0.65233400  1
  Cu  Cu33  1  0.13302400  0.32718000  0.34766600  1
  Cu  Cu34  1  0.36697600  0.32718000  0.84766600  1
  Cu  Cu35  1  0.63302400  0.67282000  0.15233400  1
  Cu  Cu36  1  0.93238500  0.95198800  0.65446500  1
  Cu  Cu37  1  0.06761500  0.04801200  0.34553500  1
  Cu  Cu38  1  0.43238500  0.04801200  0.84553500  1
  Cu  Cu39  1  0.56761500  0.95198800  0.15446500  1
  Cu  Cu40  1  0.65451400  0.45483600  0.62967000  1
  Cu  Cu41  1  0.34548600  0.54516400  0.37033000  1
  Cu  Cu42  1  0.15451400  0.54516400  0.87033000  1
  Cu  Cu43  1  0.84548600  0.45483600  0.12967000  1
  Cu  Cu44  1  0.56480300  0.66482700  0.82164700  1
  Cu  Cu45  1  0.43519700  0.33517300  0.17835300  1
  Cu  Cu46  1  0.06480300  0.33517300  0.67835300  1
  Cu  Cu47  1  0.93519700  0.66482700  0.32164700  1
  Cu  Cu48  1  0.71388200  0.56966900  0.96947300  1
  Cu  Cu49  1  0.28611800  0.43033100  0.03052700  1
  Cu  Cu50  1  0.21388200  0.43033100  0.53052700  1
  Cu  Cu51  1  0.78611800  0.56966900  0.46947300  1
  Cu  Cu52  1  0.66860600  0.22886600  0.83212300  1
  Cu  Cu53  1  0.33139400  0.77113400  0.16787700  1
  Cu  Cu54  1  0.16860600  0.77113400  0.66787700  1
  Cu  Cu55  1  0.83139400  0.22886600  0.33212300  1
