# generated using pymatgen
data_Cu(NiC3)3
_symmetry_space_group_name_H-M   'P 1'
_cell_length_a   8.90074900
_cell_length_b   11.30254300
_cell_length_c   16.09415400
_cell_angle_alpha   90.00000000
_cell_angle_beta   90.00000000
_cell_angle_gamma   90.00000000
_symmetry_Int_Tables_number   1
_chemical_formula_structural   Cu(NiC3)3
_chemical_formula_sum   'Cu8 Ni24 C72'
_cell_volume   1619.08956869
_cell_formula_units_Z   8
loop_
 _symmetry_equiv_pos_site_id
 _symmetry_equiv_pos_as_xyz
  1  'x, y, z'
loop_
 _atom_site_type_symbol
 _atom_site_label
 _atom_site_symmetry_multiplicity
 _atom_site_fract_x
 _atom_site_fract_y
 _atom_site_fract_z
 _atom_site_occupancy
  C  C0  1  0.24990700  0.22185800  0.59497400  1
  C  C1  1  0.75009300  0.72185800  0.40502600  1
  C  C2  1  0.74990700  0.72185800  0.90502600  1
  C  C3  1  0.25009300  0.22185800  0.09497400  1
  C  C4  1  0.62757200  0.14507500  0.71847100  1
  C  C5  1  0.37242800  0.64507500  0.28152900  1
  C  C6  1  0.12757200  0.64507500  0.78152900  1
  C  C7  1  0.87242800  0.14507500  0.21847100  1
  C  C8  1  0.53214200  0.18026100  0.87950600  1
  C  C9  1  0.46785800  0.68026100  0.12049400  1
  C  C10  1  0.03214200  0.68026100  0.62049400  1
  C  C11  1  0.96785800  0.18026100  0.37950600  1
  C  C12  1  0.66029600  0.31932100  0.64608000  1
  C  C13  1  0.33970400  0.81932100  0.35392000  1
  C  C14  1  0.16029600  0.81932100  0.85392000  1
  C  C15  1  0.83970400  0.31932100  0.14608000  1
  C  C16  1  0.10519700  0.24100200  0.68220300  1
  C  C17  1  0.89480300  0.74100200  0.31779700  1
  C  C18  1  0.60519700  0.74100200  0.81779700  1
  C  C19  1  0.39480300  0.24100200  0.18220300  1
  C  C20  1  0.47265800  0.08975200  0.03048400  1
  C  C21  1  0.52734200  0.58975200  0.96951600  1
  C  C22  1  0.97265800  0.58975200  0.46951600  1
  C  C23  1  0.02734200  0.08975200  0.53048400  1
  C  C24  1  0.09350900  0.30224400  0.66077400  1
  C  C25  1  0.90649100  0.80224400  0.33922600  1
  C  C26  1  0.59350900  0.80224400  0.83922600  1
  C  C27  1  0.40649100  0.30224400  0.16077400  1
  C  C28  1  0.14915700  0.08114300  0.46052400  1
  C  C29  1  0.85084300  0.58114300  0.53947600  1
  C  C30  1  0.64915700  0.58114300  0.03947600  1
  C  C31  1  0.35084300  0.08114300  0.96052400  1
  C  C32  1  0.66221200  0.35017400  0.53946000  1
  C  C33  1  0.33778800  0.85017400  0.46054000  1
  C  C34  1  0.16221200  0.85017400  0.96054000  1
  C  C35  1  0.83778800  0.35017400  0.03946000  1
  C  C36  1  0.03231300  0.31006200  0.43186100  1
  C  C37  1  0.96768700  0.81006200  0.56813900  1
  C  C38  1  0.53231300  0.81006200  0.06813900  1
  C  C39  1  0.46768700  0.31006200  0.93186100  1
  C  C40  1  0.34313200  0.01288900  0.61224200  1
  C  C41  1  0.65686800  0.51288900  0.38775800  1
  C  C42  1  0.84313200  0.51288900  0.88775800  1
  C  C43  1  0.15686800  0.01288900  0.11224200  1
  C  C44  1  0.21089000  0.02156800  0.68113900  1
  C  C45  1  0.78911000  0.52156800  0.31886100  1
  C  C46  1  0.71089000  0.52156800  0.81886100  1
  C  C47  1  0.28911000  0.02156800  0.18113900  1
  C  C48  1  0.37941000  0.06153600  0.70738000  1
  C  C49  1  0.62059000  0.56153600  0.29262000  1
  C  C50  1  0.87941000  0.56153600  0.79262000  1
  C  C51  1  0.12059000  0.06153600  0.20738000  1
  C  C52  1  0.28706000  0.45545100  0.44375400  1
  C  C53  1  0.71294000  0.95545100  0.55624600  1
  C  C54  1  0.78706000  0.95545100  0.05624600  1
  C  C55  1  0.21294000  0.45545100  0.94375400  1
  C  C56  1  0.09780500  0.61478900  0.74335800  1
  C  C57  1  0.90219500  0.11478900  0.25664200  1
  C  C58  1  0.59780500  0.11478900  0.75664200  1
  C  C59  1  0.40219500  0.61478900  0.24335800  1
  C  C60  1  0.44111800  0.52721200  0.65748900  1
  C  C61  1  0.55888200  0.02721200  0.34251100  1
  C  C62  1  0.94111800  0.02721200  0.84251100  1
  C  C63  1  0.05888200  0.52721200  0.15748900  1
  Ni  Ni64  1  0.81065700  0.30040200  0.42169100  1
  Ni  Ni65  1  0.18934300  0.80040200  0.57830900  1
  Ni  Ni66  1  0.31065700  0.80040200  0.07830900  1
  Ni  Ni67  1  0.68934300  0.30040200  0.92169100  1
  Ni  Ni68  1  0.60917200  0.31380800  0.58988700  1
  Ni  Ni69  1  0.39082800  0.81380800  0.41011300  1
  Ni  Ni70  1  0.10917200  0.81380800  0.91011300  1
  Ni  Ni71  1  0.89082800  0.31380800  0.08988700  1
  Ni  Ni72  1  0.94716900  0.26196400  0.40629600  1
  Ni  Ni73  1  0.05283100  0.76196400  0.59370400  1
  Ni  Ni74  1  0.44716900  0.76196400  0.09370400  1
  Ni  Ni75  1  0.55283100  0.26196400  0.90629600  1
  Ni  Ni76  1  0.37335500  0.33562400  0.53416100  1
  Ni  Ni77  1  0.62664500  0.83562400  0.46583900  1
  Ni  Ni78  1  0.87335500  0.83562400  0.96583900  1
  Ni  Ni79  1  0.12664500  0.33562400  0.03416100  1
  Ni  Ni80  1  0.30338800  0.06522800  0.65930000  1
  Ni  Ni81  1  0.69661200  0.56522800  0.34070000  1
  Ni  Ni82  1  0.80338800  0.56522800  0.84070000  1
  Ni  Ni83  1  0.19661200  0.06522800  0.15930000  1
  Ni  Ni84  1  0.45929400  0.30716500  0.59257300  1
  Ni  Ni85  1  0.54070600  0.80716500  0.40742700  1
  Ni  Ni86  1  0.95929400  0.80716500  0.90742700  1
  Ni  Ni87  1  0.04070600  0.30716500  0.09257300  1
  Cu  Cu88  1  0.40053200  0.99598500  0.85668500  1
  Cu  Cu89  1  0.59946800  0.49598500  0.14331500  1
  Cu  Cu90  1  0.90053200  0.49598500  0.64331500  1
  Cu  Cu91  1  0.09946800  0.99598500  0.35668500  1
  Cu  Cu92  1  0.31044700  0.50567400  0.89356700  1
  Cu  Cu93  1  0.68955300  0.00567400  0.10643300  1
  Cu  Cu94  1  0.81044700  0.00567400  0.60643300  1
  Cu  Cu95  1  0.18955300  0.50567400  0.39356700  1
  C  C96  1  0.70705600  0.23659200  0.39491300  1
  C  C97  1  0.29294400  0.73659200  0.60508700  1
  C  C98  1  0.20705600  0.73659200  0.10508700  1
  C  C99  1  0.79294400  0.23659200  0.89491300  1
  C  C100  1  0.12705700  0.12002200  0.51616600  1
  C  C101  1  0.87294300  0.62002200  0.48383400  1
  C  C102  1  0.62705700  0.62002200  0.98383400  1
  C  C103  1  0.37294300  0.12002200  0.01616600  1
