# generated using pymatgen
data_CuNiC16
_symmetry_space_group_name_H-M   'P 1'
_cell_length_a   7.59880691
_cell_length_b   7.59880691
_cell_length_c   10.99160787
_cell_angle_alpha   65.68353033
_cell_angle_beta   65.68353033
_cell_angle_gamma   70.25753883
_symmetry_Int_Tables_number   1
_chemical_formula_structural   CuNiC16
_chemical_formula_sum   'Cu2 Ni2 C32'
_cell_volume   516.13190777
_cell_formula_units_Z   2
loop_
 _symmetry_equiv_pos_site_id
 _symmetry_equiv_pos_as_xyz
  1  'x, y, z'
loop_
 _atom_site_type_symbol
 _atom_site_label
 _atom_site_symmetry_multiplicity
 _atom_site_fract_x
 _atom_site_fract_y
 _atom_site_fract_z
 _atom_site_occupancy
  Ni  Ni0  1  0.99282700  0.00717300  0.25000000  1
  Ni  Ni1  1  0.00717300  0.99282700  0.75000000  1
  Cu  Cu2  1  0.00000000  0.50000000  0.00000000  1
  Cu  Cu3  1  0.50000000  0.00000000  0.50000000  1
  C  C4  1  0.70354800  0.68433300  0.31696700  1
  C  C5  1  0.31566700  0.29645200  0.18303300  1
  C  C6  1  0.29645200  0.31566700  0.68303300  1
  C  C7  1  0.68433300  0.70354800  0.81696700  1
  C  C8  1  0.75526300  0.27158300  0.51354200  1
  C  C9  1  0.72841700  0.24473700  0.98645800  1
  C  C10  1  0.24473700  0.72841700  0.48645800  1
  C  C11  1  0.27158300  0.75526300  0.01354200  1
  C  C12  1  0.46711600  0.71071700  0.37619400  1
  C  C13  1  0.28928300  0.53288400  0.12380600  1
  C  C14  1  0.53288400  0.28928300  0.62380600  1
  C  C15  1  0.71071700  0.46711600  0.87619400  1
  C  C16  1  0.77694900  0.49849100  0.43777600  1
  C  C17  1  0.50150900  0.22305100  0.06222400  1
  C  C18  1  0.22305100  0.50150900  0.56222400  1
  C  C19  1  0.49849100  0.77694900  0.93777600  1
  C  C20  1  0.77361100  0.64679000  0.18039400  1
  C  C21  1  0.35321000  0.22638900  0.31960600  1
  C  C22  1  0.22638900  0.35321000  0.81960600  1
  C  C23  1  0.64679000  0.77361100  0.68039400  1
  C  C24  1  0.75640900  0.85804500  0.32028500  1
  C  C25  1  0.14195500  0.24359100  0.17971500  1
  C  C26  1  0.24359100  0.14195500  0.67971500  1
  C  C27  1  0.85804500  0.75640900  0.82028500  1
  C  C28  1  0.76236500  0.18557600  0.40883700  1
  C  C29  1  0.81442400  0.23763500  0.09116300  1
  C  C30  1  0.23763500  0.81442400  0.59116300  1
  C  C31  1  0.18557600  0.76236500  0.90883700  1
  C  C32  1  0.89668300  0.17471500  0.59468900  1
  C  C33  1  0.82528500  0.10331700  0.90531100  1
  C  C34  1  0.10331700  0.82528500  0.40531100  1
  C  C35  1  0.17471500  0.89668300  0.09468900  1
