# generated using pymatgen
data_CuNiC8
_symmetry_space_group_name_H-M   'P 1'
_cell_length_a   5.89618727
_cell_length_b   11.74582853
_cell_length_c   8.04287200
_cell_angle_alpha   90.00000864
_cell_angle_beta   90.00006798
_cell_angle_gamma   90.00176721
_symmetry_Int_Tables_number   1
_chemical_formula_structural   CuNiC8
_chemical_formula_sum   'Cu4 Ni4 C32'
_cell_volume   557.01396311
_cell_formula_units_Z   4
loop_
 _symmetry_equiv_pos_site_id
 _symmetry_equiv_pos_as_xyz
  1  'x, y, z'
loop_
 _atom_site_type_symbol
 _atom_site_label
 _atom_site_symmetry_multiplicity
 _atom_site_fract_x
 _atom_site_fract_y
 _atom_site_fract_z
 _atom_site_occupancy
  C  C0  1  0.01312600  0.50037100  0.00034200  1
  C  C1  1  0.51322300  0.74965300  0.50038700  1
  C  C2  1  0.98673900  0.00036600  0.00045100  1
  C  C3  1  0.48685600  0.24962200  0.50032400  1
  C  C4  1  0.01312200  0.50037300  0.49965700  1
  C  C5  1  0.51322100  0.74967400  0.99962000  1
  C  C6  1  0.98673900  0.00036400  0.49955600  1
  C  C7  1  0.48685100  0.24960100  0.99967300  1
  Ni  Ni8  1  0.51628300  0.49990700  0.24998000  1
  Ni  Ni9  1  0.01632100  0.74998600  0.75000700  1
  Ni  Ni10  1  0.48371600  0.00006000  0.24998000  1
  Ni  Ni11  1  0.98373700  0.25007100  0.75001200  1
  Cu  Cu12  1  0.51194900  0.50076300  0.75000100  1
  Cu  Cu13  1  0.01195000  0.74916800  0.25001500  1
  Cu  Cu14  1  0.48791500  0.00087900  0.74996400  1
  Cu  Cu15  1  0.98817400  0.24925700  0.25002500  1
  C  C16  1  0.28447900  0.38216700  0.24998500  1
  C  C17  1  0.79176900  0.62901100  0.75001900  1
  C  C18  1  0.23211000  0.87741000  0.25001800  1
  C  C19  1  0.72425900  0.12573200  0.74996600  1
  C  C20  1  0.77543500  0.62425700  0.25000400  1
  C  C21  1  0.26784600  0.87258700  0.74997800  1
  C  C22  1  0.70832600  0.12092700  0.25001500  1
  C  C23  1  0.21562300  0.36783000  0.75002000  1
  C  C24  1  0.51966500  0.50050000  0.50177100  1
  C  C25  1  0.01975100  0.74937200  0.00185600  1
  C  C26  1  0.48019900  0.00064400  0.50172600  1
  C  C27  1  0.98039100  0.24945800  0.00176600  1
  C  C28  1  0.51967300  0.50051400  0.99820800  1
  C  C29  1  0.01975000  0.74934800  0.49816900  1
  C  C30  1  0.48021900  0.00063800  0.99819300  1
  C  C31  1  0.98041100  0.24949100  0.49825800  1
  C  C32  1  0.76820400  0.37740300  0.24999300  1
  C  C33  1  0.27562700  0.62570500  0.75001400  1
  C  C34  1  0.71573300  0.88219700  0.25002400  1
  C  C35  1  0.20825300  0.12901900  0.74999100  1
  C  C36  1  0.29157400  0.62091100  0.25000400  1
  C  C37  1  0.78435800  0.86779600  0.74999700  1
  C  C38  1  0.22446100  0.12437400  0.25001600  1
  C  C39  1  0.73196500  0.37259400  0.75001700  1
