# generated using pymatgen
data_Cu3NiC6
_symmetry_space_group_name_H-M   'P 1'
_cell_length_a   5.83558017
_cell_length_b   6.39298369
_cell_length_c   8.03842750
_cell_angle_alpha   73.05114588
_cell_angle_beta   121.48802699
_cell_angle_gamma   116.99702373
_symmetry_Int_Tables_number   1
_chemical_formula_structural   Cu3NiC6
_chemical_formula_sum   'Cu3 Ni1 C6'
_cell_volume   227.27726911
_cell_formula_units_Z   1
loop_
 _symmetry_equiv_pos_site_id
 _symmetry_equiv_pos_as_xyz
  1  'x, y, z'
loop_
 _atom_site_type_symbol
 _atom_site_label
 _atom_site_symmetry_multiplicity
 _atom_site_fract_x
 _atom_site_fract_y
 _atom_site_fract_z
 _atom_site_occupancy
  Ni  Ni0  1  0.00000000  0.00000000  0.00000000  1
  Cu  Cu1  1  0.00000000  0.00000000  0.50000000  1
  Cu  Cu2  1  0.50000000  0.50000000  0.00000000  1
  Cu  Cu3  1  0.00000000  0.50000000  0.00000000  1
  C  C4  1  0.08166600  0.23227200  0.78742700  1
  C  C5  1  0.91833400  0.76772800  0.21257300  1
  C  C6  1  0.81203800  0.76249900  0.66273300  1
  C  C7  1  0.18796200  0.23750100  0.33726700  1
  C  C8  1  0.57139200  0.88864400  0.85430500  1
  C  C9  1  0.42860800  0.11135600  0.14569500  1
