# generated using pymatgen
data_Cu2NiC18
_symmetry_space_group_name_H-M   'P 1'
_cell_length_a   5.86658777
_cell_length_b   7.87423550
_cell_length_c   12.09792604
_cell_angle_alpha   106.21452103
_cell_angle_beta   96.70740301
_cell_angle_gamma   72.23284399
_symmetry_Int_Tables_number   1
_chemical_formula_structural   Cu2NiC18
_chemical_formula_sum   'Cu4 Ni2 C36'
_cell_volume   510.73248132
_cell_formula_units_Z   2
loop_
 _symmetry_equiv_pos_site_id
 _symmetry_equiv_pos_as_xyz
  1  'x, y, z'
loop_
 _atom_site_type_symbol
 _atom_site_label
 _atom_site_symmetry_multiplicity
 _atom_site_fract_x
 _atom_site_fract_y
 _atom_site_fract_z
 _atom_site_occupancy
  Ni  Ni0  1  0.25764800  0.48533100  0.23794000  1
  Ni  Ni1  1  0.75809000  0.48547600  0.73815300  1
  Cu  Cu2  1  0.63178800  0.78336700  0.28300900  1
  Cu  Cu3  1  0.13179800  0.78338200  0.78279400  1
  Cu  Cu4  1  0.87765400  0.20633900  0.21107400  1
  Cu  Cu5  1  0.37779300  0.20633100  0.71106300  1
  C  C6  1  0.65943700  0.35050300  0.89525000  1
  C  C7  1  0.15902800  0.35050600  0.39515500  1
  C  C8  1  0.94176900  0.29428200  0.89923600  1
  C  C9  1  0.44141800  0.29465300  0.39942100  1
  C  C10  1  0.34608800  0.63392200  0.08673200  1
  C  C11  1  0.84617300  0.63378500  0.58666000  1
  C  C12  1  0.08036000  0.72907400  0.11605100  1
  C  C13  1  0.58050900  0.72908100  0.61605800  1
  C  C14  1  0.81679100  0.02235900  0.46458600  1
  C  C15  1  0.31640200  0.02268300  0.96451000  1
  C  C16  1  0.48025900  0.13540400  0.06584000  1
  C  C17  1  0.98075700  0.13523300  0.56594700  1
  C  C18  1  0.50249500  0.91714200  0.06166800  1
  C  C19  1  0.00327700  0.91679800  0.56157500  1
  C  C20  1  0.79915800  0.39528500  0.89012300  1
  C  C21  1  0.29864300  0.39527900  0.38992100  1
  C  C22  1  0.20002500  0.60406000  0.09840200  1
  C  C23  1  0.70007200  0.60401300  0.59840400  1
  C  C24  1  0.08980500  0.00847100  0.87811000  1
  C  C25  1  0.59108100  0.00781100  0.37894900  1
  C  C26  1  0.95738200  0.96459100  0.15867400  1
  C  C27  1  0.45796000  0.96455100  0.65870300  1
  C  C28  1  0.47371400  0.01173200  0.01206800  1
  C  C29  1  0.97427200  0.01156100  0.51217000  1
  C  C30  1  0.44529500  0.66286400  0.31914000  1
  C  C31  1  0.94535400  0.66308800  0.81926200  1
  C  C32  1  0.94293800  0.65525000  0.29619700  1
  C  C33  1  0.44304700  0.65532000  0.79629500  1
  C  C34  1  0.58147400  0.29794800  0.65800600  1
  C  C35  1  0.08146700  0.29783900  0.15797900  1
  C  C36  1  0.05642500  0.29905100  0.66680600  1
  C  C37  1  0.55632500  0.29908200  0.16681400  1
  C  C38  1  0.54919900  0.79068800  0.13691300  1
  C  C39  1  0.04986300  0.78962500  0.63653900  1
  C  C40  1  0.41350300  0.26513900  0.86192200  1
  C  C41  1  0.91346400  0.26509800  0.36188200  1
