# generated using pymatgen
data_Cu7NiC7
_symmetry_space_group_name_H-M   'P 1'
_cell_length_a   10.21057100
_cell_length_b   10.21951500
_cell_length_c   12.08624000
_cell_angle_alpha   90.00000000
_cell_angle_beta   90.00000000
_cell_angle_gamma   90.00000000
_symmetry_Int_Tables_number   1
_chemical_formula_structural   Cu7NiC7
_chemical_formula_sum   'Cu56 Ni8 C56'
_cell_volume   1261.16389440
_cell_formula_units_Z   8
loop_
 _symmetry_equiv_pos_site_id
 _symmetry_equiv_pos_as_xyz
  1  'x, y, z'
loop_
 _atom_site_type_symbol
 _atom_site_label
 _atom_site_symmetry_multiplicity
 _atom_site_fract_x
 _atom_site_fract_y
 _atom_site_fract_z
 _atom_site_occupancy
  C  C0  1  0.58871800  0.80188300  0.27426600  1
  C  C1  1  0.08871800  0.69811700  0.72573400  1
  C  C2  1  0.41128200  0.30188300  0.22573400  1
  C  C3  1  0.91128200  0.19811700  0.77426600  1
  C  C4  1  0.41128200  0.19811700  0.72573400  1
  C  C5  1  0.91128200  0.30188300  0.27426600  1
  C  C6  1  0.58871800  0.69811700  0.77426600  1
  C  C7  1  0.08871800  0.80188300  0.22573400  1
  C  C8  1  0.38450200  0.80568900  0.11046500  1
  C  C9  1  0.88450200  0.69431100  0.88953500  1
  C  C10  1  0.61549800  0.30568900  0.38953500  1
  C  C11  1  0.11549800  0.19431100  0.61046500  1
  C  C12  1  0.61549800  0.19431100  0.88953500  1
  C  C13  1  0.11549800  0.30568900  0.11046500  1
  C  C14  1  0.38450200  0.69431100  0.61046500  1
  C  C15  1  0.88450200  0.80568900  0.38953500  1
  C  C16  1  0.49786500  0.89480700  0.06600200  1
  C  C17  1  0.99786500  0.60519300  0.93399800  1
  C  C18  1  0.50213500  0.39480700  0.43399800  1
  C  C19  1  0.00213500  0.10519300  0.56600200  1
  C  C20  1  0.50213500  0.10519300  0.93399800  1
  C  C21  1  0.00213500  0.39480700  0.06600200  1
  C  C22  1  0.49786500  0.60519300  0.56600200  1
  C  C23  1  0.99786500  0.89480700  0.43399800  1
  C  C24  1  0.36071100  0.66184100  0.32806300  1
  C  C25  1  0.86071100  0.83815900  0.67193700  1
  C  C26  1  0.63928900  0.16184100  0.17193700  1
  C  C27  1  0.13928900  0.33815900  0.82806300  1
  C  C28  1  0.63928900  0.33815900  0.67193700  1
  C  C29  1  0.13928900  0.16184100  0.32806300  1
  C  C30  1  0.36071100  0.83815900  0.82806300  1
  C  C31  1  0.86071100  0.66184100  0.17193700  1
  C  C32  1  0.47467600  0.57847300  0.27673900  1
  C  C33  1  0.97467600  0.92152700  0.72326100  1
  C  C34  1  0.52532400  0.07847300  0.22326100  1
  C  C35  1  0.02532400  0.42152700  0.77673900  1
  C  C36  1  0.52532400  0.42152700  0.72326100  1
  C  C37  1  0.02532400  0.07847300  0.27673900  1
  C  C38  1  0.47467600  0.92152700  0.77673900  1
  C  C39  1  0.97467600  0.57847300  0.22326100  1
  C  C40  1  0.72705300  0.69210400  0.46936000  1
  C  C41  1  0.22705300  0.80789600  0.53064000  1
  C  C42  1  0.27294700  0.19210400  0.03064000  1
  C  C43  1  0.77294700  0.30789600  0.96936000  1
  C  C44  1  0.27294700  0.30789600  0.53064000  1
  C  C45  1  0.77294700  0.19210400  0.46936000  1
  C  C46  1  0.72705300  0.80789600  0.96936000  1
  C  C47  1  0.22705300  0.69210400  0.03064000  1
  C  C48  1  0.70537400  0.84811800  0.47777100  1
  C  C49  1  0.20537400  0.65188200  0.52222900  1
  C  C50  1  0.29462600  0.34811800  0.02222900  1
  C  C51  1  0.79462600  0.15188200  0.97777100  1
  C  C52  1  0.29462600  0.15188200  0.52222900  1
  C  C53  1  0.79462600  0.34811800  0.47777100  1
  C  C54  1  0.70537400  0.65188200  0.97777100  1
  C  C55  1  0.20537400  0.84811800  0.02222900  1
  Ni  Ni56  1  0.66846000  0.50039000  0.15002100  1
  Ni  Ni57  1  0.16846000  0.99961000  0.84997900  1
  Ni  Ni58  1  0.33154000  0.00039000  0.34997900  1
  Ni  Ni59  1  0.83154000  0.49961000  0.65002100  1
  Ni  Ni60  1  0.33154000  0.49961000  0.84997900  1
  Ni  Ni61  1  0.83154000  0.00039000  0.15002100  1
  Ni  Ni62  1  0.66846000  0.99961000  0.65002100  1
  Ni  Ni63  1  0.16846000  0.50039000  0.34997900  1
  Cu  Cu64  1  0.52493200  0.47368600  0.16642200  1
  Cu  Cu65  1  0.02493200  0.02631400  0.83357800  1
  Cu  Cu66  1  0.47506800  0.97368600  0.33357800  1
  Cu  Cu67  1  0.97506800  0.52631400  0.66642200  1
  Cu  Cu68  1  0.47506800  0.52631400  0.83357800  1
  Cu  Cu69  1  0.97506800  0.97368600  0.16642200  1
  Cu  Cu70  1  0.52493200  0.02631400  0.66642200  1
  Cu  Cu71  1  0.02493200  0.47368600  0.33357800  1
  Cu  Cu72  1  0.74516500  0.41167900  0.22224900  1
  Cu  Cu73  1  0.24516500  0.08832100  0.77775100  1
  Cu  Cu74  1  0.25483500  0.91167900  0.27775100  1
  Cu  Cu75  1  0.75483500  0.58832100  0.72224900  1
  Cu  Cu76  1  0.25483500  0.58832100  0.77775100  1
  Cu  Cu77  1  0.75483500  0.91167900  0.22224900  1
  Cu  Cu78  1  0.74516500  0.08832100  0.72224900  1
  Cu  Cu79  1  0.24516500  0.41167900  0.27775100  1
  Cu  Cu80  1  0.70734600  0.48449200  0.03262100  1
  Cu  Cu81  1  0.20734600  0.01550800  0.96737900  1
  Cu  Cu82  1  0.29265400  0.98449200  0.46737900  1
  Cu  Cu83  1  0.79265400  0.51550800  0.53262100  1
  Cu  Cu84  1  0.29265400  0.51550800  0.96737900  1
  Cu  Cu85  1  0.79265400  0.98449200  0.03262100  1
  Cu  Cu86  1  0.70734600  0.01550800  0.53262100  1
  Cu  Cu87  1  0.20734600  0.48449200  0.46737900  1
  Cu  Cu88  1  0.69416800  0.63982600  0.18421600  1
  Cu  Cu89  1  0.19416800  0.86017400  0.81578400  1
  Cu  Cu90  1  0.30583200  0.13982600  0.31578400  1
  Cu  Cu91  1  0.80583200  0.36017400  0.68421600  1
  Cu  Cu92  1  0.30583200  0.36017400  0.81578400  1
  Cu  Cu93  1  0.80583200  0.13982600  0.18421600  1
  Cu  Cu94  1  0.69416800  0.86017400  0.68421600  1
  Cu  Cu95  1  0.19416800  0.63982600  0.31578400  1
  Cu  Cu96  1  0.48058600  0.82164700  0.11515400  1
  Cu  Cu97  1  0.98058600  0.67835300  0.88484600  1
  Cu  Cu98  1  0.51941400  0.32164700  0.38484600  1
  Cu  Cu99  1  0.01941400  0.17835300  0.61515400  1
  Cu  Cu100  1  0.51941400  0.17835300  0.88484600  1
  Cu  Cu101  1  0.01941400  0.32164700  0.11515400  1
  Cu  Cu102  1  0.48058600  0.67835300  0.61515400  1
  Cu  Cu103  1  0.98058600  0.82164700  0.38484600  1
  Cu  Cu104  1  0.45776400  0.64895700  0.33154200  1
  Cu  Cu105  1  0.95776400  0.85104300  0.66845800  1
  Cu  Cu106  1  0.54223600  0.14895700  0.16845800  1
  Cu  Cu107  1  0.04223600  0.35104300  0.83154200  1
  Cu  Cu108  1  0.54223600  0.35104300  0.66845800  1
  Cu  Cu109  1  0.04223600  0.14895700  0.33154200  1
  Cu  Cu110  1  0.45776400  0.85104300  0.83154200  1
  Cu  Cu111  1  0.95776400  0.64895700  0.16845800  1
  Cu  Cu112  1  0.71837100  0.77319300  0.42603400  1
  Cu  Cu113  1  0.21837100  0.72680700  0.57396600  1
  Cu  Cu114  1  0.28162900  0.27319300  0.07396600  1
  Cu  Cu115  1  0.78162900  0.22680700  0.92603400  1
  Cu  Cu116  1  0.28162900  0.22680700  0.57396600  1
  Cu  Cu117  1  0.78162900  0.27319300  0.42603400  1
  Cu  Cu118  1  0.71837100  0.72680700  0.92603400  1
  Cu  Cu119  1  0.21837100  0.77319300  0.07396600  1
