# generated using pymatgen
data_CuNiC29
_symmetry_space_group_name_H-M   'P 1'
_cell_length_a   8.47059630
_cell_length_b   8.73301048
_cell_length_c   4.36980174
_cell_angle_alpha   90.00000000
_cell_angle_beta   90.00000000
_cell_angle_gamma   90.00000000
_symmetry_Int_Tables_number   1
_chemical_formula_structural   CuNiC29
_chemical_formula_sum   'Cu1 Ni1 C29'
_cell_volume   323.25086731
_cell_formula_units_Z   1
loop_
 _symmetry_equiv_pos_site_id
 _symmetry_equiv_pos_as_xyz
  1  'x, y, z'
loop_
 _atom_site_type_symbol
 _atom_site_label
 _atom_site_symmetry_multiplicity
 _atom_site_fract_x
 _atom_site_fract_y
 _atom_site_fract_z
 _atom_site_occupancy
  Ni  Ni0  1  0.06209372  0.00000000  0.00000000  1
  Cu  Cu1  1  0.98526947  0.50000000  0.00000000  1
  C  C2  1  0.52195653  0.00000000  0.00000000  1
  C  C3  1  0.50295390  0.50000000  0.00000000  1
  C  C4  1  0.99534395  0.26206156  0.50000000  1
  C  C5  1  0.99534395  0.73793844  0.50000000  1
  C  C6  1  0.49739094  0.24764504  0.50000000  1
  C  C7  1  0.49739094  0.75235496  0.50000000  1
  C  C8  1  0.24586242  0.00000000  0.50000000  1
  C  C9  1  0.24189710  0.50000000  0.50000000  1
  C  C10  1  0.76741342  0.00000000  0.50000000  1
  C  C11  1  0.75337633  0.50000000  0.50000000  1
  C  C12  1  0.23906477  0.28318085  0.00000000  1
  C  C13  1  0.23906477  0.71681915  -0.00000000  1
  C  C14  1  0.76257997  0.25124125  -0.00000000  1
  C  C15  1  0.76257997  0.74875875  0.00000000  1
  C  C16  1  0.26625542  0.50000000  0.00000000  1
  C  C17  1  0.74834174  0.00000000  0.00000000  1
  C  C18  1  0.73562540  0.50000000  0.00000000  1
  C  C19  1  0.24574598  0.23908728  0.50000000  1
  C  C20  1  0.24574598  0.76091272  0.50000000  1
  C  C21  1  0.74498455  0.24817398  0.50000000  1
  C  C22  1  0.74498455  0.75182602  0.50000000  1
  C  C23  1  0.00274241  0.00000000  0.50000000  1
  C  C24  1  0.00121907  0.50000000  0.50000000  1
  C  C25  1  0.48342723  0.00000000  0.50000000  1
  C  C26  1  0.49345609  0.50000000  0.50000000  1
  C  C27  1  0.00257965  0.27024709  0.00000000  1
  C  C28  1  0.00257965  0.72975291  0.00000000  1
  C  C29  1  0.48136506  0.23460901  0.00000000  1
  C  C30  1  0.48136506  0.76539099  0.00000000  1
