# generated using pymatgen
data_Cu18Ni8C15
_symmetry_space_group_name_H-M   'P 1'
_cell_length_a   16.31476685
_cell_length_b   16.31476685
_cell_length_c   17.72221833
_cell_angle_alpha   117.40590982
_cell_angle_beta   117.40590982
_cell_angle_gamma   90.00000000
_symmetry_Int_Tables_number   1
_chemical_formula_structural   Cu18Ni8C15
_chemical_formula_sum   'Cu72 Ni32 C60'
_cell_volume   3580.88579749
_cell_formula_units_Z   4
loop_
 _symmetry_equiv_pos_site_id
 _symmetry_equiv_pos_as_xyz
  1  'x, y, z'
loop_
 _atom_site_type_symbol
 _atom_site_label
 _atom_site_symmetry_multiplicity
 _atom_site_fract_x
 _atom_site_fract_y
 _atom_site_fract_z
 _atom_site_occupancy
  C  C0  1  0.75000000  0.25000000  0.50000000  1
  C  C1  1  0.25000000  0.75000000  0.50000000  1
  C  C2  1  0.38239299  0.11760701  -0.00000000  1
  C  C3  1  0.61760701  0.88239299  -0.00000000  1
  C  C4  1  0.11760701  0.61760701  1.00000000  1
  C  C5  1  0.88239299  0.38239299  0.00000000  1
  C  C6  1  0.37708862  0.63066649  0.00000000  1
  C  C7  1  0.62291138  0.36933351  1.00000000  1
  C  C8  1  0.12291138  0.13066649  0.00000000  1
  C  C9  1  0.87708862  0.86933351  1.00000000  1
  C  C10  1  0.36933351  0.37708862  1.00000000  1
  C  C11  1  0.63066649  0.62291138  0.00000000  1
  C  C12  1  0.86933351  0.12291138  1.00000000  1
  C  C13  1  0.13066649  0.87708862  0.00000000  1
  C  C14  1  0.75000000  0.75000000  0.50000000  1
  C  C15  1  0.25000000  0.25000000  0.50000000  1
  C  C16  1  0.51681229  0.01681229  0.27837590  1
  C  C17  1  0.76156362  0.26156362  0.27837590  1
  C  C18  1  0.26156362  0.51681229  0.27837590  1
  C  C19  1  0.01681229  0.76156362  0.27837590  1
  C  C20  1  0.48318771  0.98318771  0.72162410  1
  C  C21  1  0.23843638  0.73843638  0.72162410  1
  C  C22  1  0.73843638  0.48318771  0.72162410  1
  C  C23  1  0.98318771  0.23843638  0.72162410  1
  C  C24  1  0.75000000  0.00449251  0.50000000  1
  C  C25  1  0.75000000  0.49550749  0.50000000  1
  C  C26  1  0.25000000  0.50449251  0.50000000  1
  C  C27  1  0.25000000  0.99550749  0.50000000  1
  C  C28  1  0.49550749  0.75000000  0.50000000  1
  C  C29  1  0.00449251  0.75000000  0.50000000  1
  C  C30  1  0.99550749  0.25000000  0.50000000  1
  C  C31  1  0.50449251  0.25000000  0.50000000  1
  C  C32  1  0.50000000  -0.00000000  0.50000000  1
  C  C33  1  0.00000000  0.50000000  0.50000000  1
  C  C34  1  0.50000000  0.50000000  0.50000000  1
  C  C35  1  0.00000000  -0.00000000  0.50000000  1
  C  C36  1  0.53647814  0.80134497  0.31731701  1
  C  C37  1  0.78083887  0.51597204  0.31731701  1
  C  C38  1  0.28083887  0.30134497  0.31731701  1
  C  C39  1  0.03647814  0.01597204  0.31731701  1
  C  C40  1  0.51597204  0.53647814  0.31731701  1
  C  C41  1  0.80134497  0.78083887  0.31731701  1
  C  C42  1  0.01597204  0.28083887  0.31731701  1
  C  C43  1  0.30134497  0.03647814  0.31731701  1
  C  C44  1  0.46352186  0.19865503  0.68268299  1
  C  C45  1  0.21916113  0.48402796  0.68268299  1
  C  C46  1  0.71916113  0.69865503  0.68268299  1
  C  C47  1  0.96352186  0.98402796  0.68268299  1
  C  C48  1  0.48402796  0.46352186  0.68268299  1
  C  C49  1  0.19865503  0.21916113  0.68268299  1
  C  C50  1  0.98402796  0.71916113  0.68268299  1
  C  C51  1  0.69865503  0.96352186  0.68268299  1
  C  C52  1  0.71119192  0.21119192  0.65905023  1
  C  C53  1  0.94785831  0.44785831  0.65905023  1
  C  C54  1  0.44785831  0.71119192  0.65905023  1
  C  C55  1  0.21119192  0.94785831  0.65905023  1
  C  C56  1  0.28880808  0.78880808  0.34094977  1
  C  C57  1  0.05214169  0.55214169  0.34094977  1
  C  C58  1  0.55214169  0.28880808  0.34094977  1
  C  C59  1  0.78880808  0.05214169  0.34094977  1
  Ni  Ni60  1  0.58175399  0.08175399  0.16350798  1
  Ni  Ni61  1  0.08175399  0.58175399  0.16350798  1
  Ni  Ni62  1  0.41824601  0.91824601  0.83649202  1
  Ni  Ni63  1  0.91824601  0.41824601  0.83649202  1
  Ni  Ni64  1  0.57249319  0.83531126  0.15663016  1
  Ni  Ni65  1  0.58413697  0.32131890  0.15663016  1
  Ni  Ni66  1  0.08413697  0.33531126  0.15663016  1
  Ni  Ni67  1  0.07249319  0.82131890  0.15663016  1
  Ni  Ni68  1  0.32131890  0.57249319  0.15663016  1
  Ni  Ni69  1  0.83531126  0.58413697  0.15663016  1
  Ni  Ni70  1  0.82131890  0.08413697  0.15663016  1
  Ni  Ni71  1  0.33531126  0.07249319  0.15663016  1
  Ni  Ni72  1  0.42750681  0.16468874  0.84336984  1
  Ni  Ni73  1  0.41586303  0.67868110  0.84336984  1
  Ni  Ni74  1  0.91586303  0.66468874  0.84336984  1
  Ni  Ni75  1  0.92750681  0.17868110  0.84336984  1
  Ni  Ni76  1  0.67868110  0.42750681  0.84336984  1
  Ni  Ni77  1  0.16468874  0.41586303  0.84336984  1
  Ni  Ni78  1  0.17868110  0.91586303  0.84336984  1
  Ni  Ni79  1  0.66468874  0.92750681  0.84336984  1
  Ni  Ni80  1  0.57902300  0.57902300  0.15804600  1
  Ni  Ni81  1  0.07902300  0.07902300  0.15804600  1
  Ni  Ni82  1  0.42097700  0.42097700  0.84195400  1
  Ni  Ni83  1  0.92097700  0.92097700  0.84195400  1
  Ni  Ni84  1  0.33458224  0.83458224  0.16090353  1
  Ni  Ni85  1  0.82632128  0.32632128  0.16090353  1
  Ni  Ni86  1  0.32632128  0.33458224  0.16090353  1
  Ni  Ni87  1  0.83458224  0.82632128  0.16090353  1
  Ni  Ni88  1  0.66541776  0.16541776  0.83909647  1
  Ni  Ni89  1  0.17367872  0.67367872  0.83909647  1
  Ni  Ni90  1  0.67367872  0.66541776  0.83909647  1
  Ni  Ni91  1  0.16541776  0.17367872  0.83909647  1
  Cu  Cu92  1  0.55938031  0.93746722  0.36987595  1
  Cu  Cu93  1  0.81049564  0.43240873  0.36987595  1
  Cu  Cu94  1  0.31049564  0.43746722  0.36987595  1
  Cu  Cu95  1  0.05938031  0.93240873  0.36987595  1
  Cu  Cu96  1  0.43240873  0.55938031  0.36987595  1
  Cu  Cu97  1  0.93746722  0.81049564  0.36987595  1
  Cu  Cu98  1  0.93240873  0.31049564  0.36987595  1
  Cu  Cu99  1  0.43746722  0.05938031  0.36987595  1
  Cu  Cu100  1  0.44061969  0.06253278  0.63012405  1
  Cu  Cu101  1  0.18950436  0.56759127  0.63012405  1
  Cu  Cu102  1  0.68950436  0.56253278  0.63012405  1
  Cu  Cu103  1  0.94061969  0.06759127  0.63012405  1
  Cu  Cu104  1  0.56759127  0.44061969  0.63012405  1
  Cu  Cu105  1  0.06253278  0.18950436  0.63012405  1
  Cu  Cu106  1  0.06759127  0.68950436  0.63012405  1
  Cu  Cu107  1  0.56253278  0.94061969  0.63012405  1
  Cu  Cu108  1  0.66986922  0.82489506  0.40298936  1
  Cu  Cu109  1  0.73312014  0.57809430  0.40298936  1
  Cu  Cu110  1  0.23312014  0.32489506  0.40298936  1
  Cu  Cu111  1  0.16986922  0.07809430  0.40298936  1
  Cu  Cu112  1  0.57809430  0.66986922  0.40298936  1
  Cu  Cu113  1  0.82489506  0.73312014  0.40298936  1
  Cu  Cu114  1  0.07809430  0.23312014  0.40298936  1
  Cu  Cu115  1  0.32489506  0.16986922  0.40298936  1
  Cu  Cu116  1  0.33013078  0.17510494  0.59701064  1
  Cu  Cu117  1  0.26687986  0.42190570  0.59701064  1
  Cu  Cu118  1  0.76687986  0.67510494  0.59701064  1
  Cu  Cu119  1  0.83013078  0.92190570  0.59701064  1
  Cu  Cu120  1  0.42190570  0.33013078  0.59701064  1
  Cu  Cu121  1  0.17510494  0.26687986  0.59701064  1
  Cu  Cu122  1  0.92190570  0.76687986  0.59701064  1
  Cu  Cu123  1  0.67510494  0.83013078  0.59701064  1
  Cu  Cu124  1  0.81256649  0.18204747  0.63211387  1
  Cu  Cu125  1  0.81954738  0.45006640  0.63211387  1
  Cu  Cu126  1  0.31954738  0.68204747  0.63211387  1
  Cu  Cu127  1  0.31256649  0.95006640  0.63211387  1
  Cu  Cu128  1  0.45006640  0.81256649  0.63211387  1
  Cu  Cu129  1  0.18204747  0.81954738  0.63211387  1
  Cu  Cu130  1  0.95006640  0.31954738  0.63211387  1
  Cu  Cu131  1  0.68204747  0.31256649  0.63211387  1
  Cu  Cu132  1  0.18743351  0.81795253  0.36788613  1
  Cu  Cu133  1  0.18045262  0.54993360  0.36788613  1
  Cu  Cu134  1  0.68045262  0.31795253  0.36788613  1
  Cu  Cu135  1  0.68743351  0.04993360  0.36788613  1
  Cu  Cu136  1  0.54993360  0.18743351  0.36788613  1
  Cu  Cu137  1  0.81795253  0.18045262  0.36788613  1
  Cu  Cu138  1  0.04993360  0.68045262  0.36788613  1
  Cu  Cu139  1  0.31795253  0.68743351  0.36788613  1
  Cu  Cu140  1  0.48686238  0.82116070  0.40202229  1
  Cu  Cu141  1  0.91515991  0.58086159  0.40202229  1
  Cu  Cu142  1  0.41515991  0.32116070  0.40202229  1
  Cu  Cu143  1  0.98686238  0.08086159  0.40202229  1
  Cu  Cu144  1  0.58086159  0.48686238  0.40202229  1
  Cu  Cu145  1  0.82116070  0.91515991  0.40202229  1
  Cu  Cu146  1  0.08086159  0.41515991  0.40202229  1
  Cu  Cu147  1  0.32116070  0.98686238  0.40202229  1
  Cu  Cu148  1  0.51313762  0.17883930  0.59797771  1
  Cu  Cu149  1  0.08484009  0.41913841  0.59797771  1
  Cu  Cu150  1  0.58484009  0.67883930  0.59797771  1
  Cu  Cu151  1  0.01313762  0.91913841  0.59797771  1
  Cu  Cu152  1  0.41913841  0.51313762  0.59797771  1
  Cu  Cu153  1  0.17883930  0.08484009  0.59797771  1
  Cu  Cu154  1  0.91913841  0.58484009  0.59797771  1
  Cu  Cu155  1  0.67883930  0.01313762  0.59797771  1
  Cu  Cu156  1  0.62145158  0.12145158  0.52258309  1
  Cu  Cu157  1  0.90113151  0.40113151  0.52258309  1
  Cu  Cu158  1  0.40113151  0.62145158  0.52258309  1
  Cu  Cu159  1  0.12145158  0.90113151  0.52258309  1
  Cu  Cu160  1  0.37854842  0.87854842  0.47741691  1
  Cu  Cu161  1  0.09886849  0.59886849  0.47741691  1
  Cu  Cu162  1  0.59886849  0.37854842  0.47741691  1
  Cu  Cu163  1  0.87854842  0.09886849  0.47741691  1
