# generated using pymatgen
data_Cu5(Ni2C5)2
_symmetry_space_group_name_H-M   'P 1'
_cell_length_a   9.91728900
_cell_length_b   8.19205300
_cell_length_c   9.84375327
_cell_angle_alpha   73.74823435
_cell_angle_beta   90.00000000
_cell_angle_gamma   90.00000000
_symmetry_Int_Tables_number   1
_chemical_formula_structural   Cu5(Ni2C5)2
_chemical_formula_sum   'Cu20 Ni16 C40'
_cell_volume   767.77917301
_cell_formula_units_Z   4
loop_
 _symmetry_equiv_pos_site_id
 _symmetry_equiv_pos_as_xyz
  1  'x, y, z'
loop_
 _atom_site_type_symbol
 _atom_site_label
 _atom_site_symmetry_multiplicity
 _atom_site_fract_x
 _atom_site_fract_y
 _atom_site_fract_z
 _atom_site_occupancy
  C  C0  1  0.14194700  0.16701500  0.50922800  1
  C  C1  1  0.64194700  0.83298500  0.99077200  1
  C  C2  1  0.85805300  0.83298500  0.49077200  1
  C  C3  1  0.35805300  0.16701500  0.00922800  1
  C  C4  1  0.17457400  0.91524300  0.27326600  1
  C  C5  1  0.67457400  0.08475700  0.22673400  1
  C  C6  1  0.82542600  0.08475700  0.72673400  1
  C  C7  1  0.32542600  0.91524300  0.77326600  1
  C  C8  1  0.02267600  0.30990200  0.15556900  1
  C  C9  1  0.52267600  0.69009800  0.34443100  1
  C  C10  1  0.97732400  0.69009800  0.84443100  1
  C  C11  1  0.47732400  0.30990200  0.65556900  1
  C  C12  1  0.06912900  0.12434500  0.11473300  1
  C  C13  1  0.56912900  0.87565500  0.38526700  1
  C  C14  1  0.93087100  0.87565500  0.88526700  1
  C  C15  1  0.43087100  0.12434500  0.61473300  1
  C  C16  1  0.07498200  0.34348100  0.37895700  1
  C  C17  1  0.57498200  0.65651900  0.12104300  1
  C  C18  1  0.92501800  0.65651900  0.62104300  1
  C  C19  1  0.42501800  0.34348100  0.87895700  1
  C  C20  1  0.22413700  0.66348500  0.41978100  1
  C  C21  1  0.72413700  0.33651500  0.08021900  1
  C  C22  1  0.77586300  0.33651500  0.58021900  1
  C  C23  1  0.27586300  0.66348500  0.91978100  1
  C  C24  1  0.28210100  0.64468100  0.59158000  1
  C  C25  1  0.78210100  0.35531900  0.90842000  1
  C  C26  1  0.71789900  0.35531900  0.40842000  1
  C  C27  1  0.21789900  0.64468100  0.09158000  1
  C  C28  1  0.10657400  0.12777200  0.31919900  1
  C  C29  1  0.60657400  0.87222800  0.18080100  1
  C  C30  1  0.89342600  0.87222800  0.68080100  1
  C  C31  1  0.39342600  0.12777200  0.81919900  1
  C  C32  1  0.21195800  0.87894300  0.48835300  1
  C  C33  1  0.71195800  0.12105700  0.01164700  1
  C  C34  1  0.78804200  0.12105700  0.51164700  1
  C  C35  1  0.28804200  0.87894300  0.98835300  1
  Ni  Ni36  1  0.15946300  0.96743700  0.35553700  1
  Ni  Ni37  1  0.65946300  0.03256300  0.14446300  1
  Ni  Ni38  1  0.84053700  0.03256300  0.64446300  1
  Ni  Ni39  1  0.34053700  0.96743700  0.85553700  1
  Ni  Ni40  1  0.09813500  0.21706300  0.41279700  1
  Ni  Ni41  1  0.59813500  0.78293700  0.08720300  1
  Ni  Ni42  1  0.90186500  0.78293700  0.58720300  1
  Ni  Ni43  1  0.40186500  0.21706300  0.91279700  1
  Ni  Ni44  1  0.25015500  0.71936300  0.49619700  1
  Ni  Ni45  1  0.75015500  0.28063700  0.00380300  1
  Ni  Ni46  1  0.74984500  0.28063700  0.50380300  1
  Ni  Ni47  1  0.24984500  0.71936300  0.99619700  1
  Ni  Ni48  1  0.06084100  0.18992800  0.18795600  1
  Ni  Ni49  1  0.56084100  0.81007200  0.31204400  1
  Ni  Ni50  1  0.93915900  0.81007200  0.81204400  1
  Ni  Ni51  1  0.43915900  0.18992800  0.68795600  1
  C  C52  1  0.44540100  0.34469400  0.28393800  1
  C  C53  1  0.94540100  0.65530600  0.21606200  1
  C  C54  1  0.55459900  0.65530600  0.71606200  1
  C  C55  1  0.05459900  0.34469400  0.78393800  1
  Cu  Cu56  1  0.39941300  0.45757600  0.36647400  1
  Cu  Cu57  1  0.89941300  0.54242400  0.13352600  1
  Cu  Cu58  1  0.60058700  0.54242400  0.63352600  1
  Cu  Cu59  1  0.10058700  0.45757600  0.86647400  1
  Cu  Cu60  1  0.45730000  0.17106200  0.37452600  1
  Cu  Cu61  1  0.95730000  0.82893800  0.12547400  1
  Cu  Cu62  1  0.54270000  0.82893800  0.62547400  1
  Cu  Cu63  1  0.04270000  0.17106200  0.87452600  1
  Cu  Cu64  1  0.22143600  0.94486800  0.58820100  1
  Cu  Cu65  1  0.72143600  0.05513200  0.91179900  1
  Cu  Cu66  1  0.77856400  0.05513200  0.41179900  1
  Cu  Cu67  1  0.27856400  0.94486800  0.08820100  1
  Cu  Cu68  1  0.58068100  0.40417600  0.22523000  1
  Cu  Cu69  1  0.08068100  0.59582400  0.27477000  1
  Cu  Cu70  1  0.41931900  0.59582400  0.77477000  1
  Cu  Cu71  1  0.91931900  0.40417600  0.72523000  1
  Cu  Cu72  1  0.35204300  0.35116300  0.16870100  1
  Cu  Cu73  1  0.85204300  0.64883700  0.33129900  1
  Cu  Cu74  1  0.64795700  0.64883700  0.83129900  1
  Cu  Cu75  1  0.14795700  0.35116300  0.66870100  1
