# generated using pymatgen
data_Cu4Ni2C3
_symmetry_space_group_name_H-M   'P 1'
_cell_length_a   9.26897600
_cell_length_b   9.26897600
_cell_length_c   13.27728500
_cell_angle_alpha   90.00000000
_cell_angle_beta   90.00000000
_cell_angle_gamma   90.00000000
_symmetry_Int_Tables_number   1
_chemical_formula_structural   Cu4Ni2C3
_chemical_formula_sum   'Cu16 Ni8 C12'
_cell_volume   1140.70354937
_cell_formula_units_Z   4
loop_
 _symmetry_equiv_pos_site_id
 _symmetry_equiv_pos_as_xyz
  1  'x, y, z'
loop_
 _atom_site_type_symbol
 _atom_site_label
 _atom_site_symmetry_multiplicity
 _atom_site_fract_x
 _atom_site_fract_y
 _atom_site_fract_z
 _atom_site_occupancy
  C  C0  1  0.00000000  0.50000000  0.78756300  1
  C  C1  1  0.00000000  0.50000000  0.28756300  1
  C  C2  1  0.50000000  0.00000000  0.71243700  1
  C  C3  1  0.50000000  0.00000000  0.21243700  1
  C  C4  1  0.00000000  0.85282100  0.57355100  1
  C  C5  1  0.00000000  0.14717900  0.57355100  1
  C  C6  1  0.35282100  0.50000000  0.07355100  1
  C  C7  1  0.64717900  0.50000000  0.07355100  1
  C  C8  1  0.50000000  0.64717900  0.92644900  1
  C  C9  1  0.50000000  0.35282100  0.92644900  1
  C  C10  1  0.14717900  0.00000000  0.42644900  1
  C  C11  1  0.85282100  0.00000000  0.42644900  1
  Ni  Ni12  1  0.26324700  0.50000000  0.70263500  1
  Ni  Ni13  1  0.73675300  0.50000000  0.70263500  1
  Ni  Ni14  1  0.00000000  0.76324700  0.20263500  1
  Ni  Ni15  1  0.00000000  0.23675300  0.20263500  1
  Ni  Ni16  1  0.23675300  0.00000000  0.79736500  1
  Ni  Ni17  1  0.76324700  0.00000000  0.79736500  1
  Ni  Ni18  1  0.50000000  0.73675300  0.29736500  1
  Ni  Ni19  1  0.50000000  0.26324700  0.29736500  1
  Cu  Cu20  1  0.00000000  0.68697700  0.91333900  1
  Cu  Cu21  1  0.00000000  0.31302300  0.91333900  1
  Cu  Cu22  1  0.18697700  0.50000000  0.41333900  1
  Cu  Cu23  1  0.81302300  0.50000000  0.41333900  1
  Cu  Cu24  1  0.50000000  0.81302300  0.58666100  1
  Cu  Cu25  1  0.50000000  0.18697700  0.58666100  1
  Cu  Cu26  1  0.31302300  0.00000000  0.08666100  1
  Cu  Cu27  1  0.68697700  0.00000000  0.08666100  1
  Cu  Cu28  1  0.14079400  0.85920600  0.50000000  1
  Cu  Cu29  1  0.85920600  0.85920600  0.50000000  1
  Cu  Cu30  1  0.14079400  0.14079400  0.50000000  1
  Cu  Cu31  1  0.85920600  0.14079400  0.50000000  1
  Cu  Cu32  1  0.35920600  0.64079400  0.00000000  1
  Cu  Cu33  1  0.64079400  0.64079400  0.00000000  1
  Cu  Cu34  1  0.35920600  0.35920600  0.00000000  1
  Cu  Cu35  1  0.64079400  0.35920600  0.00000000  1
