# generated using pymatgen
data_Cu43(Ni2C3)2
_symmetry_space_group_name_H-M   'P 1'
_cell_length_a   11.11032415
_cell_length_b   11.11032415
_cell_length_c   17.60373300
_cell_angle_alpha   90.00000000
_cell_angle_beta   90.00000000
_cell_angle_gamma   120.00000089
_symmetry_Int_Tables_number   1
_chemical_formula_structural   Cu43(Ni2C3)2
_chemical_formula_sum   'Cu86 Ni8 C12'
_cell_volume   1881.86671318
_cell_formula_units_Z   2
loop_
 _symmetry_equiv_pos_site_id
 _symmetry_equiv_pos_as_xyz
  1  'x, y, z'
loop_
 _atom_site_type_symbol
 _atom_site_label
 _atom_site_symmetry_multiplicity
 _atom_site_fract_x
 _atom_site_fract_y
 _atom_site_fract_z
 _atom_site_occupancy
  C  C0  1  0.53062800  0.00000000  0.59613700  1
  C  C1  1  0.46937200  0.00000000  0.40386300  1
  C  C2  1  0.00000000  0.53062800  0.59613700  1
  C  C3  1  0.46937200  0.00000000  0.09613700  1
  C  C4  1  0.00000000  0.53062800  0.90386300  1
  C  C5  1  0.00000000  0.46937200  0.40386300  1
  C  C6  1  0.53062800  0.00000000  0.90386300  1
  C  C7  1  0.00000000  0.46937200  0.09613700  1
  C  C8  1  0.46937200  0.46937200  0.59613700  1
  C  C9  1  0.53062800  0.53062800  0.40386300  1
  C  C10  1  0.53062800  0.53062800  0.09613700  1
  C  C11  1  0.46937200  0.46937200  0.90386300  1
  Ni  Ni12  1  0.00000000  0.00000000  0.50000000  1
  Ni  Ni13  1  0.00000000  0.00000000  0.00000000  1
  Ni  Ni14  1  0.72507300  0.00000000  0.75000000  1
  Ni  Ni15  1  0.27492700  0.00000000  0.25000000  1
  Ni  Ni16  1  0.00000000  0.72507300  0.75000000  1
  Ni  Ni17  1  0.00000000  0.27492700  0.25000000  1
  Ni  Ni18  1  0.27492700  0.27492700  0.75000000  1
  Ni  Ni19  1  0.72507300  0.72507300  0.25000000  1
  Cu  Cu20  1  0.15008800  0.59547100  0.75000000  1
  Cu  Cu21  1  0.84991200  0.40452900  0.25000000  1
  Cu  Cu22  1  0.40452900  0.55461700  0.75000000  1
  Cu  Cu23  1  0.59547100  0.15008800  0.75000000  1
  Cu  Cu24  1  0.59547100  0.44538300  0.25000000  1
  Cu  Cu25  1  0.40452900  0.84991200  0.25000000  1
  Cu  Cu26  1  0.44538300  0.84991200  0.75000000  1
  Cu  Cu27  1  0.55461700  0.40452900  0.75000000  1
  Cu  Cu28  1  0.55461700  0.15008800  0.25000000  1
  Cu  Cu29  1  0.44538300  0.59547100  0.25000000  1
  Cu  Cu30  1  0.84991200  0.44538300  0.75000000  1
  Cu  Cu31  1  0.15008800  0.55461700  0.25000000  1
  Cu  Cu32  1  0.15931800  0.00000000  0.11514700  1
  Cu  Cu33  1  0.84068200  0.00000000  0.88485300  1
  Cu  Cu34  1  0.00000000  0.15931800  0.11514700  1
  Cu  Cu35  1  0.84068200  0.00000000  0.61514700  1
  Cu  Cu36  1  0.00000000  0.15931800  0.38485300  1
  Cu  Cu37  1  0.00000000  0.84068200  0.88485300  1
  Cu  Cu38  1  0.15931800  0.00000000  0.38485300  1
  Cu  Cu39  1  0.00000000  0.84068200  0.61514700  1
  Cu  Cu40  1  0.84068200  0.84068200  0.11514700  1
  Cu  Cu41  1  0.15931800  0.15931800  0.88485300  1
  Cu  Cu42  1  0.15931800  0.15931800  0.61514700  1
  Cu  Cu43  1  0.84068200  0.84068200  0.38485300  1
  Cu  Cu44  1  0.24713100  0.49426300  0.50000000  1
  Cu  Cu45  1  0.75286900  0.50573700  0.50000000  1
  Cu  Cu46  1  0.50573700  0.75286900  0.50000000  1
  Cu  Cu47  1  0.75286900  0.50573700  0.00000000  1
  Cu  Cu48  1  0.49426300  0.24713100  0.00000000  1
  Cu  Cu49  1  0.49426300  0.24713100  0.50000000  1
  Cu  Cu50  1  0.24713100  0.49426300  0.00000000  1
  Cu  Cu51  1  0.50573700  0.75286900  0.00000000  1
  Cu  Cu52  1  0.24713100  0.75286900  0.50000000  1
  Cu  Cu53  1  0.75286900  0.24713100  0.50000000  1
  Cu  Cu54  1  0.75286900  0.24713100  0.00000000  1
  Cu  Cu55  1  0.24713100  0.75286900  0.00000000  1
  Cu  Cu56  1  0.14735900  0.00000000  0.75000000  1
  Cu  Cu57  1  0.85264100  0.00000000  0.25000000  1
  Cu  Cu58  1  0.00000000  0.14735900  0.75000000  1
  Cu  Cu59  1  0.00000000  0.85264100  0.25000000  1
  Cu  Cu60  1  0.85264100  0.85264100  0.75000000  1
  Cu  Cu61  1  0.14735900  0.14735900  0.25000000  1
  Cu  Cu62  1  0.33333300  0.66666700  0.62616900  1
  Cu  Cu63  1  0.66666700  0.33333300  0.37383100  1
  Cu  Cu64  1  0.66666700  0.33333300  0.12616900  1
  Cu  Cu65  1  0.66666700  0.33333300  0.87383100  1
  Cu  Cu66  1  0.33333300  0.66666700  0.87383100  1
  Cu  Cu67  1  0.33333300  0.66666700  0.12616900  1
  Cu  Cu68  1  0.33333300  0.66666700  0.37383100  1
  Cu  Cu69  1  0.66666700  0.33333300  0.62616900  1
  Cu  Cu70  1  0.25741300  0.00000000  0.53041500  1
  Cu  Cu71  1  0.74258700  0.00000000  0.46958500  1
  Cu  Cu72  1  0.00000000  0.25741300  0.53041500  1
  Cu  Cu73  1  0.74258700  0.00000000  0.03041500  1
  Cu  Cu74  1  0.00000000  0.25741300  0.96958500  1
  Cu  Cu75  1  0.00000000  0.74258700  0.46958500  1
  Cu  Cu76  1  0.25741300  0.00000000  0.96958500  1
  Cu  Cu77  1  0.00000000  0.74258700  0.03041500  1
  Cu  Cu78  1  0.74258700  0.74258700  0.53041500  1
  Cu  Cu79  1  0.25741300  0.25741300  0.46958500  1
  Cu  Cu80  1  0.25741300  0.25741300  0.03041500  1
  Cu  Cu81  1  0.74258700  0.74258700  0.96958500  1
  Cu  Cu82  1  0.15659900  0.39494000  0.66305600  1
  Cu  Cu83  1  0.84340100  0.60506000  0.33694400  1
  Cu  Cu84  1  0.60506000  0.76165900  0.66305600  1
  Cu  Cu85  1  0.84340100  0.60506000  0.16305600  1
  Cu  Cu86  1  0.39494000  0.15659900  0.83694400  1
  Cu  Cu87  1  0.39494000  0.23834100  0.33694400  1
  Cu  Cu88  1  0.15659900  0.39494000  0.83694400  1
  Cu  Cu89  1  0.60506000  0.84340100  0.16305600  1
  Cu  Cu90  1  0.23834100  0.84340100  0.66305600  1
  Cu  Cu91  1  0.39494000  0.23834100  0.16305600  1
  Cu  Cu92  1  0.76165900  0.60506000  0.83694400  1
  Cu  Cu93  1  0.76165900  0.15659900  0.33694400  1
  Cu  Cu94  1  0.60506000  0.76165900  0.83694400  1
  Cu  Cu95  1  0.23834100  0.39494000  0.16305600  1
  Cu  Cu96  1  0.60506000  0.84340100  0.33694400  1
  Cu  Cu97  1  0.39494000  0.15659900  0.66305600  1
  Cu  Cu98  1  0.76165900  0.15659900  0.16305600  1
  Cu  Cu99  1  0.23834100  0.39494000  0.33694400  1
  Cu  Cu100  1  0.23834100  0.84340100  0.83694400  1
  Cu  Cu101  1  0.76165900  0.60506000  0.66305600  1
  Cu  Cu102  1  0.84340100  0.23834100  0.83694400  1
  Cu  Cu103  1  0.15659900  0.76165900  0.16305600  1
  Cu  Cu104  1  0.15659900  0.76165900  0.33694400  1
  Cu  Cu105  1  0.84340100  0.23834100  0.66305600  1
