# generated using pymatgen
data_Cu8(NiC5)5
_symmetry_space_group_name_H-M   'P 1'
_cell_length_a   10.11130939
_cell_length_b   10.11130939
_cell_length_c   10.11130939
_cell_angle_alpha   94.55442670
_cell_angle_beta   94.55442670
_cell_angle_gamma   147.26577083
_symmetry_Int_Tables_number   1
_chemical_formula_structural   Cu8(NiC5)5
_chemical_formula_sum   'Cu8 Ni5 C25'
_cell_volume   536.34856456
_cell_formula_units_Z   1
loop_
 _symmetry_equiv_pos_site_id
 _symmetry_equiv_pos_as_xyz
  1  'x, y, z'
loop_
 _atom_site_type_symbol
 _atom_site_label
 _atom_site_symmetry_multiplicity
 _atom_site_fract_x
 _atom_site_fract_y
 _atom_site_fract_z
 _atom_site_occupancy
  Ni  Ni0  1  0.86161500  0.46245700  0.32407300  1
  Ni  Ni1  1  0.13838500  0.53754300  0.67592700  1
  Ni  Ni2  1  0.46245700  0.13838500  0.60084200  1
  Ni  Ni3  1  0.53754300  0.86161500  0.39915800  1
  Ni  Ni4  1  0.00000000  0.00000000  0.00000000  1
  Cu  Cu5  1  0.74995300  0.16700600  0.91695900  1
  Cu  Cu6  1  0.25004700  0.83299400  0.08304100  1
  Cu  Cu7  1  0.16700600  0.25004700  0.41705300  1
  Cu  Cu8  1  0.83299400  0.74995300  0.58294700  1
  Cu  Cu9  1  0.58846800  0.35703600  0.94550400  1
  Cu  Cu10  1  0.41153200  0.64296400  0.05449600  1
  Cu  Cu11  1  0.35703600  0.41153200  0.76856800  1
  Cu  Cu12  1  0.64296400  0.58846800  0.23143200  1
  C  C13  1  0.95915800  0.24547700  0.20463500  1
  C  C14  1  0.04084200  0.75452300  0.79536500  1
  C  C15  1  0.24547700  0.04084200  0.28631900  1
  C  C16  1  0.75452300  0.95915800  0.71368100  1
  C  C17  1  0.60614200  0.01202400  0.11052500  1
  C  C18  1  0.39385800  0.98797600  0.88947500  1
  C  C19  1  0.90149900  0.49561700  0.88947500  1
  C  C20  1  0.01202400  0.90149900  0.40588200  1
  C  C21  1  0.09850100  0.50438300  0.11052500  1
  C  C22  1  0.98797600  0.09850100  0.59411800  1
  C  C23  1  0.49561700  0.60614200  0.59411800  1
  C  C24  1  0.50438300  0.39385800  0.40588200  1
  C  C25  1  0.50000000  0.50000000  0.00000000  1
  C  C26  1  0.63089000  0.03806200  0.66895200  1
  C  C27  1  0.36911000  0.96193800  0.33104800  1
  C  C28  1  0.03806200  0.36911000  0.40717200  1
  C  C29  1  0.96193800  0.63089000  0.59282800  1
  C  C30  1  0.57141900  0.79759000  0.86940000  1
  C  C31  1  0.42858100  0.20241000  0.13060000  1
  C  C32  1  0.92819100  0.70201900  0.13060000  1
  C  C33  1  0.79759000  0.92819100  0.22617200  1
  C  C34  1  0.07180900  0.29798100  0.86940000  1
  C  C35  1  0.20241000  0.07180900  0.77382800  1
  C  C36  1  0.70201900  0.57141900  0.77382800  1
  C  C37  1  0.29798100  0.42858100  0.22617200  1
