# generated using pymatgen
data_CuNiC10
_symmetry_space_group_name_H-M   'P 1'
_cell_length_a   9.51699214
_cell_length_b   9.51699214
_cell_length_c   6.19601600
_cell_angle_alpha   90.00000000
_cell_angle_beta   90.00000000
_cell_angle_gamma   120.00000097
_symmetry_Int_Tables_number   1
_chemical_formula_structural   CuNiC10
_chemical_formula_sum   'Cu2 Ni2 C20'
_cell_volume   486.00706123
_cell_formula_units_Z   2
loop_
 _symmetry_equiv_pos_site_id
 _symmetry_equiv_pos_as_xyz
  1  'x, y, z'
loop_
 _atom_site_type_symbol
 _atom_site_label
 _atom_site_symmetry_multiplicity
 _atom_site_fract_x
 _atom_site_fract_y
 _atom_site_fract_z
 _atom_site_occupancy
  C  C0  1  0.22160800  0.37450600  0.27721100  1
  C  C1  1  0.62549400  0.84710200  0.27721100  1
  C  C2  1  0.15289800  0.77839200  0.27721100  1
  C  C3  1  0.77839200  0.62549400  0.77721100  1
  C  C4  1  0.37450600  0.15289800  0.77721100  1
  C  C5  1  0.84710200  0.22160800  0.77721100  1
  Ni  Ni6  1  0.33333300  0.66666700  0.84977300  1
  Ni  Ni7  1  0.66666700  0.33333300  0.34977300  1
  Cu  Cu8  1  0.00000000  0.00000000  0.42906400  1
  Cu  Cu9  1  0.00000000  0.00000000  0.92906400  1
  C  C10  1  0.12345500  0.21515800  0.67454100  1
  C  C11  1  0.78484200  0.90829600  0.67454100  1
  C  C12  1  0.09170400  0.87654500  0.67454100  1
  C  C13  1  0.87654500  0.78484200  0.17454100  1
  C  C14  1  0.21515800  0.09170400  0.17454100  1
  C  C15  1  0.90829600  0.12345500  0.17454100  1
  C  C16  1  0.08892600  0.51891200  0.00398300  1
  C  C17  1  0.48108800  0.57001500  0.00398300  1
  C  C18  1  0.42998500  0.91107400  0.00398300  1
  C  C19  1  0.91107400  0.48108800  0.50398300  1
  C  C20  1  0.51891200  0.42998500  0.50398300  1
  C  C21  1  0.57001500  0.08892600  0.50398300  1
  C  C22  1  0.33333300  0.66666700  0.48876000  1
  C  C23  1  0.66666700  0.33333300  0.98876000  1
