# generated using pymatgen
data_Cu8Ni5C2
_symmetry_space_group_name_H-M   'P 1'
_cell_length_a   6.54049500
_cell_length_b   6.54049500
_cell_length_c   14.10169071
_cell_angle_alpha   103.40922972
_cell_angle_beta   103.40922972
_cell_angle_gamma   90.00000000
_symmetry_Int_Tables_number   1
_chemical_formula_structural   Cu8Ni5C2
_chemical_formula_sum   'Cu16 Ni10 C4'
_cell_volume   569.87821967
_cell_formula_units_Z   2
loop_
 _symmetry_equiv_pos_site_id
 _symmetry_equiv_pos_as_xyz
  1  'x, y, z'
loop_
 _atom_site_type_symbol
 _atom_site_label
 _atom_site_symmetry_multiplicity
 _atom_site_fract_x
 _atom_site_fract_y
 _atom_site_fract_z
 _atom_site_occupancy
  C  C0  1  0.50000000  0.50000000  0.00000000  1
  C  C1  1  0.00000000  0.00000000  0.00000000  1
  C  C2  1  0.25000000  0.75000000  0.50000000  1
  C  C3  1  0.75000000  0.25000000  0.50000000  1
  Ni  Ni4  1  0.67956800  0.57095900  0.75052600  1
  Ni  Ni5  1  0.07095900  0.17956800  0.75052600  1
  Ni  Ni6  1  0.57095900  0.07095900  0.75052600  1
  Ni  Ni7  1  0.17956800  0.67956800  0.75052600  1
  Ni  Ni8  1  0.32043200  0.42904100  0.24947400  1
  Ni  Ni9  1  0.92904100  0.82043200  0.24947400  1
  Ni  Ni10  1  0.42904100  0.92904100  0.24947400  1
  Ni  Ni11  1  0.82043200  0.32043200  0.24947400  1
  Ni  Ni12  1  0.25000000  0.25000000  0.50000000  1
  Ni  Ni13  1  0.75000000  0.75000000  0.50000000  1
  Cu  Cu14  1  0.38981900  0.38981900  0.77963800  1
  Cu  Cu15  1  0.88981900  0.88981900  0.77963800  1
  Cu  Cu16  1  0.61018100  0.61018100  0.22036200  1
  Cu  Cu17  1  0.11018100  0.11018100  0.22036200  1
  Cu  Cu18  1  0.38088500  0.49319900  0.37408500  1
  Cu  Cu19  1  0.99319900  0.88088500  0.37408500  1
  Cu  Cu20  1  0.49319900  0.99319900  0.37408500  1
  Cu  Cu21  1  0.88088500  0.38088500  0.37408500  1
  Cu  Cu22  1  0.61911500  0.50680100  0.62591500  1
  Cu  Cu23  1  0.00680100  0.11911500  0.62591500  1
  Cu  Cu24  1  0.50680100  0.00680100  0.62591500  1
  Cu  Cu25  1  0.11911500  0.61911500  0.62591500  1
  Cu  Cu26  1  0.24782900  0.25217100  0.00000000  1
  Cu  Cu27  1  0.75217100  0.74782900  0.00000000  1
  Cu  Cu28  1  0.25217100  0.75217100  0.00000000  1
  Cu  Cu29  1  0.74782900  0.24782900  0.00000000  1
