# generated using pymatgen
data_CuNiC24
_symmetry_space_group_name_H-M   'P 1'
_cell_length_a   3.85745000
_cell_length_b   3.93085900
_cell_length_c   23.72171800
_cell_angle_alpha   90.00000000
_cell_angle_beta   90.00000000
_cell_angle_gamma   90.00000000
_symmetry_Int_Tables_number   1
_chemical_formula_structural   CuNiC24
_chemical_formula_sum   'Cu1 Ni1 C24'
_cell_volume   359.69459361
_cell_formula_units_Z   1
loop_
 _symmetry_equiv_pos_site_id
 _symmetry_equiv_pos_as_xyz
  1  'x, y, z'
loop_
 _atom_site_type_symbol
 _atom_site_label
 _atom_site_symmetry_multiplicity
 _atom_site_fract_x
 _atom_site_fract_y
 _atom_site_fract_z
 _atom_site_occupancy
  C  C0  1  0.50000000  0.50000000  0.84032100  1
  C  C1  1  0.50000000  0.50000000  0.34046400  1
  C  C2  1  0.50000000  0.50000000  0.15967900  1
  C  C3  1  0.50000000  0.50000000  0.65953600  1
  Ni  Ni4  1  0.50000000  0.50000000  0.00000000  1
  Cu  Cu5  1  0.50000000  0.50000000  0.50000000  1
  C  C6  1  0.00000000  0.00000000  0.74996400  1
  C  C7  1  0.00000000  0.00000000  0.25003600  1
  C  C8  1  0.00000000  0.00000000  0.92542400  1
  C  C9  1  0.00000000  0.00000000  0.42613400  1
  C  C10  1  0.00000000  0.00000000  0.07457600  1
  C  C11  1  0.00000000  0.00000000  0.57386600  1
  C  C12  1  0.00000000  0.00000000  0.82925300  1
  C  C13  1  0.00000000  0.00000000  0.32944300  1
  C  C14  1  0.00000000  0.00000000  0.17074700  1
  C  C15  1  0.00000000  0.00000000  0.67055700  1
  C  C16  1  0.00000000  0.50000000  0.93784700  1
  C  C17  1  0.00000000  0.50000000  0.43934000  1
  C  C18  1  0.00000000  0.50000000  0.06215300  1
  C  C19  1  0.00000000  0.50000000  0.56066000  1
  C  C20  1  0.00000000  0.50000000  0.74986300  1
  C  C21  1  0.00000000  0.50000000  0.25013700  1
  C  C22  1  0.50000000  0.00000000  0.93830300  1
  C  C23  1  0.50000000  0.00000000  0.43980600  1
  C  C24  1  0.50000000  0.00000000  0.06169700  1
  C  C25  1  0.50000000  0.00000000  0.56019400  1
