# generated using pymatgen
data_Cu16Ni5C3
_symmetry_space_group_name_H-M   'P 1'
_cell_length_a   8.03126236
_cell_length_b   15.26044268
_cell_length_c   21.42884315
_cell_angle_alpha   90.55072167
_cell_angle_beta   90.00000000
_cell_angle_gamma   90.00000000
_symmetry_Int_Tables_number   1
_chemical_formula_structural   Cu16Ni5C3
_chemical_formula_sum   'Cu128 Ni40 C24'
_cell_volume   2626.21095665
_cell_formula_units_Z   8
loop_
 _symmetry_equiv_pos_site_id
 _symmetry_equiv_pos_as_xyz
  1  'x, y, z'
loop_
 _atom_site_type_symbol
 _atom_site_label
 _atom_site_symmetry_multiplicity
 _atom_site_fract_x
 _atom_site_fract_y
 _atom_site_fract_z
 _atom_site_occupancy
  C  C0  1  0.33185144  0.65881843  0.12697251  1
  C  C1  1  0.33185144  0.84118157  0.87302749  1
  C  C2  1  0.66814856  0.34118157  0.87302749  1
  C  C3  1  0.66814856  0.15881843  0.12697251  1
  C  C4  1  0.23520767  0.96869172  0.11923666  1
  C  C5  1  0.23520767  0.53130828  0.88076334  1
  C  C6  1  0.76479233  0.03130828  0.88076334  1
  C  C7  1  0.76479233  0.46869172  0.11923666  1
  C  C8  1  0.18581732  0.53839049  0.37093240  1
  C  C9  1  0.18581732  0.96160951  0.62906760  1
  C  C10  1  0.81418268  0.46160951  0.62906760  1
  C  C11  1  0.81418268  0.03839049  0.37093240  1
  C  C12  1  0.32979410  0.88051340  0.39161524  1
  C  C13  1  0.32979410  0.61948660  0.60838476  1
  C  C14  1  0.67020590  0.11948660  0.60838476  1
  C  C15  1  0.67020590  0.38051340  0.39161524  1
  C  C16  1  0.82519643  0.75000000  0.00000000  1
  C  C17  1  0.17480357  0.25000000  0.00000000  1
  C  C18  1  0.85291051  0.75000000  0.50000000  1
  C  C19  1  0.14708949  0.25000000  0.50000000  1
  C  C20  1  0.83119575  0.75473202  0.24850899  1
  C  C21  1  0.83119575  0.74526798  0.75149101  1
  C  C22  1  0.16880425  0.24526798  0.75149101  1
  C  C23  1  0.16880425  0.25473202  0.24850899  1
  Ni  Ni24  1  0.50886107  0.81457019  0.18159609  1
  Ni  Ni25  1  0.50886107  0.68542981  0.81840391  1
  Ni  Ni26  1  0.49113893  0.18542981  0.81840391  1
  Ni  Ni27  1  0.49113893  0.31457019  0.18159609  1
  Ni  Ni28  1  0.15913788  0.70887921  0.42230869  1
  Ni  Ni29  1  0.15913788  0.79112079  0.57769131  1
  Ni  Ni30  1  0.84086212  0.29112079  0.57769131  1
  Ni  Ni31  1  0.84086212  0.20887921  0.42230869  1
  Ni  Ni32  1  0.51976424  0.87103224  0.00404605  1
  Ni  Ni33  1  0.51976424  0.62896776  0.99595395  1
  Ni  Ni34  1  0.48023576  0.12896776  0.99595395  1
  Ni  Ni35  1  0.48023576  0.37103224  0.00404605  1
  Ni  Ni36  1  0.01868016  0.60781017  0.07052775  1
  Ni  Ni37  1  0.01868016  0.89218983  0.92947225  1
  Ni  Ni38  1  0.98131984  0.39218983  0.92947225  1
  Ni  Ni39  1  0.98131984  0.10781017  0.07052775  1
  Ni  Ni40  1  0.70683130  0.56630588  0.24630126  1
  Ni  Ni41  1  0.70683130  0.93369412  0.75369874  1
  Ni  Ni42  1  0.29316870  0.43369412  0.75369874  1
  Ni  Ni43  1  0.29316870  0.06630588  0.24630126  1
  Ni  Ni44  1  0.14652436  0.64219952  0.24923260  1
  Ni  Ni45  1  0.14652436  0.85780048  0.75076740  1
  Ni  Ni46  1  0.85347564  0.35780048  0.75076740  1
  Ni  Ni47  1  0.85347564  0.14219952  0.24923260  1
  Ni  Ni48  1  0.02094952  0.60032294  0.67955200  1
  Ni  Ni49  1  0.02094952  0.89967706  0.32044800  1
  Ni  Ni50  1  0.97905048  0.39967706  0.32044800  1
  Ni  Ni51  1  0.97905048  0.10032294  0.67955200  1
  Ni  Ni52  1  0.64872249  0.78244434  0.37848553  1
  Ni  Ni53  1  0.64872249  0.71755566  0.62151447  1
  Ni  Ni54  1  0.35127751  0.21755566  0.62151447  1
  Ni  Ni55  1  0.35127751  0.28244434  0.37848553  1
  Ni  Ni56  1  0.74344428  0.94562038  0.50397887  1
  Ni  Ni57  1  0.74344428  0.55437962  0.49602113  1
  Ni  Ni58  1  0.25655572  0.05437962  0.49602113  1
  Ni  Ni59  1  0.25655572  0.44562038  0.50397887  1
  Ni  Ni60  1  0.95393751  0.83786314  0.12454577  1
  Ni  Ni61  1  0.95393751  0.66213686  0.87545423  1
  Ni  Ni62  1  0.04606249  0.16213686  0.87545423  1
  Ni  Ni63  1  0.04606249  0.33786314  0.12454577  1
  Cu  Cu64  1  0.60981203  0.87299181  0.20096933  1
  Cu  Cu65  1  0.60981203  0.62700819  0.79903067  1
  Cu  Cu66  1  0.39018797  0.12700819  0.79903067  1
  Cu  Cu67  1  0.39018797  0.37299181  0.20096933  1
  Cu  Cu68  1  0.54703546  0.73422254  0.19373972  1
  Cu  Cu69  1  0.54703546  0.76577746  0.80626028  1
  Cu  Cu70  1  0.45296454  0.26577746  0.80626028  1
  Cu  Cu71  1  0.45296454  0.23422254  0.19373972  1
  Cu  Cu72  1  0.37993975  0.83077105  0.15190782  1
  Cu  Cu73  1  0.37993975  0.66922895  0.84809218  1
  Cu  Cu74  1  0.62006025  0.16922895  0.84809218  1
  Cu  Cu75  1  0.62006025  0.33077105  0.15190782  1
  Cu  Cu76  1  0.05177980  0.65023209  0.43605364  1
  Cu  Cu77  1  0.05177980  0.84976791  0.56394636  1
  Cu  Cu78  1  0.94822020  0.34976791  0.56394636  1
  Cu  Cu79  1  0.94822020  0.15023209  0.43605364  1
  Cu  Cu80  1  0.28765751  0.69084207  0.39302553  1
  Cu  Cu81  1  0.28765751  0.80915793  0.60697447  1
  Cu  Cu82  1  0.71234249  0.30915793  0.60697447  1
  Cu  Cu83  1  0.71234249  0.19084207  0.39302553  1
  Cu  Cu84  1  0.12630802  0.78776848  0.44021013  1
  Cu  Cu85  1  0.12630802  0.71223152  0.55978987  1
  Cu  Cu86  1  0.87369198  0.21223152  0.55978987  1
  Cu  Cu87  1  0.87369198  0.28776848  0.44021013  1
  Cu  Cu88  1  0.54734418  0.82132970  0.95578793  1
  Cu  Cu89  1  0.54734418  0.67867030  0.04421207  1
  Cu  Cu90  1  0.45265582  0.17867030  0.04421207  1
  Cu  Cu91  1  0.45265582  0.32132970  0.95578793  1
  Cu  Cu92  1  0.63123584  0.87017876  0.04662053  1
  Cu  Cu93  1  0.63123584  0.62982124  0.95337947  1
  Cu  Cu94  1  0.36876416  0.12982124  0.95337947  1
  Cu  Cu95  1  0.36876416  0.37017876  0.04662053  1
  Cu  Cu96  1  0.39223517  0.91606364  0.00805757  1
  Cu  Cu97  1  0.39223517  0.58393636  0.99194243  1
  Cu  Cu98  1  0.60776483  0.08393636  0.99194243  1
  Cu  Cu99  1  0.60776483  0.41606364  0.00805757  1
  Cu  Cu100  1  0.86690099  0.59689538  0.05342120  1
  Cu  Cu101  1  0.86690099  0.90310462  0.94657880  1
  Cu  Cu102  1  0.13309901  0.40310462  0.94657880  1
  Cu  Cu103  1  0.13309901  0.09689538  0.05342120  1
  Cu  Cu104  1  0.09305843  0.55215521  0.10182463  1
  Cu  Cu105  1  0.09305843  0.94784479  0.89817537  1
  Cu  Cu106  1  0.90694157  0.44784479  0.89817537  1
  Cu  Cu107  1  0.90694157  0.05215521  0.10182463  1
  Cu  Cu108  1  0.08919579  0.67969498  0.05468661  1
  Cu  Cu109  1  0.08919579  0.82030502  0.94531339  1
  Cu  Cu110  1  0.91080421  0.32030502  0.94531339  1
  Cu  Cu111  1  0.91080421  0.17969498  0.05468661  1
  Cu  Cu112  1  0.78966309  0.59834845  0.19998492  1
  Cu  Cu113  1  0.78966309  0.90165155  0.80001508  1
  Cu  Cu114  1  0.21033691  0.40165155  0.80001508  1
  Cu  Cu115  1  0.21033691  0.09834845  0.19998492  1
  Cu  Cu116  1  0.67633616  0.61837164  0.29185015  1
  Cu  Cu117  1  0.67633616  0.88162836  0.70814985  1
  Cu  Cu118  1  0.32366384  0.38162836  0.70814985  1
  Cu  Cu119  1  0.32366384  0.11837164  0.29185015  1
  Cu  Cu120  1  0.33910672  0.98901637  0.24552744  1
  Cu  Cu121  1  0.33910672  0.51098363  0.75447256  1
  Cu  Cu122  1  0.66089328  0.01098363  0.75447256  1
  Cu  Cu123  1  0.66089328  0.48901637  0.24552744  1
  Cu  Cu124  1  0.04143876  0.64033428  0.29440212  1
  Cu  Cu125  1  0.04143876  0.85966572  0.70559788  1
  Cu  Cu126  1  0.95856124  0.35966572  0.70559788  1
  Cu  Cu127  1  0.95856124  0.14033428  0.29440212  1
  Cu  Cu128  1  0.27300251  0.59600197  0.24880012  1
  Cu  Cu129  1  0.27300251  0.90399803  0.75119988  1
  Cu  Cu130  1  0.72699749  0.40399803  0.75119988  1
  Cu  Cu131  1  0.72699749  0.09600197  0.24880012  1
  Cu  Cu132  1  0.11253160  0.69457952  0.20430639  1
  Cu  Cu133  1  0.11253160  0.80542048  0.79569361  1
  Cu  Cu134  1  0.88746840  0.30542048  0.79569361  1
  Cu  Cu135  1  0.88746840  0.19457952  0.20430639  1
  Cu  Cu136  1  0.86865879  0.59142851  0.69676726  1
  Cu  Cu137  1  0.86865879  0.90857149  0.30323274  1
  Cu  Cu138  1  0.13134121  0.40857149  0.30323274  1
  Cu  Cu139  1  0.13134121  0.09142851  0.69676726  1
  Cu  Cu140  1  0.08923515  0.54271642  0.64649905  1
  Cu  Cu141  1  0.08923515  0.95728358  0.35350095  1
  Cu  Cu142  1  0.91076485  0.45728358  0.35350095  1
  Cu  Cu143  1  0.91076485  0.04271642  0.64649905  1
  Cu  Cu144  1  0.09733497  0.66946532  0.69638374  1
  Cu  Cu145  1  0.09733497  0.83053468  0.30361626  1
  Cu  Cu146  1  0.90266503  0.33053468  0.30361626  1
  Cu  Cu147  1  0.90266503  0.16946532  0.69638374  1
  Cu  Cu148  1  0.79852738  0.75333402  0.37557622  1
  Cu  Cu149  1  0.79852738  0.74666598  0.62442378  1
  Cu  Cu150  1  0.20147262  0.24666598  0.62442378  1
  Cu  Cu151  1  0.20147262  0.25333402  0.37557622  1
  Cu  Cu152  1  0.58343332  0.79410407  0.43159029  1
  Cu  Cu153  1  0.58343332  0.70589593  0.56840971  1
  Cu  Cu154  1  0.41656668  0.20589593  0.56840971  1
  Cu  Cu155  1  0.41656668  0.29410407  0.43159029  1
  Cu  Cu156  1  0.57297915  0.80010888  0.32897285  1
  Cu  Cu157  1  0.57297915  0.69989112  0.67102715  1
  Cu  Cu158  1  0.42702085  0.19989112  0.67102715  1
  Cu  Cu159  1  0.42702085  0.30010888  0.32897285  1
  Cu  Cu160  1  0.69466257  0.89151376  0.54500886  1
  Cu  Cu161  1  0.69466257  0.60848624  0.45499114  1
  Cu  Cu162  1  0.30533743  0.10848624  0.45499114  1
  Cu  Cu163  1  0.30533743  0.39151376  0.54500886  1
  Cu  Cu164  1  0.83692735  0.91494423  0.45993169  1
  Cu  Cu165  1  0.83692735  0.58505577  0.54006831  1
  Cu  Cu166  1  0.16307265  0.08505577  0.54006831  1
  Cu  Cu167  1  0.16307265  0.41494423  0.45993169  1
  Cu  Cu168  1  0.29678503  0.52426525  0.50525197  1
  Cu  Cu169  1  0.29678503  0.97573475  0.49474803  1
  Cu  Cu170  1  0.70321497  0.47573475  0.49474803  1
  Cu  Cu171  1  0.70321497  0.02426525  0.50525197  1
  Cu  Cu172  1  0.00929067  0.86290447  0.07291883  1
  Cu  Cu173  1  0.00929067  0.63709553  0.92708117  1
  Cu  Cu174  1  0.99070933  0.13709553  0.92708117  1
  Cu  Cu175  1  0.99070933  0.36290447  0.07291883  1
  Cu  Cu176  1  0.99766075  0.87205950  0.17543044  1
  Cu  Cu177  1  0.99766075  0.62794050  0.82456956  1
  Cu  Cu178  1  0.00233925  0.12794050  0.82456956  1
  Cu  Cu179  1  0.00233925  0.37205950  0.17543044  1
  Cu  Cu180  1  0.84948683  0.77349651  0.12534403  1
  Cu  Cu181  1  0.84948683  0.72650349  0.87465597  1
  Cu  Cu182  1  0.15051317  0.22650349  0.87465597  1
  Cu  Cu183  1  0.15051317  0.27349651  0.12534403  1
  Cu  Cu184  1  0.50745221  0.00541894  0.36980859  1
  Cu  Cu185  1  0.50745221  0.49458106  0.63019141  1
  Cu  Cu186  1  0.49254779  0.99458106  0.63019141  1
  Cu  Cu187  1  0.49254779  0.50541894  0.36980859  1
  Cu  Cu188  1  0.52537223  0.01410662  0.12848900  1
  Cu  Cu189  1  0.52537223  0.48589338  0.87151100  1
  Cu  Cu190  1  0.47462777  0.98589338  0.87151100  1
  Cu  Cu191  1  0.47462777  0.51410662  0.12848900  1
