# generated using pymatgen
data_Cu9(NiC)2
_symmetry_space_group_name_H-M   'P 1'
_cell_length_a   8.86357674
_cell_length_b   10.59219155
_cell_length_c   10.43460760
_cell_angle_alpha   119.76440147
_cell_angle_beta   90.00000000
_cell_angle_gamma   90.00000000
_symmetry_Int_Tables_number   1
_chemical_formula_structural   Cu9(NiC)2
_chemical_formula_sum   'Cu36 Ni8 C8'
_cell_volume   850.40878182
_cell_formula_units_Z   4
loop_
 _symmetry_equiv_pos_site_id
 _symmetry_equiv_pos_as_xyz
  1  'x, y, z'
loop_
 _atom_site_type_symbol
 _atom_site_label
 _atom_site_symmetry_multiplicity
 _atom_site_fract_x
 _atom_site_fract_y
 _atom_site_fract_z
 _atom_site_occupancy
  C  C0  1  0.36731890  0.96086134  0.71669907  1
  C  C1  1  0.63268110  0.03913866  0.28330093  1
  C  C2  1  0.86731890  0.53913866  0.78330093  1
  C  C3  1  0.13268110  0.46086134  0.21669907  1
  C  C4  1  0.32102350  0.69176842  0.97466342  1
  C  C5  1  0.67897650  0.30823158  0.02533658  1
  C  C6  1  0.82102350  0.80823158  0.52533658  1
  C  C7  1  0.17897650  0.19176842  0.47466342  1
  Ni  Ni8  1  0.13207529  0.31775641  0.87241058  1
  Ni  Ni9  1  0.86792471  0.68224359  0.12758942  1
  Ni  Ni10  1  0.63207529  0.18224359  0.62758942  1
  Ni  Ni11  1  0.36792471  0.81775641  0.37241058  1
  Ni  Ni12  1  0.19929126  0.60235271  0.59902644  1
  Ni  Ni13  1  0.80070874  0.39764729  0.40097356  1
  Ni  Ni14  1  0.69929126  0.89764729  0.90097356  1
  Ni  Ni15  1  0.30070874  0.10235271  0.09902644  1
  Cu  Cu16  1  0.77730947  0.03901452  0.96496367  1
  Cu  Cu17  1  0.22269053  0.96098548  0.03503633  1
  Cu  Cu18  1  0.27730947  0.46098548  0.53503633  1
  Cu  Cu19  1  0.72269053  0.53901452  0.46496367  1
  Cu  Cu20  1  0.20322322  0.17808656  0.76479450  1
  Cu  Cu21  1  0.79677678  0.82191344  0.23520550  1
  Cu  Cu22  1  0.70322322  0.32191344  0.73520550  1
  Cu  Cu23  1  0.29677678  0.67808656  0.26479450  1
  Cu  Cu24  1  0.30990561  0.72286342  0.67411178  1
  Cu  Cu25  1  0.69009439  0.27713658  0.32588822  1
  Cu  Cu26  1  0.80990561  0.77713658  0.82588822  1
  Cu  Cu27  1  0.19009439  0.22286342  0.17411178  1
  Cu  Cu28  1  0.37966228  0.11731137  0.98111954  1
  Cu  Cu29  1  0.62033772  0.88268863  0.01888046  1
  Cu  Cu30  1  0.87966228  0.38268863  0.51888046  1
  Cu  Cu31  1  0.12033772  0.61731137  0.48111954  1
  Cu  Cu32  1  0.08805372  0.94778985  0.76986253  1
  Cu  Cu33  1  0.91194628  0.05221015  0.23013747  1
  Cu  Cu34  1  0.58805372  0.55221015  0.73013747  1
  Cu  Cu35  1  0.41194628  0.44778985  0.26986253  1
  Cu  Cu36  1  0.24674589  0.42159246  0.97718839  1
  Cu  Cu37  1  0.75325411  0.57840754  0.02281161  1
  Cu  Cu38  1  0.74674589  0.07840754  0.52281161  1
  Cu  Cu39  1  0.25325411  0.92159246  0.47718839  1
  Cu  Cu40  1  0.01846183  0.29886864  0.96672547  1
  Cu  Cu41  1  0.98153817  0.70113136  0.03327453  1
  Cu  Cu42  1  0.51846183  0.20113136  0.53327453  1
  Cu  Cu43  1  0.48153817  0.79886864  0.46672547  1
  Cu  Cu44  1  0.06082011  0.37998665  0.78702900  1
  Cu  Cu45  1  0.93917989  0.62001335  0.21297100  1
  Cu  Cu46  1  0.56082011  0.12001335  0.71297100  1
  Cu  Cu47  1  0.43917989  0.87998665  0.28702900  1
  Cu  Cu48  1  0.58840570  0.88272108  0.78766023  1
  Cu  Cu49  1  0.41159430  0.11727892  0.21233977  1
  Cu  Cu50  1  0.08840570  0.61727892  0.71233977  1
  Cu  Cu51  1  0.91159430  0.38272108  0.28766023  1
