# generated using pymatgen
data_Cu2Ni7
_symmetry_space_group_name_H-M   'P 1'
_cell_length_a   4.47934100
_cell_length_b   11.35474900
_cell_length_c   13.58908259
_cell_angle_alpha   86.64836999
_cell_angle_beta   90.00000000
_cell_angle_gamma   90.00000000
_symmetry_Int_Tables_number   1
_chemical_formula_structural   Cu2Ni7
_chemical_formula_sum   'Cu4 Ni14'
_cell_volume   689.98289157
_cell_formula_units_Z   2
loop_
 _symmetry_equiv_pos_site_id
 _symmetry_equiv_pos_as_xyz
  1  'x, y, z'
loop_
 _atom_site_type_symbol
 _atom_site_label
 _atom_site_symmetry_multiplicity
 _atom_site_fract_x
 _atom_site_fract_y
 _atom_site_fract_z
 _atom_site_occupancy
  Ni  Ni0  1  0.25000000  0.12491100  0.47727200  1
  Ni  Ni1  1  0.75000000  0.87508900  0.52272800  1
  Ni  Ni2  1  0.25000000  0.19693100  0.69306700  1
  Ni  Ni3  1  0.75000000  0.80306900  0.30693300  1
  Ni  Ni4  1  0.25000000  0.97778600  0.24569900  1
  Ni  Ni5  1  0.75000000  0.02221400  0.75430100  1
  Ni  Ni6  1  0.25000000  0.77007800  0.79531800  1
  Ni  Ni7  1  0.75000000  0.22992200  0.20468200  1
  Ni  Ni8  1  0.25000000  0.41028700  0.14775700  1
  Ni  Ni9  1  0.75000000  0.58971300  0.85224300  1
  Ni  Ni10  1  0.25000000  0.69858500  0.58037600  1
  Ni  Ni11  1  0.75000000  0.30141500  0.41962400  1
  Ni  Ni12  1  0.25000000  0.91254400  0.02740500  1
  Ni  Ni13  1  0.75000000  0.08745600  0.97259500  1
  Cu  Cu14  1  0.25000000  0.54435900  0.34883700  1
  Cu  Cu15  1  0.75000000  0.45564100  0.65116300  1
  Cu  Cu16  1  0.25000000  0.34553200  0.92939000  1
  Cu  Cu17  1  0.75000000  0.65446800  0.07061000  1
