# generated using pymatgen
data_Cu3NiC18
_symmetry_space_group_name_H-M   'P 1'
_cell_length_a   7.25780425
_cell_length_b   7.25780425
_cell_length_c   7.25780391
_cell_angle_alpha   60.08012072
_cell_angle_beta   60.08012072
_cell_angle_gamma   60.08012209
_symmetry_Int_Tables_number   1
_chemical_formula_structural   Cu3NiC18
_chemical_formula_sum   'Cu3 Ni1 C18'
_cell_volume   270.82486519
_cell_formula_units_Z   1
loop_
 _symmetry_equiv_pos_site_id
 _symmetry_equiv_pos_as_xyz
  1  'x, y, z'
loop_
 _atom_site_type_symbol
 _atom_site_label
 _atom_site_symmetry_multiplicity
 _atom_site_fract_x
 _atom_site_fract_y
 _atom_site_fract_z
 _atom_site_occupancy
  Ni  Ni0  1  0.50000000  0.50000000  0.50000000  1
  Cu  Cu1  1  0.00000000  0.50000000  0.50000000  1
  Cu  Cu2  1  0.50000000  0.50000000  0.00000000  1
  Cu  Cu3  1  0.50000000  0.00000000  0.50000000  1
  C  C4  1  0.00000000  0.00000000  0.00000000  1
  C  C5  1  0.50000000  0.00000000  0.00000000  1
  C  C6  1  0.00000000  0.00000000  0.50000000  1
  C  C7  1  0.00000000  0.50000000  0.00000000  1
  C  C8  1  0.92629900  0.32747000  0.32747000  1
  C  C9  1  0.32797800  0.92171800  0.92171800  1
  C  C10  1  0.32747000  0.32747000  0.92629900  1
  C  C11  1  0.92171800  0.92171800  0.32797800  1
  C  C12  1  0.92171800  0.32797800  0.92171800  1
  C  C13  1  0.32747000  0.92629900  0.32747000  1
  C  C14  1  0.07370100  0.67253000  0.67253000  1
  C  C15  1  0.67202200  0.07828200  0.07828200  1
  C  C16  1  0.67253000  0.67253000  0.07370100  1
  C  C17  1  0.07828200  0.07828200  0.67202200  1
  C  C18  1  0.07828200  0.67202200  0.07828200  1
  C  C19  1  0.67253000  0.07370100  0.67253000  1
  C  C20  1  0.36966100  0.36966100  0.36966100  1
  C  C21  1  0.63033900  0.63033900  0.63033900  1
