# generated using pymatgen
data_Cu2NiC7
_symmetry_space_group_name_H-M   'P 1'
_cell_length_a   5.29029300
_cell_length_b   9.11514400
_cell_length_c   18.50860600
_cell_angle_alpha   90.00000000
_cell_angle_beta   90.00000000
_cell_angle_gamma   90.00000000
_symmetry_Int_Tables_number   1
_chemical_formula_structural   Cu2NiC7
_chemical_formula_sum   'Cu16 Ni8 C56'
_cell_volume   892.51797286
_cell_formula_units_Z   8
loop_
 _symmetry_equiv_pos_site_id
 _symmetry_equiv_pos_as_xyz
  1  'x, y, z'
loop_
 _atom_site_type_symbol
 _atom_site_label
 _atom_site_symmetry_multiplicity
 _atom_site_fract_x
 _atom_site_fract_y
 _atom_site_fract_z
 _atom_site_occupancy
  Ni  Ni0  1  0.61777000  0.15042200  0.37567500  1
  Ni  Ni1  1  0.38223000  0.84957800  0.62432500  1
  Ni  Ni2  1  0.61777000  0.65042200  0.12432500  1
  Ni  Ni3  1  0.11777000  0.84957800  0.12432500  1
  Ni  Ni4  1  0.88223000  0.15042200  0.87567500  1
  Ni  Ni5  1  0.38223000  0.34957800  0.87567500  1
  Ni  Ni6  1  0.11777000  0.34957800  0.37567500  1
  Ni  Ni7  1  0.88223000  0.65042200  0.62432500  1
  C  C8  1  0.37460000  0.99148900  0.87627600  1
  C  C9  1  0.62540000  0.00851100  0.12372400  1
  C  C10  1  0.87460000  0.00851100  0.62372400  1
  C  C11  1  0.12540000  0.99148900  0.37627600  1
  C  C12  1  0.37460000  0.49148900  0.62372400  1
  C  C13  1  0.62540000  0.50851100  0.37627600  1
  C  C14  1  0.87460000  0.50851100  0.87627600  1
  C  C15  1  0.12540000  0.49148900  0.12372400  1
  Cu  Cu16  1  0.56546800  0.66087300  0.77232300  1
  Cu  Cu17  1  0.71357100  0.83537700  0.47394800  1
  Cu  Cu18  1  0.78642900  0.83537700  0.97394800  1
  Cu  Cu19  1  0.93453200  0.16087300  0.22767700  1
  Cu  Cu20  1  0.06546800  0.33912700  0.72767700  1
  Cu  Cu21  1  0.43453200  0.83912700  0.27232300  1
  Cu  Cu22  1  0.21357100  0.66462300  0.47394800  1
  Cu  Cu23  1  0.71357100  0.33537700  0.02605200  1
  Cu  Cu24  1  0.78642900  0.33537700  0.52605200  1
  Cu  Cu25  1  0.93453200  0.66087300  0.27232300  1
  Cu  Cu26  1  0.43453200  0.33912700  0.22767700  1
  Cu  Cu27  1  0.56546800  0.16087300  0.72767700  1
  Cu  Cu28  1  0.28642900  0.16462300  0.52605200  1
  Cu  Cu29  1  0.06546800  0.83912700  0.77232300  1
  Cu  Cu30  1  0.28642900  0.66462300  0.97394800  1
  Cu  Cu31  1  0.21357100  0.16462300  0.02605200  1
  C  C32  1  0.92784500  0.50105400  0.31055400  1
  C  C33  1  0.30601200  0.01721300  0.06722600  1
  C  C34  1  0.07215500  0.49894600  0.68944600  1
  C  C35  1  0.71395400  0.34033900  0.93715800  1
  C  C36  1  0.21395400  0.15966100  0.93715800  1
  C  C37  1  0.91775900  0.20433000  0.05116900  1
  C  C38  1  0.94626300  0.66061900  0.18384100  1
  C  C39  1  0.05373700  0.83938100  0.68384100  1
  C  C40  1  0.71395400  0.84033900  0.56284200  1
  C  C41  1  0.94626300  0.16061900  0.31615900  1
  C  C42  1  0.42784500  0.49894600  0.18944600  1
  C  C43  1  0.78604600  0.34033900  0.43715800  1
  C  C44  1  0.69398800  0.98278700  0.93277400  1
  C  C45  1  0.44626300  0.83938100  0.18384100  1
  C  C46  1  0.57215500  0.00105400  0.68944600  1
  C  C47  1  0.30601200  0.51721300  0.43277400  1
  C  C48  1  0.42784500  0.99894600  0.31055400  1
  C  C49  1  0.16448200  0.76723400  0.30262700  1
  C  C50  1  0.33551800  0.76723400  0.80262700  1
  C  C51  1  0.58224100  0.70433000  0.94883100  1
  C  C52  1  0.78604600  0.84033900  0.06284200  1
  C  C53  1  0.55373700  0.66061900  0.68384100  1
  C  C54  1  0.80601200  0.48278700  0.06722600  1
  C  C55  1  0.16448200  0.26723400  0.19737300  1
  C  C56  1  0.28604600  0.15966100  0.43715800  1
  C  C57  1  0.55373700  0.16061900  0.81615900  1
  C  C58  1  0.69398800  0.48278700  0.56722600  1
  C  C59  1  0.21395400  0.65966100  0.56284200  1
  C  C60  1  0.19398800  0.51721300  0.93277400  1
  C  C61  1  0.66448200  0.73276600  0.30262700  1
  C  C62  1  0.07215500  0.99894600  0.81055400  1
  C  C63  1  0.83551800  0.73276600  0.80262700  1
  C  C64  1  0.83551800  0.23276600  0.69737300  1
  C  C65  1  0.80601200  0.98278700  0.43277400  1
  C  C66  1  0.28604600  0.65966100  0.06284200  1
  C  C67  1  0.19398800  0.01721300  0.56722600  1
  C  C68  1  0.33551800  0.26723400  0.69737300  1
  C  C69  1  0.08224100  0.79567000  0.94883100  1
  C  C70  1  0.41775900  0.79567000  0.44883100  1
  C  C71  1  0.66448200  0.23276600  0.19737300  1
  C  C72  1  0.41775900  0.29567000  0.05116900  1
  C  C73  1  0.58224100  0.20433000  0.55116900  1
  C  C74  1  0.08224100  0.29567000  0.55116900  1
  C  C75  1  0.44626300  0.33938100  0.31615900  1
  C  C76  1  0.57215500  0.50105400  0.81055400  1
  C  C77  1  0.91775900  0.70433000  0.44883100  1
  C  C78  1  0.05373700  0.33938100  0.81615900  1
  C  C79  1  0.92784500  0.00105400  0.18944600  1
