# generated using pymatgen
data_CuNi2C7
_symmetry_space_group_name_H-M   'P 1'
_cell_length_a   8.07722000
_cell_length_b   5.38011700
_cell_length_c   5.40282867
_cell_angle_alpha   89.16796257
_cell_angle_beta   90.00000000
_cell_angle_gamma   90.00000000
_symmetry_Int_Tables_number   1
_chemical_formula_structural   CuNi2C7
_chemical_formula_sum   'Cu2 Ni4 C14'
_cell_volume   234.76266661
_cell_formula_units_Z   2
loop_
 _symmetry_equiv_pos_site_id
 _symmetry_equiv_pos_as_xyz
  1  'x, y, z'
loop_
 _atom_site_type_symbol
 _atom_site_label
 _atom_site_symmetry_multiplicity
 _atom_site_fract_x
 _atom_site_fract_y
 _atom_site_fract_z
 _atom_site_occupancy
  Ni  Ni0  1  0.75000000  0.51087000  0.53266700  1
  Ni  Ni1  1  0.25000000  0.48913000  0.46733300  1
  Ni  Ni2  1  0.75000000  0.98052600  0.01488000  1
  Ni  Ni3  1  0.25000000  0.01947400  0.98512000  1
  Cu  Cu4  1  0.50000000  0.00000000  0.50000000  1
  Cu  Cu5  1  0.00000000  0.00000000  0.50000000  1
  C  C6  1  0.50000000  0.50000000  0.00000000  1
  C  C7  1  0.00000000  0.50000000  0.00000000  1
  C  C8  1  0.42973700  0.65383200  0.67255300  1
  C  C9  1  0.07293800  0.82721600  0.16952600  1
  C  C10  1  0.92973700  0.34616800  0.32744700  1
  C  C11  1  0.57293800  0.17278400  0.83047400  1
  C  C12  1  0.42706200  0.82721600  0.16952600  1
  C  C13  1  0.92706200  0.17278400  0.83047400  1
  C  C14  1  0.25000000  0.11267700  0.59848500  1
  C  C15  1  0.07026300  0.65383200  0.67255300  1
  C  C16  1  0.75000000  0.62333200  0.89875900  1
  C  C17  1  0.57026300  0.34616800  0.32744700  1
  C  C18  1  0.75000000  0.88732300  0.40151500  1
  C  C19  1  0.25000000  0.37666800  0.10124100  1
