# generated using pymatgen
data_Cu(NiC12)3
_symmetry_space_group_name_H-M   'P 1'
_cell_length_a   8.71774800
_cell_length_b   5.30977400
_cell_length_c   9.45656872
_cell_angle_alpha   75.39268832
_cell_angle_beta   90.00000000
_cell_angle_gamma   90.00000000
_symmetry_Int_Tables_number   1
_chemical_formula_structural   Cu(NiC12)3
_chemical_formula_sum   'Cu1 Ni3 C36'
_cell_volume   423.58868127
_cell_formula_units_Z   1
loop_
 _symmetry_equiv_pos_site_id
 _symmetry_equiv_pos_as_xyz
  1  'x, y, z'
loop_
 _atom_site_type_symbol
 _atom_site_label
 _atom_site_symmetry_multiplicity
 _atom_site_fract_x
 _atom_site_fract_y
 _atom_site_fract_z
 _atom_site_occupancy
  C  C0  1  0.79989400  0.50000000  0.50000000  1
  C  C1  1  0.29950700  0.00000000  0.00000000  1
  C  C2  1  0.19978600  0.00000000  0.50000000  1
  C  C3  1  0.70042700  0.50000000  0.00000000  1
  Ni  Ni4  1  0.90364400  0.00000000  0.00000000  1
  Ni  Ni5  1  0.59804400  0.00000000  0.50000000  1
  Ni  Ni6  1  0.09589300  0.50000000  0.00000000  1
  Cu  Cu7  1  0.40345700  0.50000000  0.50000000  1
  C  C8  1  0.08845900  0.68972500  0.28716300  1
  C  C9  1  0.59416800  0.18572200  0.79159300  1
  C  C10  1  0.08845900  0.31027500  0.71283700  1
  C  C11  1  0.59416800  0.81427800  0.20840700  1
  C  C12  1  0.90637800  0.81158200  0.71042200  1
  C  C13  1  0.40747500  0.31059500  0.20799500  1
  C  C14  1  0.90637800  0.18841800  0.28957800  1
  C  C15  1  0.40747500  0.68940500  0.79200500  1
  C  C16  1  0.07329100  0.76813400  0.10726100  1
  C  C17  1  0.58282500  0.25939500  0.61127900  1
  C  C18  1  0.07329100  0.23186600  0.89273900  1
  C  C19  1  0.58282500  0.74060500  0.38872100  1
  C  C20  1  0.92462900  0.73245600  0.89047400  1
  C  C21  1  0.42578100  0.21772000  0.38765700  1
  C  C22  1  0.92462900  0.26754400  0.10952600  1
  C  C23  1  0.42578100  0.78228000  0.61234300  1
  C  C24  1  0.00624800  0.40453600  0.35186200  1
  C  C25  1  0.50681000  0.90409600  0.85548200  1
  C  C26  1  0.00624800  0.59546400  0.64813800  1
  C  C27  1  0.50681000  0.09590400  0.14451800  1
  C  C28  1  0.99182300  0.09517400  0.64794600  1
  C  C29  1  0.49389600  0.59486200  0.14906700  1
  C  C30  1  0.99182300  0.90482600  0.35205400  1
  C  C31  1  0.49389600  0.40513800  0.85093300  1
  C  C32  1  0.25804000  0.69058900  0.35492400  1
  C  C33  1  0.76187000  0.18109900  0.86354700  1
  C  C34  1  0.25804000  0.30941100  0.64507600  1
  C  C35  1  0.76187000  0.81890100  0.13645300  1
  C  C36  1  0.73917000  0.81618800  0.63771600  1
  C  C37  1  0.23880900  0.31981100  0.13695700  1
  C  C38  1  0.73917000  0.18381200  0.36228400  1
  C  C39  1  0.23880900  0.68018900  0.86304300  1
