# generated using pymatgen
data_CuNiC8
_symmetry_space_group_name_H-M   'P 1'
_cell_length_a   8.51885082
_cell_length_b   8.48782883
_cell_length_c   8.49512879
_cell_angle_alpha   90.00000000
_cell_angle_beta   90.00000000
_cell_angle_gamma   90.00000000
_symmetry_Int_Tables_number   1
_chemical_formula_structural   CuNiC8
_chemical_formula_sum   'Cu4 Ni4 C32'
_cell_volume   614.25343412
_cell_formula_units_Z   4
loop_
 _symmetry_equiv_pos_site_id
 _symmetry_equiv_pos_as_xyz
  1  'x, y, z'
loop_
 _atom_site_type_symbol
 _atom_site_label
 _atom_site_symmetry_multiplicity
 _atom_site_fract_x
 _atom_site_fract_y
 _atom_site_fract_z
 _atom_site_occupancy
  Ni  Ni0  1  -0.00000000  0.50000000  0.50000000  1
  Ni  Ni1  1  0.50000000  -0.00000000  0.50000000  1
  Ni  Ni2  1  0.50000000  -0.00000000  -0.00000000  1
  Ni  Ni3  1  -0.00000000  0.50000000  0.00000000  1
  C  C4  1  0.25000000  0.25000000  0.25000000  1
  C  C5  1  0.75000000  0.75000000  0.25000000  1
  C  C6  1  0.75000000  0.25000000  0.75000000  1
  C  C7  1  0.25000000  0.75000000  0.75000000  1
  Cu  Cu8  1  0.50000000  0.50000000  0.00000000  1
  Cu  Cu9  1  -0.00000000  -0.00000000  0.50000000  1
  Cu  Cu10  1  -0.00000000  -0.00000000  -0.00000000  1
  Cu  Cu11  1  0.50000000  0.50000000  0.50000000  1
  C  C12  1  0.75000000  0.75000000  0.75000000  1
  C  C13  1  0.25000000  0.25000000  0.75000000  1
  C  C14  1  0.25000000  0.75000000  0.25000000  1
  C  C15  1  0.75000000  0.25000000  0.25000000  1
  C  C16  1  0.98068017  0.20016762  0.29057610  1
  C  C17  1  0.01931983  0.79983238  0.29057610  1
  C  C18  1  0.01931983  0.20016762  0.70942390  1
  C  C19  1  0.98068017  0.79983238  0.70942390  1
  C  C20  1  0.28945587  0.98032432  0.20130485  1
  C  C21  1  0.28945587  0.01967568  0.79869515  1
  C  C22  1  0.71054413  0.01967568  0.20130485  1
  C  C23  1  0.71054413  0.98032432  0.79869515  1
  C  C24  1  0.20145471  0.28957705  0.98049612  1
  C  C25  1  0.79854529  0.28957705  0.01950388  1
  C  C26  1  0.20145471  0.71042295  0.01950388  1
  C  C27  1  0.79854529  0.71042295  0.98049612  1
  C  C28  1  0.51931983  0.29983238  0.20942390  1
  C  C29  1  0.48068017  0.70016762  0.20942390  1
  C  C30  1  0.48068017  0.29983238  0.79057610  1
  C  C31  1  0.51931983  0.70016762  0.79057610  1
  C  C32  1  0.21054413  0.51967568  0.29869515  1
  C  C33  1  0.21054413  0.48032432  0.70130485  1
  C  C34  1  0.78945587  0.48032432  0.29869515  1
  C  C35  1  0.78945587  0.51967568  0.70130485  1
  C  C36  1  0.29854529  0.21042295  0.51950388  1
  C  C37  1  0.70145471  0.21042295  0.48049612  1
  C  C38  1  0.29854529  0.78957705  0.48049612  1
  C  C39  1  0.70145471  0.78957705  0.51950388  1
