# generated using pymatgen
data_Cu7Ni2C
_symmetry_space_group_name_H-M   'P 1'
_cell_length_a   6.48172800
_cell_length_b   9.07671400
_cell_length_c   11.89332200
_cell_angle_alpha   90.00000000
_cell_angle_beta   90.00000000
_cell_angle_gamma   90.00000000
_symmetry_Int_Tables_number   1
_chemical_formula_structural   Cu7Ni2C
_chemical_formula_sum   'Cu28 Ni8 C4'
_cell_volume   699.71733087
_cell_formula_units_Z   4
loop_
 _symmetry_equiv_pos_site_id
 _symmetry_equiv_pos_as_xyz
  1  'x, y, z'
loop_
 _atom_site_type_symbol
 _atom_site_label
 _atom_site_symmetry_multiplicity
 _atom_site_fract_x
 _atom_site_fract_y
 _atom_site_fract_z
 _atom_site_occupancy
  C  C0  1  0.00000000  0.40264800  0.59936000  1
  C  C1  1  0.00000000  0.59735200  0.40064000  1
  C  C2  1  0.50000000  0.90264800  0.90064000  1
  C  C3  1  0.50000000  0.09735200  0.09936000  1
  Ni  Ni4  1  0.50000000  0.36623600  0.76198700  1
  Ni  Ni5  1  0.50000000  0.63376400  0.23801300  1
  Ni  Ni6  1  0.00000000  0.86623600  0.73801300  1
  Ni  Ni7  1  0.00000000  0.13376400  0.26198700  1
  Ni  Ni8  1  0.50000000  0.74186300  0.63086100  1
  Ni  Ni9  1  0.50000000  0.25813700  0.36913900  1
  Ni  Ni10  1  0.00000000  0.24186300  0.86913900  1
  Ni  Ni11  1  0.00000000  0.75813700  0.13086100  1
  Cu  Cu12  1  0.00000000  0.38368300  0.43746200  1
  Cu  Cu13  1  0.00000000  0.61631700  0.56253800  1
  Cu  Cu14  1  0.50000000  0.88368300  0.06253800  1
  Cu  Cu15  1  0.50000000  0.11631700  0.93746200  1
  Cu  Cu16  1  0.00000000  0.20826000  0.72334100  1
  Cu  Cu17  1  0.00000000  0.79174000  0.27665900  1
  Cu  Cu18  1  0.50000000  0.70826000  0.77665900  1
  Cu  Cu19  1  0.50000000  0.29174000  0.22334100  1
  Cu  Cu20  1  0.67186800  0.18285700  0.55614000  1
  Cu  Cu21  1  0.67186800  0.81714300  0.44386000  1
  Cu  Cu22  1  0.82813200  0.68285700  0.94386000  1
  Cu  Cu23  1  0.82813200  0.31714300  0.05614000  1
  Cu  Cu24  1  0.32813200  0.81714300  0.44386000  1
  Cu  Cu25  1  0.32813200  0.18285700  0.55614000  1
  Cu  Cu26  1  0.17186800  0.31714300  0.05614000  1
  Cu  Cu27  1  0.17186800  0.68285700  0.94386000  1
  Cu  Cu28  1  0.70782000  0.43085500  0.68920500  1
  Cu  Cu29  1  0.70782000  0.56914500  0.31079500  1
  Cu  Cu30  1  0.79218000  0.93085500  0.81079500  1
  Cu  Cu31  1  0.79218000  0.06914500  0.18920500  1
  Cu  Cu32  1  0.29218000  0.56914500  0.31079500  1
  Cu  Cu33  1  0.29218000  0.43085500  0.68920500  1
  Cu  Cu34  1  0.20782000  0.06914500  0.18920500  1
  Cu  Cu35  1  0.20782000  0.93085500  0.81079500  1
  Cu  Cu36  1  0.50000000  0.14493700  0.61113600  1
  Cu  Cu37  1  0.50000000  0.85506300  0.38886400  1
  Cu  Cu38  1  0.00000000  0.64493700  0.88886400  1
  Cu  Cu39  1  0.00000000  0.35506300  0.11113600  1
