# generated using pymatgen
data_CuNiC4
_symmetry_space_group_name_H-M   'P 1'
_cell_length_a   7.92743283
_cell_length_b   7.92743283
_cell_length_c   7.92743269
_cell_angle_alpha   33.56713237
_cell_angle_beta   33.56713237
_cell_angle_gamma   33.56712739
_symmetry_Int_Tables_number   1
_chemical_formula_structural   CuNiC4
_chemical_formula_sum   'Cu1 Ni1 C4'
_cell_volume   135.66325850
_cell_formula_units_Z   1
loop_
 _symmetry_equiv_pos_site_id
 _symmetry_equiv_pos_as_xyz
  1  'x, y, z'
loop_
 _atom_site_type_symbol
 _atom_site_label
 _atom_site_symmetry_multiplicity
 _atom_site_fract_x
 _atom_site_fract_y
 _atom_site_fract_z
 _atom_site_occupancy
  Ni  Ni0  1  0.62536700  0.62536700  0.62536700  1
  Cu  Cu1  1  0.12457000  0.12457000  0.12457000  1
  C  C2  1  0.74974900  0.74974900  0.74974900  1
  C  C3  1  0.99991100  0.99991100  0.99991100  1
  C  C4  1  0.49980200  0.49980200  0.49980200  1
  C  C5  1  0.25060100  0.25060100  0.25060100  1
