# generated using pymatgen
data_Cu(NiC5)2
_symmetry_space_group_name_H-M   'P 1'
_cell_length_a   5.20632855
_cell_length_b   12.01404154
_cell_length_c   10.00243903
_cell_angle_alpha   107.46428102
_cell_angle_beta   90.28610630
_cell_angle_gamma   90.00580093
_symmetry_Int_Tables_number   1
_chemical_formula_structural   Cu(NiC5)2
_chemical_formula_sum   'Cu4 Ni8 C40'
_cell_volume   596.79525628
_cell_formula_units_Z   4
loop_
 _symmetry_equiv_pos_site_id
 _symmetry_equiv_pos_as_xyz
  1  'x, y, z'
loop_
 _atom_site_type_symbol
 _atom_site_label
 _atom_site_symmetry_multiplicity
 _atom_site_fract_x
 _atom_site_fract_y
 _atom_site_fract_z
 _atom_site_occupancy
  C  C0  1  0.75624100  0.20824400  0.54596900  1
  C  C1  1  0.75619900  0.70820500  0.54593500  1
  C  C2  1  0.74542900  0.43547100  0.45536800  1
  C  C3  1  0.74546600  0.93544400  0.45534400  1
  C  C4  1  0.24552400  0.29225700  0.45505400  1
  C  C5  1  0.24548800  0.79221300  0.45501000  1
  C  C6  1  0.25625400  0.06505000  0.54583200  1
  C  C7  1  0.25627800  0.56501700  0.54580600  1
  Ni  Ni8  1  0.74350400  0.13979600  0.23160400  1
  Ni  Ni9  1  0.74341700  0.63975100  0.23156300  1
  Ni  Ni10  1  0.75851900  0.02444500  0.76952100  1
  Ni  Ni11  1  0.75857100  0.52444700  0.76956500  1
  Ni  Ni12  1  0.25853600  0.36075500  0.76942400  1
  Ni  Ni13  1  0.25842000  0.86076200  0.76935200  1
  Ni  Ni14  1  0.24337300  0.47611600  0.23154800  1
  Ni  Ni15  1  0.24344200  0.97618400  0.23162200  1
  Cu  Cu16  1  0.75097900  0.82202500  0.00056900  1
  Cu  Cu17  1  0.25113100  0.17858400  0.00048100  1
  Cu  Cu18  1  0.75105000  0.32179800  0.00061800  1
  Cu  Cu19  1  0.25106600  0.67889200  0.00043400  1
  C  C20  1  0.07941500  0.09193500  0.14256500  1
  C  C21  1  0.07934400  0.59180200  0.14258100  1
  C  C22  1  0.42251100  0.02102400  0.85849600  1
  C  C23  1  0.42257400  0.52091300  0.85839400  1
  C  C24  1  0.92258400  0.40875600  0.85852800  1
  C  C25  1  0.92249600  0.90867800  0.85851200  1
  C  C26  1  0.57932700  0.47962300  0.14262900  1
  C  C27  1  0.57940000  0.97958100  0.14255200  1
  C  C28  1  0.58835500  0.21574800  0.11673700  1
  C  C29  1  0.58802900  0.71560800  0.11658000  1
  C  C30  1  0.91397900  0.15774700  0.88418400  1
  C  C31  1  0.91404900  0.65784200  0.88445000  1
  C  C32  1  0.41404300  0.28494300  0.88440900  1
  C  C33  1  0.41370000  0.78489800  0.88429600  1
  C  C34  1  0.08806400  0.34271400  0.11662900  1
  C  C35  1  0.08815900  0.84288100  0.11684200  1
  C  C36  1  0.45544600  0.14473200  0.37260200  1
  C  C37  1  0.45541100  0.64474800  0.37262900  1
  C  C38  1  0.04630700  0.45886300  0.62847100  1
  C  C39  1  0.04632300  0.95882900  0.62842800  1
  C  C40  1  0.95548600  0.04168300  0.37265000  1
  C  C41  1  0.95547300  0.54164500  0.37262000  1
  C  C42  1  0.54645300  0.35576800  0.62836200  1
  C  C43  1  0.54638300  0.85579400  0.62839500  1
  C  C44  1  0.38005100  0.41863500  0.38254900  1
  C  C45  1  0.38014300  0.91865600  0.38254100  1
  C  C46  1  0.12183000  0.22772200  0.61846000  1
  C  C47  1  0.12176400  0.72775000  0.61850400  1
  C  C48  1  0.62169000  0.08187900  0.61853800  1
  C  C49  1  0.62176600  0.58190500  0.61855500  1
  C  C50  1  0.88003600  0.27276300  0.38254800  1
  C  C51  1  0.87997500  0.77278600  0.38257800  1
