# generated using pymatgen
data_Cu2Ni2C7
_symmetry_space_group_name_H-M   'P 1'
_cell_length_a   6.51888398
_cell_length_b   6.63652430
_cell_length_c   6.50244286
_cell_angle_alpha   59.74891111
_cell_angle_beta   59.28271378
_cell_angle_gamma   59.81123011
_symmetry_Int_Tables_number   1
_chemical_formula_structural   Cu2Ni2C7
_chemical_formula_sum   'Cu4 Ni4 C14'
_cell_volume   197.16479718
_cell_formula_units_Z   2
loop_
 _symmetry_equiv_pos_site_id
 _symmetry_equiv_pos_as_xyz
  1  'x, y, z'
loop_
 _atom_site_type_symbol
 _atom_site_label
 _atom_site_symmetry_multiplicity
 _atom_site_fract_x
 _atom_site_fract_y
 _atom_site_fract_z
 _atom_site_occupancy
  Ni  Ni0  1  0.50000000  0.00000000  0.50000000  1
  Ni  Ni1  1  0.00000000  0.50000000  0.50000000  1
  Ni  Ni2  1  0.50000000  0.50000000  0.00000000  1
  Ni  Ni3  1  0.50000000  0.50000000  0.50000000  1
  Cu  Cu4  1  0.00000000  0.50000000  0.00000000  1
  Cu  Cu5  1  0.50000000  0.00000000  0.00000000  1
  Cu  Cu6  1  0.00000000  0.00000000  0.50000000  1
  Cu  Cu7  1  0.00000000  0.00000000  0.00000000  1
  C  C8  1  0.62106500  0.63048700  0.61929000  1
  C  C9  1  0.37893500  0.36951300  0.38071000  1
  C  C10  1  0.34927400  0.92304900  0.88880700  1
  C  C11  1  0.07888600  0.65585400  0.65727800  1
  C  C12  1  0.90266300  0.34114700  0.89946400  1
  C  C13  1  0.88662700  0.92853100  0.34753200  1
  C  C14  1  0.34255400  0.34618300  0.91746600  1
  C  C15  1  0.33543300  0.88041500  0.33545800  1
  C  C16  1  0.92111400  0.34414600  0.34272200  1
  C  C17  1  0.65744600  0.65381700  0.08253400  1
  C  C18  1  0.11337300  0.07146900  0.65246800  1
  C  C19  1  0.65072600  0.07695100  0.11119300  1
  C  C20  1  0.66456700  0.11958500  0.66454200  1
  C  C21  1  0.09733700  0.65885300  0.10053600  1
