# generated using pymatgen
data_Cu(NiC5)2
_symmetry_space_group_name_H-M   'P 1'
_cell_length_a   13.70665416
_cell_length_b   13.70665416
_cell_length_c   3.87579000
_cell_angle_alpha   90.00000000
_cell_angle_beta   90.00000000
_cell_angle_gamma   112.26318629
_symmetry_Int_Tables_number   1
_chemical_formula_structural   Cu(NiC5)2
_chemical_formula_sum   'Cu4 Ni8 C40'
_cell_volume   673.87240614
_cell_formula_units_Z   4
loop_
 _symmetry_equiv_pos_site_id
 _symmetry_equiv_pos_as_xyz
  1  'x, y, z'
loop_
 _atom_site_type_symbol
 _atom_site_label
 _atom_site_symmetry_multiplicity
 _atom_site_fract_x
 _atom_site_fract_y
 _atom_site_fract_z
 _atom_site_occupancy
  Ni  Ni0  1  0.79078500  0.97383600  0.50000000  1
  Ni  Ni1  1  0.21008900  0.02683700  0.50000000  1
  Ni  Ni2  1  0.02683700  0.21008900  0.50000000  1
  Ni  Ni3  1  0.97383600  0.79078500  0.50000000  1
  Ni  Ni4  1  0.56002500  0.73760300  0.50000000  1
  Ni  Ni5  1  0.44435800  0.25983100  0.50000000  1
  Ni  Ni6  1  0.25983100  0.44435800  0.50000000  1
  Ni  Ni7  1  0.73760300  0.56002500  0.50000000  1
  Cu  Cu8  1  0.62191400  0.12899600  0.50000000  1
  Cu  Cu9  1  0.37863700  0.86954300  0.50000000  1
  Cu  Cu10  1  0.86954300  0.37863700  0.50000000  1
  Cu  Cu11  1  0.12899600  0.62191400  0.50000000  1
  C  C12  1  0.81988300  0.18026300  0.00000000  1
  C  C13  1  0.18026300  0.81988300  0.00000000  1
  C  C14  1  0.32822400  0.67102600  0.00000000  1
  C  C15  1  0.67102600  0.32822400  0.00000000  1
  C  C16  1  0.99998600  0.99998600  0.00000000  1
  C  C17  1  0.57667200  0.93001800  0.00000000  1
  C  C18  1  0.42379500  0.06854400  0.00000000  1
  C  C19  1  0.06854400  0.42379500  0.00000000  1
  C  C20  1  0.93001800  0.57667200  0.00000000  1
  C  C21  1  0.76300700  0.76300700  0.00000000  1
  C  C22  1  0.24005800  0.24005800  0.00000000  1
  C  C23  1  0.49823500  0.49823500  0.00000000  1
  C  C24  1  0.44867700  0.80202400  0.00000000  1
  C  C25  1  0.55345400  0.19444500  0.00000000  1
  C  C26  1  0.19444500  0.55345400  0.00000000  1
  C  C27  1  0.80202400  0.44867700  0.00000000  1
  C  C28  1  0.68201500  0.07056000  0.00000000  1
  C  C29  1  0.31926400  0.92755200  0.00000000  1
  C  C30  1  0.92755200  0.31926400  0.00000000  1
  C  C31  1  0.07056000  0.68201500  0.00000000  1
  C  C32  1  0.75567000  0.75567000  0.50000000  1
  C  C33  1  0.25113500  0.25113500  0.50000000  1
  C  C34  1  0.67860100  0.84355700  0.00000000  1
  C  C35  1  0.31952600  0.15464800  0.00000000  1
  C  C36  1  0.15464800  0.31952600  0.00000000  1
  C  C37  1  0.84355700  0.67860100  0.00000000  1
  C  C38  1  0.80906600  0.19114900  0.50000000  1
  C  C39  1  0.19114900  0.80906600  0.50000000  1
  C  C40  1  0.91667000  0.08297100  0.00000000  1
  C  C41  1  0.08297100  0.91667000  0.00000000  1
  C  C42  1  0.32227700  0.67741700  0.50000000  1
  C  C43  1  0.67741700  0.32227700  0.50000000  1
  C  C44  1  0.56603200  0.93832200  0.50000000  1
  C  C45  1  0.43395000  0.06051000  0.50000000  1
  C  C46  1  0.06051000  0.43395000  0.50000000  1
  C  C47  1  0.93832200  0.56603200  0.50000000  1
  C  C48  1  0.00059100  0.00059100  0.50000000  1
  C  C49  1  0.40654600  0.50602700  0.00000000  1
  C  C50  1  0.50602700  0.40654600  0.00000000  1
  C  C51  1  0.58397800  0.58397800  0.00000000  1
