# generated using pymatgen
data_Cu10NiC3
_symmetry_space_group_name_H-M   'P 1'
_cell_length_a   6.75442100
_cell_length_b   7.93515000
_cell_length_c   8.11460700
_cell_angle_alpha   90.00000000
_cell_angle_beta   90.00000000
_cell_angle_gamma   90.00000000
_symmetry_Int_Tables_number   1
_chemical_formula_structural   Cu10NiC3
_chemical_formula_sum   'Cu20 Ni2 C6'
_cell_volume   434.92138117
_cell_formula_units_Z   2
loop_
 _symmetry_equiv_pos_site_id
 _symmetry_equiv_pos_as_xyz
  1  'x, y, z'
loop_
 _atom_site_type_symbol
 _atom_site_label
 _atom_site_symmetry_multiplicity
 _atom_site_fract_x
 _atom_site_fract_y
 _atom_site_fract_z
 _atom_site_occupancy
  C  C0  1  0.00000000  0.00627000  0.25000000  1
  C  C1  1  0.00000000  0.99373000  0.75000000  1
  C  C2  1  0.50000000  0.74814900  0.25000000  1
  C  C3  1  0.50000000  0.25185100  0.75000000  1
  C  C4  1  0.50000000  0.26433700  0.25000000  1
  C  C5  1  0.50000000  0.73566300  0.75000000  1
  Ni  Ni6  1  0.00731000  0.50000000  0.00000000  1
  Ni  Ni7  1  0.99269000  0.50000000  0.50000000  1
  Cu  Cu8  1  0.34124900  0.50517700  0.24527900  1
  Cu  Cu9  1  0.65875100  0.49482300  0.74527900  1
  Cu  Cu10  1  0.65875100  0.50517700  0.25472100  1
  Cu  Cu11  1  0.34124900  0.49482300  0.75472100  1
  Cu  Cu12  1  0.50000000  0.00603000  0.25000000  1
  Cu  Cu13  1  0.50000000  0.99397000  0.75000000  1
  Cu  Cu14  1  0.20476400  0.18263800  0.74111500  1
  Cu  Cu15  1  0.79523600  0.81736200  0.24111500  1
  Cu  Cu16  1  0.79523600  0.18263800  0.75888500  1
  Cu  Cu17  1  0.20476400  0.81736200  0.25888500  1
  Cu  Cu18  1  0.49465100  0.26863600  0.99959300  1
  Cu  Cu19  1  0.50534900  0.73136400  0.49959300  1
  Cu  Cu20  1  0.50534900  0.26863600  0.50040700  1
  Cu  Cu21  1  0.49465100  0.73136400  0.00040700  1
  Cu  Cu22  1  0.01706500  0.00000000  0.00000000  1
  Cu  Cu23  1  0.98293500  0.00000000  0.50000000  1
  Cu  Cu24  1  0.20397000  0.19561400  0.26253800  1
  Cu  Cu25  1  0.79603000  0.80438600  0.76253800  1
  Cu  Cu26  1  0.79603000  0.19561400  0.23746200  1
  Cu  Cu27  1  0.20397000  0.80438600  0.73746200  1
