# generated using pymatgen
data_CuNiC13
_symmetry_space_group_name_H-M   'P 1'
_cell_length_a   5.10036555
_cell_length_b   5.10036555
_cell_length_c   14.06410400
_cell_angle_alpha   90.00000000
_cell_angle_beta   90.00000000
_cell_angle_gamma   119.99999411
_symmetry_Int_Tables_number   1
_chemical_formula_structural   CuNiC13
_chemical_formula_sum   'Cu2 Ni2 C26'
_cell_volume   316.84388759
_cell_formula_units_Z   2
loop_
 _symmetry_equiv_pos_site_id
 _symmetry_equiv_pos_as_xyz
  1  'x, y, z'
loop_
 _atom_site_type_symbol
 _atom_site_label
 _atom_site_symmetry_multiplicity
 _atom_site_fract_x
 _atom_site_fract_y
 _atom_site_fract_z
 _atom_site_occupancy
  Ni  Ni0  1  0.33333300  0.66666700  0.31359500  1
  Ni  Ni1  1  0.00000000  0.00000000  0.64633100  1
  C  C2  1  0.00000000  0.00000000  0.85511200  1
  C  C3  1  0.66666700  0.33333300  0.18946200  1
  C  C4  1  0.33333300  0.66666700  0.52338300  1
  C  C5  1  0.33333300  0.66666700  0.80947600  1
  C  C6  1  0.00000000  0.00000000  0.14537300  1
  C  C7  1  0.66666700  0.33333300  0.47660700  1
  Cu  Cu8  1  0.66666700  0.33333300  0.97332800  1
  Cu  Cu9  1  0.33333300  0.66666700  0.02495700  1
  C  C10  1  0.00000000  0.00000000  0.35120700  1
  C  C11  1  0.66666700  0.33333300  0.68418500  1
  C  C12  1  0.96259800  0.65028800  0.08841100  1
  C  C13  1  0.63045400  0.98256000  0.42040500  1
  C  C14  1  0.29741800  0.31598700  0.75322600  1
  C  C15  1  0.68769000  0.03740200  0.08841100  1
  C  C16  1  0.35210600  0.36954600  0.42040500  1
  C  C17  1  0.01856800  0.70258200  0.75322600  1
  C  C18  1  0.34971200  0.31231000  0.08841100  1
  C  C19  1  0.01744000  0.64789400  0.42040500  1
  C  C20  1  0.68401300  0.98143200  0.75322600  1
  C  C21  1  0.70409700  0.68293600  0.24751000  1
  C  C22  1  0.37165300  0.01685600  0.58044700  1
  C  C23  1  0.03786300  0.35000000  0.91232900  1
  C  C24  1  0.97883900  0.29590300  0.24751000  1
  C  C25  1  0.64520200  0.62834700  0.58044700  1
  C  C26  1  0.31213700  0.96213700  0.91232900  1
  C  C27  1  0.31706400  0.02116100  0.24751000  1
  C  C28  1  0.98314400  0.35479800  0.58044700  1
  C  C29  1  0.65000000  0.68786300  0.91232900  1
