# generated using pymatgen
data_Cu5NiC16
_symmetry_space_group_name_H-M   'P 1'
_cell_length_a   4.90686965
_cell_length_b   10.75104162
_cell_length_c   8.49178971
_cell_angle_alpha   113.24543582
_cell_angle_beta   89.99859058
_cell_angle_gamma   85.57900242
_symmetry_Int_Tables_number   1
_chemical_formula_structural   Cu5NiC16
_chemical_formula_sum   'Cu10 Ni2 C32'
_cell_volume   410.15861866
_cell_formula_units_Z   2
loop_
 _symmetry_equiv_pos_site_id
 _symmetry_equiv_pos_as_xyz
  1  'x, y, z'
loop_
 _atom_site_type_symbol
 _atom_site_label
 _atom_site_symmetry_multiplicity
 _atom_site_fract_x
 _atom_site_fract_y
 _atom_site_fract_z
 _atom_site_occupancy
  C  C0  1  0.04317600  0.74138800  0.20719500  1
  C  C1  1  0.53463900  0.74783700  0.70585200  1
  C  C2  1  0.45703900  0.25858600  0.96590500  1
  C  C3  1  0.96540100  0.25220400  0.45796500  1
  C  C4  1  0.53629800  0.74447300  0.04667500  1
  C  C5  1  0.03549800  0.74424500  0.53158200  1
  C  C6  1  0.96405800  0.25548200  0.80221600  1
  C  C7  1  0.46417600  0.25577300  0.28745500  1
  Ni  Ni8  1  0.99840500  0.00015600  0.00008200  1
  Ni  Ni9  1  0.50147400  0.99986500  0.49989800  1
  Cu  Cu10  1  0.75008700  0.49998600  0.75040200  1
  Cu  Cu11  1  0.24997600  0.50000600  0.24885100  1
  Cu  Cu12  1  0.25002000  0.49998100  0.91539300  1
  Cu  Cu13  1  0.75000900  0.50000900  0.41457900  1
  Cu  Cu14  1  0.75004400  0.49998900  0.08486200  1
  Cu  Cu15  1  0.24999900  0.50000600  0.58418600  1
  Cu  Cu16  1  0.00029100  0.99989800  0.66665300  1
  Cu  Cu17  1  0.49963900  0.00010100  0.16672400  1
  Cu  Cu18  1  0.49965800  0.00097800  0.83385200  1
  Cu  Cu19  1  0.00025900  0.99903500  0.33291300  1
  C  C20  1  0.40865200  0.60255200  0.79834600  1
  C  C21  1  0.90364500  0.60296700  0.30194200  1
  C  C22  1  0.59633800  0.39703500  0.19906700  1
  C  C23  1  0.09145500  0.39743400  0.69585800  1
  C  C24  1  0.82459900  0.10723800  0.55334000  1
  C  C25  1  0.32361000  0.10809100  0.05433600  1
  C  C26  1  0.17631100  0.89190900  0.44625800  1
  C  C27  1  0.67532900  0.89274700  0.94620500  1
  C  C28  1  0.31032500  0.10776400  0.72456000  1
  C  C29  1  0.81070100  0.10789500  0.22562000  1
  C  C30  1  0.18967200  0.89220900  0.11687000  1
  C  C31  1  0.68915300  0.89215300  0.61778200  1
  C  C32  1  0.81067700  0.10821100  0.88276100  1
  C  C33  1  0.31027200  0.10724100  0.38268500  1
  C  C34  1  0.68932300  0.89176400  0.27457300  1
  C  C35  1  0.18959400  0.89281800  0.77558200  1
  C  C36  1  0.10613000  0.39761200  0.02801100  1
  C  C37  1  0.60011800  0.39909900  0.53218800  1
  C  C38  1  0.60549300  0.39938000  0.86508900  1
  C  C39  1  0.10541400  0.39872700  0.37274700  1
  C  C40  1  0.39393500  0.60236800  0.13029700  1
  C  C41  1  0.89991500  0.60090900  0.63302500  1
  C  C42  1  0.89459700  0.60059700  0.96566800  1
  C  C43  1  0.39459700  0.60128600  0.47394400  1
