# generated using pymatgen
data_Cu2Ni6C
_symmetry_space_group_name_H-M   'P 1'
_cell_length_a   9.09256548
_cell_length_b   9.09256548
_cell_length_c   9.07249825
_cell_angle_alpha   77.40023737
_cell_angle_beta   77.40023737
_cell_angle_gamma   94.00233914
_symmetry_Int_Tables_number   1
_chemical_formula_structural   Cu2Ni6C
_chemical_formula_sum   'Cu4 Ni12 C2'
_cell_volume   708.92846471
_cell_formula_units_Z   2
loop_
 _symmetry_equiv_pos_site_id
 _symmetry_equiv_pos_as_xyz
  1  'x, y, z'
loop_
 _atom_site_type_symbol
 _atom_site_label
 _atom_site_symmetry_multiplicity
 _atom_site_fract_x
 _atom_site_fract_y
 _atom_site_fract_z
 _atom_site_occupancy
  C  C0  1  0.51591300  0.98360000  0.00382500  1
  C  C1  1  0.98360000  0.51591300  0.50382500  1
  Ni  Ni2  1  0.45796600  0.95162600  0.73054600  1
  Ni  Ni3  1  0.95162600  0.45796600  0.23054600  1
  Ni  Ni4  1  0.46107200  0.08960500  0.27255300  1
  Ni  Ni5  1  0.08960500  0.46107200  0.77255200  1
  Ni  Ni6  1  0.57058200  0.71389700  0.10660400  1
  Ni  Ni7  1  0.49842300  0.29738700  0.94088800  1
  Ni  Ni8  1  0.06670100  0.81019300  0.45660300  1
  Ni  Ni9  1  0.92506700  0.20267200  0.53696400  1
  Ni  Ni10  1  0.20267200  0.92506700  0.03696400  1
  Ni  Ni11  1  0.81019300  0.06670100  0.95660300  1
  Ni  Ni12  1  0.29738700  0.49842300  0.44088800  1
  Ni  Ni13  1  0.71389700  0.57058200  0.60660400  1
  Cu  Cu14  1  0.54102600  0.39328300  0.70725500  1
  Cu  Cu15  1  0.06892600  0.94527600  0.23547000  1
  Cu  Cu16  1  0.94527600  0.06892600  0.73547000  1
  Cu  Cu17  1  0.39328300  0.54102600  0.20725500  1
