# generated using pymatgen
data_Cu6Ni2C3
_symmetry_space_group_name_H-M   'P 1'
_cell_length_a   6.48926222
_cell_length_b   6.48926222
_cell_length_c   5.82738100
_cell_angle_alpha   90.00000000
_cell_angle_beta   90.00000000
_cell_angle_gamma   120.00000226
_symmetry_Int_Tables_number   1
_chemical_formula_structural   Cu6Ni2C3
_chemical_formula_sum   'Cu6 Ni2 C3'
_cell_volume   212.51749244
_cell_formula_units_Z   1
loop_
 _symmetry_equiv_pos_site_id
 _symmetry_equiv_pos_as_xyz
  1  'x, y, z'
loop_
 _atom_site_type_symbol
 _atom_site_label
 _atom_site_symmetry_multiplicity
 _atom_site_fract_x
 _atom_site_fract_y
 _atom_site_fract_z
 _atom_site_occupancy
  C  C0  1  0.32734900  0.32734900  0.01311600  1
  C  C1  1  0.67265100  0.00000000  0.01311600  1
  C  C2  1  0.00000000  0.67265100  0.01311600  1
  Ni  Ni3  1  0.33333300  0.66666700  0.50795500  1
  Ni  Ni4  1  0.66666700  0.33333300  0.50795500  1
  Cu  Cu5  1  0.00000000  0.00000000  0.85030800  1
  Cu  Cu6  1  0.33333300  0.66666700  0.79084000  1
  Cu  Cu7  1  0.66666700  0.33333300  0.79084000  1
  Cu  Cu8  1  0.66181500  0.66181500  0.14664700  1
  Cu  Cu9  1  0.33818500  0.00000000  0.14664700  1
  Cu  Cu10  1  0.00000000  0.33818500  0.14664700  1
