# generated using pymatgen
data_Cu2NiC5
_symmetry_space_group_name_H-M   'P 1'
_cell_length_a   12.14980500
_cell_length_b   9.61088200
_cell_length_c   8.08072900
_cell_angle_alpha   90.00000000
_cell_angle_beta   90.00000000
_cell_angle_gamma   90.00000000
_symmetry_Int_Tables_number   1
_chemical_formula_structural   Cu2NiC5
_chemical_formula_sum   'Cu8 Ni4 C20'
_cell_volume   943.58949038
_cell_formula_units_Z   4
loop_
 _symmetry_equiv_pos_site_id
 _symmetry_equiv_pos_as_xyz
  1  'x, y, z'
loop_
 _atom_site_type_symbol
 _atom_site_label
 _atom_site_symmetry_multiplicity
 _atom_site_fract_x
 _atom_site_fract_y
 _atom_site_fract_z
 _atom_site_occupancy
  C  C0  1  0.05439800  0.55391100  0.81267700  1
  C  C1  1  0.55439800  0.94608900  0.68732300  1
  C  C2  1  0.94560200  0.05391100  0.18732300  1
  C  C3  1  0.44560200  0.44608900  0.31267700  1
  C  C4  1  0.94560200  0.44608900  0.18732300  1
  C  C5  1  0.44560200  0.05391100  0.31267700  1
  C  C6  1  0.05439800  0.94608900  0.81267700  1
  C  C7  1  0.55439800  0.55391100  0.68732300  1
  C  C8  1  0.00388900  0.75000000  0.48358400  1
  C  C9  1  0.50388900  0.75000000  0.01641600  1
  C  C10  1  0.99611100  0.25000000  0.51641600  1
  C  C11  1  0.49611100  0.25000000  0.98358400  1
  C  C12  1  0.21816700  0.75000000  0.16595300  1
  C  C13  1  0.71816700  0.75000000  0.33404700  1
  C  C14  1  0.78183300  0.25000000  0.83404700  1
  C  C15  1  0.28183300  0.25000000  0.66595300  1
  C  C16  1  0.28667200  0.75000000  0.65156700  1
  C  C17  1  0.78667200  0.75000000  0.84843300  1
  C  C18  1  0.71332800  0.25000000  0.34843300  1
  C  C19  1  0.21332800  0.25000000  0.15156700  1
  Ni  Ni20  1  0.46814500  0.75000000  0.39966900  1
  Ni  Ni21  1  0.96814500  0.75000000  0.10033100  1
  Ni  Ni22  1  0.53185500  0.25000000  0.60033100  1
  Ni  Ni23  1  0.03185500  0.25000000  0.89966900  1
  Cu  Cu24  1  0.32243300  0.50591200  0.93093600  1
  Cu  Cu25  1  0.82243300  0.99408800  0.56906400  1
  Cu  Cu26  1  0.67756700  0.00591200  0.06906400  1
  Cu  Cu27  1  0.17756700  0.49408800  0.43093600  1
  Cu  Cu28  1  0.67756700  0.49408800  0.06906400  1
  Cu  Cu29  1  0.17756700  0.00591200  0.43093600  1
  Cu  Cu30  1  0.32243300  0.99408800  0.93093600  1
  Cu  Cu31  1  0.82243300  0.50591200  0.56906400  1
