# generated using pymatgen
data_Cu4NiC32
_symmetry_space_group_name_H-M   'P 1'
_cell_length_a   8.35917693
_cell_length_b   8.30749622
_cell_length_c   9.38006093
_cell_angle_alpha   59.20311101
_cell_angle_beta   58.79414886
_cell_angle_gamma   62.36155788
_symmetry_Int_Tables_number   1
_chemical_formula_structural   Cu4NiC32
_chemical_formula_sum   'Cu4 Ni1 C32'
_cell_volume   460.75600837
_cell_formula_units_Z   1
loop_
 _symmetry_equiv_pos_site_id
 _symmetry_equiv_pos_as_xyz
  1  'x, y, z'
loop_
 _atom_site_type_symbol
 _atom_site_label
 _atom_site_symmetry_multiplicity
 _atom_site_fract_x
 _atom_site_fract_y
 _atom_site_fract_z
 _atom_site_occupancy
  Ni  Ni0  1  0.27937400  0.86795300  0.61931900  1
  Cu  Cu1  1  0.13569900  0.14153900  0.15263800  1
  Cu  Cu2  1  0.35245800  0.37491400  0.33950500  1
  Cu  Cu3  1  0.65556200  0.62073800  0.68162700  1
  Cu  Cu4  1  0.84751700  0.85814500  0.85100100  1
  C  C5  1  0.99520800  0.00260500  0.00091400  1
  C  C6  1  0.51469600  0.49505600  0.49002500  1
  C  C7  1  0.07791800  0.74382400  0.47388500  1
  C  C8  1  0.45097900  0.04154000  0.74453700  1
  C  C9  1  0.75652800  0.43006600  0.03822200  1
  C  C10  1  0.23892400  0.56108800  0.96817600  1
  C  C11  1  0.53367700  0.96781700  0.23788200  1
  C  C12  1  0.93584200  0.26700700  0.52741700  1
  C  C13  1  0.10596400  0.32548000  0.49347000  1
  C  C14  1  0.28231500  0.55115100  0.10927300  1
  C  C15  1  0.07087400  0.89941300  0.29038800  1
  C  C16  1  0.47043900  0.11749800  0.32047800  1
  C  C17  1  0.08803600  0.81083600  0.59404300  1
  C  C18  1  0.27006000  0.57655000  0.43873600  1
  C  C19  1  0.24967100  0.05429800  0.90090300  1
  C  C20  1  0.46574100  0.23895000  0.58934700  1
  C  C21  1  0.16871600  0.39751000  0.01143800  1
  C  C22  1  0.59189300  0.43972300  0.21981700  1
  C  C23  1  0.09242100  0.77399600  0.90734100  1
  C  C24  1  0.39928200  0.02118100  0.14643900  1
  C  C25  1  0.61232300  0.95492100  0.81617100  1
  C  C26  1  0.91082000  0.22647100  0.07847700  1
  C  C27  1  0.40911000  0.57441800  0.77745100  1
  C  C28  1  0.84474100  0.59504300  0.96433700  1
  C  C29  1  0.50763200  0.77557500  0.41021000  1
  C  C30  1  0.74542300  0.93936300  0.10055200  1
  C  C31  1  0.74273800  0.43715900  0.55184100  1
  C  C32  1  0.96604600  0.21064500  0.38446100  1
  C  C33  1  0.47336000  0.89824300  0.66879200  1
  C  C34  1  0.92213100  0.09757400  0.71477300  1
  C  C35  1  0.68907600  0.43688500  0.91195300  1
  C  C36  1  0.89680300  0.67326100  0.56791000  1
