# generated using pymatgen
data_Cu8NiC32
_symmetry_space_group_name_H-M   'P 1'
_cell_length_a   7.60017984
_cell_length_b   8.15250418
_cell_length_c   11.07160259
_cell_angle_alpha   94.93983002
_cell_angle_beta   88.67563292
_cell_angle_gamma   97.76020431
_symmetry_Int_Tables_number   1
_chemical_formula_structural   Cu8NiC32
_chemical_formula_sum   'Cu8 Ni1 C32'
_cell_volume   677.14897527
_cell_formula_units_Z   1
loop_
 _symmetry_equiv_pos_site_id
 _symmetry_equiv_pos_as_xyz
  1  'x, y, z'
loop_
 _atom_site_type_symbol
 _atom_site_label
 _atom_site_symmetry_multiplicity
 _atom_site_fract_x
 _atom_site_fract_y
 _atom_site_fract_z
 _atom_site_occupancy
  C  C0  1  0.01637824  0.00249837  0.74439158  1
  C  C1  1  0.57680287  0.42626056  0.80498881  1
  C  C2  1  0.97925992  0.01254332  0.25804740  1
  C  C3  1  0.46296011  0.50508359  0.23097684  1
  C  C4  1  0.67384597  0.16835633  0.53771953  1
  C  C5  1  0.19586137  0.66908189  0.98323921  1
  C  C6  1  0.26443704  0.86447076  0.43989038  1
  C  C7  1  0.84769104  0.31829612  0.02105597  1
  Ni  Ni8  1  0.40706807  0.65995138  0.60819394  1
  Cu  Cu9  1  0.98742835  0.55344085  0.67716521  1
  Cu  Cu10  1  0.52848949  0.97337260  0.80939074  1
  Cu  Cu11  1  0.00595283  0.48174177  0.32074231  1
  Cu  Cu12  1  0.50115708  0.99737509  0.17974665  1
  Cu  Cu13  1  0.78041808  0.70784554  0.49481465  1
  Cu  Cu14  1  0.30749731  0.17103945  0.99532958  1
  Cu  Cu15  1  0.19216845  0.33806534  0.52510268  1
  Cu  Cu16  1  0.70007001  0.78526686  0.99625830  1
  C  C17  1  0.94316775  0.52284292  0.81944964  1
  C  C18  1  0.47896147  0.89154344  0.67451372  1
  C  C19  1  0.08576819  0.52265199  0.18781100  1
  C  C20  1  0.54335671  0.06315912  0.31988388  1
  C  C21  1  0.80338987  0.60163807  0.61533136  1
  C  C22  1  0.35072304  0.05049034  0.87301233  1
  C  C23  1  0.17197362  0.46023147  0.41074784  1
  C  C24  1  0.67579917  0.92501470  0.11240068  1
  C  C25  1  0.01220867  0.36335769  0.61357243  1
  C  C26  1  0.55597387  0.81475002  0.89231601  1
  C  C27  1  0.90684823  0.63677654  0.38339461  1
  C  C28  1  0.45425282  0.14816221  0.09982504  1
  C  C29  1  0.15469724  0.68833733  0.64755698  1
  C  C30  1  0.69383217  0.11964079  0.81131844  1
  C  C31  1  0.86944866  0.31502606  0.28565455  1
  C  C32  1  0.33351164  0.85537518  0.19820699  1
  C  C33  1  0.84657171  0.90603406  0.51755231  1
  C  C34  1  0.32284132  0.36617731  0.97246691  1
  C  C35  1  0.17460409  0.14586506  0.47459237  1
  C  C36  1  0.65994910  0.59519161  0.03201767  1
  C  C37  1  0.57059422  0.68041164  0.46277538  1
  C  C38  1  0.10121819  0.12551758  0.03451930  1
  C  C39  1  0.37266152  0.41296209  0.59807635  1
  C  C40  1  0.90682750  0.81248595  0.94904544  1
