# generated using pymatgen
data_Cu4Ni4C17
_symmetry_space_group_name_H-M   'P 1'
_cell_length_a   5.57079094
_cell_length_b   8.29714953
_cell_length_c   9.19436891
_cell_angle_alpha   88.02256015
_cell_angle_beta   80.17233592
_cell_angle_gamma   96.52882789
_symmetry_Int_Tables_number   1
_chemical_formula_structural   Cu4Ni4C17
_chemical_formula_sum   'Cu4 Ni4 C17'
_cell_volume   415.39586598
_cell_formula_units_Z   1
loop_
 _symmetry_equiv_pos_site_id
 _symmetry_equiv_pos_as_xyz
  1  'x, y, z'
loop_
 _atom_site_type_symbol
 _atom_site_label
 _atom_site_symmetry_multiplicity
 _atom_site_fract_x
 _atom_site_fract_y
 _atom_site_fract_z
 _atom_site_occupancy
  C  C0  1  0.08566000  0.15299300  0.90226600  1
  Ni  Ni1  1  0.81461000  0.13947400  0.32396200  1
  Ni  Ni2  1  0.23677300  0.62759500  0.21390900  1
  Ni  Ni3  1  0.69701100  0.37645400  0.76592700  1
  Ni  Ni4  1  0.20689700  0.84735200  0.68576600  1
  Cu  Cu5  1  0.47009700  0.24675800  0.10955700  1
  Cu  Cu6  1  0.69943500  0.69153900  0.49005800  1
  Cu  Cu7  1  0.27629700  0.31264900  0.51741900  1
  Cu  Cu8  1  0.65212300  0.77544500  0.92390600  1
  C  C9  1  0.94978800  0.11823500  0.14860500  1
  C  C10  1  0.53232200  0.20223200  0.32936000  1
  C  C11  1  0.26011800  0.01715200  0.58941700  1
  C  C12  1  0.24733800  0.47307200  0.10948300  1
  C  C13  1  0.72823400  0.52449500  0.88067500  1
  C  C14  1  0.46817800  0.78464600  0.70883200  1
  C  C15  1  0.78166000  0.96812500  0.42156000  1
  C  C16  1  0.05017000  0.71017700  0.60797900  1
  C  C17  1  0.49196500  0.21848800  0.87161400  1
  C  C18  1  0.04310600  0.88121200  0.85083500  1
  C  C19  1  0.37197500  0.79269500  0.11536500  1
  C  C20  1  0.96848000  0.29437700  0.72033600  1
  C  C21  1  0.95314900  0.65150300  0.27571000  1
  C  C22  1  0.57059400  0.43217200  0.61684200  1
  C  C23  1  0.98078700  0.28604000  0.39079700  1
  C  C24  1  0.37990200  0.59549000  0.35169700  1
