# generated using pymatgen
data_Cu6NiC36
_symmetry_space_group_name_H-M   'P 1'
_cell_length_a   8.18448380
_cell_length_b   10.49335718
_cell_length_c   10.62457574
_cell_angle_alpha   120.69574771
_cell_angle_beta   92.11077913
_cell_angle_gamma   89.74287865
_symmetry_Int_Tables_number   1
_chemical_formula_structural   Cu6NiC36
_chemical_formula_sum   'Cu6 Ni1 C36'
_cell_volume   783.98054546
_cell_formula_units_Z   1
loop_
 _symmetry_equiv_pos_site_id
 _symmetry_equiv_pos_as_xyz
  1  'x, y, z'
loop_
 _atom_site_type_symbol
 _atom_site_label
 _atom_site_symmetry_multiplicity
 _atom_site_fract_x
 _atom_site_fract_y
 _atom_site_fract_z
 _atom_site_occupancy
  C  C0  1  0.49117520  0.66767537  0.32782481  1
  C  C1  1  0.01698238  0.33717728  0.67486679  1
  C  C2  1  0.51141987  0.34680760  0.68208804  1
  C  C3  1  0.97331792  0.67853868  0.34903959  1
  C  C4  1  0.83061721  0.23763158  0.97886899  1
  C  C5  1  0.74015866  0.01876935  0.25280186  1
  C  C6  1  0.76199489  0.73625675  0.74223018  1
  C  C7  1  0.25156518  0.77304659  0.01151958  1
  C  C8  1  0.26074149  0.98371252  0.73015556  1
  C  C9  1  0.17006241  0.23852861  0.25989814  1
  Ni  Ni10  1  0.46341981  0.23009796  0.07547002  1
  Cu  Cu11  1  0.74824423  0.97689865  0.60682402  1
  Cu  Cu12  1  0.74932560  0.39280046  0.36071853  1
  Cu  Cu13  1  0.75197854  0.63576056  0.03133142  1
  Cu  Cu14  1  0.23917437  0.01657341  0.39733806  1
  Cu  Cu15  1  0.25651759  0.60562106  0.63230301  1
  Cu  Cu16  1  0.28273692  0.36914252  0.96607335  1
  C  C17  1  0.76131568  0.16522868  0.68362242  1
  C  C18  1  0.75805057  0.32049103  0.47875379  1
  C  C19  1  0.76361541  0.52936174  0.84283674  1
  C  C20  1  0.23209463  0.82847137  0.32912705  1
  C  C21  1  0.25163799  0.67641771  0.51766133  1
  C  C22  1  0.31751899  0.40433886  0.15573204  1
  C  C23  1  0.72638765  0.88438779  0.41874646  1
  C  C24  1  0.71300190  0.58967589  0.46166783  1
  C  C25  1  0.74404092  0.53049475  0.11399262  1
  C  C26  1  0.29123181  0.11791229  0.58097870  1
  C  C27  1  0.25978247  0.41425140  0.54187251  1
  C  C28  1  0.26549594  0.48479714  0.88811617  1
  C  C29  1  0.59324892  0.92471260  0.67664257  1
  C  C30  1  0.64350570  0.23250030  0.19208308  1
  C  C31  1  0.58232465  0.74695032  0.08070300  1
  C  C32  1  0.05423021  0.08602958  0.37881443  1
  C  C33  1  0.08781895  0.66307123  0.74021487  1
  C  C34  1  0.10457972  0.25545178  0.87975851  1
  C  C35  1  0.37443993  0.04880528  0.29776850  1
  C  C36  1  0.42280523  0.67394809  0.75281196  1
  C  C37  1  0.45781569  0.24845221  0.89945895  1
  C  C38  1  0.92424212  0.91167702  0.64941071  1
  C  C39  1  0.93045644  0.39707625  0.27526498  1
  C  C40  1  0.92002694  0.75034708  0.10379694  1
  C  C41  1  0.33512045  0.05050301  0.00861076  1
  C  C42  1  0.94411181  0.03210864  0.04095112  1
