# generated using pymatgen
data_Cu2Ni3C13
_symmetry_space_group_name_H-M   'P 1'
_cell_length_a   6.62380700
_cell_length_b   7.98616403
_cell_length_c   9.18208014
_cell_angle_alpha   99.76836880
_cell_angle_beta   90.00207922
_cell_angle_gamma   114.50256565
_symmetry_Int_Tables_number   1
_chemical_formula_structural   Cu2Ni3C13
_chemical_formula_sum   'Cu4 Ni6 C26'
_cell_volume   434.22604077
_cell_formula_units_Z   2
loop_
 _symmetry_equiv_pos_site_id
 _symmetry_equiv_pos_as_xyz
  1  'x, y, z'
loop_
 _atom_site_type_symbol
 _atom_site_label
 _atom_site_symmetry_multiplicity
 _atom_site_fract_x
 _atom_site_fract_y
 _atom_site_fract_z
 _atom_site_occupancy
  C  C0  1  0.25164200  0.50427100  0.74548700  1
  C  C1  1  0.75166100  0.50427700  0.24548800  1
  C  C2  1  0.74967100  0.00809000  0.75179900  1
  C  C3  1  0.75848700  0.00817900  0.25183000  1
  C  C4  1  0.24967200  0.00809500  0.25179700  1
  C  C5  1  0.25848600  0.00818100  0.75182800  1
  Ni  Ni6  1  0.10697900  0.21377700  0.42206900  1
  Ni  Ni7  1  0.60699200  0.21377600  0.92206600  1
  Ni  Ni8  1  0.39353500  0.78691900  0.07797400  1
  Ni  Ni9  1  0.89351900  0.78691800  0.57797400  1
  Ni  Ni10  1  0.49338200  0.98667500  0.01326500  1
  Ni  Ni11  1  0.99337700  0.98667500  0.51326400  1
  Cu  Cu12  1  0.14286500  0.28554300  0.05624200  1
  Cu  Cu13  1  0.64284200  0.28554100  0.55624000  1
  Cu  Cu14  1  0.36148900  0.72319000  0.43715600  1
  Cu  Cu15  1  0.86154000  0.72319500  0.93716000  1
  C  C16  1  0.07982900  0.15956100  0.87806200  1
  C  C17  1  0.57982400  0.15955600  0.37806200  1
  C  C18  1  0.42494000  0.84999200  0.61441000  1
  C  C19  1  0.92495400  0.84999300  0.11441200  1
  C  C20  1  0.25526800  0.51016400  0.04862100  1
  C  C21  1  0.75524800  0.51016000  0.54862000  1
  C  C22  1  0.24939900  0.49876800  0.44444100  1
  C  C23  1  0.74945000  0.49876700  0.94444300  1
  C  C24  1  0.03921900  0.07835400  0.38487400  1
  C  C25  1  0.53923000  0.07835500  0.88487300  1
  C  C26  1  0.46197200  0.92388700  0.11039500  1
  C  C27  1  0.96195700  0.92388700  0.61039600  1
  C  C28  1  0.40360800  0.22866600  0.64066500  1
  C  C29  1  0.90362000  0.22867100  0.14066800  1
  C  C30  1  0.82506500  0.22855300  0.64070300  1
  C  C31  1  0.32507400  0.22855400  0.14069900  1
  C  C32  1  0.09938500  0.77875600  0.85104500  1
  C  C33  1  0.59936300  0.77874600  0.35104200  1
  C  C34  1  0.67923700  0.77865000  0.85096800  1
  C  C35  1  0.17922400  0.77865700  0.35096500  1
