# generated using pymatgen
data_Cu3NiC10
_symmetry_space_group_name_H-M   'P 1'
_cell_length_a   11.93835500
_cell_length_b   3.48307500
_cell_length_c   12.24238000
_cell_angle_alpha   90.00000000
_cell_angle_beta   90.00000000
_cell_angle_gamma   90.00000000
_symmetry_Int_Tables_number   1
_chemical_formula_structural   Cu3NiC10
_chemical_formula_sum   'Cu6 Ni2 C20'
_cell_volume   509.06492030
_cell_formula_units_Z   2
loop_
 _symmetry_equiv_pos_site_id
 _symmetry_equiv_pos_as_xyz
  1  'x, y, z'
loop_
 _atom_site_type_symbol
 _atom_site_label
 _atom_site_symmetry_multiplicity
 _atom_site_fract_x
 _atom_site_fract_y
 _atom_site_fract_z
 _atom_site_occupancy
  Ni  Ni0  1  0.84768500  0.75000000  0.28440700  1
  Ni  Ni1  1  0.65231500  0.25000000  0.78440700  1
  Cu  Cu2  1  0.10791700  0.25000000  0.07833200  1
  Cu  Cu3  1  0.89696900  0.75000000  0.92439900  1
  Cu  Cu4  1  0.39208300  0.75000000  0.57833200  1
  Cu  Cu5  1  0.60303100  0.25000000  0.42439900  1
  Cu  Cu6  1  0.15833700  0.25000000  0.70370200  1
  Cu  Cu7  1  0.34166300  0.75000000  0.20370200  1
  C  C8  1  0.14530800  0.75000000  0.41432900  1
  C  C9  1  0.87685100  0.25000000  0.58754900  1
  C  C10  1  0.35469200  0.25000000  0.91432900  1
  C  C11  1  0.62314900  0.75000000  0.08754900  1
  C  C12  1  0.05380100  0.75000000  0.61698200  1
  C  C13  1  0.95337700  0.25000000  0.37619900  1
  C  C14  1  0.44619900  0.25000000  0.11698200  1
  C  C15  1  0.54662300  0.75000000  0.87619900  1
  C  C16  1  0.03309500  0.25000000  0.88800500  1
  C  C17  1  0.96209400  0.75000000  0.11921500  1
  C  C18  1  0.46690500  0.75000000  0.38800500  1
  C  C19  1  0.53790600  0.25000000  0.61921500  1
  C  C20  1  0.20741100  0.25000000  0.25150600  1
  C  C21  1  0.79826600  0.75000000  0.74909200  1
  C  C22  1  0.29258900  0.75000000  0.75150600  1
  C  C23  1  0.70173400  0.25000000  0.24909200  1
  C  C24  1  0.23161300  0.75000000  0.04152200  1
  C  C25  1  0.76398200  0.25000000  0.96476000  1
  C  C26  1  0.26838700  0.25000000  0.54152200  1
  C  C27  1  0.73601800  0.75000000  0.46476000  1
