# generated using pymatgen
data_CuNiC8
_symmetry_space_group_name_H-M   'P 1'
_cell_length_a   8.49195797
_cell_length_b   8.50944484
_cell_length_c   8.48325697
_cell_angle_alpha   90.00000000
_cell_angle_beta   90.00000000
_cell_angle_gamma   90.00000000
_symmetry_Int_Tables_number   1
_chemical_formula_structural   CuNiC8
_chemical_formula_sum   'Cu4 Ni4 C32'
_cell_volume   613.01582511
_cell_formula_units_Z   4
loop_
 _symmetry_equiv_pos_site_id
 _symmetry_equiv_pos_as_xyz
  1  'x, y, z'
loop_
 _atom_site_type_symbol
 _atom_site_label
 _atom_site_symmetry_multiplicity
 _atom_site_fract_x
 _atom_site_fract_y
 _atom_site_fract_z
 _atom_site_occupancy
  Ni  Ni0  1  0.50000000  -0.00000000  0.50000000  1
  Ni  Ni1  1  0.50000000  0.50000000  -0.00000000  1
  Ni  Ni2  1  0.00000000  0.50000000  -0.00000000  1
  Ni  Ni3  1  0.00000000  -0.00000000  0.50000000  1
  Cu  Cu4  1  0.00000000  0.50000000  0.50000000  1
  Cu  Cu5  1  0.50000000  0.00000000  0.00000000  1
  Cu  Cu6  1  0.00000000  -0.00000000  -0.00000000  1
  Cu  Cu7  1  0.50000000  0.50000000  0.50000000  1
  C  C8  1  0.75000000  0.75000000  0.75000000  1
  C  C9  1  0.25000000  0.25000000  0.75000000  1
  C  C10  1  0.25000000  0.75000000  0.25000000  1
  C  C11  1  0.75000000  0.25000000  0.25000000  1
  C  C12  1  0.25000000  0.25000000  0.25000000  1
  C  C13  1  0.75000000  0.75000000  0.25000000  1
  C  C14  1  0.75000000  0.25000000  0.75000000  1
  C  C15  1  0.25000000  0.75000000  0.75000000  1
  C  C16  1  0.02325623  0.22196822  0.27371544  1
  C  C17  1  0.97674377  0.77803178  0.27371544  1
  C  C18  1  0.97674377  0.22196822  0.72628456  1
  C  C19  1  0.02325623  0.77803178  0.72628456  1
  C  C20  1  0.27573660  0.02230214  0.21109743  1
  C  C21  1  0.27573660  0.97769786  0.78890257  1
  C  C22  1  0.72426340  0.97769786  0.21109743  1
  C  C23  1  0.72426340  0.02230214  0.78890257  1
  C  C24  1  0.22032938  0.26837663  0.02353551  1
  C  C25  1  0.77967062  0.26837663  0.97646449  1
  C  C26  1  0.22032938  0.73162337  0.97646449  1
  C  C27  1  0.77967062  0.73162337  0.02353551  1
  C  C28  1  0.47674377  0.27803178  0.22628456  1
  C  C29  1  0.52325623  0.72196822  0.22628456  1
  C  C30  1  0.52325623  0.27803178  0.77371544  1
  C  C31  1  0.47674377  0.72196822  0.77371544  1
  C  C32  1  0.22426340  0.47769786  0.28890257  1
  C  C33  1  0.22426340  0.52230214  0.71109743  1
  C  C34  1  0.77573660  0.52230214  0.28890257  1
  C  C35  1  0.77573660  0.47769786  0.71109743  1
  C  C36  1  0.27967062  0.23162337  0.47646449  1
  C  C37  1  0.72032938  0.23162337  0.52353551  1
  C  C38  1  0.27967062  0.76837663  0.52353551  1
  C  C39  1  0.72032938  0.76837663  0.47646449  1
