# generated using pymatgen
data_Cu(NiC4)3
_symmetry_space_group_name_H-M   'P 1'
_cell_length_a   14.02516968
_cell_length_b   14.02516968
_cell_length_c   14.02516968
_cell_angle_alpha   164.25679105
_cell_angle_beta   164.25679105
_cell_angle_gamma   22.33544389
_symmetry_Int_Tables_number   1
_chemical_formula_structural   Cu(NiC4)3
_chemical_formula_sum   'Cu1 Ni3 C12'
_cell_volume   203.06217429
_cell_formula_units_Z   1
loop_
 _symmetry_equiv_pos_site_id
 _symmetry_equiv_pos_as_xyz
  1  'x, y, z'
loop_
 _atom_site_type_symbol
 _atom_site_label
 _atom_site_symmetry_multiplicity
 _atom_site_fract_x
 _atom_site_fract_y
 _atom_site_fract_z
 _atom_site_occupancy
  C  C0  1  0.57961200  0.57961200  0.00000000  1
  C  C1  1  0.42038800  0.42038800  0.00000000  1
  Ni  Ni2  1  0.84444600  0.84444600  0.00000000  1
  Ni  Ni3  1  0.15555400  0.15555400  0.00000000  1
  Ni  Ni4  1  0.00000000  0.00000000  0.00000000  1
  Cu  Cu5  1  0.25000000  0.75000000  0.50000000  1
  C  C6  1  0.49988100  0.99988100  0.50000000  1
  C  C7  1  0.00011900  0.50011900  0.50000000  1
  C  C8  1  0.35941300  0.85941300  0.50000000  1
  C  C9  1  0.86121200  0.36121200  0.50000000  1
  C  C10  1  0.63878800  0.13878800  0.50000000  1
  C  C11  1  0.14058700  0.64058700  0.50000000  1
  C  C12  1  0.77890500  0.77890500  0.00000000  1
  C  C13  1  0.22109500  0.22109500  0.00000000  1
  C  C14  1  0.92893800  0.92893800  0.00000000  1
  C  C15  1  0.07106200  0.07106200  0.00000000  1
