# generated using pymatgen
data_Cu2NiC22
_symmetry_space_group_name_H-M   'P 1'
_cell_length_a   10.23884728
_cell_length_b   6.04877898
_cell_length_c   4.89103849
_cell_angle_alpha   90.22138213
_cell_angle_beta   88.51171310
_cell_angle_gamma   89.51079335
_symmetry_Int_Tables_number   1
_chemical_formula_structural   Cu2NiC22
_chemical_formula_sum   'Cu2 Ni1 C22'
_cell_volume   302.79860649
_cell_formula_units_Z   1
loop_
 _symmetry_equiv_pos_site_id
 _symmetry_equiv_pos_as_xyz
  1  'x, y, z'
loop_
 _atom_site_type_symbol
 _atom_site_label
 _atom_site_symmetry_multiplicity
 _atom_site_fract_x
 _atom_site_fract_y
 _atom_site_fract_z
 _atom_site_occupancy
  Ni  Ni0  1  0.99845000  0.49394900  0.00540300  1
  Cu  Cu1  1  0.23317400  0.76244300  0.48510600  1
  Cu  Cu2  1  0.29396200  0.25550700  0.94790900  1
  C  C3  1  0.71150200  0.75255400  0.03405500  1
  C  C4  1  0.76630200  0.24217600  0.52074200  1
  C  C5  1  0.09658600  0.25168100  0.41918100  1
  C  C6  1  0.40803500  0.75173800  0.91179700  1
  C  C7  1  0.59697000  0.25285900  0.07663000  1
  C  C8  1  0.89907200  0.74191600  0.59411100  1
  C  C9  1  0.04234100  0.73717200  0.68735200  1
  C  C10  1  0.10778400  0.27577700  0.73323800  1
  C  C11  1  0.17203800  0.04859700  0.30179500  1
  C  C12  1  0.15918500  0.45528300  0.25913200  1
  C  C13  1  0.33065600  0.55976800  0.76312000  1
  C  C14  1  0.33465900  0.95262400  0.77580300  1
  C  C15  1  0.38912500  0.74445100  0.21799500  1
  C  C16  1  0.45254100  0.25419700  0.17043000  1
  C  C17  1  0.55368800  0.74697900  0.82682200  1
  C  C18  1  0.61026100  0.25277000  0.76770000  1
  C  C19  1  0.67068200  0.04626200  0.20580800  1
  C  C20  1  0.67098900  0.45473200  0.21004400  1
  C  C21  1  0.83682400  0.53912300  0.75806600  1
  C  C22  1  0.81950500  0.93609300  0.72331700  1
  C  C23  1  0.88646600  0.72306700  0.27977100  1
  C  C24  1  0.95295000  0.25787000  0.32392800  1
