# generated using pymatgen
data_Cu2(Ni2C5)3
_symmetry_space_group_name_H-M   'P 1'
_cell_length_a   7.40510400
_cell_length_b   10.15798200
_cell_length_c   13.36050200
_cell_angle_alpha   90.00000000
_cell_angle_beta   90.00000000
_cell_angle_gamma   90.00000000
_symmetry_Int_Tables_number   1
_chemical_formula_structural   Cu2(Ni2C5)3
_chemical_formula_sum   'Cu8 Ni24 C60'
_cell_volume   1004.98916045
_cell_formula_units_Z   4
loop_
 _symmetry_equiv_pos_site_id
 _symmetry_equiv_pos_as_xyz
  1  'x, y, z'
loop_
 _atom_site_type_symbol
 _atom_site_label
 _atom_site_symmetry_multiplicity
 _atom_site_fract_x
 _atom_site_fract_y
 _atom_site_fract_z
 _atom_site_occupancy
  C  C0  1  0.06110100  0.53153700  0.62781600  1
  C  C1  1  0.93889900  0.46846300  0.37218400  1
  C  C2  1  0.93889900  0.46846300  0.12781600  1
  C  C3  1  0.93889900  0.03153700  0.87218400  1
  C  C4  1  0.06110100  0.53153700  0.87218400  1
  C  C5  1  0.06110100  0.96846300  0.12781600  1
  C  C6  1  0.06110100  0.96846300  0.37218400  1
  C  C7  1  0.93889900  0.03153700  0.62781600  1
  C  C8  1  0.29829600  0.25912400  0.25000000  1
  C  C9  1  0.70170400  0.74087600  0.75000000  1
  C  C10  1  0.70170400  0.75912400  0.25000000  1
  C  C11  1  0.29829600  0.24087600  0.75000000  1
  Ni  Ni12  1  0.05047900  0.75767900  0.25000000  1
  Ni  Ni13  1  0.94952100  0.24232100  0.75000000  1
  Ni  Ni14  1  0.94952100  0.25768000  0.25000000  1
  Ni  Ni15  1  0.05047900  0.74232100  0.75000000  1
  Ni  Ni16  1  0.59817300  0.33392500  0.07781900  1
  Ni  Ni17  1  0.40182700  0.66607500  0.92218100  1
  Ni  Ni18  1  0.40182700  0.66607500  0.57781900  1
  Ni  Ni19  1  0.40182700  0.83392500  0.42218100  1
  Ni  Ni20  1  0.59817300  0.33392500  0.42218100  1
  Ni  Ni21  1  0.59817300  0.16607500  0.57781900  1
  Ni  Ni22  1  0.59817300  0.16607500  0.92218100  1
  Ni  Ni23  1  0.40182700  0.83392500  0.07781900  1
  Ni  Ni24  1  0.70034900  0.38741700  0.98049600  1
  Ni  Ni25  1  0.29965100  0.61258300  0.01950400  1
  Ni  Ni26  1  0.29965100  0.61258300  0.48049600  1
  Ni  Ni27  1  0.29965100  0.88741700  0.51950400  1
  Ni  Ni28  1  0.70034900  0.38741700  0.51950400  1
  Ni  Ni29  1  0.70034900  0.11258300  0.48049600  1
  Ni  Ni30  1  0.70034900  0.11258300  0.01950400  1
  Ni  Ni31  1  0.29965100  0.88741700  0.98049600  1
  Ni  Ni32  1  0.33412000  0.01035000  0.25000000  1
  Ni  Ni33  1  0.66588000  0.98965000  0.75000000  1
  Ni  Ni34  1  0.66588000  0.51035000  0.25000000  1
  Ni  Ni35  1  0.33412000  0.48965000  0.75000000  1
  Cu  Cu36  1  0.30458700  0.58476400  0.25000000  1
  Cu  Cu37  1  0.69541300  0.41523600  0.75000000  1
  Cu  Cu38  1  0.69541300  0.08476400  0.25000000  1
  Cu  Cu39  1  0.30458700  0.91523600  0.75000000  1
  Cu  Cu40  1  0.21078800  0.25000000  0.00000000  1
  Cu  Cu41  1  0.78921200  0.75000000  0.00000000  1
  Cu  Cu42  1  0.78921200  0.75000000  0.50000000  1
  Cu  Cu43  1  0.21078800  0.25000000  0.50000000  1
  C  C44  1  0.58513100  0.20623000  0.25000000  1
  C  C45  1  0.41486900  0.79377000  0.75000000  1
  C  C46  1  0.41486900  0.70623000  0.25000000  1
  C  C47  1  0.58513100  0.29377000  0.75000000  1
  C  C48  1  0.32851900  0.25300000  0.08931500  1
  C  C49  1  0.67148100  0.74700000  0.91068500  1
  C  C50  1  0.67148100  0.74700000  0.58931500  1
  C  C51  1  0.67148100  0.75300000  0.41068500  1
  C  C52  1  0.32851900  0.25300000  0.41068500  1
  C  C53  1  0.32851900  0.24700000  0.58931500  1
  C  C54  1  0.32851900  0.24700000  0.91068500  1
  C  C55  1  0.67148100  0.75300000  0.08931500  1
  C  C56  1  0.09186100  0.12974600  0.00260800  1
  C  C57  1  0.90813900  0.87025400  0.99739200  1
  C  C58  1  0.90813900  0.87025400  0.50260800  1
  C  C59  1  0.90813900  0.62974600  0.49739200  1
  C  C60  1  0.09186100  0.12974600  0.49739200  1
  C  C61  1  0.09186100  0.37025400  0.50260800  1
  C  C62  1  0.09186100  0.37025400  0.99739200  1
  C  C63  1  0.90813900  0.62974600  0.00260800  1
  C  C64  1  0.69765800  0.38896800  0.05418100  1
  C  C65  1  0.30234200  0.61103200  0.94581900  1
  C  C66  1  0.30234200  0.61103200  0.55418100  1
  C  C67  1  0.30234200  0.88896800  0.44581900  1
  C  C68  1  0.69765800  0.38896800  0.44581900  1
  C  C69  1  0.69765800  0.11103200  0.55418100  1
  C  C70  1  0.69765800  0.11103200  0.94581900  1
  C  C71  1  0.30234200  0.88896800  0.05418100  1
  C  C72  1  0.21397200  0.05242900  0.25000000  1
  C  C73  1  0.78602800  0.94757100  0.75000000  1
  C  C74  1  0.78602800  0.55242900  0.25000000  1
  C  C75  1  0.21397200  0.44757100  0.75000000  1
  C  C76  1  0.18668900  0.58561000  0.15849700  1
  C  C77  1  0.81331100  0.41439000  0.84150300  1
  C  C78  1  0.81331100  0.41439000  0.65849700  1
  C  C79  1  0.81331100  0.08561000  0.34150300  1
  C  C80  1  0.18668900  0.58561000  0.34150300  1
  C  C81  1  0.18668900  0.91439000  0.65849700  1
  C  C82  1  0.18668900  0.91439000  0.84150300  1
  C  C83  1  0.81331100  0.08561000  0.15849700  1
  C  C84  1  0.02638400  0.33588400  0.25000000  1
  C  C85  1  0.97361600  0.66411600  0.75000000  1
  C  C86  1  0.97361600  0.83588400  0.25000000  1
  C  C87  1  0.02638400  0.16411600  0.75000000  1
  C  C88  1  0.42045500  0.46497900  0.25000000  1
  C  C89  1  0.57954500  0.53502100  0.75000000  1
  C  C90  1  0.57954500  0.96497900  0.25000000  1
  C  C91  1  0.42045500  0.03502100  0.75000000  1
