# generated using pymatgen
data_Cu7NiC3
_symmetry_space_group_name_H-M   'P 1'
_cell_length_a   3.93399879
_cell_length_b   3.93399879
_cell_length_c   10.47929226
_cell_angle_alpha   87.61581412
_cell_angle_beta   87.61581412
_cell_angle_gamma   89.95452188
_symmetry_Int_Tables_number   1
_chemical_formula_structural   Cu7NiC3
_chemical_formula_sum   'Cu7 Ni1 C3'
_cell_volume   161.90042354
_cell_formula_units_Z   1
loop_
 _symmetry_equiv_pos_site_id
 _symmetry_equiv_pos_as_xyz
  1  'x, y, z'
loop_
 _atom_site_type_symbol
 _atom_site_label
 _atom_site_symmetry_multiplicity
 _atom_site_fract_x
 _atom_site_fract_y
 _atom_site_fract_z
 _atom_site_occupancy
  C  C0  1  0.00489400  0.00489400  0.98883900  1
  C  C1  1  0.48005200  0.48005200  0.23075600  1
  C  C2  1  0.52529300  0.52529300  0.75227700  1
  Ni  Ni3  1  0.93756200  0.93756200  0.49203900  1
  Cu  Cu4  1  0.97502900  0.97502900  0.37798200  1
  Cu  Cu5  1  0.99322000  0.49275700  0.12761600  1
  Cu  Cu6  1  0.49275700  0.99322000  0.12761600  1
  Cu  Cu7  1  0.01678300  0.51885400  0.86223400  1
  Cu  Cu8  1  0.51885400  0.01678300  0.86223400  1
  Cu  Cu9  1  0.03745400  0.30210100  0.56920400  1
  Cu  Cu10  1  0.30210100  0.03745400  0.56920400  1
