# generated using pymatgen
data_Cu4NiC17
_symmetry_space_group_name_H-M   'P 1'
_cell_length_a   8.36488796
_cell_length_b   8.36488796
_cell_length_c   8.36488796
_cell_angle_alpha   60.00000000
_cell_angle_beta   60.00000000
_cell_angle_gamma   60.00000000
_symmetry_Int_Tables_number   1
_chemical_formula_structural   Cu4NiC17
_chemical_formula_sum   'Cu4 Ni1 C17'
_cell_volume   413.87137240
_cell_formula_units_Z   1
loop_
 _symmetry_equiv_pos_site_id
 _symmetry_equiv_pos_as_xyz
  1  'x, y, z'
loop_
 _atom_site_type_symbol
 _atom_site_label
 _atom_site_symmetry_multiplicity
 _atom_site_fract_x
 _atom_site_fract_y
 _atom_site_fract_z
 _atom_site_occupancy
  C  C0  1  0.25000000  0.25000000  0.25000000  1
  Ni  Ni1  1  0.75000000  0.75000000  0.75000000  1
  C  C2  1  0.50139100  0.71641100  0.06578700  1
  C  C3  1  0.71641100  0.50139100  0.06578700  1
  C  C4  1  0.71641100  0.71641100  0.06578700  1
  C  C5  1  0.71641100  0.06578700  0.71641100  1
  C  C6  1  0.71641100  0.06578700  0.50139100  1
  C  C7  1  0.50139100  0.06578700  0.71641100  1
  C  C8  1  0.06578700  0.71641100  0.50139100  1
  C  C9  1  0.06578700  0.71641100  0.71641100  1
  C  C10  1  0.06578700  0.50139100  0.71641100  1
  C  C11  1  0.71641100  0.50139100  0.71641100  1
  C  C12  1  0.50139100  0.71641100  0.71641100  1
  C  C13  1  0.71641100  0.71641100  0.50139100  1
  Cu  Cu14  1  0.66239000  0.66239000  0.01283000  1
  Cu  Cu15  1  0.66239000  0.01283000  0.66239000  1
  Cu  Cu16  1  0.01283000  0.66239000  0.66239000  1
  Cu  Cu17  1  0.66239000  0.66239000  0.66239000  1
  C  C18  1  0.13459300  0.13459300  0.59622200  1
  C  C19  1  0.13459300  0.59622200  0.13459300  1
  C  C20  1  0.59622200  0.13459300  0.13459300  1
  C  C21  1  0.13459300  0.13459300  0.13459300  1
