# generated using pymatgen
data_Cu7(NiC)2
_symmetry_space_group_name_H-M   'P 1'
_cell_length_a   12.50062200
_cell_length_b   9.12993800
_cell_length_c   9.84179996
_cell_angle_alpha   89.61519591
_cell_angle_beta   90.00000000
_cell_angle_gamma   90.00000000
_symmetry_Int_Tables_number   1
_chemical_formula_structural   Cu7(NiC)2
_chemical_formula_sum   'Cu28 Ni8 C8'
_cell_volume   1123.21835059
_cell_formula_units_Z   4
loop_
 _symmetry_equiv_pos_site_id
 _symmetry_equiv_pos_as_xyz
  1  'x, y, z'
loop_
 _atom_site_type_symbol
 _atom_site_label
 _atom_site_symmetry_multiplicity
 _atom_site_fract_x
 _atom_site_fract_y
 _atom_site_fract_z
 _atom_site_occupancy
  C  C0  1  0.64270300  0.10926700  0.14397600  1
  C  C1  1  0.14270300  0.39073300  0.85602400  1
  C  C2  1  0.35729700  0.89073300  0.85602400  1
  C  C3  1  0.85729700  0.60926700  0.14397600  1
  C  C4  1  0.80997200  0.37126200  0.60268500  1
  C  C5  1  0.30997200  0.12873800  0.39731500  1
  C  C6  1  0.19002800  0.62873800  0.39731500  1
  C  C7  1  0.69002800  0.87126200  0.60268500  1
  Ni  Ni8  1  0.59842800  0.47842300  0.27639000  1
  Ni  Ni9  1  0.09842800  0.02157700  0.72361000  1
  Ni  Ni10  1  0.40157200  0.52157700  0.72361000  1
  Ni  Ni11  1  0.90157200  0.97842300  0.27639000  1
  Ni  Ni12  1  0.03819700  0.30189100  0.18927300  1
  Ni  Ni13  1  0.53819700  0.19810900  0.81072700  1
  Ni  Ni14  1  0.96180300  0.69810900  0.81072700  1
  Ni  Ni15  1  0.46180300  0.80189100  0.18927300  1
  Cu  Cu16  1  0.94111100  0.31982100  0.02372700  1
  Cu  Cu17  1  0.44111100  0.18017900  0.97627300  1
  Cu  Cu18  1  0.05888900  0.68017900  0.97627300  1
  Cu  Cu19  1  0.55888900  0.81982100  0.02372700  1
  Cu  Cu20  1  0.79557500  0.10999700  0.37362200  1
  Cu  Cu21  1  0.29557500  0.39000300  0.62637800  1
  Cu  Cu22  1  0.20442500  0.89000300  0.62637800  1
  Cu  Cu23  1  0.70442500  0.60999700  0.37362200  1
  Cu  Cu24  1  0.55541000  0.29051500  0.37013100  1
  Cu  Cu25  1  0.05541000  0.20948500  0.62986900  1
  Cu  Cu26  1  0.44459000  0.70948500  0.62986900  1
  Cu  Cu27  1  0.94459000  0.79051500  0.37013100  1
  Cu  Cu28  1  0.19323100  0.35425300  0.14938400  1
  Cu  Cu29  1  0.69323100  0.14574700  0.85061600  1
  Cu  Cu30  1  0.80676900  0.64574700  0.85061600  1
  Cu  Cu31  1  0.30676900  0.85425300  0.14938400  1
  Cu  Cu32  1  0.66265400  0.43217400  0.09027600  1
  Cu  Cu33  1  0.16265400  0.06782600  0.90972400  1
  Cu  Cu34  1  0.33734600  0.56782600  0.90972400  1
  Cu  Cu35  1  0.83734600  0.93217400  0.09027600  1
  Cu  Cu36  1  0.05579100  0.07901400  0.25378700  1
  Cu  Cu37  1  0.55579100  0.42098600  0.74621300  1
  Cu  Cu38  1  0.94420900  0.92098600  0.74621300  1
  Cu  Cu39  1  0.44420900  0.57901400  0.25378700  1
  Cu  Cu40  1  0.97829500  0.43019800  0.33935500  1
  Cu  Cu41  1  0.47829500  0.06980200  0.66064500  1
  Cu  Cu42  1  0.02170500  0.56980200  0.66064500  1
  Cu  Cu43  1  0.52170500  0.93019800  0.33935500  1
