# generated using pymatgen
data_Cu(NiC4)7
_symmetry_space_group_name_H-M   'P 1'
_cell_length_a   10.78874236
_cell_length_b   11.13527761
_cell_length_c   17.44258013
_cell_angle_alpha   108.65148792
_cell_angle_beta   108.08400942
_cell_angle_gamma   89.99760863
_symmetry_Int_Tables_number   1
_chemical_formula_structural   Cu(NiC4)7
_chemical_formula_sum   'Cu4 Ni28 C112'
_cell_volume   1875.85937882
_cell_formula_units_Z   4
loop_
 _symmetry_equiv_pos_site_id
 _symmetry_equiv_pos_as_xyz
  1  'x, y, z'
loop_
 _atom_site_type_symbol
 _atom_site_label
 _atom_site_symmetry_multiplicity
 _atom_site_fract_x
 _atom_site_fract_y
 _atom_site_fract_z
 _atom_site_occupancy
  C  C0  1  0.30688900  0.56203300  0.61606100  1
  C  C1  1  0.80647600  0.06163000  0.60982800  1
  C  C2  1  0.81151400  0.56291500  0.61262600  1
  C  C3  1  0.19290900  0.43543300  0.38468300  1
  C  C4  1  0.19760600  0.44364100  0.88763400  1
  C  C5  1  0.69385500  0.43571900  0.38320500  1
  C  C6  1  0.69280900  0.93589400  0.38384400  1
  C  C7  1  0.69415600  0.93655800  0.89005400  1
  C  C8  1  0.05872700  0.29799600  0.61299500  1
  C  C9  1  0.06257700  0.80165800  0.61166800  1
  C  C10  1  0.55728600  0.30280900  0.61339300  1
  C  C11  1  0.55711600  0.80433200  0.61241400  1
  C  C12  1  0.43825400  0.19748800  0.38482400  1
  C  C13  1  0.44483100  0.19612000  0.88686900  1
  C  C14  1  0.94594900  0.19605300  0.38430600  1
  C  C15  1  0.94533300  0.20223400  0.88983800  1
  C  C16  1  0.30763900  0.06774800  0.10941400  1
  C  C17  1  0.30474100  0.05674500  0.60448400  1
  C  C18  1  0.30558300  0.56986700  0.11198300  1
  C  C19  1  0.79672600  0.06443000  0.10731300  1
  C  C20  1  0.80292300  0.56659000  0.11176800  1
  C  C21  1  0.19926400  0.93245200  0.38974700  1
  C  C22  1  0.20455900  0.93321200  0.89562600  1
  C  C23  1  0.69395700  0.44029400  0.89389800  1
  C  C24  1  0.05031800  0.29242700  0.11005200  1
  C  C25  1  0.05439500  0.79448200  0.11097700  1
  C  C26  1  0.55150400  0.28795100  0.10711700  1
  C  C27  1  0.55414700  0.79275500  0.10777500  1
  C  C28  1  0.44262000  0.70887700  0.38967700  1
  C  C29  1  0.44688000  0.70522900  0.89296800  1
  C  C30  1  0.95213000  0.70489300  0.38914400  1
  C  C31  1  0.95210600  0.71189900  0.89646100  1
  Ni  Ni32  1  0.00934200  0.00400000  0.00663500  1
  Ni  Ni33  1  0.00405400  0.99763300  0.49629000  1
  Ni  Ni34  1  0.00702100  0.50390500  0.00962800  1
  Ni  Ni35  1  0.00446800  0.50082800  0.50294700  1
  Ni  Ni36  1  0.50493400  0.99886200  0.00175900  1
  Ni  Ni37  1  0.50130200  0.00026200  0.49769700  1
  Ni  Ni38  1  0.50634000  0.49975000  0.00168900  1
  Ni  Ni39  1  0.50214200  0.50030400  0.50351200  1
  Ni  Ni40  1  0.25931500  0.25421800  0.00780800  1
  Ni  Ni41  1  0.25467600  0.24989300  0.50611900  1
  Ni  Ni42  1  0.25596400  0.75194400  0.00205600  1
  Ni  Ni43  1  0.25513000  0.74987400  0.50068700  1
  Ni  Ni44  1  0.75654500  0.25481800  0.00824400  1
  Ni  Ni45  1  0.74901500  0.24684000  0.49330900  1
  Ni  Ni46  1  0.75520400  0.74978400  0.00088500  1
  Ni  Ni47  1  0.75149400  0.74758900  0.49303400  1
  Ni  Ni48  1  0.10512700  0.08630400  0.24417900  1
  Ni  Ni49  1  0.11543700  0.09181700  0.75337700  1
  Ni  Ni50  1  0.10649500  0.59591900  0.24711000  1
  Ni  Ni51  1  0.60487400  0.08722000  0.24318300  1
  Ni  Ni52  1  0.61049300  0.09939200  0.74986300  1
  Ni  Ni53  1  0.60651000  0.59296200  0.24599100  1
  Ni  Ni54  1  0.35634000  0.41018300  0.24630900  1
  Ni  Ni55  1  0.35272300  0.90020600  0.24545600  1
  Ni  Ni56  1  0.85623800  0.40705600  0.24546900  1
  Ni  Ni57  1  0.85888500  0.42058700  0.75793900  1
  Ni  Ni58  1  0.85964900  0.89874800  0.24357600  1
  Ni  Ni59  1  0.86807400  0.90398500  0.75257100  1
  Cu  Cu60  1  0.11286200  0.60572800  0.75349500  1
  Cu  Cu61  1  0.61443400  0.60782700  0.75446200  1
  Cu  Cu62  1  0.36949800  0.40666600  0.75333700  1
  Cu  Cu63  1  0.35787700  0.90367700  0.75277600  1
  C  C64  1  0.12794300  0.11979200  0.49114800  1
  C  C65  1  0.13139100  0.13303100  0.99514400  1
  C  C66  1  0.12321000  0.62310200  0.48704600  1
  C  C67  1  0.12992700  0.63423800  0.99575100  1
  C  C68  1  0.62231300  0.12715800  0.49255200  1
  C  C69  1  0.62600700  0.12605800  0.99531500  1
  C  C70  1  0.62998400  0.63003600  0.49055500  1
  C  C71  1  0.63292400  0.62692600  0.99259000  1
  C  C72  1  0.13151500  0.39234400  0.01796900  1
  C  C73  1  0.12466200  0.38069500  0.50536500  1
  C  C74  1  0.13245800  0.88968400  0.01268900  1
  C  C75  1  0.13160500  0.87616500  0.50115500  1
  C  C76  1  0.63081200  0.38815000  0.01532700  1
  C  C77  1  0.62545500  0.38217300  0.50273400  1
  C  C78  1  0.63250700  0.88220800  0.01548100  1
  C  C79  1  0.62777000  0.87773100  0.50257900  1
  C  C80  1  0.36640800  0.11104300  0.48791900  1
  C  C81  1  0.37289900  0.11126900  0.99226500  1
  C  C82  1  0.38082700  0.61796000  0.49123000  1
  C  C83  1  0.38496000  0.61612600  0.99524100  1
  C  C84  1  0.87276000  0.11780100  0.49250600  1
  C  C85  1  0.88182200  0.11349900  0.99655000  1
  C  C86  1  0.88045700  0.61424200  0.48821300  1
  C  C87  1  0.88207900  0.61092600  0.98987100  1
  C  C88  1  0.37965300  0.37863800  0.01582000  1
  C  C89  1  0.37334100  0.37488900  0.50570400  1
  C  C90  1  0.38139900  0.87511700  0.01310600  1
  C  C91  1  0.37959200  0.87682400  0.50449400  1
  C  C92  1  0.88106500  0.38391500  0.01516600  1
  C  C93  1  0.87492000  0.37523400  0.50429000  1
  C  C94  1  0.88377600  0.87281000  0.01348600  1
  C  C95  1  0.87832300  0.86878100  0.50112300  1
  C  C96  1  0.09488100  0.10108900  0.14031100  1
  C  C97  1  0.09433300  0.08514500  0.64418600  1
  C  C98  1  0.08735900  0.60771200  0.14137100  1
  C  C99  1  0.06853200  0.58500500  0.63539400  1
  C  C100  1  0.58409800  0.09900100  0.13838100  1
  C  C101  1  0.58119500  0.09231300  0.64090500  1
  C  C102  1  0.58866700  0.60674300  0.14208500  1
  C  C103  1  0.57523900  0.58432800  0.63739400  1
  C  C104  1  0.43256900  0.40738900  0.35392100  1
  C  C105  1  0.45151300  0.40963900  0.86773500  1
  C  C106  1  0.43393300  0.89982100  0.35369100  1
  C  C107  1  0.43891700  0.90440500  0.86784900  1
  C  C108  1  0.93258900  0.40369200  0.35241900  1
  C  C109  1  0.94936400  0.40074200  0.85780800  1
  C  C110  1  0.94074100  0.90098300  0.35263200  1
  C  C111  1  0.94874000  0.90076800  0.86116000  1
  C  C112  1  0.34425700  0.28969600  0.14260700  1
  C  C113  1  0.33022000  0.29164100  0.63837600  1
  C  C114  1  0.33538200  0.78745600  0.13972300  1
  C  C115  1  0.32259100  0.79881000  0.63674800  1
  C  C116  1  0.84344900  0.28786200  0.14234900  1
  C  C117  1  0.84091800  0.30779300  0.65332300  1
  C  C118  1  0.84160900  0.78261300  0.13852100  1
  C  C119  1  0.83372600  0.80001300  0.64235200  1
  C  C120  1  0.18043000  0.19628600  0.35107900  1
  C  C121  1  0.19224400  0.20941100  0.85917900  1
  C  C122  1  0.19426300  0.70182700  0.35454000  1
  C  C123  1  0.19845000  0.70713500  0.86930000  1
  C  C124  1  0.68289200  0.19352200  0.35220100  1
  C  C125  1  0.68307400  0.21186800  0.85739900  1
  C  C126  1  0.69567700  0.69520700  0.35585900  1
  C  C127  1  0.70045300  0.70488000  0.86782600  1
  C  C128  1  0.42444600  0.05575300  0.23994300  1
  C  C129  1  0.43593700  0.05410300  0.74238500  1
  C  C130  1  0.42611000  0.57257800  0.24823800  1
  C  C131  1  0.44694800  0.56991300  0.76094600  1
  C  C132  1  0.92308100  0.05624200  0.23692200  1
  C  C133  1  0.93903100  0.06173400  0.75115000  1
  C  C134  1  0.92651000  0.57047400  0.24772000  1
  C  C135  1  0.92701000  0.57549600  0.76188600  1
  C  C136  1  0.17370500  0.43279300  0.23890600  1
  C  C137  1  0.19827000  0.45415300  0.74979000  1
  C  C138  1  0.17341200  0.92579700  0.24695700  1
  C  C139  1  0.18484300  0.93579500  0.76201100  1
  C  C140  1  0.67247200  0.42905200  0.23686600  1
  C  C141  1  0.69327900  0.43835800  0.76051600  1
  C  C142  1  0.67833300  0.92723300  0.23870600  1
  C  C143  1  0.69330200  0.94602900  0.75401600  1
