# generated using pymatgen
data_Cu3Ni6C7
_symmetry_space_group_name_H-M   'P 1'
_cell_length_a   4.87389951
_cell_length_b   7.14218282
_cell_length_c   12.56659904
_cell_angle_alpha   73.47906755
_cell_angle_beta   84.40265223
_cell_angle_gamma   70.58405015
_symmetry_Int_Tables_number   1
_chemical_formula_structural   Cu3Ni6C7
_chemical_formula_sum   'Cu6 Ni12 C14'
_cell_volume   395.53457757
_cell_formula_units_Z   2
loop_
 _symmetry_equiv_pos_site_id
 _symmetry_equiv_pos_as_xyz
  1  'x, y, z'
loop_
 _atom_site_type_symbol
 _atom_site_label
 _atom_site_symmetry_multiplicity
 _atom_site_fract_x
 _atom_site_fract_y
 _atom_site_fract_z
 _atom_site_occupancy
  C  C0  1  0.12498300  0.05686800  0.01142500  1
  C  C1  1  0.51469200  0.62914500  0.53716100  1
  C  C2  1  0.87049300  0.95205500  0.53824100  1
  C  C3  1  0.19349200  0.31078300  0.49614300  1
  C  C4  1  0.02875100  0.16532700  0.26267800  1
  C  C5  1  0.02812600  0.42995600  0.74074200  1
  C  C6  1  0.26756100  0.69177100  0.26214700  1
  C  C7  1  0.26812900  0.94736700  0.74143600  1
  C  C8  1  0.64871700  0.91868400  0.28157200  1
  C  C9  1  0.64810100  0.19832800  0.72179600  1
  C  C10  1  0.46158000  0.49669200  0.87414600  1
  C  C11  1  0.46401900  0.36813300  0.13058900  1
  C  C12  1  0.83905000  0.62001000  0.13078800  1
  C  C13  1  0.83693900  0.74774800  0.87424900  1
  Ni  Ni14  1  0.10254900  0.36999700  0.16257000  1
  Ni  Ni15  1  0.10186800  0.53292500  0.83902800  1
  Ni  Ni16  1  0.90981600  0.73659300  0.22615800  1
  Ni  Ni17  1  0.90476900  0.95849200  0.77059200  1
  Ni  Ni18  1  0.49378900  0.58782800  0.16149800  1
  Ni  Ni19  1  0.49470000  0.74733800  0.83936600  1
  Ni  Ni20  1  0.69975700  0.15634900  0.22480600  1
  Ni  Ni21  1  0.68977000  0.39021900  0.77066100  1
  Ni  Ni22  1  0.86221600  0.76956900  0.00076000  1
  Ni  Ni23  1  0.30301400  0.93864200  0.24337400  1
  Ni  Ni24  1  0.29720600  0.18316200  0.75274700  1
  Ni  Ni25  1  0.56769100  0.34610800  0.00059400  1
  Cu  Cu26  1  0.69509700  0.85201600  0.41530300  1
  Cu  Cu27  1  0.69389900  0.26681700  0.58566900  1
  Cu  Cu28  1  0.03353300  0.16750600  0.39129600  1
  Cu  Cu29  1  0.03539100  0.56993800  0.61141000  1
  Cu  Cu30  1  0.35115200  0.56000000  0.39006200  1
  Cu  Cu31  1  0.34728900  0.93668300  0.61189200  1
