# generated using pymatgen
data_CuNiC5
_symmetry_space_group_name_H-M   'P 1'
_cell_length_a   5.34868871
_cell_length_b   5.34868871
_cell_length_c   7.49087048
_cell_angle_alpha   69.36801644
_cell_angle_beta   69.36801644
_cell_angle_gamma   72.65218629
_symmetry_Int_Tables_number   1
_chemical_formula_structural   CuNiC5
_chemical_formula_sum   'Cu2 Ni2 C10'
_cell_volume   183.95270244
_cell_formula_units_Z   2
loop_
 _symmetry_equiv_pos_site_id
 _symmetry_equiv_pos_as_xyz
  1  'x, y, z'
loop_
 _atom_site_type_symbol
 _atom_site_label
 _atom_site_symmetry_multiplicity
 _atom_site_fract_x
 _atom_site_fract_y
 _atom_site_fract_z
 _atom_site_occupancy
  Ni  Ni0  1  0.52319900  0.47680100  0.75000000  1
  Ni  Ni1  1  0.47680100  0.52319900  0.25000000  1
  Cu  Cu2  1  0.00000000  0.00000000  0.00000000  1
  Cu  Cu3  1  0.00000000  0.00000000  0.50000000  1
  C  C4  1  0.13658700  0.86341300  0.25000000  1
  C  C5  1  0.86341300  0.13658700  0.75000000  1
  C  C6  1  0.22107400  0.26995700  0.37192800  1
  C  C7  1  0.73004300  0.77892600  0.12807200  1
  C  C8  1  0.70208600  0.31924400  0.05048500  1
  C  C9  1  0.68075600  0.29791400  0.44951500  1
  C  C10  1  0.29791400  0.68075600  0.94951500  1
  C  C11  1  0.31924400  0.70208600  0.55048500  1
  C  C12  1  0.26995700  0.22107400  0.87192800  1
  C  C13  1  0.77892600  0.73004300  0.62807200  1
