# generated using pymatgen
data_Cu2NiC7
_symmetry_space_group_name_H-M   'P 1'
_cell_length_a   6.43743706
_cell_length_b   7.81937039
_cell_length_c   7.99011534
_cell_angle_alpha   79.55377439
_cell_angle_beta   83.67334308
_cell_angle_gamma   73.86036798
_symmetry_Int_Tables_number   1
_chemical_formula_structural   Cu2NiC7
_chemical_formula_sum   'Cu8 Ni4 C28'
_cell_volume   379.17899368
_cell_formula_units_Z   4
loop_
 _symmetry_equiv_pos_site_id
 _symmetry_equiv_pos_as_xyz
  1  'x, y, z'
loop_
 _atom_site_type_symbol
 _atom_site_label
 _atom_site_symmetry_multiplicity
 _atom_site_fract_x
 _atom_site_fract_y
 _atom_site_fract_z
 _atom_site_occupancy
  C  C0  1  0.80524100  0.88201600  0.94794300  1
  C  C1  1  0.19475900  0.11798400  0.05205700  1
  C  C2  1  0.52255400  0.51398900  0.75641200  1
  C  C3  1  0.47744600  0.48601100  0.24358800  1
  C  C4  1  0.84581600  0.63234400  0.67468200  1
  C  C5  1  0.15418400  0.36765600  0.32531800  1
  C  C6  1  0.84185800  0.51033000  0.86996500  1
  C  C7  1  0.15814200  0.48967000  0.13003500  1
  C  C8  1  0.80547300  0.21926800  0.44420300  1
  C  C9  1  0.19452700  0.78073200  0.55579700  1
  C  C10  1  0.51909600  0.11466700  0.64800600  1
  C  C11  1  0.48090400  0.88533300  0.35199400  1
  C  C12  1  0.70936900  0.95088100  0.56746100  1
  C  C13  1  0.29063100  0.04911900  0.43253900  1
  C  C14  1  0.80218300  0.66062900  0.28055400  1
  C  C15  1  0.19781700  0.33937100  0.71944600  1
  C  C16  1  0.78061700  0.50908000  0.17054200  1
  C  C17  1  0.21938300  0.49092000  0.82945800  1
  Ni  Ni18  1  0.38140400  0.74482400  0.85898300  1
  Ni  Ni19  1  0.61859600  0.25517600  0.14101700  1
  Ni  Ni20  1  0.97212000  0.18105700  0.65955000  1
  Ni  Ni21  1  0.02788000  0.81894300  0.34045000  1
  Cu  Cu22  1  0.55090600  0.62964700  0.77923800  1
  Cu  Cu23  1  0.44909400  0.37035300  0.22076200  1
  Cu  Cu24  1  0.76777800  0.62765200  0.79450800  1
  Cu  Cu25  1  0.23222200  0.37234800  0.20549200  1
  Cu  Cu26  1  0.80169600  0.17445100  0.57232800  1
  Cu  Cu27  1  0.19830400  0.82554900  0.42767200  1
  Cu  Cu28  1  0.68085800  0.05072800  0.64143200  1
  Cu  Cu29  1  0.31914200  0.94927200  0.35856800  1
  C  C30  1  0.42077000  0.87201100  0.91923100  1
  C  C31  1  0.57923000  0.12798900  0.08076900  1
  C  C32  1  0.19401400  0.71483900  0.85868300  1
  C  C33  1  0.80598600  0.28516100  0.14131700  1
  C  C34  1  0.98163700  0.11088000  0.81663700  1
  C  C35  1  0.01836300  0.88912000  0.18336300  1
  C  C36  1  0.10748800  0.26291900  0.57480100  1
  C  C37  1  0.89251200  0.73708100  0.42519900  1
  C  C38  1  0.74849400  0.64052100  0.17351900  1
  C  C39  1  0.25150600  0.35947900  0.82648100  1
