# generated using pymatgen
data_Cu4Ni4C
_symmetry_space_group_name_H-M   'P 1'
_cell_length_a   5.39752700
_cell_length_b   5.39752700
_cell_length_c   7.45430100
_cell_angle_alpha   90.00000000
_cell_angle_beta   90.00000000
_cell_angle_gamma   90.00000000
_symmetry_Int_Tables_number   1
_chemical_formula_structural   Cu4Ni4C
_chemical_formula_sum   'Cu8 Ni8 C2'
_cell_volume   217.16837030
_cell_formula_units_Z   2
loop_
 _symmetry_equiv_pos_site_id
 _symmetry_equiv_pos_as_xyz
  1  'x, y, z'
loop_
 _atom_site_type_symbol
 _atom_site_label
 _atom_site_symmetry_multiplicity
 _atom_site_fract_x
 _atom_site_fract_y
 _atom_site_fract_z
 _atom_site_occupancy
  C  C0  1  0.00000000  0.00000000  0.50000000  1
  C  C1  1  0.50000000  0.50000000  0.00000000  1
  Ni  Ni2  1  0.32714300  0.00000000  0.15310900  1
  Ni  Ni3  1  0.67285700  0.00000000  0.15310900  1
  Ni  Ni4  1  0.50000000  0.82774800  0.65355500  1
  Ni  Ni5  1  0.50000000  0.17225200  0.65355500  1
  Ni  Ni6  1  0.17225200  0.50000000  0.34644500  1
  Ni  Ni7  1  0.82774800  0.50000000  0.34644500  1
  Ni  Ni8  1  0.00000000  0.67285700  0.84689100  1
  Ni  Ni9  1  0.00000000  0.32714300  0.84689100  1
  Cu  Cu10  1  0.75073500  0.00000000  0.85684400  1
  Cu  Cu11  1  0.24926500  0.00000000  0.85684400  1
  Cu  Cu12  1  0.50000000  0.25152900  0.35359300  1
  Cu  Cu13  1  0.50000000  0.74847100  0.35359300  1
  Cu  Cu14  1  0.74847100  0.50000000  0.64640700  1
  Cu  Cu15  1  0.25152900  0.50000000  0.64640700  1
  Cu  Cu16  1  0.00000000  0.24926500  0.14315600  1
  Cu  Cu17  1  0.00000000  0.75073500  0.14315600  1
