# generated using pymatgen
data_Cu3NiC
_symmetry_space_group_name_H-M   'P 1'
_cell_length_a   7.66290600
_cell_length_b   6.87121400
_cell_length_c   10.36290158
_cell_angle_alpha   88.87302039
_cell_angle_beta   90.00000000
_cell_angle_gamma   90.00000000
_symmetry_Int_Tables_number   1
_chemical_formula_structural   Cu3NiC
_chemical_formula_sum   'Cu12 Ni4 C4'
_cell_volume   545.53714815
_cell_formula_units_Z   4
loop_
 _symmetry_equiv_pos_site_id
 _symmetry_equiv_pos_as_xyz
  1  'x, y, z'
loop_
 _atom_site_type_symbol
 _atom_site_label
 _atom_site_symmetry_multiplicity
 _atom_site_fract_x
 _atom_site_fract_y
 _atom_site_fract_z
 _atom_site_occupancy
  C  C0  1  0.49795300  0.28453500  0.50197200  1
  C  C1  1  0.99795300  0.71546500  0.49802800  1
  C  C2  1  0.22024200  0.81631300  0.99231400  1
  C  C3  1  0.72024200  0.18368700  0.00768600  1
  Ni  Ni4  1  0.00918000  0.18756000  0.67551600  1
  Ni  Ni5  1  0.50918000  0.81244000  0.32448400  1
  Ni  Ni6  1  0.22807800  0.31032000  0.79584200  1
  Ni  Ni7  1  0.72807800  0.68968000  0.20415800  1
  Cu  Cu8  1  0.80951100  0.42450100  0.66982800  1
  Cu  Cu9  1  0.30951100  0.57549900  0.33017200  1
  Cu  Cu10  1  0.30859700  0.56835700  0.67198800  1
  Cu  Cu11  1  0.80859700  0.43164300  0.32801200  1
  Cu  Cu12  1  0.13317600  0.12944200  0.48398100  1
  Cu  Cu13  1  0.63317600  0.87055800  0.51601900  1
  Cu  Cu14  1  0.43875800  0.09995500  0.76723600  1
  Cu  Cu15  1  0.93875800  0.90004500  0.23276400  1
  Cu  Cu16  1  0.41252600  0.09131200  0.24427900  1
  Cu  Cu17  1  0.91252600  0.90868800  0.75572100  1
  Cu  Cu18  1  0.13608900  0.34719300  0.99022700  1
  Cu  Cu19  1  0.63608900  0.65280700  0.00977300  1
