# generated using pymatgen
data_Cu10NiC3
_symmetry_space_group_name_H-M   'P 1'
_cell_length_a   6.27195500
_cell_length_b   7.42611500
_cell_length_c   17.67919200
_cell_angle_alpha   90.00000000
_cell_angle_beta   90.00000000
_cell_angle_gamma   90.00000000
_symmetry_Int_Tables_number   1
_chemical_formula_structural   Cu10NiC3
_chemical_formula_sum   'Cu20 Ni2 C6'
_cell_volume   823.43062736
_cell_formula_units_Z   2
loop_
 _symmetry_equiv_pos_site_id
 _symmetry_equiv_pos_as_xyz
  1  'x, y, z'
loop_
 _atom_site_type_symbol
 _atom_site_label
 _atom_site_symmetry_multiplicity
 _atom_site_fract_x
 _atom_site_fract_y
 _atom_site_fract_z
 _atom_site_occupancy
  C  C0  1  0.45628000  0.75000000  0.75000000  1
  C  C1  1  0.54598500  0.25000000  0.25000000  1
  C  C2  1  0.82282400  0.75000000  0.07093800  1
  C  C3  1  0.82282400  0.75000000  0.42906200  1
  C  C4  1  0.17542200  0.25000000  0.93258100  1
  C  C5  1  0.17542200  0.25000000  0.56741900  1
  Ni  Ni6  1  0.02600100  0.25000000  0.36073500  1
  Ni  Ni7  1  0.02600100  0.25000000  0.13926500  1
  Cu  Cu8  1  0.35725500  0.75000000  0.54293600  1
  Cu  Cu9  1  0.35725500  0.75000000  0.95706400  1
  Cu  Cu10  1  0.67027100  0.25000000  0.44921100  1
  Cu  Cu11  1  0.67027100  0.25000000  0.05078900  1
  Cu  Cu12  1  0.66052500  0.04043500  0.60187200  1
  Cu  Cu13  1  0.66052500  0.45956500  0.60187200  1
  Cu  Cu14  1  0.66052500  0.04043500  0.89812800  1
  Cu  Cu15  1  0.66052500  0.45956500  0.89812800  1
  Cu  Cu16  1  0.32550700  0.97291500  0.39615700  1
  Cu  Cu17  1  0.32550700  0.52708500  0.39615700  1
  Cu  Cu18  1  0.32550700  0.97291500  0.10384300  1
  Cu  Cu19  1  0.32550700  0.52708500  0.10384300  1
  Cu  Cu20  1  0.98324900  0.05358000  0.75000000  1
  Cu  Cu21  1  0.98324900  0.44642000  0.75000000  1
  Cu  Cu22  1  0.01491600  0.96163900  0.25000000  1
  Cu  Cu23  1  0.01491600  0.53836100  0.25000000  1
  Cu  Cu24  1  0.52018400  0.75000000  0.25000000  1
  Cu  Cu25  1  0.47706500  0.25000000  0.75000000  1
  Cu  Cu26  1  0.97824200  0.75000000  0.63673500  1
  Cu  Cu27  1  0.97824200  0.75000000  0.86326500  1
