# generated using pymatgen
data_Cu3NiC14
_symmetry_space_group_name_H-M   'P 1'
_cell_length_a   6.92206144
_cell_length_b   6.92206144
_cell_length_c   11.81333786
_cell_angle_alpha   80.16159783
_cell_angle_beta   80.16159783
_cell_angle_gamma   114.55440714
_symmetry_Int_Tables_number   1
_chemical_formula_structural   Cu3NiC14
_chemical_formula_sum   'Cu6 Ni2 C28'
_cell_volume   488.45060941
_cell_formula_units_Z   2
loop_
 _symmetry_equiv_pos_site_id
 _symmetry_equiv_pos_as_xyz
  1  'x, y, z'
loop_
 _atom_site_type_symbol
 _atom_site_label
 _atom_site_symmetry_multiplicity
 _atom_site_fract_x
 _atom_site_fract_y
 _atom_site_fract_z
 _atom_site_occupancy
  C  C0  1  0.20868700  0.45958400  0.58014200  1
  C  C1  1  0.54041600  0.79131300  0.91985800  1
  C  C2  1  0.45958400  0.20868700  0.08014200  1
  C  C3  1  0.79131300  0.54041600  0.41985800  1
  Ni  Ni4  1  0.87736200  0.12263800  0.25000000  1
  Ni  Ni5  1  0.12263800  0.87736200  0.75000000  1
  Cu  Cu6  1  0.70723000  0.95735900  0.58632000  1
  Cu  Cu7  1  0.04264100  0.29277000  0.91368000  1
  Cu  Cu8  1  0.37445600  0.62554400  0.25000000  1
  Cu  Cu9  1  0.29277000  0.04264100  0.41368000  1
  Cu  Cu10  1  0.62554400  0.37445600  0.75000000  1
  Cu  Cu11  1  0.95735900  0.70723000  0.08632000  1
  C  C12  1  0.07095100  0.50380400  0.78718300  1
  C  C13  1  0.38473700  0.81170300  0.12361100  1
  C  C14  1  0.74733200  0.14388700  0.44397800  1
  C  C15  1  0.49619600  0.92904900  0.71281700  1
  C  C16  1  0.85611300  0.25266800  0.05602200  1
  C  C17  1  0.18829700  0.61526300  0.37638900  1
  C  C18  1  0.74853200  0.64977700  0.77962600  1
  C  C19  1  0.04333100  0.97349400  0.12060200  1
  C  C20  1  0.38640200  0.30695300  0.43811600  1
  C  C21  1  0.35022300  0.25146800  0.72037400  1
  C  C22  1  0.69304700  0.61359800  0.06188400  1
  C  C23  1  0.02650600  0.95666900  0.37939800  1
  C  C24  1  0.61526300  0.18829700  0.87638900  1
  C  C25  1  0.92904900  0.49619600  0.21281700  1
  C  C26  1  0.25266800  0.85611300  0.55602200  1
  C  C27  1  0.14388700  0.74733200  0.94397800  1
  C  C28  1  0.50380400  0.07095100  0.28718300  1
  C  C29  1  0.81170300  0.38473700  0.62361100  1
  C  C30  1  0.95666900  0.02650600  0.87939800  1
  C  C31  1  0.25146800  0.35022300  0.22037400  1
  C  C32  1  0.61359800  0.69304700  0.56188400  1
  C  C33  1  0.30695300  0.38640200  0.93811600  1
  C  C34  1  0.64977700  0.74853200  0.27962600  1
  C  C35  1  0.97349400  0.04333100  0.62060200  1
