# generated using pymatgen
data_CuNi4C3
_symmetry_space_group_name_H-M   'P 1'
_cell_length_a   6.73968800
_cell_length_b   8.94933400
_cell_length_c   14.24180400
_cell_angle_alpha   90.00000000
_cell_angle_beta   90.00000000
_cell_angle_gamma   90.00000000
_symmetry_Int_Tables_number   1
_chemical_formula_structural   CuNi4C3
_chemical_formula_sum   'Cu8 Ni32 C24'
_cell_volume   859.00464766
_cell_formula_units_Z   8
loop_
 _symmetry_equiv_pos_site_id
 _symmetry_equiv_pos_as_xyz
  1  'x, y, z'
loop_
 _atom_site_type_symbol
 _atom_site_label
 _atom_site_symmetry_multiplicity
 _atom_site_fract_x
 _atom_site_fract_y
 _atom_site_fract_z
 _atom_site_occupancy
  C  C0  1  0.52101600  0.66599900  0.90405500  1
  C  C1  1  0.02101600  0.83400100  0.59594500  1
  C  C2  1  0.47898400  0.16599900  0.59594500  1
  C  C3  1  0.97898400  0.33400100  0.90405500  1
  C  C4  1  0.47898400  0.33400100  0.09594500  1
  C  C5  1  0.97898400  0.16599900  0.40405500  1
  C  C6  1  0.52101600  0.83400100  0.40405500  1
  C  C7  1  0.02101600  0.66599900  0.09594500  1
  C  C8  1  0.75000000  0.00000000  0.04834900  1
  C  C9  1  0.25000000  0.50000000  0.45165100  1
  C  C10  1  0.25000000  0.00000000  0.95165100  1
  C  C11  1  0.75000000  0.50000000  0.54834900  1
  C  C12  1  0.75000000  0.00000000  0.80484600  1
  C  C13  1  0.25000000  0.50000000  0.69515400  1
  C  C14  1  0.25000000  0.00000000  0.19515400  1
  C  C15  1  0.75000000  0.50000000  0.30484600  1
  C  C16  1  0.00379100  0.69323400  0.85637700  1
  C  C17  1  0.50379100  0.80676600  0.64362300  1
  C  C18  1  0.99620900  0.19323400  0.64362300  1
  C  C19  1  0.49620900  0.30676600  0.85637700  1
  C  C20  1  0.99620900  0.30676600  0.14362300  1
  C  C21  1  0.49620900  0.19323400  0.35637700  1
  C  C22  1  0.00379100  0.80676600  0.35637700  1
  C  C23  1  0.50379100  0.69323400  0.14362300  1
  Ni  Ni24  1  0.44783600  0.44293300  0.79728600  1
  Ni  Ni25  1  0.94783600  0.05706700  0.70271400  1
  Ni  Ni26  1  0.55216400  0.94293300  0.70271400  1
  Ni  Ni27  1  0.05216400  0.55706700  0.79728600  1
  Ni  Ni28  1  0.55216400  0.55706700  0.20271400  1
  Ni  Ni29  1  0.05216400  0.94293300  0.29728600  1
  Ni  Ni30  1  0.44783600  0.05706700  0.29728600  1
  Ni  Ni31  1  0.94783600  0.44293300  0.20271400  1
  Ni  Ni32  1  0.18642300  0.76656900  0.88819300  1
  Ni  Ni33  1  0.68642300  0.73343100  0.61180700  1
  Ni  Ni34  1  0.81357700  0.26656900  0.61180700  1
  Ni  Ni35  1  0.31357700  0.23343100  0.88819300  1
  Ni  Ni36  1  0.81357700  0.23343100  0.11180700  1
  Ni  Ni37  1  0.31357700  0.26656900  0.38819300  1
  Ni  Ni38  1  0.18642300  0.73343100  0.38819300  1
  Ni  Ni39  1  0.68642300  0.76656900  0.11180700  1
  Ni  Ni40  1  0.88082000  0.63966700  0.93523000  1
  Ni  Ni41  1  0.38082000  0.86033300  0.56477000  1
  Ni  Ni42  1  0.11918000  0.13966700  0.56477000  1
  Ni  Ni43  1  0.61918000  0.36033300  0.93523000  1
  Ni  Ni44  1  0.11918000  0.36033300  0.06477000  1
  Ni  Ni45  1  0.61918000  0.13966700  0.43523000  1
  Ni  Ni46  1  0.88082000  0.86033300  0.43523000  1
  Ni  Ni47  1  0.38082000  0.63966700  0.06477000  1
  Ni  Ni48  1  0.38457800  0.70515400  0.70634100  1
  Ni  Ni49  1  0.88457800  0.79484600  0.79365900  1
  Ni  Ni50  1  0.61542200  0.20515400  0.79365900  1
  Ni  Ni51  1  0.11542200  0.29484600  0.70634100  1
  Ni  Ni52  1  0.61542200  0.29484600  0.29365900  1
  Ni  Ni53  1  0.11542200  0.20515400  0.20634100  1
  Ni  Ni54  1  0.38457800  0.79484600  0.20634100  1
  Ni  Ni55  1  0.88457800  0.70515400  0.29365900  1
  Cu  Cu56  1  0.57673000  0.92791500  0.90446300  1
  Cu  Cu57  1  0.07673000  0.57208500  0.59553700  1
  Cu  Cu58  1  0.42327000  0.42791500  0.59553700  1
  Cu  Cu59  1  0.92327000  0.07208500  0.90446300  1
  Cu  Cu60  1  0.42327000  0.07208500  0.09553700  1
  Cu  Cu61  1  0.92327000  0.42791500  0.40446300  1
  Cu  Cu62  1  0.57673000  0.57208500  0.40446300  1
  Cu  Cu63  1  0.07673000  0.92791500  0.09553700  1
