# generated using pymatgen
data_CuNiC7
_symmetry_space_group_name_H-M   'P 1'
_cell_length_a   6.09722881
_cell_length_b   6.09722881
_cell_length_c   8.27705559
_cell_angle_alpha   47.71876065
_cell_angle_beta   47.71876065
_cell_angle_gamma   32.02572997
_symmetry_Int_Tables_number   1
_chemical_formula_structural   CuNiC7
_chemical_formula_sum   'Cu1 Ni1 C7'
_cell_volume   116.54421921
_cell_formula_units_Z   1
loop_
 _symmetry_equiv_pos_site_id
 _symmetry_equiv_pos_as_xyz
  1  'x, y, z'
loop_
 _atom_site_type_symbol
 _atom_site_label
 _atom_site_symmetry_multiplicity
 _atom_site_fract_x
 _atom_site_fract_y
 _atom_site_fract_z
 _atom_site_occupancy
  Ni  Ni0  1  0.99504400  0.99504400  0.00365100  1
  Cu  Cu1  1  0.18005300  0.18005300  0.18738400  1
  C  C2  1  0.80309400  0.80309400  0.83882800  1
  C  C3  1  0.63008200  0.63008200  0.54070900  1
  C  C4  1  0.37730400  0.37730400  0.43895500  1
  C  C5  1  0.23485700  0.23485700  0.36819500  1
  C  C6  1  0.77332900  0.77332900  0.62983800  1
  C  C7  1  0.40449000  0.40449000  0.82329500  1
  C  C8  1  0.60174700  0.60174700  0.16914600  1
