# generated using pymatgen
data_CuNi6C
_symmetry_space_group_name_H-M   'P 1'
_cell_length_a   5.09293300
_cell_length_b   6.22348200
_cell_length_c   11.77375700
_cell_angle_alpha   90.00000000
_cell_angle_beta   90.00000000
_cell_angle_gamma   90.00000000
_symmetry_Int_Tables_number   1
_chemical_formula_structural   CuNi6C
_chemical_formula_sum   'Cu2 Ni12 C2'
_cell_volume   373.17837459
_cell_formula_units_Z   2
loop_
 _symmetry_equiv_pos_site_id
 _symmetry_equiv_pos_as_xyz
  1  'x, y, z'
loop_
 _atom_site_type_symbol
 _atom_site_label
 _atom_site_symmetry_multiplicity
 _atom_site_fract_x
 _atom_site_fract_y
 _atom_site_fract_z
 _atom_site_occupancy
  C  C0  1  0.50000000  0.50000000  0.17860900  1
  C  C1  1  0.50000000  0.00000000  0.67860900  1
  Ni  Ni2  1  0.50000000  0.24790100  0.42551200  1
  Ni  Ni3  1  0.50000000  0.75209900  0.42551200  1
  Ni  Ni4  1  0.00000000  0.75202500  0.07713700  1
  Ni  Ni5  1  0.00000000  0.24797500  0.07713700  1
  Ni  Ni6  1  0.00000000  0.00000000  0.31637700  1
  Ni  Ni7  1  0.00000000  0.50000000  0.33940200  1
  Ni  Ni8  1  0.50000000  0.74790100  0.92551200  1
  Ni  Ni9  1  0.50000000  0.25209900  0.92551200  1
  Ni  Ni10  1  0.00000000  0.25202500  0.57713700  1
  Ni  Ni11  1  0.00000000  0.74797500  0.57713700  1
  Ni  Ni12  1  0.00000000  0.50000000  0.81637700  1
  Ni  Ni13  1  0.00000000  0.00000000  0.83940200  1
  Cu  Cu14  1  0.50000000  0.00000000  0.16031100  1
  Cu  Cu15  1  0.50000000  0.50000000  0.66031100  1
