# generated using pymatgen
data_Cu3(Ni3C8)2
_symmetry_space_group_name_H-M   'P 1'
_cell_length_a   5.69863776
_cell_length_b   5.69863776
_cell_length_c   8.07204000
_cell_angle_alpha   90.00000000
_cell_angle_beta   90.00000000
_cell_angle_gamma   119.99999724
_symmetry_Int_Tables_number   1
_chemical_formula_structural   Cu3(Ni3C8)2
_chemical_formula_sum   'Cu3 Ni6 C16'
_cell_volume   227.01578314
_cell_formula_units_Z   1
loop_
 _symmetry_equiv_pos_site_id
 _symmetry_equiv_pos_as_xyz
  1  'x, y, z'
loop_
 _atom_site_type_symbol
 _atom_site_label
 _atom_site_symmetry_multiplicity
 _atom_site_fract_x
 _atom_site_fract_y
 _atom_site_fract_z
 _atom_site_occupancy
  C  C0  1  0.37841700  0.08272600  0.09100700  1
  C  C1  1  0.70430800  0.62158300  0.09100700  1
  C  C2  1  0.91727400  0.29569200  0.09100700  1
  C  C3  1  0.62158300  0.91727400  0.90899300  1
  C  C4  1  0.29569200  0.37841700  0.90899300  1
  C  C5  1  0.08272600  0.70430800  0.90899300  1
  C  C6  1  0.04291500  0.35275800  0.58917700  1
  C  C7  1  0.30984300  0.95708500  0.58917700  1
  C  C8  1  0.64724200  0.69015700  0.58917700  1
  C  C9  1  0.95708500  0.64724200  0.41082300  1
  C  C10  1  0.69015700  0.04291500  0.41082300  1
  C  C11  1  0.35275800  0.30984300  0.41082300  1
  C  C12  1  0.00000000  0.00000000  0.24969900  1
  C  C13  1  0.00000000  0.00000000  0.75030100  1
  C  C14  1  0.66666700  0.33333300  0.77408900  1
  C  C15  1  0.33333300  0.66666700  0.22591100  1
  Ni  Ni16  1  0.37685500  0.07128100  0.82580100  1
  Ni  Ni17  1  0.69442500  0.62314500  0.82580100  1
  Ni  Ni18  1  0.92871900  0.30557500  0.82580100  1
  Ni  Ni19  1  0.62314500  0.92871900  0.17419900  1
  Ni  Ni20  1  0.30557500  0.37685500  0.17419900  1
  Ni  Ni21  1  0.07128100  0.69442500  0.17419900  1
  Cu  Cu22  1  0.66666700  0.33333300  0.55364600  1
  Cu  Cu23  1  0.33333300  0.66666700  0.44635400  1
  Cu  Cu24  1  0.00000000  0.00000000  0.50000000  1
