# generated using pymatgen
data_Cu8NiC
_symmetry_space_group_name_H-M   'P 1'
_cell_length_a   13.12051800
_cell_length_b   5.65685700
_cell_length_c   9.15330265
_cell_angle_alpha   53.44659431
_cell_angle_beta   90.00000000
_cell_angle_gamma   90.00000000
_symmetry_Int_Tables_number   1
_chemical_formula_structural   Cu8NiC
_chemical_formula_sum   'Cu32 Ni4 C4'
_cell_volume   545.73636288
_cell_formula_units_Z   4
loop_
 _symmetry_equiv_pos_site_id
 _symmetry_equiv_pos_as_xyz
  1  'x, y, z'
loop_
 _atom_site_type_symbol
 _atom_site_label
 _atom_site_symmetry_multiplicity
 _atom_site_fract_x
 _atom_site_fract_y
 _atom_site_fract_z
 _atom_site_occupancy
  C  C0  1  0.38961200  0.85676100  0.22910600  1
  C  C1  1  0.61038800  0.14323900  0.77089400  1
  C  C2  1  0.88961200  0.14323900  0.27089400  1
  C  C3  1  0.11038800  0.85676100  0.72910600  1
  Ni  Ni4  1  0.61246300  0.62596200  0.17943400  1
  Ni  Ni5  1  0.38753700  0.37403800  0.82056600  1
  Ni  Ni6  1  0.11246300  0.37403800  0.32056600  1
  Ni  Ni7  1  0.88753700  0.62596200  0.67943400  1
  Cu  Cu8  1  0.87374100  0.53370700  0.09608400  1
  Cu  Cu9  1  0.12625900  0.46629300  0.90391600  1
  Cu  Cu10  1  0.37374100  0.46629300  0.40391600  1
  Cu  Cu11  1  0.62625900  0.53370700  0.59608400  1
  Cu  Cu12  1  0.36631900  0.68382100  0.12132200  1
  Cu  Cu13  1  0.63368100  0.31617900  0.87867800  1
  Cu  Cu14  1  0.86631900  0.31617900  0.37867800  1
  Cu  Cu15  1  0.13368100  0.68382100  0.62132200  1
  Cu  Cu16  1  0.60227100  0.30291400  0.28582100  1
  Cu  Cu17  1  0.39772900  0.69708600  0.71417900  1
  Cu  Cu18  1  0.10227100  0.69708600  0.21417900  1
  Cu  Cu19  1  0.89772900  0.30291400  0.78582100  1
  Cu  Cu20  1  0.24809600  0.97967200  0.21174200  1
  Cu  Cu21  1  0.75190400  0.02032800  0.78825800  1
  Cu  Cu22  1  0.74809600  0.02032800  0.28825800  1
  Cu  Cu23  1  0.25190400  0.97967200  0.71174200  1
  Cu  Cu24  1  0.91624100  0.01052800  0.14400900  1
  Cu  Cu25  1  0.08375900  0.98947200  0.85599100  1
  Cu  Cu26  1  0.41624100  0.98947200  0.35599100  1
  Cu  Cu27  1  0.58375900  0.01052800  0.64400900  1
  Cu  Cu28  1  0.72015800  0.71016900  0.17640800  1
  Cu  Cu29  1  0.27984200  0.28983100  0.82359200  1
  Cu  Cu30  1  0.22015800  0.28983100  0.32359200  1
  Cu  Cu31  1  0.77984200  0.71016900  0.67640800  1
  Cu  Cu32  1  0.54938600  0.73918100  0.26110900  1
  Cu  Cu33  1  0.45061400  0.26081900  0.73889100  1
  Cu  Cu34  1  0.04938600  0.26081900  0.23889100  1
  Cu  Cu35  1  0.95061400  0.73918100  0.76110900  1
  Cu  Cu36  1  0.57467200  0.75531700  0.98954900  1
  Cu  Cu37  1  0.42532800  0.24468300  0.01045100  1
  Cu  Cu38  1  0.07467200  0.24468300  0.51045100  1
  Cu  Cu39  1  0.92532800  0.75531700  0.48954900  1
