# generated using pymatgen
data_CuNiC5
_symmetry_space_group_name_H-M   'P 1'
_cell_length_a   6.92515491
_cell_length_b   6.92515491
_cell_length_c   6.92515491
_cell_angle_alpha   128.26632307
_cell_angle_beta   128.26632307
_cell_angle_gamma   76.19399085
_symmetry_Int_Tables_number   1
_chemical_formula_structural   CuNiC5
_chemical_formula_sum   'Cu1 Ni1 C5'
_cell_volume   198.99306443
_cell_formula_units_Z   1
loop_
 _symmetry_equiv_pos_site_id
 _symmetry_equiv_pos_as_xyz
  1  'x, y, z'
loop_
 _atom_site_type_symbol
 _atom_site_label
 _atom_site_symmetry_multiplicity
 _atom_site_fract_x
 _atom_site_fract_y
 _atom_site_fract_z
 _atom_site_occupancy
  C  C0  1  0.75000000  0.25000000  0.50000000  1
  Ni  Ni1  1  0.25000000  0.75000000  0.50000000  1
  Cu  Cu2  1  0.50000000  0.50000000  0.00000000  1
  C  C3  1  0.65991500  0.62585900  0.52290000  1
  C  C4  1  0.10295900  0.13701500  0.47710000  1
  C  C5  1  0.37414100  0.89704100  0.03405600  1
  C  C6  1  0.86298500  0.34008500  0.96594400  1
