# generated using pymatgen
data_Cu3NiC10
_symmetry_space_group_name_H-M   'P 1'
_cell_length_a   7.61904430
_cell_length_b   7.61904430
_cell_length_c   9.42113100
_cell_angle_alpha   90.00000000
_cell_angle_beta   90.00000000
_cell_angle_gamma   120.00000258
_symmetry_Int_Tables_number   1
_chemical_formula_structural   Cu3NiC10
_chemical_formula_sum   'Cu9 Ni3 C30'
_cell_volume   473.62504574
_cell_formula_units_Z   3
loop_
 _symmetry_equiv_pos_site_id
 _symmetry_equiv_pos_as_xyz
  1  'x, y, z'
loop_
 _atom_site_type_symbol
 _atom_site_label
 _atom_site_symmetry_multiplicity
 _atom_site_fract_x
 _atom_site_fract_y
 _atom_site_fract_z
 _atom_site_occupancy
  Ni  Ni0  1  0.33333300  0.66666700  0.36038600  1
  Ni  Ni1  1  0.66666700  0.33333300  0.63961400  1
  Ni  Ni2  1  0.00000000  0.00000000  0.00000000  1
  C  C3  1  0.33987600  0.00000000  0.50000000  1
  C  C4  1  0.66012400  0.00000000  0.50000000  1
  C  C5  1  0.00000000  0.33987600  0.50000000  1
  C  C6  1  0.00000000  0.66012400  0.50000000  1
  C  C7  1  0.66012400  0.66012400  0.50000000  1
  C  C8  1  0.33987600  0.33987600  0.50000000  1
  C  C9  1  0.00000000  0.00000000  0.38011600  1
  C  C10  1  0.00000000  0.00000000  0.61988400  1
  C  C11  1  0.81494600  0.18505400  0.06754500  1
  C  C12  1  0.18505400  0.81494600  0.93245500  1
  C  C13  1  0.81494600  0.62989200  0.06754500  1
  C  C14  1  0.18505400  0.37010800  0.93245500  1
  C  C15  1  0.37010800  0.18505400  0.06754500  1
  C  C16  1  0.62989200  0.81494600  0.93245500  1
  C  C17  1  0.33333300  0.66666700  0.10111500  1
  C  C18  1  0.66666700  0.33333300  0.89888500  1
  C  C19  1  0.50598100  0.49401900  0.24352800  1
  C  C20  1  0.49401900  0.50598100  0.75647200  1
  C  C21  1  0.50598100  0.01196100  0.24352800  1
  C  C22  1  0.49401900  0.98803900  0.75647200  1
  C  C23  1  0.98803900  0.49401900  0.24352800  1
  C  C24  1  0.01196100  0.50598100  0.75647200  1
  C  C25  1  0.33333300  0.66666700  0.61019700  1
  C  C26  1  0.66666700  0.33333300  0.38980300  1
  C  C27  1  0.13539900  0.86460100  0.19914700  1
  C  C28  1  0.86460100  0.13539900  0.80085300  1
  C  C29  1  0.13539900  0.27079700  0.19914700  1
  C  C30  1  0.86460100  0.72920300  0.80085300  1
  C  C31  1  0.72920300  0.86460100  0.19914700  1
  C  C32  1  0.27079700  0.13539900  0.80085300  1
  Cu  Cu33  1  0.50000000  0.00000000  0.00000000  1
  Cu  Cu34  1  0.00000000  0.50000000  0.00000000  1
  Cu  Cu35  1  0.50000000  0.50000000  0.00000000  1
  Cu  Cu36  1  0.83456800  0.16543200  0.30909600  1
  Cu  Cu37  1  0.16543200  0.83456800  0.69090400  1
  Cu  Cu38  1  0.83456800  0.66913700  0.30909600  1
  Cu  Cu39  1  0.16543200  0.33086300  0.69090400  1
  Cu  Cu40  1  0.33086300  0.16543200  0.30909600  1
  Cu  Cu41  1  0.66913700  0.83456800  0.69090400  1
