# generated using pymatgen
data_CuNi7
_symmetry_space_group_name_H-M   'P 1'
_cell_length_a   6.91340000
_cell_length_b   9.81824800
_cell_length_c   12.64510961
_cell_angle_alpha   57.32657938
_cell_angle_beta   90.00000000
_cell_angle_gamma   90.00000000
_symmetry_Int_Tables_number   1
_chemical_formula_structural   CuNi7
_chemical_formula_sum   'Cu4 Ni28'
_cell_volume   722.49898350
_cell_formula_units_Z   4
loop_
 _symmetry_equiv_pos_site_id
 _symmetry_equiv_pos_as_xyz
  1  'x, y, z'
loop_
 _atom_site_type_symbol
 _atom_site_label
 _atom_site_symmetry_multiplicity
 _atom_site_fract_x
 _atom_site_fract_y
 _atom_site_fract_z
 _atom_site_occupancy
  Ni  Ni0  1  0.62068600  0.91370400  0.63612600  1
  Ni  Ni1  1  0.12068600  0.08629600  0.86387400  1
  Ni  Ni2  1  0.37931400  0.08629600  0.36387400  1
  Ni  Ni3  1  0.87931400  0.91370400  0.13612600  1
  Ni  Ni4  1  0.58063000  0.89904200  0.91186000  1
  Ni  Ni5  1  0.08063000  0.10095800  0.58814000  1
  Ni  Ni6  1  0.41937000  0.10095800  0.08814000  1
  Ni  Ni7  1  0.91937000  0.89904200  0.41186000  1
  Ni  Ni8  1  0.92758800  0.86187900  0.70213000  1
  Ni  Ni9  1  0.42758800  0.13812100  0.79787000  1
  Ni  Ni10  1  0.07241200  0.13812100  0.29787000  1
  Ni  Ni11  1  0.57241200  0.86187900  0.20213000  1
  Ni  Ni12  1  0.07417700  0.76529700  0.59867600  1
  Ni  Ni13  1  0.57417700  0.23470300  0.90132400  1
  Ni  Ni14  1  0.92582300  0.23470300  0.40132400  1
  Ni  Ni15  1  0.42582300  0.76529700  0.09867600  1
  Ni  Ni16  1  0.58599400  0.55100700  0.91221500  1
  Ni  Ni17  1  0.08599400  0.44899300  0.58778500  1
  Ni  Ni18  1  0.41400600  0.44899300  0.08778500  1
  Ni  Ni19  1  0.91400600  0.55100700  0.41221500  1
  Ni  Ni20  1  0.90235400  0.54125800  0.68030200  1
  Ni  Ni21  1  0.40235400  0.45874200  0.81969800  1
  Ni  Ni22  1  0.09764600  0.45874200  0.31969800  1
  Ni  Ni23  1  0.59764600  0.54125800  0.18030200  1
  Ni  Ni24  1  0.94509700  0.20609700  0.68988000  1
  Ni  Ni25  1  0.44509700  0.79390300  0.81012000  1
  Ni  Ni26  1  0.05490300  0.79390300  0.31012000  1
  Ni  Ni27  1  0.55490300  0.20609700  0.18988000  1
  Cu  Cu28  1  0.52143300  0.70009500  0.55557700  1
  Cu  Cu29  1  0.02143300  0.29990500  0.94442300  1
  Cu  Cu30  1  0.47856700  0.29990500  0.44442300  1
  Cu  Cu31  1  0.97856700  0.70009500  0.05557700  1
