# generated using pymatgen
data_CuNi2C7
_symmetry_space_group_name_H-M   'P 1'
_cell_length_a   8.86788591
_cell_length_b   8.86788591
_cell_length_c   8.86788591
_cell_angle_alpha   90.00000000
_cell_angle_beta   90.00000000
_cell_angle_gamma   90.00000000
_symmetry_Int_Tables_number   1
_chemical_formula_structural   CuNi2C7
_chemical_formula_sum   'Cu4 Ni8 C28'
_cell_volume   697.36523178
_cell_formula_units_Z   4
loop_
 _symmetry_equiv_pos_site_id
 _symmetry_equiv_pos_as_xyz
  1  'x, y, z'
loop_
 _atom_site_type_symbol
 _atom_site_label
 _atom_site_symmetry_multiplicity
 _atom_site_fract_x
 _atom_site_fract_y
 _atom_site_fract_z
 _atom_site_occupancy
  Ni  Ni0  1  0.50000000  0.50000000  0.50000000  1
  Ni  Ni1  1  -0.00000000  0.00000000  -0.00000000  1
  Ni  Ni2  1  -0.00000000  0.00000000  0.50000000  1
  Ni  Ni3  1  -0.00000000  0.50000000  -0.00000000  1
  Ni  Ni4  1  0.50000000  0.00000000  -0.00000000  1
  Ni  Ni5  1  0.50000000  0.50000000  -0.00000000  1
  Ni  Ni6  1  0.50000000  0.00000000  0.50000000  1
  Ni  Ni7  1  -0.00000000  0.50000000  0.50000000  1
  Cu  Cu8  1  0.25000000  0.25000000  0.25000000  1
  Cu  Cu9  1  0.25000000  0.75000000  0.75000000  1
  Cu  Cu10  1  0.75000000  0.25000000  0.75000000  1
  Cu  Cu11  1  0.75000000  0.75000000  0.25000000  1
  C  C12  1  0.75000000  0.75000000  0.75000000  1
  C  C13  1  0.75000000  0.25000000  0.25000000  1
  C  C14  1  0.25000000  0.75000000  0.25000000  1
  C  C15  1  0.25000000  0.25000000  0.75000000  1
  C  C16  1  0.22460396  0.27870664  0.50226728  1
  C  C17  1  0.22460396  0.72129336  0.49773272  1
  C  C18  1  0.77539604  0.27870664  0.49773272  1
  C  C19  1  0.77539604  0.72129336  0.50226728  1
  C  C20  1  0.27870664  0.50226728  0.22460396  1
  C  C21  1  0.72129336  0.49773272  0.22460396  1
  C  C22  1  0.27870664  0.49773272  0.77539604  1
  C  C23  1  0.72129336  0.50226728  0.77539604  1
  C  C24  1  0.50226728  0.22460396  0.27870664  1
  C  C25  1  0.49773272  0.22460396  0.72129336  1
  C  C26  1  0.49773272  0.77539604  0.27870664  1
  C  C27  1  0.50226728  0.77539604  0.72129336  1
  C  C28  1  0.27539604  0.22129336  0.99773272  1
  C  C29  1  0.27539604  0.77870664  0.00226728  1
  C  C30  1  0.72460396  0.22129336  0.00226728  1
  C  C31  1  0.72460396  0.77870664  0.99773272  1
  C  C32  1  0.22129336  0.99773272  0.27539604  1
  C  C33  1  0.77870664  0.00226728  0.27539604  1
  C  C34  1  0.22129336  0.00226728  0.72460396  1
  C  C35  1  0.77870664  0.99773272  0.72460396  1
  C  C36  1  0.99773272  0.27539604  0.22129336  1
  C  C37  1  0.00226728  0.27539604  0.77870664  1
  C  C38  1  0.00226728  0.72460396  0.22129336  1
  C  C39  1  0.99773272  0.72460396  0.77870664  1
