# generated using pymatgen
data_Cu6NiC5
_symmetry_space_group_name_H-M   'P 1'
_cell_length_a   6.29353700
_cell_length_b   6.60227100
_cell_length_c   18.79274200
_cell_angle_alpha   90.00000000
_cell_angle_beta   90.00000000
_cell_angle_gamma   90.00000000
_symmetry_Int_Tables_number   1
_chemical_formula_structural   Cu6NiC5
_chemical_formula_sum   'Cu24 Ni4 C20'
_cell_volume   780.86919048
_cell_formula_units_Z   4
loop_
 _symmetry_equiv_pos_site_id
 _symmetry_equiv_pos_as_xyz
  1  'x, y, z'
loop_
 _atom_site_type_symbol
 _atom_site_label
 _atom_site_symmetry_multiplicity
 _atom_site_fract_x
 _atom_site_fract_y
 _atom_site_fract_z
 _atom_site_occupancy
  C  C0  1  0.49094500  0.25015600  0.21619800  1
  C  C1  1  0.50905500  0.75015600  0.28380200  1
  C  C2  1  0.00905500  0.74984400  0.71619800  1
  C  C3  1  0.99094500  0.24984400  0.78380200  1
  C  C4  1  0.73431200  0.19332100  0.49912000  1
  C  C5  1  0.26568800  0.69332100  0.00088000  1
  C  C6  1  0.76568800  0.80667900  0.99912000  1
  C  C7  1  0.23431200  0.30667900  0.50088000  1
  C  C8  1  0.83805700  0.01249800  0.35849900  1
  C  C9  1  0.16194300  0.51249800  0.14150100  1
  C  C10  1  0.66194300  0.98750200  0.85849900  1
  C  C11  1  0.33805700  0.48750200  0.64150100  1
  C  C12  1  0.97017300  0.44989900  0.65212400  1
  C  C13  1  0.02982700  0.94989900  0.84787600  1
  C  C14  1  0.52982700  0.55010100  0.15212400  1
  C  C15  1  0.47017300  0.05010100  0.34787600  1
  C  C16  1  0.98883100  0.45115600  0.99326300  1
  C  C17  1  0.01116900  0.95115600  0.50673700  1
  C  C18  1  0.51116900  0.54884400  0.49326300  1
  C  C19  1  0.48883100  0.04884400  0.00673700  1
  Ni  Ni20  1  0.49174500  0.97608500  0.67136900  1
  Ni  Ni21  1  0.50825500  0.47608500  0.82863100  1
  Ni  Ni22  1  0.00825500  0.02391500  0.17136900  1
  Ni  Ni23  1  0.99174500  0.52391500  0.32863100  1
  Cu  Cu24  1  0.24111700  0.42504600  0.67797800  1
  Cu  Cu25  1  0.75888400  0.92504600  0.82202200  1
  Cu  Cu26  1  0.25888300  0.57495400  0.17797800  1
  Cu  Cu27  1  0.74111600  0.07495400  0.32202200  1
  Cu  Cu28  1  0.93210800  0.71041600  0.66967200  1
  Cu  Cu29  1  0.06789200  0.21041600  0.83032800  1
  Cu  Cu30  1  0.56789200  0.28958400  0.16967200  1
  Cu  Cu31  1  0.43210800  0.78958400  0.33032800  1
  Cu  Cu32  1  0.24490800  0.54968000  0.97648600  1
  Cu  Cu33  1  0.75509200  0.04968000  0.52351400  1
  Cu  Cu34  1  0.25509200  0.45032000  0.47648600  1
  Cu  Cu35  1  0.74490800  0.95032000  0.02351400  1
  Cu  Cu36  1  0.81294200  0.62342900  0.96145000  1
  Cu  Cu37  1  0.18705800  0.12342900  0.53855000  1
  Cu  Cu38  1  0.68705800  0.37657100  0.46145000  1
  Cu  Cu39  1  0.31294200  0.87657100  0.03855000  1
  Cu  Cu40  1  0.96650900  0.44141200  0.08239300  1
  Cu  Cu41  1  0.03349100  0.94141200  0.41760700  1
  Cu  Cu42  1  0.53349100  0.55858800  0.58239300  1
  Cu  Cu43  1  0.46650900  0.05858800  0.91760700  1
  Cu  Cu44  1  0.86009200  0.31563800  0.71720900  1
  Cu  Cu45  1  0.13990800  0.81563800  0.78279100  1
  Cu  Cu46  1  0.63990800  0.68436200  0.21720900  1
  Cu  Cu47  1  0.36009200  0.18436200  0.28279100  1
