# generated using pymatgen
data_Cu3NiC12
_symmetry_space_group_name_H-M   'P 1'
_cell_length_a   5.97765188
_cell_length_b   5.99162674
_cell_length_c   8.48257025
_cell_angle_alpha   89.97869072
_cell_angle_beta   90.01394139
_cell_angle_gamma   90.25927934
_symmetry_Int_Tables_number   1
_chemical_formula_structural   Cu3NiC12
_chemical_formula_sum   'Cu6 Ni2 C24'
_cell_volume   303.80739800
_cell_formula_units_Z   2
loop_
 _symmetry_equiv_pos_site_id
 _symmetry_equiv_pos_as_xyz
  1  'x, y, z'
loop_
 _atom_site_type_symbol
 _atom_site_label
 _atom_site_symmetry_multiplicity
 _atom_site_fract_x
 _atom_site_fract_y
 _atom_site_fract_z
 _atom_site_occupancy
  C  C0  1  0.24676400  0.25156500  0.24955200  1
  C  C1  1  0.00000400  0.99999700  0.49999200  1
  C  C2  1  0.50000700  0.50000000  0.99999100  1
  C  C3  1  0.74392500  0.24854800  0.24930100  1
  C  C4  1  0.50000400  0.00001600  0.49997900  1
  C  C5  1  0.00000800  0.50001200  0.99997000  1
  C  C6  1  0.25610400  0.75146400  0.75067400  1
  C  C7  1  0.75323100  0.74844600  0.75043000  1
  Ni  Ni8  1  0.99999700  0.00000100  0.99999400  1
  Ni  Ni9  1  0.50000100  0.50000900  0.49999500  1
  Cu  Cu10  1  0.49998200  0.00001300  0.99997200  1
  Cu  Cu11  1  0.00000400  0.49999900  0.49999100  1
  Cu  Cu12  1  0.25140800  0.25040500  0.74979800  1
  Cu  Cu13  1  0.74860300  0.74958800  0.25018200  1
  Cu  Cu14  1  0.25245900  0.74947200  0.24840200  1
  Cu  Cu15  1  0.74752700  0.25052000  0.75159900  1
  C  C16  1  0.23288300  0.76060800  0.00947600  1
  C  C17  1  0.99820800  0.51542700  0.26052500  1
  C  C18  1  0.99938500  0.01113300  0.76118000  1
  C  C19  1  0.25056900  0.26594600  0.50725800  1
  C  C20  1  0.49993900  0.51548500  0.24985500  1
  C  C21  1  0.77696900  0.76696300  0.00674600  1
  C  C22  1  0.50174300  0.98104000  0.24723900  1
  C  C23  1  0.25260000  0.73321800  0.49242900  1
  C  C24  1  0.74740800  0.26678500  0.50754900  1
  C  C25  1  0.49826100  0.01896700  0.75275100  1
  C  C26  1  0.22303300  0.23305400  0.99323600  1
  C  C27  1  0.50006900  0.48451600  0.75012600  1
  C  C28  1  0.74944100  0.73405800  0.49272000  1
  C  C29  1  0.00062500  0.98886800  0.23880100  1
  C  C30  1  0.00180100  0.48457600  0.73945700  1
  C  C31  1  0.76712000  0.23939500  0.99050600  1
