# generated using pymatgen
data_Cu3(NiC7)2
_symmetry_space_group_name_H-M   'P 1'
_cell_length_a   4.03626500
_cell_length_b   4.05616063
_cell_length_c   20.77341066
_cell_angle_alpha   95.40080852
_cell_angle_beta   95.15701614
_cell_angle_gamma   90.03198040
_symmetry_Int_Tables_number   1
_chemical_formula_structural   Cu3(NiC7)2
_chemical_formula_sum   'Cu3 Ni2 C14'
_cell_volume   337.20253659
_cell_formula_units_Z   1
loop_
 _symmetry_equiv_pos_site_id
 _symmetry_equiv_pos_as_xyz
  1  'x, y, z'
loop_
 _atom_site_type_symbol
 _atom_site_label
 _atom_site_symmetry_multiplicity
 _atom_site_fract_x
 _atom_site_fract_y
 _atom_site_fract_z
 _atom_site_occupancy
  C  C0  1  0.93415800  0.84584900  0.67597500  1
  C  C1  1  0.24220900  0.15174400  0.31795900  1
  C  C2  1  0.12675500  0.04445400  0.09898400  1
  C  C3  1  0.02635500  0.96232500  0.91356100  1
  Ni  Ni4  1  0.27287500  0.27826400  0.54829500  1
  Ni  Ni5  1  0.76322500  0.72598600  0.45035200  1
  Cu  Cu6  1  0.67079300  0.58753500  0.18809600  1
  Cu  Cu7  1  0.47425800  0.41399500  0.81115500  1
  Cu  Cu8  1  0.58274200  0.51074500  0.02313400  1
  C  C9  1  0.65662900  0.07500500  0.16212100  1
  C  C10  1  0.72323600  0.63373200  0.28432900  1
  C  C11  1  0.15755000  0.57438700  0.16099700  1
  C  C12  1  0.22371700  0.21899000  0.43159200  1
  C  C13  1  0.06348700  0.49429400  0.98721100  1
  C  C14  1  0.98787700  0.42839400  0.84187900  1
  C  C15  1  0.43603400  0.36715000  0.71474000  1
  C  C16  1  0.48623000  0.92869100  0.84150600  1
  C  C17  1  0.61388900  0.79086500  0.56878100  1
  C  C18  1  0.55689100  0.99459300  0.98836900  1
