# generated using pymatgen
data_Cu2NiC4
_symmetry_space_group_name_H-M   'P 1'
_cell_length_a   7.88950628
_cell_length_b   7.88950628
_cell_length_c   7.88950663
_cell_angle_alpha   108.14863286
_cell_angle_beta   108.14863286
_cell_angle_gamma   108.14862743
_symmetry_Int_Tables_number   1
_chemical_formula_structural   Cu2NiC4
_chemical_formula_sum   'Cu12 Ni6 C24'
_cell_volume   395.45980567
_cell_formula_units_Z   6
loop_
 _symmetry_equiv_pos_site_id
 _symmetry_equiv_pos_as_xyz
  1  'x, y, z'
loop_
 _atom_site_type_symbol
 _atom_site_label
 _atom_site_symmetry_multiplicity
 _atom_site_fract_x
 _atom_site_fract_y
 _atom_site_fract_z
 _atom_site_occupancy
  Ni  Ni0  1  0.96172500  0.73237700  0.55628300  1
  Ni  Ni1  1  0.55628300  0.96172500  0.73237700  1
  Ni  Ni2  1  0.73237700  0.55628300  0.96172500  1
  Ni  Ni3  1  0.03827500  0.26762300  0.44371700  1
  Ni  Ni4  1  0.44371700  0.03827500  0.26762300  1
  Ni  Ni5  1  0.26762300  0.44371700  0.03827500  1
  Cu  Cu6  1  0.60137700  0.77722700  0.37023600  1
  Cu  Cu7  1  0.37023600  0.60137700  0.77722700  1
  Cu  Cu8  1  0.77722700  0.37023600  0.60137700  1
  Cu  Cu9  1  0.39862300  0.22277300  0.62976400  1
  Cu  Cu10  1  0.62976400  0.39862300  0.22277300  1
  Cu  Cu11  1  0.22277300  0.62976400  0.39862300  1
  Cu  Cu12  1  0.93022300  0.11336900  0.70794500  1
  Cu  Cu13  1  0.70794500  0.93022300  0.11336900  1
  Cu  Cu14  1  0.11336900  0.70794500  0.93022300  1
  Cu  Cu15  1  0.06977700  0.88663100  0.29205500  1
  Cu  Cu16  1  0.29205500  0.06977700  0.88663100  1
  Cu  Cu17  1  0.88663100  0.29205500  0.06977700  1
  C  C18  1  0.83186100  0.87533700  0.54764600  1
  C  C19  1  0.54764600  0.83186100  0.87533700  1
  C  C20  1  0.87533700  0.54764600  0.83186100  1
  C  C21  1  0.16813900  0.12466300  0.45235400  1
  C  C22  1  0.45235400  0.16813900  0.12466300  1
  C  C23  1  0.12466300  0.45235400  0.16813900  1
  C  C24  1  0.08748500  0.75146300  0.41289000  1
  C  C25  1  0.41289000  0.08748500  0.75146300  1
  C  C26  1  0.75146300  0.41289000  0.08748500  1
  C  C27  1  0.91251500  0.24853700  0.58711000  1
  C  C28  1  0.58711000  0.91251500  0.24853700  1
  C  C29  1  0.24853700  0.58711000  0.91251500  1
  C  C30  1  0.13603600  0.83604200  0.80268900  1
  C  C31  1  0.80268900  0.13603600  0.83604200  1
  C  C32  1  0.83604200  0.80268900  0.13603600  1
  C  C33  1  0.86396400  0.16395800  0.19731100  1
  C  C34  1  0.19731100  0.86396400  0.16395800  1
  C  C35  1  0.16395800  0.19731100  0.86396400  1
  C  C36  1  0.78702500  0.48064300  0.45677600  1
  C  C37  1  0.45677600  0.78702500  0.48064300  1
  C  C38  1  0.48064300  0.45677600  0.78702500  1
  C  C39  1  0.21297500  0.51935700  0.54322400  1
  C  C40  1  0.54322400  0.21297500  0.51935700  1
  C  C41  1  0.51935700  0.54322400  0.21297500  1
