# generated using pymatgen
data_Cu34Ni11C7
_symmetry_space_group_name_H-M   'P 1'
_cell_length_a   10.94382665
_cell_length_b   10.94382665
_cell_length_c   14.56616512
_cell_angle_alpha   76.79051940
_cell_angle_beta   76.79051940
_cell_angle_gamma   85.86153353
_symmetry_Int_Tables_number   1
_chemical_formula_structural   Cu34Ni11C7
_chemical_formula_sum   'Cu68 Ni22 C14'
_cell_volume   1653.08810081
_cell_formula_units_Z   2
loop_
 _symmetry_equiv_pos_site_id
 _symmetry_equiv_pos_as_xyz
  1  'x, y, z'
loop_
 _atom_site_type_symbol
 _atom_site_label
 _atom_site_symmetry_multiplicity
 _atom_site_fract_x
 _atom_site_fract_y
 _atom_site_fract_z
 _atom_site_occupancy
  C  C0  1  0.36625600  0.63374400  0.75000000  1
  C  C1  1  0.63374400  0.36625600  0.25000000  1
  C  C2  1  0.89557200  0.73428400  0.76597400  1
  C  C3  1  0.26571600  0.10442800  0.73402600  1
  C  C4  1  0.10442800  0.26571600  0.23402600  1
  C  C5  1  0.73428400  0.89557200  0.26597400  1
  C  C6  1  0.78754800  0.55758300  0.52843000  1
  C  C7  1  0.44241700  0.21245200  0.97157000  1
  C  C8  1  0.21245200  0.44241700  0.47157000  1
  C  C9  1  0.55758300  0.78754800  0.02843000  1
  C  C10  1  0.70705600  0.11094500  0.61841000  1
  C  C11  1  0.88905500  0.29294400  0.88159000  1
  C  C12  1  0.29294400  0.88905500  0.38159000  1
  C  C13  1  0.11094500  0.70705600  0.11841000  1
  Ni  Ni14  1  0.11295400  0.42799600  0.73302200  1
  Ni  Ni15  1  0.57200400  0.88704600  0.76697800  1
  Ni  Ni16  1  0.88704600  0.57200400  0.26697800  1
  Ni  Ni17  1  0.42799600  0.11295400  0.23302200  1
  Ni  Ni18  1  0.07589500  0.73583400  0.52487800  1
  Ni  Ni19  1  0.26416600  0.92410500  0.97512200  1
  Ni  Ni20  1  0.92410500  0.26416600  0.47512200  1
  Ni  Ni21  1  0.73583400  0.07589500  0.02487800  1
  Ni  Ni22  1  0.90168500  0.09831500  0.75000000  1
  Ni  Ni23  1  0.09831500  0.90168500  0.25000000  1
  Ni  Ni24  1  0.25092900  0.53309800  0.99135300  1
  Ni  Ni25  1  0.46690200  0.74907100  0.50864700  1
  Ni  Ni26  1  0.74907100  0.46690200  0.00864700  1
  Ni  Ni27  1  0.53309800  0.25092900  0.49135300  1
  Ni  Ni28  1  0.22755900  0.09186300  0.49657700  1
  Ni  Ni29  1  0.90813700  0.77244100  0.00342300  1
  Ni  Ni30  1  0.77244100  0.90813700  0.50342300  1
  Ni  Ni31  1  0.09186300  0.22755900  0.99657700  1
  Ni  Ni32  1  0.70756100  0.47295900  0.77959400  1
  Ni  Ni33  1  0.52704100  0.29243900  0.72040600  1
  Ni  Ni34  1  0.29243900  0.52704100  0.22040600  1
  Ni  Ni35  1  0.47295900  0.70756100  0.27959400  1
  Cu  Cu36  1  0.06616000  0.33023400  0.72067900  1
  Cu  Cu37  1  0.66976600  0.93384000  0.77932100  1
  Cu  Cu38  1  0.93384000  0.66976600  0.27932100  1
  Cu  Cu39  1  0.33023400  0.06616000  0.22067900  1
  Cu  Cu40  1  0.06065800  0.46931900  0.80820600  1
  Cu  Cu41  1  0.53068100  0.93934200  0.69179400  1
  Cu  Cu42  1  0.93934200  0.53068100  0.19179400  1
  Cu  Cu43  1  0.46931900  0.06065800  0.30820600  1
  Cu  Cu44  1  0.20577600  0.47975900  0.67412100  1
  Cu  Cu45  1  0.52024100  0.79422400  0.82587900  1
  Cu  Cu46  1  0.79422400  0.52024100  0.32587900  1
  Cu  Cu47  1  0.47975900  0.20577600  0.17412100  1
  Cu  Cu48  1  0.86569800  0.28989100  0.55583800  1
  Cu  Cu49  1  0.71010900  0.13430200  0.94416200  1
  Cu  Cu50  1  0.13430200  0.71010900  0.44416200  1
  Cu  Cu51  1  0.28989100  0.86569800  0.05583800  1
  Cu  Cu52  1  0.09616000  0.84096800  0.54032200  1
  Cu  Cu53  1  0.15903200  0.90384000  0.95967800  1
  Cu  Cu54  1  0.90384000  0.15903200  0.45967800  1
  Cu  Cu55  1  0.84096800  0.09616000  0.04032200  1
  Cu  Cu56  1  0.00361900  0.65754800  0.58492900  1
  Cu  Cu57  1  0.34245200  0.99638100  0.91507100  1
  Cu  Cu58  1  0.99638100  0.34245200  0.41507100  1
  Cu  Cu59  1  0.65754800  0.00361900  0.08492900  1
  Cu  Cu60  1  0.91262700  0.02788100  0.69097400  1
  Cu  Cu61  1  0.97211900  0.08737300  0.80902600  1
  Cu  Cu62  1  0.08737300  0.97211900  0.30902600  1
  Cu  Cu63  1  0.02788100  0.91262700  0.19097400  1
  Cu  Cu64  1  0.81575500  0.18424500  0.75000000  1
  Cu  Cu65  1  0.18424500  0.81575500  0.25000000  1
  Cu  Cu66  1  0.49361400  0.17456600  0.57194200  1
  Cu  Cu67  1  0.82543400  0.50638600  0.92805800  1
  Cu  Cu68  1  0.50638600  0.82543400  0.42805800  1
  Cu  Cu69  1  0.17456600  0.49361400  0.07194200  1
  Cu  Cu70  1  0.34823800  0.73612900  0.53691800  1
  Cu  Cu71  1  0.26387100  0.65176200  0.96308200  1
  Cu  Cu72  1  0.65176200  0.26387100  0.46308200  1
  Cu  Cu73  1  0.73612900  0.34823800  0.03691800  1
  Cu  Cu74  1  0.30997300  0.45938800  0.94241500  1
  Cu  Cu75  1  0.54061200  0.69002700  0.55758500  1
  Cu  Cu76  1  0.69002700  0.54061200  0.05758500  1
  Cu  Cu77  1  0.45938800  0.30997300  0.44241500  1
  Cu  Cu78  1  0.00170400  0.70379600  0.97468900  1
  Cu  Cu79  1  0.29620400  0.99829600  0.52531100  1
  Cu  Cu80  1  0.99829600  0.29620400  0.02531100  1
  Cu  Cu81  1  0.70379600  0.00170400  0.47468900  1
  Cu  Cu82  1  0.79563200  0.89657400  0.58762400  1
  Cu  Cu83  1  0.10342600  0.20436800  0.91237600  1
  Cu  Cu84  1  0.20436800  0.10342600  0.41237600  1
  Cu  Cu85  1  0.89657400  0.79563200  0.08762400  1
  Cu  Cu86  1  0.18371000  0.16818400  0.54785500  1
  Cu  Cu87  1  0.83181600  0.81629000  0.95214500  1
  Cu  Cu88  1  0.81629000  0.83181600  0.45214500  1
  Cu  Cu89  1  0.16818400  0.18371000  0.04785500  1
  Cu  Cu90  1  0.61385800  0.33711500  0.64819000  1
  Cu  Cu91  1  0.66288500  0.38614200  0.85181000  1
  Cu  Cu92  1  0.38614200  0.66288500  0.35181000  1
  Cu  Cu93  1  0.33711500  0.61385800  0.14819000  1
  Cu  Cu94  1  0.53420700  0.17393000  0.75686300  1
  Cu  Cu95  1  0.82607000  0.46579300  0.74313700  1
  Cu  Cu96  1  0.46579300  0.82607000  0.24313700  1
  Cu  Cu97  1  0.17393000  0.53420700  0.25686300  1
  Cu  Cu98  1  0.64238700  0.56210200  0.74550500  1
  Cu  Cu99  1  0.43789800  0.35761300  0.75449500  1
  Cu  Cu100  1  0.35761300  0.43789800  0.25449500  1
  Cu  Cu101  1  0.56210200  0.64238700  0.24550500  1
  Cu  Cu102  1  0.15606200  0.84393800  0.75000000  1
  Cu  Cu103  1  0.84393800  0.15606200  0.25000000  1
