# generated using pymatgen
data_Cu6Ni5C24
_symmetry_space_group_name_H-M   'P 1'
_cell_length_a   9.71486500
_cell_length_b   10.38054113
_cell_length_c   12.44834841
_cell_angle_alpha   68.32680120
_cell_angle_beta   72.37111114
_cell_angle_gamma   81.09653912
_symmetry_Int_Tables_number   1
_chemical_formula_structural   Cu6Ni5C24
_chemical_formula_sum   'Cu12 Ni10 C48'
_cell_volume   1110.52050377
_cell_formula_units_Z   2
loop_
 _symmetry_equiv_pos_site_id
 _symmetry_equiv_pos_as_xyz
  1  'x, y, z'
loop_
 _atom_site_type_symbol
 _atom_site_label
 _atom_site_symmetry_multiplicity
 _atom_site_fract_x
 _atom_site_fract_y
 _atom_site_fract_z
 _atom_site_occupancy
  C  C0  1  0.69537500  0.86672500  0.79995800  1
  C  C1  1  0.30462500  0.13327500  0.20004200  1
  C  C2  1  0.26271900  0.99709600  0.90701300  1
  C  C3  1  0.73728100  0.00290400  0.09298700  1
  C  C4  1  0.02761200  0.62797500  0.58541000  1
  C  C5  1  0.97238800  0.37202500  0.41459000  1
  C  C6  1  0.15491200  0.35668700  0.56962300  1
  C  C7  1  0.84508800  0.64331300  0.43037700  1
  C  C8  1  0.83750900  0.40020200  0.65112600  1
  C  C9  1  0.16249100  0.59979800  0.34887400  1
  C  C10  1  0.99940600  0.87004500  0.86498800  1
  C  C11  1  0.00059400  0.12995500  0.13501200  1
  C  C12  1  0.42247400  0.60259900  0.79684800  1
  C  C13  1  0.57752600  0.39740100  0.20315200  1
  C  C14  1  0.41449100  0.49392600  0.94773000  1
  C  C15  1  0.58550900  0.50607400  0.05227000  1
  C  C16  1  0.25852800  0.59861900  0.91190400  1
  C  C17  1  0.74147200  0.40138100  0.08809600  1
  C  C18  1  0.25979600  0.80770800  0.62381300  1
  C  C19  1  0.74020400  0.19229200  0.37618700  1
  C  C20  1  0.43894400  0.12829800  0.52144800  1
  C  C21  1  0.56105600  0.87170200  0.47855200  1
  C  C22  1  0.50132600  0.27852500  0.75993400  1
  C  C23  1  0.49867400  0.72147500  0.24006600  1
  C  C24  1  0.92861900  0.64786800  0.93699400  1
  C  C25  1  0.07138100  0.35213200  0.06300600  1
  C  C26  1  0.00500300  0.67001900  0.04253000  1
  C  C27  1  0.99499700  0.32998100  0.95747000  1
  C  C28  1  0.81397800  0.67881100  0.06861000  1
  C  C29  1  0.18602200  0.32118900  0.93139000  1
  C  C30  1  0.39455300  0.69882700  0.99108300  1
  C  C31  1  0.60544700  0.30117300  0.00891700  1
  Ni  Ni32  1  0.37719500  0.59449500  0.89116100  1
  Ni  Ni33  1  0.62280500  0.40550500  0.10883900  1
  Ni  Ni34  1  0.15421000  0.81702200  0.68821100  1
  Ni  Ni35  1  0.84579000  0.18297800  0.31178900  1
  Ni  Ni36  1  0.41634100  0.12101800  0.61654600  1
  Ni  Ni37  1  0.58365900  0.87898200  0.38345400  1
  Ni  Ni38  1  0.54462400  0.24523800  0.83974000  1
  Ni  Ni39  1  0.45537600  0.75476200  0.16026000  1
  Ni  Ni40  1  0.91627000  0.70500400  0.99873600  1
  Ni  Ni41  1  0.08373000  0.29499600  0.00126400  1
  Cu  Cu42  1  0.84010600  0.53366900  0.78048000  1
  Cu  Cu43  1  0.15989400  0.46633100  0.21952000  1
  Cu  Cu44  1  0.21704100  0.48597100  0.68055600  1
  Cu  Cu45  1  0.78295900  0.51402900  0.31944400  1
  Cu  Cu46  1  0.98991000  0.21208100  0.75974800  1
  Cu  Cu47  1  0.01009000  0.78791900  0.24025200  1
  Cu  Cu48  1  0.22288400  0.76949600  0.42329500  1
  Cu  Cu49  1  0.77711600  0.23050400  0.57670500  1
  Cu  Cu50  1  0.85145100  0.82142100  0.51838400  1
  Cu  Cu51  1  0.14854900  0.17857900  0.48161600  1
  Cu  Cu52  1  0.37292300  0.44999800  0.40506100  1
  Cu  Cu53  1  0.62707700  0.55000200  0.59493900  1
  C  C54  1  0.04518000  0.76510000  0.68328700  1
  C  C55  1  0.95482000  0.23490000  0.31671300  1
  C  C56  1  0.14933600  0.87713600  0.76007000  1
  C  C57  1  0.85066400  0.12286400  0.23993000  1
  C  C58  1  0.31388100  0.20342700  0.65281800  1
  C  C59  1  0.68611900  0.79657300  0.34718200  1
  C  C60  1  0.48860200  0.03568000  0.68157200  1
  C  C61  1  0.51139800  0.96432000  0.31842800  1
  C  C62  1  0.66979900  0.28847200  0.82338900  1
  C  C63  1  0.33020100  0.71152800  0.17661100  1
  C  C64  1  0.47097600  0.17014900  0.93859700  1
  C  C65  1  0.52902400  0.82985100  0.06140300  1
  C  C66  1  0.91261600  0.85218600  0.93710800  1
  C  C67  1  0.08738400  0.14781400  0.06289200  1
  C  C68  1  0.42763000  0.70825000  0.90611400  1
  C  C69  1  0.57237000  0.29175000  0.09388600  1
