# generated using pymatgen
data_Cu3NiC36
_symmetry_space_group_name_H-M   'P 1'
_cell_length_a   8.79699400
_cell_length_b   5.36398300
_cell_length_c   9.46620756
_cell_angle_alpha   77.41275230
_cell_angle_beta   90.00000000
_cell_angle_gamma   90.00000000
_symmetry_Int_Tables_number   1
_chemical_formula_structural   Cu3NiC36
_chemical_formula_sum   'Cu3 Ni1 C36'
_cell_volume   435.94538383
_cell_formula_units_Z   1
loop_
 _symmetry_equiv_pos_site_id
 _symmetry_equiv_pos_as_xyz
  1  'x, y, z'
loop_
 _atom_site_type_symbol
 _atom_site_label
 _atom_site_symmetry_multiplicity
 _atom_site_fract_x
 _atom_site_fract_y
 _atom_site_fract_z
 _atom_site_occupancy
  Ni  Ni0  1  0.79070300  0.50000000  0.50000000  1
  Cu  Cu1  1  0.26841400  0.00000000  0.00000000  1
  Cu  Cu2  1  0.23241700  0.00000000  0.50000000  1
  Cu  Cu3  1  0.73139100  0.50000000  0.00000000  1
  C  C4  1  0.39890100  0.50000000  0.50000000  1
  C  C5  1  0.89809400  0.00000000  0.00000000  1
  C  C6  1  0.59859100  0.00000000  0.50000000  1
  C  C7  1  0.10166300  0.50000000  0.00000000  1
  C  C8  1  0.09080300  0.71427500  0.29375000  1
  C  C9  1  0.58765400  0.21384600  0.79571000  1
  C  C10  1  0.09080300  0.28572500  0.70625000  1
  C  C11  1  0.58765400  0.78615400  0.20429000  1
  C  C12  1  0.91048000  0.78852800  0.70764600  1
  C  C13  1  0.41021300  0.28451400  0.20457400  1
  C  C14  1  0.91048000  0.21147200  0.29235400  1
  C  C15  1  0.41021300  0.71548600  0.79542600  1
  C  C16  1  0.00067100  0.94067400  0.35386300  1
  C  C17  1  0.50036400  0.44408800  0.85472000  1
  C  C18  1  0.00067100  0.05932600  0.64613700  1
  C  C19  1  0.50036400  0.55591200  0.14528000  1
  C  C20  1  0.00103500  0.55981300  0.64883400  1
  C  C21  1  0.49863100  0.05801900  0.14310200  1
  C  C22  1  0.00103500  0.44018700  0.35116600  1
  C  C23  1  0.49863100  0.94198100  0.85689800  1
  C  C24  1  0.25646200  0.70767100  0.36744000  1
  C  C25  1  0.75620900  0.20797400  0.86619900  1
  C  C26  1  0.25646200  0.29232900  0.63256000  1
  C  C27  1  0.75620900  0.79202600  0.13380100  1
  C  C28  1  0.74195600  0.80559800  0.63868600  1
  C  C29  1  0.24265900  0.29245800  0.13286100  1
  C  C30  1  0.74195600  0.19440200  0.36131400  1
  C  C31  1  0.24265900  0.70754200  0.86713900  1
  C  C32  1  0.08617600  0.78329900  0.11507600  1
  C  C33  1  0.57814300  0.27743500  0.61732200  1
  C  C34  1  0.08617600  0.21670100  0.88492400  1
  C  C35  1  0.57814300  0.72256500  0.38267800  1
  C  C36  1  0.91501100  0.71776500  0.88628200  1
  C  C37  1  0.41344700  0.21796400  0.38344900  1
  C  C38  1  0.91501100  0.28223500  0.11371800  1
  C  C39  1  0.41344700  0.78203600  0.61655100  1
