# generated using pymatgen
data_Cu5Ni2C25
_symmetry_space_group_name_H-M   'P 1'
_cell_length_a   2.90355900
_cell_length_b   5.16021200
_cell_length_c   19.31481282
_cell_angle_alpha   84.21414630
_cell_angle_beta   90.00000000
_cell_angle_gamma   90.00000000
_symmetry_Int_Tables_number   1
_chemical_formula_structural   Cu5Ni2C25
_chemical_formula_sum   'Cu5 Ni2 C25'
_cell_volume   287.91917649
_cell_formula_units_Z   1
loop_
 _symmetry_equiv_pos_site_id
 _symmetry_equiv_pos_as_xyz
  1  'x, y, z'
loop_
 _atom_site_type_symbol
 _atom_site_label
 _atom_site_symmetry_multiplicity
 _atom_site_fract_x
 _atom_site_fract_y
 _atom_site_fract_z
 _atom_site_occupancy
  C  C0  1  0.50000000  0.86272600  0.86888100  1
  C  C1  1  0.50000000  0.62944300  0.62907100  1
  C  C2  1  0.50000000  0.37655700  0.37676800  1
  C  C3  1  0.50000000  0.12553200  0.12430800  1
  C  C4  1  0.00000000  0.36717400  0.86654700  1
  C  C5  1  0.00000000  0.13527000  0.63056700  1
  C  C6  1  0.00000000  0.87570400  0.37844300  1
  C  C7  1  0.00000000  0.61801100  0.12413200  1
  C  C8  1  0.00000000  0.75009200  0.74945200  1
  Ni  Ni9  1  0.00000000  0.99685300  0.99866700  1
  Ni  Ni10  1  0.50000000  0.75060000  0.25042300  1
  Cu  Cu11  1  0.00000000  0.50220900  0.50160900  1
  Cu  Cu12  1  0.00000000  0.25082800  0.25008600  1
  Cu  Cu13  1  0.50000000  0.49721500  0.99740500  1
  Cu  Cu14  1  0.50000000  0.25118500  0.74984000  1
  Cu  Cu15  1  0.50000000  0.00221400  0.50234300  1
  C  C16  1  0.50000000  0.15802300  0.94263100  1
  C  C17  1  0.50000000  0.98813600  0.69605400  1
  C  C18  1  0.50000000  0.68526400  0.44347000  1
  C  C19  1  0.50000000  0.40721500  0.19261700  1
  C  C20  1  0.00000000  0.70721700  0.94188500  1
  C  C21  1  0.00000000  0.42302700  0.69488600  1
  C  C22  1  0.00000000  0.18288000  0.44387400  1
  C  C23  1  0.00000000  0.91225500  0.19206100  1
  C  C24  1  0.50000000  0.51524200  0.80494600  1
  C  C25  1  0.50000000  0.32453600  0.55807800  1
  C  C26  1  0.50000000  0.09517100  0.30683200  1
  C  C27  1  0.50000000  0.83230800  0.05584000  1
  C  C28  1  0.00000000  0.07989400  0.80495800  1
  C  C29  1  0.00000000  0.81971700  0.56016000  1
  C  C30  1  0.00000000  0.58646200  0.30840000  1
  C  C31  1  0.00000000  0.29104200  0.05476700  1
