# generated using pymatgen
data_CuNiC5
_symmetry_space_group_name_H-M   'P 1'
_cell_length_a   6.66650630
_cell_length_b   7.81112151
_cell_length_c   12.71052973
_cell_angle_alpha   82.05789549
_cell_angle_beta   84.70377732
_cell_angle_gamma   89.94118957
_symmetry_Int_Tables_number   1
_chemical_formula_structural   CuNiC5
_chemical_formula_sum   'Cu4 Ni4 C20'
_cell_volume   652.68072405
_cell_formula_units_Z   4
loop_
 _symmetry_equiv_pos_site_id
 _symmetry_equiv_pos_as_xyz
  1  'x, y, z'
loop_
 _atom_site_type_symbol
 _atom_site_label
 _atom_site_symmetry_multiplicity
 _atom_site_fract_x
 _atom_site_fract_y
 _atom_site_fract_z
 _atom_site_occupancy
  Ni  Ni0  1  0.14664900  0.70603500  0.69816900  1
  Ni  Ni1  1  0.85429200  0.28296300  0.30563800  1
  Ni  Ni2  1  0.76421400  0.10892800  0.99759400  1
  Ni  Ni3  1  0.36574000  0.56586600  0.29577900  1
  Cu  Cu4  1  0.24330200  0.88606200  0.99786000  1
  Cu  Cu5  1  0.63933400  0.44470800  0.70444700  1
  Cu  Cu6  1  0.37704500  0.04549900  0.29015600  1
  Cu  Cu7  1  0.63391700  0.95338000  0.70464100  1
  C  C8  1  0.11621200  0.20077700  0.69663300  1
  C  C9  1  0.87426000  0.80483900  0.29685500  1
  C  C10  1  0.26467600  0.37315000  0.99249700  1
  C  C11  1  0.74535200  0.63469900  0.99470600  1
  C  C12  1  0.12328500  0.67511400  0.88837200  1
  C  C13  1  0.85966100  0.33751300  0.11578300  1
  C  C14  1  0.10491900  0.13134300  0.89861600  1
  C  C15  1  0.92238300  0.85602900  0.09808500  1
  C  C16  1  0.20690500  0.79769900  0.37681500  1
  C  C17  1  0.76664400  0.21411700  0.63981000  1
  C  C18  1  0.20508300  0.27665800  0.36085900  1
  C  C19  1  0.79089100  0.71192400  0.64738200  1
  C  C20  1  0.33867100  0.96802500  0.62942500  1
  C  C21  1  0.66080500  0.02878100  0.38154000  1
  C  C22  1  0.33632400  0.46472200  0.63558600  1
  C  C23  1  0.68869700  0.52756200  0.37604600  1
  C  C24  1  0.39639100  0.06544500  0.10932100  1
  C  C25  1  0.56899700  0.92099800  0.88439600  1
  C  C26  1  0.37683900  0.62382100  0.10428700  1
  C  C27  1  0.62851300  0.39334200  0.87870100  1
