# generated using pymatgen
data_CuNi2C3
_symmetry_space_group_name_H-M   'P 1'
_cell_length_a   3.34565009
_cell_length_b   3.34565009
_cell_length_c   38.11494300
_cell_angle_alpha   90.00000000
_cell_angle_beta   90.00000000
_cell_angle_gamma   120.00000185
_symmetry_Int_Tables_number   1
_chemical_formula_structural   CuNi2C3
_chemical_formula_sum   'Cu2 Ni4 C6'
_cell_volume   369.47659651
_cell_formula_units_Z   2
loop_
 _symmetry_equiv_pos_site_id
 _symmetry_equiv_pos_as_xyz
  1  'x, y, z'
loop_
 _atom_site_type_symbol
 _atom_site_label
 _atom_site_symmetry_multiplicity
 _atom_site_fract_x
 _atom_site_fract_y
 _atom_site_fract_z
 _atom_site_occupancy
  C  C0  1  0.33333300  0.66666700  0.70762400  1
  C  C1  1  0.33333300  0.66666700  0.60754100  1
  C  C2  1  0.33333300  0.66666700  0.09392800  1
  C  C3  1  0.66666700  0.33333300  0.28177200  1
  C  C4  1  0.33333300  0.66666700  0.46962500  1
  C  C5  1  0.66666700  0.33333300  0.65760300  1
  Ni  Ni6  1  0.33333300  0.66666700  0.32552600  1
  Ni  Ni7  1  0.66666700  0.33333300  0.42565200  1
  Ni  Ni8  1  0.66666700  0.33333300  0.51360800  1
  Ni  Ni9  1  0.33333300  0.66666700  0.23801200  1
  Cu  Cu10  1  0.66666700  0.33333300  0.05413900  1
  Cu  Cu11  1  0.66666700  0.33333300  0.13371900  1
