# generated using pymatgen
data_CuNi2C7
_symmetry_space_group_name_H-M   'P 1'
_cell_length_a   5.17574600
_cell_length_b   5.00121900
_cell_length_c   9.81109383
_cell_angle_alpha   60.36299912
_cell_angle_beta   90.00000000
_cell_angle_gamma   90.00000000
_symmetry_Int_Tables_number   1
_chemical_formula_structural   CuNi2C7
_chemical_formula_sum   'Cu2 Ni4 C14'
_cell_volume   220.73635460
_cell_formula_units_Z   2
loop_
 _symmetry_equiv_pos_site_id
 _symmetry_equiv_pos_as_xyz
  1  'x, y, z'
loop_
 _atom_site_type_symbol
 _atom_site_label
 _atom_site_symmetry_multiplicity
 _atom_site_fract_x
 _atom_site_fract_y
 _atom_site_fract_z
 _atom_site_occupancy
  Ni  Ni0  1  0.05199400  0.29441000  0.73220300  1
  Ni  Ni1  1  0.55199400  0.70559000  0.76779700  1
  Ni  Ni2  1  0.94800600  0.70559000  0.26779700  1
  Ni  Ni3  1  0.44800600  0.29441000  0.23220300  1
  Cu  Cu4  1  0.00000000  0.50000000  0.00000000  1
  Cu  Cu5  1  0.50000000  0.50000000  0.50000000  1
  C  C6  1  0.00000000  0.00000000  0.50000000  1
  C  C7  1  0.50000000  0.00000000  0.00000000  1
  C  C8  1  0.28970800  0.70077700  0.60887700  1
  C  C9  1  0.78970800  0.29922300  0.89112300  1
  C  C10  1  0.71029200  0.29922300  0.39112300  1
  C  C11  1  0.21029200  0.70077700  0.10887700  1
  C  C12  1  0.20087300  0.36130100  0.44765300  1
  C  C13  1  0.70087300  0.63869900  0.05234700  1
  C  C14  1  0.79912700  0.63869900  0.55234700  1
  C  C15  1  0.29912700  0.36130100  0.94765300  1
  C  C16  1  0.39255900  0.03847900  0.80275900  1
  C  C17  1  0.89255900  0.96152100  0.69724100  1
  C  C18  1  0.10744100  0.03847900  0.30275900  1
  C  C19  1  0.60744100  0.96152100  0.19724100  1
