# generated using pymatgen
data_Cu3NiC15
_symmetry_space_group_name_H-M   'P 1'
_cell_length_a   9.97182526
_cell_length_b   9.97182526
_cell_length_c   9.97182526
_cell_angle_alpha   109.47122063
_cell_angle_beta   109.47122063
_cell_angle_gamma   109.47122063
_symmetry_Int_Tables_number   1
_chemical_formula_structural   Cu3NiC15
_chemical_formula_sum   'Cu12 Ni4 C60'
_cell_volume   763.31199733
_cell_formula_units_Z   4
loop_
 _symmetry_equiv_pos_site_id
 _symmetry_equiv_pos_as_xyz
  1  'x, y, z'
loop_
 _atom_site_type_symbol
 _atom_site_label
 _atom_site_symmetry_multiplicity
 _atom_site_fract_x
 _atom_site_fract_y
 _atom_site_fract_z
 _atom_site_occupancy
  Ni  Ni0  1  0.00000000  0.00000000  0.50000000  1
  Ni  Ni1  1  0.50000000  0.00000000  0.00000000  1
  Ni  Ni2  1  0.00000000  0.50000000  0.00000000  1
  Ni  Ni3  1  0.50000000  0.50000000  0.50000000  1
  C  C4  1  0.25000000  0.86344200  0.61344200  1
  C  C5  1  0.75000000  0.63655800  0.88655800  1
  C  C6  1  0.63655800  0.88655800  0.75000000  1
  C  C7  1  0.86344200  0.61344200  0.25000000  1
  C  C8  1  0.61344200  0.25000000  0.86344200  1
  C  C9  1  0.88655800  0.75000000  0.63655800  1
  C  C10  1  0.75000000  0.13655800  0.38655800  1
  C  C11  1  0.25000000  0.36344200  0.11344200  1
  C  C12  1  0.36344200  0.11344200  0.25000000  1
  C  C13  1  0.13655800  0.38655800  0.75000000  1
  C  C14  1  0.38655800  0.75000000  0.13655800  1
  C  C15  1  0.11344200  0.25000000  0.36344200  1
  Cu  Cu16  1  0.12471600  0.87471600  0.25000000  1
  Cu  Cu17  1  0.25000000  0.12471600  0.87471600  1
  Cu  Cu18  1  0.75000000  0.37528400  0.62528400  1
  Cu  Cu19  1  0.62471600  0.37471600  0.25000000  1
  Cu  Cu20  1  0.62528400  0.75000000  0.37528400  1
  Cu  Cu21  1  0.37528400  0.62528400  0.75000000  1
  Cu  Cu22  1  0.12528400  0.75000000  0.87528400  1
  Cu  Cu23  1  0.75000000  0.87528400  0.12528400  1
  Cu  Cu24  1  0.87471600  0.25000000  0.12471600  1
  Cu  Cu25  1  0.37471600  0.25000000  0.62471600  1
  Cu  Cu26  1  0.25000000  0.62471600  0.37471600  1
  Cu  Cu27  1  0.87528400  0.12528400  0.75000000  1
  C  C28  1  0.47896400  0.37750500  0.29574500  1
  C  C29  1  0.31678100  0.89854100  0.02103600  1
  C  C30  1  0.60145900  0.91824000  0.12249500  1
  C  C31  1  0.58176000  0.18321900  0.20425500  1
  C  C32  1  0.13269300  0.03464400  0.23252500  1
  C  C33  1  0.18321900  0.20425500  0.58176000  1
  C  C34  1  0.19788000  0.46535600  0.59804900  1
  C  C35  1  0.20425500  0.58176000  0.18321900  1
  C  C36  1  0.36730700  0.59983100  0.90195100  1
  C  C37  1  0.90016900  0.26747500  0.30212000  1
  C  C38  1  0.26747500  0.30212000  0.90016900  1
  C  C39  1  0.23252400  0.13269300  0.03464400  1
  C  C40  1  0.46535600  0.59804900  0.19788000  1
  C  C41  1  0.90195100  0.36730700  0.59983100  1
  C  C42  1  0.03464400  0.23252400  0.13269300  1
  C  C43  1  0.59804900  0.19788000  0.46535600  1
  C  C44  1  0.59983100  0.90195100  0.36730700  1
  C  C45  1  0.02103600  0.31678100  0.89854100  1
  C  C46  1  0.91824000  0.12249500  0.60145900  1
  C  C47  1  0.63269300  0.40016900  0.09804900  1
  C  C48  1  0.12249500  0.60145900  0.91824000  1
  C  C49  1  0.29574500  0.47896400  0.37750500  1
  C  C50  1  0.89854100  0.02103600  0.31678100  1
  C  C51  1  0.30212000  0.90016900  0.26747500  1
  C  C52  1  0.52103600  0.62249500  0.70425500  1
  C  C53  1  0.68321900  0.10145900  0.97896400  1
  C  C54  1  0.39854100  0.08176000  0.87750500  1
  C  C55  1  0.41824000  0.81678100  0.79574500  1
  C  C56  1  0.86730700  0.96535600  0.76747500  1
  C  C57  1  0.81678100  0.79574500  0.41824000  1
  C  C58  1  0.80212000  0.53464400  0.40195100  1
  C  C59  1  0.79574500  0.41824000  0.81678100  1
  C  C60  1  0.69788000  0.09983100  0.73252500  1
  C  C61  1  0.10145900  0.97896400  0.68321900  1
  C  C62  1  0.70425500  0.52103600  0.62249500  1
  C  C63  1  0.62249500  0.70425500  0.52103600  1
  C  C64  1  0.87750500  0.39854100  0.08176000  1
  C  C65  1  0.08176000  0.87750500  0.39854100  1
  C  C66  1  0.97896400  0.68321900  0.10145900  1
  C  C67  1  0.40016900  0.09804900  0.63269300  1
  C  C68  1  0.40195100  0.80212000  0.53464400  1
  C  C69  1  0.96535600  0.76747500  0.86730700  1
  C  C70  1  0.09804900  0.63269300  0.40016900  1
  C  C71  1  0.53464400  0.40195100  0.80212000  1
  C  C72  1  0.76747500  0.86730700  0.96535600  1
  C  C73  1  0.73252400  0.69788000  0.09983100  1
  C  C74  1  0.09983100  0.73252500  0.69788000  1
  C  C75  1  0.37750500  0.29574500  0.47896400  1
