# generated using pymatgen
data_Cu11Ni2C9
_symmetry_space_group_name_H-M   'P 1'
_cell_length_a   3.88447390
_cell_length_b   7.79838274
_cell_length_c   9.80032682
_cell_angle_alpha   76.99660919
_cell_angle_beta   89.99927170
_cell_angle_gamma   75.56112949
_symmetry_Int_Tables_number   1
_chemical_formula_structural   Cu11Ni2C9
_chemical_formula_sum   'Cu11 Ni2 C9'
_cell_volume   279.63256043
_cell_formula_units_Z   1
loop_
 _symmetry_equiv_pos_site_id
 _symmetry_equiv_pos_as_xyz
  1  'x, y, z'
loop_
 _atom_site_type_symbol
 _atom_site_label
 _atom_site_symmetry_multiplicity
 _atom_site_fract_x
 _atom_site_fract_y
 _atom_site_fract_z
 _atom_site_occupancy
  C  C0  1  0.56895300  0.87835100  0.71383100  1
  C  C1  1  0.44143500  0.13561500  0.27870600  1
  C  C2  1  0.50522100  0.00707000  0.99590100  1
  C  C3  1  0.13927000  0.73742600  0.05015400  1
  C  C4  1  0.16824700  0.68091600  0.40748000  1
  C  C5  1  0.25174200  0.51242800  0.74395000  1
  C  C6  1  0.75682900  0.50355600  0.22730700  1
  C  C7  1  0.84604000  0.32393500  0.56461900  1
  C  C8  1  0.87576100  0.26505300  0.94401800  1
  Ni  Ni9  1  0.22887700  0.55923000  0.23685700  1
  Ni  Ni10  1  0.84116700  0.33527200  0.10759900  1
  Cu  Cu11  1  0.05426500  0.90982000  0.31691500  1
  Cu  Cu12  1  0.14315100  0.72887600  0.60510600  1
  Cu  Cu13  1  0.17000300  0.67455600  0.87829200  1
  Cu  Cu14  1  0.63428600  0.74788700  0.07257100  1
  Cu  Cu15  1  0.69990200  0.61717900  0.42310800  1
  Cu  Cu16  1  0.77513700  0.46575700  0.75374900  1
  Cu  Cu17  1  0.31423000  0.38774200  0.57611400  1
  Cu  Cu18  1  0.37483700  0.26672300  0.89670000  1
  Cu  Cu19  1  0.87157700  0.27455200  0.38969800  1
  Cu  Cu20  1  0.95671600  0.10174500  0.67353500  1
  Cu  Cu21  1  0.00634600  0.00465900  0.99848500  1
