# generated using pymatgen
data_Cu7(Ni7C2)3
_symmetry_space_group_name_H-M   'P 1'
_cell_length_a   4.10645500
_cell_length_b   16.51202500
_cell_length_c   16.51202500
_cell_angle_alpha   90.00000000
_cell_angle_beta   90.00000000
_cell_angle_gamma   90.00000000
_symmetry_Int_Tables_number   1
_chemical_formula_structural   Cu7(Ni7C2)3
_chemical_formula_sum   'Cu14 Ni42 C12'
_cell_volume   1119.61251155
_cell_formula_units_Z   2
loop_
 _symmetry_equiv_pos_site_id
 _symmetry_equiv_pos_as_xyz
  1  'x, y, z'
loop_
 _atom_site_type_symbol
 _atom_site_label
 _atom_site_symmetry_multiplicity
 _atom_site_fract_x
 _atom_site_fract_y
 _atom_site_fract_z
 _atom_site_occupancy
  C  C0  1  0.50000000  0.10842400  0.60842400  1
  C  C1  1  0.50000000  0.89157600  0.39157600  1
  C  C2  1  0.50000000  0.39157600  0.10842400  1
  C  C3  1  0.50000000  0.60842400  0.89157600  1
  C  C4  1  0.00000000  0.65661300  0.58625300  1
  C  C5  1  0.00000000  0.34338700  0.41374700  1
  C  C6  1  0.00000000  0.84338700  0.08625300  1
  C  C7  1  0.00000000  0.15661300  0.91374700  1
  C  C8  1  0.00000000  0.58625300  0.34338700  1
  C  C9  1  0.00000000  0.41374700  0.65661300  1
  C  C10  1  0.00000000  0.08625300  0.15661300  1
  C  C11  1  0.00000000  0.91374700  0.84338700  1
  Ni  Ni12  1  0.00000000  0.00000000  0.50000000  1
  Ni  Ni13  1  0.00000000  0.50000000  0.00000000  1
  Ni  Ni14  1  0.00000000  0.32061300  0.82061300  1
  Ni  Ni15  1  0.00000000  0.67938700  0.17938700  1
  Ni  Ni16  1  0.00000000  0.17938700  0.32061300  1
  Ni  Ni17  1  0.00000000  0.82061300  0.67938700  1
  Ni  Ni18  1  0.50000000  0.42619800  0.92619800  1
  Ni  Ni19  1  0.50000000  0.57380200  0.07380200  1
  Ni  Ni20  1  0.50000000  0.07380200  0.42619800  1
  Ni  Ni21  1  0.50000000  0.92619800  0.57380200  1
  Ni  Ni22  1  0.00000000  0.57535500  0.75745400  1
  Ni  Ni23  1  0.00000000  0.42464500  0.24254600  1
  Ni  Ni24  1  0.00000000  0.92464500  0.25745400  1
  Ni  Ni25  1  0.00000000  0.07535500  0.74254600  1
  Ni  Ni26  1  0.00000000  0.75745400  0.42464500  1
  Ni  Ni27  1  0.00000000  0.24254600  0.57535500  1
  Ni  Ni28  1  0.00000000  0.25745400  0.07535500  1
  Ni  Ni29  1  0.00000000  0.74254600  0.92464500  1
  Ni  Ni30  1  0.50000000  0.53255900  0.61201200  1
  Ni  Ni31  1  0.50000000  0.46744100  0.38798800  1
  Ni  Ni32  1  0.50000000  0.96744100  0.11201200  1
  Ni  Ni33  1  0.50000000  0.03255900  0.88798800  1
  Ni  Ni34  1  0.50000000  0.61201200  0.46744100  1
  Ni  Ni35  1  0.50000000  0.38798800  0.53255900  1
  Ni  Ni36  1  0.50000000  0.11201200  0.03255900  1
  Ni  Ni37  1  0.50000000  0.88798800  0.96744100  1
  Ni  Ni38  1  0.50000000  0.67977000  0.70785700  1
  Ni  Ni39  1  0.50000000  0.32023000  0.29214300  1
  Ni  Ni40  1  0.50000000  0.82023000  0.20785700  1
  Ni  Ni41  1  0.50000000  0.17977000  0.79214300  1
  Ni  Ni42  1  0.50000000  0.70785700  0.32023000  1
  Ni  Ni43  1  0.50000000  0.29214300  0.67977000  1
  Ni  Ni44  1  0.50000000  0.20785700  0.17977000  1
  Ni  Ni45  1  0.50000000  0.79214300  0.82023000  1
  Ni  Ni46  1  0.50000000  0.77077800  0.54418900  1
  Ni  Ni47  1  0.50000000  0.22922200  0.45581100  1
  Ni  Ni48  1  0.50000000  0.72922200  0.04418900  1
  Ni  Ni49  1  0.50000000  0.27077800  0.95581100  1
  Ni  Ni50  1  0.50000000  0.54418900  0.22922200  1
  Ni  Ni51  1  0.50000000  0.45581100  0.77077800  1
  Ni  Ni52  1  0.50000000  0.04418900  0.27077800  1
  Ni  Ni53  1  0.50000000  0.95581100  0.72922200  1
  Cu  Cu54  1  0.00000000  0.21860400  0.71860400  1
  Cu  Cu55  1  0.00000000  0.78139600  0.28139600  1
  Cu  Cu56  1  0.00000000  0.28139600  0.21860400  1
  Cu  Cu57  1  0.00000000  0.71860400  0.78139600  1
  Cu  Cu58  1  0.00000000  0.96548000  0.64856500  1
  Cu  Cu59  1  0.00000000  0.03452000  0.35143500  1
  Cu  Cu60  1  0.00000000  0.53452000  0.14856500  1
  Cu  Cu61  1  0.00000000  0.46548000  0.85143500  1
  Cu  Cu62  1  0.00000000  0.64856500  0.03452000  1
  Cu  Cu63  1  0.00000000  0.35143500  0.96548000  1
  Cu  Cu64  1  0.00000000  0.14856500  0.46548000  1
  Cu  Cu65  1  0.00000000  0.85143500  0.53452000  1
  Cu  Cu66  1  0.00000000  0.50000000  0.50000000  1
  Cu  Cu67  1  0.00000000  0.00000000  0.00000000  1
