# generated using pymatgen
data_Cu3Ni9C16
_symmetry_space_group_name_H-M   'P 1'
_cell_length_a   5.86293500
_cell_length_b   5.86293500
_cell_length_c   9.35138200
_cell_angle_alpha   90.00000000
_cell_angle_beta   90.00000000
_cell_angle_gamma   90.00000000
_symmetry_Int_Tables_number   1
_chemical_formula_structural   Cu3Ni9C16
_chemical_formula_sum   'Cu3 Ni9 C16'
_cell_volume   321.44446859
_cell_formula_units_Z   1
loop_
 _symmetry_equiv_pos_site_id
 _symmetry_equiv_pos_as_xyz
  1  'x, y, z'
loop_
 _atom_site_type_symbol
 _atom_site_label
 _atom_site_symmetry_multiplicity
 _atom_site_fract_x
 _atom_site_fract_y
 _atom_site_fract_z
 _atom_site_occupancy
  Ni  Ni0  1  0.00000000  0.24907900  0.87323000  1
  Ni  Ni1  1  0.50000000  0.75067700  0.37655100  1
  Ni  Ni2  1  0.75067700  0.50000000  0.62344900  1
  Ni  Ni3  1  0.24907900  0.00000000  0.12677000  1
  Ni  Ni4  1  0.75092100  0.00000000  0.12677000  1
  Ni  Ni5  1  0.24932300  0.50000000  0.62344900  1
  Ni  Ni6  1  0.00000000  0.75092100  0.87323000  1
  Ni  Ni7  1  0.50000000  0.24932300  0.37655100  1
  Ni  Ni8  1  0.50000000  0.50000000  0.00000000  1
  Cu  Cu9  1  0.00000000  0.00000000  0.50000000  1
  Cu  Cu10  1  0.50000000  0.00000000  0.74938000  1
  Cu  Cu11  1  0.00000000  0.50000000  0.25062000  1
  C  C12  1  0.00000000  0.22695300  0.11886600  1
  C  C13  1  0.50000000  0.72490300  0.61925700  1
  C  C14  1  0.77869900  0.50000000  0.86553200  1
  C  C15  1  0.27454900  0.00000000  0.37072400  1
  C  C16  1  0.22130100  0.50000000  0.86553200  1
  C  C17  1  0.72545100  0.00000000  0.37072400  1
  C  C18  1  0.00000000  0.77304700  0.11886600  1
  C  C19  1  0.50000000  0.27509700  0.61925700  1
  C  C20  1  0.00000000  0.27454900  0.62927600  1
  C  C21  1  0.50000000  0.77869900  0.13446800  1
  C  C22  1  0.22695300  0.00000000  0.88113400  1
  C  C23  1  0.72490300  0.50000000  0.38074300  1
  C  C24  1  0.77304700  0.00000000  0.88113400  1
  C  C25  1  0.27509700  0.50000000  0.38074300  1
  C  C26  1  0.00000000  0.72545100  0.62927600  1
  C  C27  1  0.50000000  0.22130100  0.13446800  1
