# generated using pymatgen
data_Cu(NiC)6
_symmetry_space_group_name_H-M   'P 1'
_cell_length_a   17.01758135
_cell_length_b   17.01758135
_cell_length_c   17.01758189
_cell_angle_alpha   14.21587005
_cell_angle_beta   14.21587005
_cell_angle_gamma   14.21587075
_symmetry_Int_Tables_number   1
_chemical_formula_structural   Cu(NiC)6
_chemical_formula_sum   'Cu1 Ni6 C6'
_cell_volume   258.71269725
_cell_formula_units_Z   1
loop_
 _symmetry_equiv_pos_site_id
 _symmetry_equiv_pos_as_xyz
  1  'x, y, z'
loop_
 _atom_site_type_symbol
 _atom_site_label
 _atom_site_symmetry_multiplicity
 _atom_site_fract_x
 _atom_site_fract_y
 _atom_site_fract_z
 _atom_site_occupancy
  C  C0  1  0.56554700  0.56554700  0.56554700  1
  C  C1  1  0.43445300  0.43445300  0.43445300  1
  Ni  Ni2  1  0.94789700  0.94789700  0.94789700  1
  Ni  Ni3  1  0.05210300  0.05210300  0.05210300  1
  Ni  Ni4  1  0.18542800  0.18542800  0.18542800  1
  Ni  Ni5  1  0.81457200  0.81457200  0.81457200  1
  Ni  Ni6  1  0.31694800  0.31694800  0.31694800  1
  Ni  Ni7  1  0.68305200  0.68305200  0.68305200  1
  C  C8  1  0.73403700  0.73403700  0.73403700  1
  C  C9  1  0.13525700  0.13525700  0.13525700  1
  C  C10  1  0.26596300  0.26596300  0.26596300  1
  C  C11  1  0.86474300  0.86474300  0.86474300  1
  Cu  Cu12  1  0.00000000  0.00000000  0.00000000  1
