# generated using pymatgen
data_Cu8Ni5C18
_symmetry_space_group_name_H-M   'P 1'
_cell_length_a   7.46691376
_cell_length_b   7.46691376
_cell_length_c   13.00694372
_cell_angle_alpha   78.00694587
_cell_angle_beta   78.00694587
_cell_angle_gamma   79.98041562
_symmetry_Int_Tables_number   1
_chemical_formula_structural   Cu8Ni5C18
_chemical_formula_sum   'Cu16 Ni10 C36'
_cell_volume   687.37211787
_cell_formula_units_Z   2
loop_
 _symmetry_equiv_pos_site_id
 _symmetry_equiv_pos_as_xyz
  1  'x, y, z'
loop_
 _atom_site_type_symbol
 _atom_site_label
 _atom_site_symmetry_multiplicity
 _atom_site_fract_x
 _atom_site_fract_y
 _atom_site_fract_z
 _atom_site_occupancy
  C  C0  1  0.57024800  0.01833500  0.73805200  1
  C  C1  1  0.01833500  0.57024800  0.23805200  1
  C  C2  1  0.08735400  0.55518100  0.85429900  1
  C  C3  1  0.55518100  0.08735400  0.35429900  1
  C  C4  1  0.69066500  0.66593800  0.91571800  1
  C  C5  1  0.66593800  0.69066500  0.41571800  1
  C  C6  1  0.92215000  0.88038600  0.89151800  1
  C  C7  1  0.88038600  0.92215000  0.39151800  1
  C  C8  1  0.48027700  0.90647000  0.57404500  1
  C  C9  1  0.90647000  0.48027700  0.07404500  1
  C  C10  1  0.31763900  0.84399100  0.68414200  1
  C  C11  1  0.84399100  0.31763900  0.18414200  1
  C  C12  1  0.55927000  0.31690700  0.59440100  1
  C  C13  1  0.31690700  0.55927000  0.09440100  1
  C  C14  1  0.66264300  0.34479900  0.68891900  1
  C  C15  1  0.34479900  0.66264300  0.18891900  1
  C  C16  1  0.43474000  0.36230300  0.71062500  1
  C  C17  1  0.36230300  0.43474000  0.21062500  1
  C  C18  1  0.70828400  0.12625900  0.92043100  1
  C  C19  1  0.12625900  0.70828400  0.42043100  1
  C  C20  1  0.15371500  0.32714500  0.64319600  1
  C  C21  1  0.32714500  0.15371500  0.14319600  1
  C  C22  1  0.69705600  0.23014100  0.91323300  1
  C  C23  1  0.23014100  0.69705600  0.41323300  1
  C  C24  1  0.40382400  0.01887800  0.92639600  1
  C  C25  1  0.01887800  0.40382400  0.42639600  1
  C  C26  1  0.25406500  0.99537900  0.85278700  1
  C  C27  1  0.99537900  0.25406500  0.35278700  1
  C  C28  1  0.30888400  0.20340100  0.84783100  1
  C  C29  1  0.20340100  0.30888400  0.34783100  1
  C  C30  1  0.78055500  0.93538400  0.57040900  1
  C  C31  1  0.93538400  0.78055500  0.07040900  1
  C  C32  1  0.86974100  0.09749800  0.60945100  1
  C  C33  1  0.09749800  0.86974100  0.10945100  1
  C  C34  1  0.89019700  0.88126400  0.67472900  1
  C  C35  1  0.88126400  0.89019700  0.17472900  1
  Ni  Ni36  1  0.43241500  0.91075900  0.65354900  1
  Ni  Ni37  1  0.91075900  0.43241500  0.15354900  1
  Ni  Ni38  1  0.55524300  0.28771100  0.67647100  1
  Ni  Ni39  1  0.28771200  0.55524300  0.17647100  1
  Ni  Ni40  1  0.28321900  0.06271200  0.10523000  1
  Ni  Ni41  1  0.06271200  0.28321900  0.60523000  1
  Ni  Ni42  1  0.36242500  0.06468300  0.85397300  1
  Ni  Ni43  1  0.06468300  0.36242500  0.35397300  1
  Ni  Ni44  1  0.80379100  0.98214300  0.63519200  1
  Ni  Ni45  1  0.98214300  0.80379100  0.13519200  1
  Cu  Cu46  1  0.19751600  0.43241500  0.77823300  1
  Cu  Cu47  1  0.43241500  0.19751600  0.27823300  1
  Cu  Cu48  1  0.13781000  0.55529600  0.95889400  1
  Cu  Cu49  1  0.55529600  0.13781000  0.45889400  1
  Cu  Cu50  1  0.08961900  0.76500300  0.77595300  1
  Cu  Cu51  1  0.76500300  0.08961900  0.27595300  1
  Cu  Cu52  1  0.87288200  0.52313800  0.86989600  1
  Cu  Cu53  1  0.52313800  0.87288200  0.36989600  1
  Cu  Cu54  1  0.63750300  0.77984800  0.80753400  1
  Cu  Cu55  1  0.77984800  0.63750300  0.30753400  1
  Cu  Cu56  1  0.55019300  0.54848900  0.97930300  1
  Cu  Cu57  1  0.54848900  0.55019300  0.47930300  1
  Cu  Cu58  1  0.76324200  0.79449100  0.97074600  1
  Cu  Cu59  1  0.79449100  0.76324200  0.47074600  1
  Cu  Cu60  1  0.92307500  0.03361500  0.33424200  1
  Cu  Cu61  1  0.03361500  0.92307500  0.83424200  1
