# generated using pymatgen
data_Cu3Ni21C19
_symmetry_space_group_name_H-M   'P 1'
_cell_length_a   6.54218400
_cell_length_b   16.92847200
_cell_length_c   18.04778830
_cell_angle_alpha   60.86739689
_cell_angle_beta   90.00000000
_cell_angle_gamma   90.00000000
_symmetry_Int_Tables_number   1
_chemical_formula_structural   Cu3Ni21C19
_chemical_formula_sum   'Cu12 Ni84 C76'
_cell_volume   1745.92303615
_cell_formula_units_Z   4
loop_
 _symmetry_equiv_pos_site_id
 _symmetry_equiv_pos_as_xyz
  1  'x, y, z'
loop_
 _atom_site_type_symbol
 _atom_site_label
 _atom_site_symmetry_multiplicity
 _atom_site_fract_x
 _atom_site_fract_y
 _atom_site_fract_z
 _atom_site_occupancy
  C  C0  1  0.00914500  0.78302500  0.12394800  1
  C  C1  1  0.49085500  0.78302500  0.62394800  1
  C  C2  1  0.99085500  0.21697500  0.87605200  1
  C  C3  1  0.50914500  0.21697500  0.37605200  1
  Ni  Ni4  1  0.96111600  0.61609700  0.24013400  1
  Ni  Ni5  1  0.53888400  0.61609700  0.74013400  1
  Ni  Ni6  1  0.03888400  0.38390300  0.75986600  1
  Ni  Ni7  1  0.46111600  0.38390300  0.25986600  1
  Ni  Ni8  1  0.85409800  0.63093400  0.15181600  1
  Ni  Ni9  1  0.64590200  0.63093400  0.65181600  1
  Ni  Ni10  1  0.14590200  0.36906600  0.84818400  1
  Ni  Ni11  1  0.35409800  0.36906600  0.34818400  1
  Ni  Ni12  1  0.65522400  0.79422800  0.18658300  1
  Ni  Ni13  1  0.84477600  0.79422800  0.68658300  1
  Ni  Ni14  1  0.34477600  0.20577200  0.81341700  1
  Ni  Ni15  1  0.15522400  0.20577200  0.31341700  1
  Ni  Ni16  1  0.73629500  0.89328400  0.11829800  1
  Ni  Ni17  1  0.76370500  0.89328400  0.61829800  1
  Ni  Ni18  1  0.26370500  0.10671600  0.88170200  1
  Ni  Ni19  1  0.23629500  0.10671600  0.38170200  1
  Ni  Ni20  1  0.23682000  0.76300900  0.24944600  1
  Ni  Ni21  1  0.26318000  0.76300900  0.74944600  1
  Ni  Ni22  1  0.76318000  0.23699100  0.75055400  1
  Ni  Ni23  1  0.73682000  0.23699100  0.25055400  1
  Ni  Ni24  1  0.98938600  0.76075600  0.27415900  1
  Ni  Ni25  1  0.51061400  0.76075600  0.77415900  1
  Ni  Ni26  1  0.01061400  0.23924400  0.72584100  1
  Ni  Ni27  1  0.48938600  0.23924400  0.22584100  1
  Ni  Ni28  1  0.96075500  0.77545000  0.98086400  1
  Ni  Ni29  1  0.53924500  0.77545000  0.48086400  1
  Ni  Ni30  1  0.03924500  0.22455000  0.01913600  1
  Ni  Ni31  1  0.46075500  0.22455000  0.51913600  1
  Ni  Ni32  1  0.76625500  0.82194100  0.00015600  1
  Ni  Ni33  1  0.73374500  0.82194100  0.50015600  1
  Ni  Ni34  1  0.23374500  0.17805900  0.99984400  1
  Ni  Ni35  1  0.26625500  0.17805900  0.49984400  1
  Ni  Ni36  1  0.32827000  0.68492000  0.13113800  1
  Ni  Ni37  1  0.17173000  0.68492000  0.63113800  1
  Ni  Ni38  1  0.67173000  0.31508000  0.86886200  1
  Ni  Ni39  1  0.82827000  0.31508000  0.36886200  1
  Ni  Ni40  1  0.35822500  0.79102100  0.05724500  1
  Ni  Ni41  1  0.14177500  0.79102100  0.55724500  1
  Ni  Ni42  1  0.64177500  0.20897900  0.94275500  1
  Ni  Ni43  1  0.85822500  0.20897900  0.44275500  1
  Ni  Ni44  1  0.18541800  0.93226300  0.09459100  1
  Ni  Ni45  1  0.31458200  0.93226300  0.59459100  1
  Ni  Ni46  1  0.81458200  0.06773700  0.90540900  1
  Ni  Ni47  1  0.68541800  0.06773700  0.40540900  1
  Ni  Ni48  1  0.16116300  0.93381700  0.00659500  1
  Ni  Ni49  1  0.33883700  0.93381700  0.50659500  1
  Ni  Ni50  1  0.83883700  0.06618300  0.99340500  1
  Ni  Ni51  1  0.66116300  0.06618300  0.49340500  1
  Ni  Ni52  1  0.61803100  0.57836500  0.46368700  1
  Ni  Ni53  1  0.88196900  0.57836500  0.96368700  1
  Ni  Ni54  1  0.38196900  0.42163500  0.53631300  1
  Ni  Ni55  1  0.11803100  0.42163500  0.03631300  1
  Ni  Ni56  1  0.40097400  0.58746200  0.39771500  1
  Ni  Ni57  1  0.09902600  0.58746200  0.89771500  1
  Ni  Ni58  1  0.59902600  0.41253800  0.60228500  1
  Ni  Ni59  1  0.90097400  0.41253800  0.10228500  1
  Ni  Ni60  1  0.65508200  0.58271200  0.36221000  1
  Ni  Ni61  1  0.84491800  0.58271200  0.86221000  1
  Ni  Ni62  1  0.34491800  0.41728800  0.63779000  1
  Ni  Ni63  1  0.15508200  0.41728800  0.13779000  1
  Ni  Ni64  1  0.54202700  0.89814200  0.80196900  1
  Ni  Ni65  1  0.95797300  0.89814200  0.30196900  1
  Ni  Ni66  1  0.45797300  0.10185800  0.19803100  1
  Ni  Ni67  1  0.04202700  0.10185800  0.69803100  1
  Ni  Ni68  1  0.27564400  0.88970100  0.82893500  1
  Ni  Ni69  1  0.22435600  0.88970100  0.32893500  1
  Ni  Ni70  1  0.72435600  0.11029900  0.17106500  1
  Ni  Ni71  1  0.77564400  0.11029900  0.67106500  1
  Ni  Ni72  1  0.38563400  0.99848100  0.75736700  1
  Ni  Ni73  1  0.11436600  0.99848100  0.25736700  1
  Ni  Ni74  1  0.61436600  0.00151900  0.24263300  1
  Ni  Ni75  1  0.88563400  0.00151900  0.74263300  1
  Ni  Ni76  1  0.47831400  0.57646500  0.98313200  1
  Ni  Ni77  1  0.02168600  0.57646500  0.48313200  1
  Ni  Ni78  1  0.52168600  0.42353500  0.01686800  1
  Ni  Ni79  1  0.97831400  0.42353500  0.51686800  1
  Ni  Ni80  1  0.25417600  0.58869600  0.03499500  1
  Ni  Ni81  1  0.24582400  0.58869600  0.53499500  1
  Ni  Ni82  1  0.74582400  0.41130400  0.96500500  1
  Ni  Ni83  1  0.75417600  0.41130400  0.46500500  1
  Ni  Ni84  1  0.44279000  0.67715400  0.99036700  1
  Ni  Ni85  1  0.05721000  0.67715400  0.49036700  1
  Ni  Ni86  1  0.55721000  0.32284600  0.00963300  1
  Ni  Ni87  1  0.94279000  0.32284600  0.50963300  1
  Cu  Cu88  1  0.56158300  0.60550400  0.39859300  1
  Cu  Cu89  1  0.93841700  0.60550400  0.89859300  1
  Cu  Cu90  1  0.43841700  0.39449600  0.60140700  1
  Cu  Cu91  1  0.06158300  0.39449600  0.10140700  1
  Cu  Cu92  1  0.41259400  0.93222800  0.81296900  1
  Cu  Cu93  1  0.08740600  0.93222800  0.31296900  1
  Cu  Cu94  1  0.58740600  0.06777200  0.18703100  1
  Cu  Cu95  1  0.91259400  0.06777200  0.68703100  1
  Cu  Cu96  1  0.41717100  0.60395900  0.02243700  1
  Cu  Cu97  1  0.08282900  0.60395900  0.52243700  1
  Cu  Cu98  1  0.58282900  0.39604100  0.97756300  1
  Cu  Cu99  1  0.91717100  0.39604100  0.47756300  1
  C  C100  1  0.58078200  0.72494300  0.34912400  1
  C  C101  1  0.91921800  0.72494300  0.84912400  1
  C  C102  1  0.41921800  0.27505700  0.65087600  1
  C  C103  1  0.08078200  0.27505700  0.15087600  1
  C  C104  1  0.47576000  0.94881600  0.89994800  1
  C  C105  1  0.02424000  0.94881600  0.39994800  1
  C  C106  1  0.52424000  0.05118400  0.10005200  1
  C  C107  1  0.97576000  0.05118400  0.60005200  1
  C  C108  1  0.54201300  0.55538600  0.12264600  1
  C  C109  1  0.95798700  0.55538600  0.62264600  1
  C  C110  1  0.45798700  0.44461400  0.87735400  1
  C  C111  1  0.04201300  0.44461400  0.37735400  1
  C  C112  1  0.48324800  0.75923400  0.26396700  1
  C  C113  1  0.01675200  0.75923400  0.76396700  1
  C  C114  1  0.51675200  0.24076600  0.73603300  1
  C  C115  1  0.98324800  0.24076600  0.23603300  1
  C  C116  1  0.79930900  0.74840800  0.34035500  1
  C  C117  1  0.70069100  0.74840800  0.84035500  1
  C  C118  1  0.20069100  0.25159200  0.65964500  1
  C  C119  1  0.29930900  0.25159200  0.15964500  1
  C  C120  1  0.46744500  0.75423500  0.40177100  1
  C  C121  1  0.03255500  0.75423500  0.90177100  1
  C  C122  1  0.53255500  0.24576500  0.59822900  1
  C  C123  1  0.96744500  0.24576500  0.09822900  1
  C  C124  1  0.51666500  0.85740400  0.97341600  1
  C  C125  1  0.98333500  0.85740400  0.47341600  1
  C  C126  1  0.48333500  0.14259600  0.02658400  1
  C  C127  1  0.01666500  0.14259600  0.52658400  1
  C  C128  1  0.29203800  0.98975500  0.91686100  1
  C  C129  1  0.20796200  0.98975500  0.41686100  1
  C  C130  1  0.70796200  0.01024500  0.08313900  1
  C  C131  1  0.79203800  0.01024500  0.58313900  1
  C  C132  1  0.65464800  0.00784000  0.87465000  1
  C  C133  1  0.84535200  0.00784000  0.37465000  1
  C  C134  1  0.34535200  0.99216000  0.12535000  1
  C  C135  1  0.15464800  0.99216000  0.62535000  1
  C  C136  1  0.75881400  0.58311100  0.10459900  1
  C  C137  1  0.74118600  0.58311100  0.60459900  1
  C  C138  1  0.24118600  0.41688900  0.89540100  1
  C  C139  1  0.25881400  0.41688900  0.39540100  1
  C  C140  1  0.51624400  0.45651900  0.16155400  1
  C  C141  1  0.98375600  0.45651900  0.66155400  1
  C  C142  1  0.48375600  0.54348100  0.83844600  1
  C  C143  1  0.01624400  0.54348100  0.33844600  1
  C  C144  1  0.43796000  0.59270800  0.17144900  1
  C  C145  1  0.06204000  0.59270800  0.67144900  1
  C  C146  1  0.56204000  0.40729200  0.82855100  1
  C  C147  1  0.93796000  0.40729200  0.32855100  1
  C  C148  1  0.91850600  0.66272400  0.18138600  1
  C  C149  1  0.58149400  0.66272400  0.68138600  1
  C  C150  1  0.08149400  0.33727600  0.81861400  1
  C  C151  1  0.41850600  0.33727600  0.31861400  1
  C  C152  1  0.75060300  0.82762400  0.13740700  1
  C  C153  1  0.74939700  0.82762400  0.63740700  1
  C  C154  1  0.24939700  0.17237600  0.86259300  1
  C  C155  1  0.25060300  0.17237600  0.36259300  1
  C  C156  1  0.09193800  0.77422000  0.22850100  1
  C  C157  1  0.40806200  0.77422000  0.72850100  1
  C  C158  1  0.90806200  0.22578000  0.77149900  1
  C  C159  1  0.59193800  0.22578000  0.27149900  1
  C  C160  1  0.90867500  0.79976300  0.01780900  1
  C  C161  1  0.59132500  0.79976300  0.51780900  1
  C  C162  1  0.09132500  0.20023700  0.98219100  1
  C  C163  1  0.40867500  0.20023700  0.48219100  1
  C  C164  1  0.26746700  0.74838400  0.10374400  1
  C  C165  1  0.23253300  0.74838400  0.60374400  1
  C  C166  1  0.73253300  0.25161600  0.89625600  1
  C  C167  1  0.76746700  0.25161600  0.39625600  1
  C  C168  1  0.10253200  0.90642200  0.06530000  1
  C  C169  1  0.39746800  0.90642200  0.56530000  1
  C  C170  1  0.89746800  0.09357800  0.93470000  1
  C  C171  1  0.60253200  0.09357800  0.43470000  1
