# generated using pymatgen
data_Cu6NiC
_symmetry_space_group_name_H-M   'P 1'
_cell_length_a   5.39575195
_cell_length_b   17.38247933
_cell_length_c   17.05888973
_cell_angle_alpha   90.00000000
_cell_angle_beta   89.44335788
_cell_angle_gamma   90.00000000
_symmetry_Int_Tables_number   1
_chemical_formula_structural   Cu6NiC
_chemical_formula_sum   'Cu72 Ni12 C12'
_cell_volume   1599.90414531
_cell_formula_units_Z   12
loop_
 _symmetry_equiv_pos_site_id
 _symmetry_equiv_pos_as_xyz
  1  'x, y, z'
loop_
 _atom_site_type_symbol
 _atom_site_label
 _atom_site_symmetry_multiplicity
 _atom_site_fract_x
 _atom_site_fract_y
 _atom_site_fract_z
 _atom_site_occupancy
  C  C0  1  0.49902654  0.20903833  0.94254709  1
  C  C1  1  0.50097346  0.70903833  0.55745291  1
  C  C2  1  0.50097346  0.79096167  0.05745291  1
  C  C3  1  0.49902654  0.29096167  0.44254709  1
  C  C4  1  0.47386319  0.11537375  0.60476901  1
  C  C5  1  0.52613681  0.61537375  0.89523099  1
  C  C6  1  0.52613681  0.88462625  0.39523099  1
  C  C7  1  0.47386319  0.38462625  0.10476901  1
  C  C8  1  0.16080063  0.41990873  0.74750865  1
  C  C9  1  0.83919937  0.91990873  0.75249135  1
  C  C10  1  0.83919937  0.58009127  0.25249135  1
  C  C11  1  0.16080063  0.08009127  0.24750865  1
  Ni  Ni12  1  0.32136947  0.06695781  0.79607418  1
  Ni  Ni13  1  0.67863053  0.56695781  0.70392582  1
  Ni  Ni14  1  0.67863053  0.93304219  0.20392582  1
  Ni  Ni15  1  0.32136947  0.43304219  0.29607418  1
  Ni  Ni16  1  0.67336852  0.30224983  0.64849739  1
  Ni  Ni17  1  0.32663148  0.80224983  0.85150261  1
  Ni  Ni18  1  0.32663148  0.69775017  0.35150261  1
  Ni  Ni19  1  0.67336852  0.19775017  0.14849739  1
  Ni  Ni20  1  0.66320474  0.41344655  0.90537604  1
  Ni  Ni21  1  0.33679526  0.91344655  0.59462396  1
  Ni  Ni22  1  0.33679526  0.58655345  0.09462396  1
  Ni  Ni23  1  0.66320474  0.08655345  0.40537604  1
  Cu  Cu24  1  0.12761995  0.00428718  0.80485862  1
  Cu  Cu25  1  0.87238005  0.50428718  0.69514138  1
  Cu  Cu26  1  0.87238005  0.99571282  0.19514138  1
  Cu  Cu27  1  0.12761995  0.49571282  0.30485862  1
  Cu  Cu28  1  0.25025849  0.20625781  0.52032903  1
  Cu  Cu29  1  0.74974151  0.70625781  0.97967097  1
  Cu  Cu30  1  0.74974151  0.79374219  0.47967097  1
  Cu  Cu31  1  0.25025849  0.29374219  0.02032903  1
  Cu  Cu32  1  0.27060519  0.11350615  0.72782114  1
  Cu  Cu33  1  0.72939481  0.61350615  0.77217886  1
  Cu  Cu34  1  0.72939481  0.88649385  0.27217886  1
  Cu  Cu35  1  0.27060519  0.38649385  0.22782114  1
  Cu  Cu36  1  0.29633812  0.98933247  0.56270825  1
  Cu  Cu37  1  0.70366188  0.48933247  0.93729175  1
  Cu  Cu38  1  0.70366188  0.01066753  0.43729175  1
  Cu  Cu39  1  0.29633812  0.51066753  0.06270825  1
  Cu  Cu40  1  0.23425980  0.49142584  0.55496159  1
  Cu  Cu41  1  0.76574020  0.99142584  0.94503841  1
  Cu  Cu42  1  0.76574020  0.50857416  0.44503841  1
  Cu  Cu43  1  0.23425980  0.00857416  0.05496159  1
  Cu  Cu44  1  0.34229848  0.10854474  0.86995713  1
  Cu  Cu45  1  0.65770152  0.60854474  0.63004287  1
  Cu  Cu46  1  0.65770152  0.89145526  0.13004287  1
  Cu  Cu47  1  0.34229848  0.39145526  0.36995713  1
  Cu  Cu48  1  0.10421348  0.25106734  0.83057576  1
  Cu  Cu49  1  0.89578652  0.75106734  0.66942424  1
  Cu  Cu50  1  0.89578652  0.74893266  0.16942424  1
  Cu  Cu51  1  0.10421348  0.24893266  0.33057576  1
  Cu  Cu52  1  0.56842144  0.02346010  0.78349631  1
  Cu  Cu53  1  0.43157856  0.52346010  0.71650369  1
  Cu  Cu54  1  0.43157856  0.97653990  0.21650369  1
  Cu  Cu55  1  0.56842144  0.47653990  0.28349631  1
  Cu  Cu56  1  0.77298512  0.02643034  0.66358901  1
  Cu  Cu57  1  0.22701488  0.52643034  0.83641099  1
  Cu  Cu58  1  0.22701488  0.97356966  0.33641099  1
  Cu  Cu59  1  0.77298512  0.47356966  0.16358901  1
  Cu  Cu60  1  0.81862306  0.05989146  0.95217344  1
  Cu  Cu61  1  0.18137694  0.55989146  0.54782656  1
  Cu  Cu62  1  0.18137694  0.94010854  0.04782656  1
  Cu  Cu63  1  0.81862306  0.44010854  0.45217344  1
  Cu  Cu64  1  0.86041194  0.39367863  0.84500542  1
  Cu  Cu65  1  0.13958806  0.89367863  0.65499458  1
  Cu  Cu66  1  0.13958806  0.60632137  0.15499458  1
  Cu  Cu67  1  0.86041194  0.10632137  0.34500542  1
  Cu  Cu68  1  0.62172943  0.31767284  0.56539957  1
  Cu  Cu69  1  0.37827057  0.81767284  0.93460043  1
  Cu  Cu70  1  0.37827057  0.68232716  0.43460043  1
  Cu  Cu71  1  0.62172943  0.18232716  0.06539957  1
  Cu  Cu72  1  0.48134047  0.34585006  0.69798517  1
  Cu  Cu73  1  0.51865953  0.84585006  0.80201483  1
  Cu  Cu74  1  0.51865953  0.65414994  0.30201483  1
  Cu  Cu75  1  0.48134047  0.15414994  0.19798517  1
  Cu  Cu76  1  0.67153934  0.22141112  0.66907956  1
  Cu  Cu77  1  0.32846066  0.72141112  0.83092044  1
  Cu  Cu78  1  0.32846066  0.77858888  0.33092044  1
  Cu  Cu79  1  0.67153934  0.27858888  0.16907956  1
  Cu  Cu80  1  0.90367802  0.21845488  0.83851904  1
  Cu  Cu81  1  0.09632198  0.71845488  0.66148096  1
  Cu  Cu82  1  0.09632198  0.78154512  0.16148096  1
  Cu  Cu83  1  0.90367802  0.28154512  0.33851904  1
  Cu  Cu84  1  0.92194107  0.33752337  0.66898146  1
  Cu  Cu85  1  0.07805893  0.83752337  0.83101854  1
  Cu  Cu86  1  0.07805893  0.66247663  0.33101854  1
  Cu  Cu87  1  0.92194107  0.16247663  0.16898146  1
  Cu  Cu88  1  0.41586436  0.41023493  0.86177349  1
  Cu  Cu89  1  0.58413564  0.91023493  0.63822651  1
  Cu  Cu90  1  0.58413564  0.58976507  0.13822651  1
  Cu  Cu91  1  0.41586436  0.08976507  0.36177349  1
  Cu  Cu92  1  0.65119105  0.35034952  0.96394322  1
  Cu  Cu93  1  0.34880895  0.85034952  0.53605678  1
  Cu  Cu94  1  0.34880895  0.64965048  0.03605678  1
  Cu  Cu95  1  0.65119105  0.14965048  0.46394322  1
