# generated using pymatgen
data_Cu13Ni3C43
_symmetry_space_group_name_H-M   'P 1'
_cell_length_a   13.79900671
_cell_length_b   13.79900671
_cell_length_c   13.79900696
_cell_angle_alpha   108.95071808
_cell_angle_beta   108.95071808
_cell_angle_gamma   108.95071394
_symmetry_Int_Tables_number   1
_chemical_formula_structural   Cu13Ni3C43
_chemical_formula_sum   'Cu26 Ni6 C86'
_cell_volume   2060.71107194
_cell_formula_units_Z   2
loop_
 _symmetry_equiv_pos_site_id
 _symmetry_equiv_pos_as_xyz
  1  'x, y, z'
loop_
 _atom_site_type_symbol
 _atom_site_label
 _atom_site_symmetry_multiplicity
 _atom_site_fract_x
 _atom_site_fract_y
 _atom_site_fract_z
 _atom_site_occupancy
  C  C0  1  0.60192200  0.47493200  0.24037000  1
  C  C1  1  0.24037000  0.60192200  0.47493200  1
  C  C2  1  0.47493200  0.24037000  0.60192200  1
  C  C3  1  0.74037000  0.97493200  0.10192200  1
  C  C4  1  0.10192200  0.74037000  0.97493200  1
  C  C5  1  0.97493200  0.10192200  0.74037000  1
  Ni  Ni6  1  0.81049300  0.67721800  0.61721100  1
  Ni  Ni7  1  0.61721100  0.81049300  0.67721800  1
  Ni  Ni8  1  0.67721800  0.61721100  0.81049300  1
  Ni  Ni9  1  0.11721100  0.17721800  0.31049300  1
  Ni  Ni10  1  0.31049300  0.11721100  0.17721800  1
  Ni  Ni11  1  0.17721800  0.31049300  0.11721100  1
  Cu  Cu12  1  0.70213400  0.35899400  0.46537100  1
  Cu  Cu13  1  0.46537100  0.70213400  0.35899400  1
  Cu  Cu14  1  0.35899400  0.46537100  0.70213400  1
  Cu  Cu15  1  0.96537100  0.85899400  0.20213400  1
  Cu  Cu16  1  0.20213400  0.96537100  0.85899400  1
  Cu  Cu17  1  0.85899400  0.20213400  0.96537100  1
  Cu  Cu18  1  0.58820700  0.64129500  0.05010000  1
  Cu  Cu19  1  0.05010000  0.58820700  0.64129500  1
  Cu  Cu20  1  0.64129500  0.05010000  0.58820700  1
  Cu  Cu21  1  0.55010000  0.14129500  0.08820700  1
  Cu  Cu22  1  0.08820700  0.55010000  0.14129500  1
  Cu  Cu23  1  0.14129500  0.08820700  0.55010000  1
  Cu  Cu24  1  0.91836400  0.91836400  0.91836400  1
  Cu  Cu25  1  0.41836400  0.41836400  0.41836400  1
  Cu  Cu26  1  0.94839600  0.63816300  0.34433600  1
  Cu  Cu27  1  0.34433600  0.94839600  0.63816300  1
  Cu  Cu28  1  0.63816300  0.34433600  0.94839600  1
  Cu  Cu29  1  0.84433600  0.13816300  0.44839600  1
  Cu  Cu30  1  0.44839600  0.84433600  0.13816300  1
  Cu  Cu31  1  0.13816300  0.44839600  0.84433600  1
  Cu  Cu32  1  0.80174000  0.82607300  0.42769200  1
  Cu  Cu33  1  0.42769200  0.80174000  0.82607300  1
  Cu  Cu34  1  0.82607300  0.42769200  0.80174000  1
  Cu  Cu35  1  0.92769200  0.32607300  0.30174000  1
  Cu  Cu36  1  0.30174000  0.92769200  0.32607300  1
  Cu  Cu37  1  0.32607300  0.30174000  0.92769200  1
  C  C38  1  0.65055200  0.65055200  0.65055200  1
  C  C39  1  0.15055200  0.15055200  0.15055200  1
  C  C40  1  0.80133000  0.51319800  0.24838100  1
  C  C41  1  0.24838100  0.80133000  0.51319800  1
  C  C42  1  0.51319800  0.24838100  0.80133000  1
  C  C43  1  0.74838100  0.01319800  0.30133000  1
  C  C44  1  0.30133000  0.74838100  0.01319800  1
  C  C45  1  0.01319800  0.30133000  0.74838100  1
  C  C46  1  0.82330900  0.46326700  0.61493500  1
  C  C47  1  0.61493500  0.82330900  0.46326700  1
  C  C48  1  0.46326700  0.61493500  0.82330900  1
  C  C49  1  0.11493500  0.96326700  0.32330900  1
  C  C50  1  0.32330900  0.11493500  0.96326700  1
  C  C51  1  0.96326700  0.32330900  0.11493500  1
  C  C52  1  0.92282900  0.85099300  0.39399800  1
  C  C53  1  0.39399800  0.92282900  0.85099300  1
  C  C54  1  0.85099300  0.39399800  0.92282900  1
  C  C55  1  0.89399800  0.35099300  0.42282900  1
  C  C56  1  0.42282900  0.89399800  0.35099300  1
  C  C57  1  0.35099300  0.42282900  0.89399800  1
  C  C58  1  0.92944700  0.78635300  0.85136800  1
  C  C59  1  0.85136800  0.92944700  0.78635300  1
  C  C60  1  0.78635300  0.85136800  0.92944700  1
  C  C61  1  0.35136800  0.28635300  0.42944700  1
  C  C62  1  0.42944700  0.35136800  0.28635300  1
  C  C63  1  0.28635300  0.42944700  0.35136800  1
  C  C64  1  0.02846100  0.55423000  0.35390200  1
  C  C65  1  0.35390200  0.02846100  0.55423000  1
  C  C66  1  0.55423000  0.35390200  0.02846100  1
  C  C67  1  0.85390200  0.05423000  0.52846100  1
  C  C68  1  0.52846100  0.85390200  0.05423000  1
  C  C69  1  0.05423000  0.52846100  0.85390200  1
  C  C70  1  0.62930000  0.54676500  0.96555400  1
  C  C71  1  0.96555400  0.62930000  0.54676500  1
  C  C72  1  0.54676500  0.96555400  0.62930000  1
  C  C73  1  0.46555400  0.04676500  0.12930000  1
  C  C74  1  0.12930000  0.46555400  0.04676500  1
  C  C75  1  0.04676500  0.12930000  0.46555400  1
  C  C76  1  0.71061500  0.78112500  0.09445400  1
  C  C77  1  0.09445400  0.71061500  0.78112500  1
  C  C78  1  0.78112500  0.09445400  0.71061500  1
  C  C79  1  0.59445400  0.28112500  0.21061500  1
  C  C80  1  0.21061500  0.59445400  0.28112500  1
  C  C81  1  0.28112500  0.21061500  0.59445400  1
  C  C82  1  0.68648200  0.47486500  0.43205100  1
  C  C83  1  0.43205100  0.68648200  0.47486500  1
  C  C84  1  0.47486500  0.43205100  0.68648200  1
  C  C85  1  0.93205100  0.97486500  0.18648200  1
  C  C86  1  0.18648200  0.93205100  0.97486500  1
  C  C87  1  0.97486500  0.18648200  0.93205100  1
  C  C88  1  0.58239700  0.31947400  0.49823600  1
  C  C89  1  0.49823600  0.58239700  0.31947400  1
  C  C90  1  0.31947400  0.49823600  0.58239700  1
  C  C91  1  0.99823600  0.81947400  0.08239700  1
  C  C92  1  0.08239700  0.99823600  0.81947400  1
  C  C93  1  0.81947400  0.08239700  0.99823600  1
  C  C94  1  0.97996900  0.67729900  0.23918500  1
  C  C95  1  0.23918500  0.97996900  0.67729900  1
  C  C96  1  0.67729900  0.23918500  0.97996900  1
  C  C97  1  0.73918500  0.17729900  0.47996900  1
  C  C98  1  0.47996900  0.73918500  0.17729900  1
  C  C99  1  0.17729900  0.47996900  0.73918500  1
  C  C100  1  0.64466700  0.63337500  0.18596800  1
  C  C101  1  0.18596800  0.64466700  0.63337500  1
  C  C102  1  0.63337500  0.18596800  0.64466700  1
  C  C103  1  0.68596800  0.13337500  0.14466700  1
  C  C104  1  0.14466700  0.68596800  0.13337500  1
  C  C105  1  0.13337500  0.14466700  0.68596800  1
  C  C106  1  0.76292000  0.67830800  0.41340300  1
  C  C107  1  0.41340300  0.76292000  0.67830800  1
  C  C108  1  0.67830800  0.41340300  0.76292000  1
  C  C109  1  0.91340300  0.17830800  0.26292000  1
  C  C110  1  0.26292000  0.91340300  0.17830800  1
  C  C111  1  0.17830800  0.26292000  0.91340300  1
  C  C112  1  0.88405900  0.89520100  0.58721600  1
  C  C113  1  0.58721600  0.88405900  0.89520100  1
  C  C114  1  0.89520100  0.58721600  0.88405900  1
  C  C115  1  0.08721600  0.39520100  0.38405900  1
  C  C116  1  0.38405900  0.08721600  0.39520100  1
  C  C117  1  0.39520100  0.38405900  0.08721600  1
