# generated using pymatgen
data_Cu3Ni4C5
_symmetry_space_group_name_H-M   'P 1'
_cell_length_a   10.94090765
_cell_length_b   10.94090765
_cell_length_c   10.94090765
_cell_angle_alpha   158.76041070
_cell_angle_beta   158.76041070
_cell_angle_gamma   30.21450627
_symmetry_Int_Tables_number   1
_chemical_formula_structural   Cu3Ni4C5
_chemical_formula_sum   'Cu3 Ni4 C5'
_cell_volume   171.77228012
_cell_formula_units_Z   1
loop_
 _symmetry_equiv_pos_site_id
 _symmetry_equiv_pos_as_xyz
  1  'x, y, z'
loop_
 _atom_site_type_symbol
 _atom_site_label
 _atom_site_symmetry_multiplicity
 _atom_site_fract_x
 _atom_site_fract_y
 _atom_site_fract_z
 _atom_site_occupancy
  C  C0  1  0.50000000  0.50000000  0.00000000  1
  C  C1  1  0.67197900  0.67197900  0.00000000  1
  C  C2  1  0.32802100  0.32802100  0.00000000  1
  C  C3  1  0.90136100  0.90136100  0.00000000  1
  C  C4  1  0.09863900  0.09863900  0.00000000  1
  Ni  Ni5  1  0.89998300  0.39998300  0.50000000  1
  Ni  Ni6  1  0.60001700  0.10001700  0.50000000  1
  Ni  Ni7  1  0.10001700  0.60001700  0.50000000  1
  Ni  Ni8  1  0.39998300  0.89998300  0.50000000  1
  Cu  Cu9  1  0.00000000  0.00000000  0.00000000  1
  Cu  Cu10  1  0.79117000  0.79117000  0.00000000  1
  Cu  Cu11  1  0.20883000  0.20883000  0.00000000  1
