# generated using pymatgen
data_Cu(NiC6)2
_symmetry_space_group_name_H-M   'P 1'
_cell_length_a   5.58744758
_cell_length_b   13.17938400
_cell_length_c   5.58744600
_cell_angle_alpha   90.00000000
_cell_angle_beta   60.00000934
_cell_angle_gamma   90.00000000
_symmetry_Int_Tables_number   1
_chemical_formula_structural   Cu(NiC6)2
_chemical_formula_sum   'Cu2 Ni4 C24'
_cell_volume   356.33016174
_cell_formula_units_Z   2
loop_
 _symmetry_equiv_pos_site_id
 _symmetry_equiv_pos_as_xyz
  1  'x, y, z'
loop_
 _atom_site_type_symbol
 _atom_site_label
 _atom_site_symmetry_multiplicity
 _atom_site_fract_x
 _atom_site_fract_y
 _atom_site_fract_z
 _atom_site_occupancy
  C  C0  1  0.66666700  0.58438400  0.66666700  1
  C  C1  1  0.00000000  0.25000000  0.00000000  1
  C  C2  1  0.33333300  0.91561600  0.33333300  1
  C  C3  1  0.66666700  0.08438400  0.66666700  1
  C  C4  1  0.00000000  0.75000000  0.00000000  1
  C  C5  1  0.33333300  0.41561600  0.33333300  1
  Ni  Ni6  1  0.66666700  0.83499600  0.66666700  1
  Ni  Ni7  1  0.33333300  0.16500400  0.33333300  1
  Ni  Ni8  1  0.66666700  0.33499600  0.66666700  1
  Ni  Ni9  1  0.33333300  0.66500400  0.33333300  1
  Cu  Cu10  1  0.00000000  0.50000000  0.00000000  1
  Cu  Cu11  1  0.00000000  0.00000000  0.00000000  1
  C  C12  1  0.33612600  0.41536400  0.89553100  1
  C  C13  1  0.00000000  0.75000000  0.56587700  1
  C  C14  1  0.66387400  0.08463600  0.23165800  1
  C  C15  1  0.76834200  0.41536400  0.33612600  1
  C  C16  1  0.43412300  0.75000000  0.00000000  1
  C  C17  1  0.10446900  0.08463600  0.66387400  1
  C  C18  1  0.89553100  0.41536400  0.76834200  1
  C  C19  1  0.56587700  0.75000000  0.43412300  1
  C  C20  1  0.23165800  0.08463600  0.10446900  1
  C  C21  1  0.23165800  0.58463600  0.66387400  1
  C  C22  1  0.89553100  0.91536400  0.33612600  1
  C  C23  1  0.56587700  0.25000000  0.00000000  1
  C  C24  1  0.10446900  0.58463600  0.23165800  1
  C  C25  1  0.76834300  0.91536400  0.89553100  1
  C  C26  1  0.43412300  0.25000000  0.56587700  1
  C  C27  1  0.66387400  0.58463600  0.10446900  1
  C  C28  1  0.33612600  0.91536400  0.76834200  1
  C  C29  1  0.00000000  0.25000000  0.43412300  1
