# generated using pymatgen
data_Cu5NiC17
_symmetry_space_group_name_H-M   'P 1'
_cell_length_a   9.49924740
_cell_length_b   16.23797023
_cell_length_c   19.69205606
_cell_angle_alpha   90.00000000
_cell_angle_beta   90.00000000
_cell_angle_gamma   90.00000000
_symmetry_Int_Tables_number   1
_chemical_formula_structural   Cu5NiC17
_chemical_formula_sum   'Cu40 Ni8 C136'
_cell_volume   3037.47004002
_cell_formula_units_Z   8
loop_
 _symmetry_equiv_pos_site_id
 _symmetry_equiv_pos_as_xyz
  1  'x, y, z'
loop_
 _atom_site_type_symbol
 _atom_site_label
 _atom_site_symmetry_multiplicity
 _atom_site_fract_x
 _atom_site_fract_y
 _atom_site_fract_z
 _atom_site_occupancy
  C  C0  1  0.20171672  0.42670399  0.18086979  1
  C  C1  1  0.79828328  0.57329601  0.81913021  1
  C  C2  1  0.29828328  0.57329601  0.68086979  1
  C  C3  1  0.79828328  0.92670399  0.31913021  1
  C  C4  1  0.70171672  0.42670399  0.31913021  1
  C  C5  1  0.20171672  0.07329601  0.68086979  1
  C  C6  1  0.70171672  0.07329601  0.81913021  1
  C  C7  1  0.29828328  0.92670399  0.18086979  1
  C  C8  1  0.02561689  0.48436483  0.33413309  1
  C  C9  1  0.97438311  0.51563517  0.66586691  1
  C  C10  1  0.47438311  0.51563517  0.83413309  1
  C  C11  1  0.97438311  0.98436483  0.16586691  1
  C  C12  1  0.52561689  0.48436483  0.16586691  1
  C  C13  1  0.02561689  0.01563517  0.83413309  1
  C  C14  1  0.52561689  0.01563517  0.66586691  1
  C  C15  1  0.47438311  0.98436483  0.33413309  1
  C  C16  1  0.08339671  0.36628909  0.36602770  1
  C  C17  1  0.91660329  0.63371091  0.63397230  1
  C  C18  1  0.41660329  0.63371091  0.86602770  1
  C  C19  1  0.91660329  0.86628909  0.13397230  1
  C  C20  1  0.58339671  0.36628909  0.13397230  1
  C  C21  1  0.08339671  0.13371091  0.86602770  1
  C  C22  1  0.58339671  0.13371091  0.63397230  1
  C  C23  1  0.41660329  0.86628909  0.36602770  1
  C  C24  1  0.29989007  0.34617428  0.20504710  1
  C  C25  1  0.70010993  0.65382572  0.79495290  1
  C  C26  1  0.20010993  0.65382572  0.70504710  1
  C  C27  1  0.70010993  0.84617428  0.29495290  1
  C  C28  1  0.79989007  0.34617428  0.29495290  1
  C  C29  1  0.29989007  0.15382572  0.70504710  1
  C  C30  1  0.79989007  0.15382572  0.79495290  1
  C  C31  1  0.20010993  0.84617428  0.20504710  1
  C  C32  1  0.27660696  0.10976565  0.05031400  1
  C  C33  1  0.72339304  0.89023435  0.94968600  1
  C  C34  1  0.22339304  0.89023435  0.55031400  1
  C  C35  1  0.72339304  0.60976565  0.44968600  1
  C  C36  1  0.77660696  0.10976565  0.44968600  1
  C  C37  1  0.27660696  0.39023435  0.55031400  1
  C  C38  1  0.77660696  0.39023435  0.94968600  1
  C  C39  1  0.22339304  0.60976565  0.05031400  1
  C  C40  1  0.10161215  0.37865121  0.28664810  1
  C  C41  1  0.89838785  0.62134879  0.71335190  1
  C  C42  1  0.39838785  0.62134879  0.78664810  1
  C  C43  1  0.89838785  0.87865121  0.21335190  1
  C  C44  1  0.60161215  0.37865121  0.21335190  1
  C  C45  1  0.10161215  0.12134879  0.78664810  1
  C  C46  1  0.60161215  0.12134879  0.71335190  1
  C  C47  1  0.39838785  0.87865121  0.28664810  1
  C  C48  1  0.12925595  0.22963249  0.16244267  1
  C  C49  1  0.87074405  0.77036751  0.83755733  1
  C  C50  1  0.37074405  0.77036751  0.66244267  1
  C  C51  1  0.87074405  0.72963249  0.33755733  1
  C  C52  1  0.62925595  0.22963249  0.33755733  1
  C  C53  1  0.12925595  0.27036751  0.66244267  1
  C  C54  1  0.62925595  0.27036751  0.83755733  1
  C  C55  1  0.37074405  0.72963249  0.16244267  1
  C  C56  1  0.42116748  0.29691138  0.42136832  1
  C  C57  1  0.57883252  0.70308862  0.57863168  1
  C  C58  1  0.07883252  0.70308862  0.92136832  1
  C  C59  1  0.57883252  0.79691138  0.07863168  1
  C  C60  1  0.92116748  0.29691138  0.07863168  1
  C  C61  1  0.42116748  0.20308862  0.92136832  1
  C  C62  1  0.92116748  0.20308862  0.57863168  1
  C  C63  1  0.07883252  0.79691138  0.42136832  1
  C  C64  1  0.30673212  0.33494651  0.46434889  1
  C  C65  1  0.69326788  0.66505349  0.53565111  1
  C  C66  1  0.19326788  0.66505349  0.96434889  1
  C  C67  1  0.69326788  0.83494651  0.03565111  1
  C  C68  1  0.80673212  0.33494651  0.03565111  1
  C  C69  1  0.30673212  0.16505349  0.96434889  1
  C  C70  1  0.80673212  0.16505349  0.53565111  1
  C  C71  1  0.19326788  0.83494651  0.46434889  1
  C  C72  1  0.00499069  0.34780183  0.11928264  1
  C  C73  1  0.99500931  0.65219817  0.88071736  1
  C  C74  1  0.49500931  0.65219817  0.61928264  1
  C  C75  1  0.99500931  0.84780183  0.38071736  1
  C  C76  1  0.50499069  0.34780183  0.38071736  1
  C  C77  1  0.00499069  0.15219817  0.61928264  1
  C  C78  1  0.50499069  0.15219817  0.88071736  1
  C  C79  1  0.49500931  0.84780183  0.11928264  1
  C  C80  1  0.04417792  0.17750300  0.12342793  1
  C  C81  1  0.95582208  0.82249700  0.87657207  1
  C  C82  1  0.45582208  0.82249700  0.62342793  1
  C  C83  1  0.95582208  0.67750300  0.37657207  1
  C  C84  1  0.54417792  0.17750300  0.37657207  1
  C  C85  1  0.04417792  0.32249700  0.62342793  1
  C  C86  1  0.54417792  0.32249700  0.87657207  1
  C  C87  1  0.45582208  0.67750300  0.12342793  1
  C  C88  1  0.11453305  0.31613341  0.16006914  1
  C  C89  1  0.88546695  0.68386659  0.83993086  1
  C  C90  1  0.38546695  0.68386659  0.66006914  1
  C  C91  1  0.88546695  0.81613341  0.33993086  1
  C  C92  1  0.61453305  0.31613341  0.33993086  1
  C  C93  1  0.11453305  0.18386659  0.66006914  1
  C  C94  1  0.61453305  0.18386659  0.83993086  1
  C  C95  1  0.38546695  0.81613341  0.16006914  1
  C  C96  1  0.44182242  0.21153828  0.41961578  1
  C  C97  1  0.55817758  0.78846172  0.58038422  1
  C  C98  1  0.05817758  0.78846172  0.91961578  1
  C  C99  1  0.55817758  0.71153828  0.08038422  1
  C  C100  1  0.94182242  0.21153828  0.08038422  1
  C  C101  1  0.44182242  0.28846172  0.91961578  1
  C  C102  1  0.94182242  0.28846172  0.58038422  1
  C  C103  1  0.05817758  0.71153828  0.41961578  1
  C  C104  1  0.06435885  0.08544415  0.12717437  1
  C  C105  1  0.93564115  0.91455585  0.87282563  1
  C  C106  1  0.43564115  0.91455585  0.62717437  1
  C  C107  1  0.93564115  0.58544415  0.37282563  1
  C  C108  1  0.56435885  0.08544415  0.37282563  1
  C  C109  1  0.06435885  0.41455585  0.62717437  1
  C  C110  1  0.56435885  0.41455585  0.87282563  1
  C  C111  1  0.43564115  0.58544415  0.12717437  1
  C  C112  1  0.27720259  0.17762261  0.22988287  1
  C  C113  1  0.72279741  0.82237739  0.77011713  1
  C  C114  1  0.22279741  0.82237739  0.72988287  1
  C  C115  1  0.72279741  0.67762261  0.27011713  1
  C  C116  1  0.77720259  0.17762261  0.27011713  1
  C  C117  1  0.27720259  0.32237739  0.72988287  1
  C  C118  1  0.77720259  0.32237739  0.77011713  1
  C  C119  1  0.22279741  0.67762261  0.22988287  1
  C  C120  1  0.32214637  0.13376818  0.48249737  1
  C  C121  1  0.67785363  0.86623182  0.51750263  1
  C  C122  1  0.17785363  0.86623182  0.98249737  1
  C  C123  1  0.67785363  0.63376818  0.01750263  1
  C  C124  1  0.82214637  0.13376818  0.01750263  1
  C  C125  1  0.32214637  0.36623182  0.98249737  1
  C  C126  1  0.82214637  0.36623182  0.51750263  1
  C  C127  1  0.17785363  0.63376818  0.48249737  1
  C  C128  1  0.46314356  0.47548816  0.37853560  1
  C  C129  1  0.53685644  0.52451184  0.62146440  1
  C  C130  1  0.03685644  0.52451184  0.87853560  1
  C  C131  1  0.53685644  0.97548816  0.12146440  1
  C  C132  1  0.96314356  0.47548816  0.12146440  1
  C  C133  1  0.46314356  0.02451184  0.87853560  1
  C  C134  1  0.96314356  0.02451184  0.62146440  1
  C  C135  1  0.03685644  0.97548816  0.37853560  1
  Ni  Ni136  1  0.19929255  0.36774575  0.19928182  1
  Ni  Ni137  1  0.80070745  0.63225425  0.80071818  1
  Ni  Ni138  1  0.30070745  0.63225425  0.69928182  1
  Ni  Ni139  1  0.80070745  0.86774575  0.30071818  1
  Ni  Ni140  1  0.69929255  0.36774575  0.30071818  1
  Ni  Ni141  1  0.19929255  0.13225425  0.69928182  1
  Ni  Ni142  1  0.69929255  0.13225425  0.80071818  1
  Ni  Ni143  1  0.30070745  0.86774575  0.19928182  1
  Cu  Cu144  1  0.18504794  0.34258688  0.44422584  1
  Cu  Cu145  1  0.81495206  0.65741312  0.55577416  1
  Cu  Cu146  1  0.31495206  0.65741312  0.94422584  1
  Cu  Cu147  1  0.81495206  0.84258688  0.05577416  1
  Cu  Cu148  1  0.68504794  0.34258688  0.05577416  1
  Cu  Cu149  1  0.18504794  0.15741312  0.94422584  1
  Cu  Cu150  1  0.68504794  0.15741312  0.55577416  1
  Cu  Cu151  1  0.31495206  0.84258688  0.44422584  1
  Cu  Cu152  1  0.03791794  0.39059760  0.32549081  1
  Cu  Cu153  1  0.96208206  0.60940240  0.67450919  1
  Cu  Cu154  1  0.46208206  0.60940240  0.82549081  1
  Cu  Cu155  1  0.96208206  0.89059760  0.17450919  1
  Cu  Cu156  1  0.53791794  0.39059760  0.17450919  1
  Cu  Cu157  1  0.03791794  0.10940240  0.82549081  1
  Cu  Cu158  1  0.53791794  0.10940240  0.67450919  1
  Cu  Cu159  1  0.46208206  0.89059760  0.32549081  1
  Cu  Cu160  1  0.16306166  0.05051009  0.09774467  1
  Cu  Cu161  1  0.83693834  0.94948991  0.90225533  1
  Cu  Cu162  1  0.33693834  0.94948991  0.59774467  1
  Cu  Cu163  1  0.83693834  0.55051009  0.40225533  1
  Cu  Cu164  1  0.66306166  0.05051009  0.40225533  1
  Cu  Cu165  1  0.16306166  0.44948991  0.59774467  1
  Cu  Cu166  1  0.66306166  0.44948991  0.90225533  1
  Cu  Cu167  1  0.33693834  0.55051009  0.09774467  1
  Cu  Cu168  1  0.46876130  0.04880261  0.33499661  1
  Cu  Cu169  1  0.53123870  0.95119739  0.66500339  1
  Cu  Cu170  1  0.03123870  0.95119739  0.83499661  1
  Cu  Cu171  1  0.53123870  0.54880261  0.16500339  1
  Cu  Cu172  1  0.96876130  0.04880261  0.16500339  1
  Cu  Cu173  1  0.46876130  0.45119739  0.83499661  1
  Cu  Cu174  1  0.96876130  0.45119739  0.66500339  1
  Cu  Cu175  1  0.03123870  0.54880261  0.33499661  1
  Cu  Cu176  1  0.35330759  0.14007240  0.02460507  1
  Cu  Cu177  1  0.64669241  0.85992760  0.97539493  1
  Cu  Cu178  1  0.14669241  0.85992760  0.52460507  1
  Cu  Cu179  1  0.64669241  0.64007240  0.47539493  1
  Cu  Cu180  1  0.85330759  0.14007240  0.47539493  1
  Cu  Cu181  1  0.35330759  0.35992760  0.52460507  1
  Cu  Cu182  1  0.85330759  0.35992760  0.97539493  1
  Cu  Cu183  1  0.14669241  0.64007240  0.02460507  1
