# generated using pymatgen
data_Cu(NiC2)3
_symmetry_space_group_name_H-M   'P 1'
_cell_length_a   7.15467915
_cell_length_b   7.15467915
_cell_length_c   7.15467948
_cell_angle_alpha   53.85024721
_cell_angle_beta   53.85024721
_cell_angle_gamma   53.85025328
_symmetry_Int_Tables_number   1
_chemical_formula_structural   Cu(NiC2)3
_chemical_formula_sum   'Cu1 Ni3 C6'
_cell_volume   221.75353776
_cell_formula_units_Z   1
loop_
 _symmetry_equiv_pos_site_id
 _symmetry_equiv_pos_as_xyz
  1  'x, y, z'
loop_
 _atom_site_type_symbol
 _atom_site_label
 _atom_site_symmetry_multiplicity
 _atom_site_fract_x
 _atom_site_fract_y
 _atom_site_fract_z
 _atom_site_occupancy
  Ni  Ni0  1  0.50000000  0.50000000  0.50000000  1
  Ni  Ni1  1  0.16790600  0.16790600  0.16790600  1
  Ni  Ni2  1  0.83209400  0.83209400  0.83209400  1
  Cu  Cu3  1  0.00000000  0.00000000  0.00000000  1
  C  C4  1  0.92262700  0.59331000  0.25595200  1
  C  C5  1  0.25595200  0.92262700  0.59331000  1
  C  C6  1  0.59331000  0.25595200  0.92262700  1
  C  C7  1  0.40669000  0.74404800  0.07737300  1
  C  C8  1  0.74404800  0.07737300  0.40669000  1
  C  C9  1  0.07737300  0.40669000  0.74404800  1
