# generated using pymatgen
data_Cu3NiC16
_symmetry_space_group_name_H-M   'P 1'
_cell_length_a   6.38628119
_cell_length_b   6.38628119
_cell_length_c   24.81521013
_cell_angle_alpha   89.87125244
_cell_angle_beta   89.87125244
_cell_angle_gamma   120.06998958
_symmetry_Int_Tables_number   1
_chemical_formula_structural   Cu3NiC16
_chemical_formula_sum   'Cu6 Ni2 C32'
_cell_volume   875.85768191
_cell_formula_units_Z   2
loop_
 _symmetry_equiv_pos_site_id
 _symmetry_equiv_pos_as_xyz
  1  'x, y, z'
loop_
 _atom_site_type_symbol
 _atom_site_label
 _atom_site_symmetry_multiplicity
 _atom_site_fract_x
 _atom_site_fract_y
 _atom_site_fract_z
 _atom_site_occupancy
  C  C0  1  0.33262600  0.66609000  0.15921100  1
  C  C1  1  0.33340700  0.66648100  0.33760700  1
  C  C2  1  0.66609000  0.33262600  0.65921100  1
  C  C3  1  0.66648100  0.33340700  0.83760700  1
  C  C4  1  0.66659300  0.33330800  0.03211900  1
  C  C5  1  0.66666500  0.33331400  0.47117700  1
  C  C6  1  0.33330800  0.66659300  0.53211900  1
  C  C7  1  0.33331400  0.66666500  0.97117700  1
  Ni  Ni8  1  0.00820300  0.00315500  0.25057800  1
  Ni  Ni9  1  0.00315500  0.00820300  0.75057800  1
  Cu  Cu10  1  0.99930300  0.99969400  0.09376800  1
  Cu  Cu11  1  0.00031300  0.99997100  0.40647800  1
  Cu  Cu12  1  0.99969400  0.99930300  0.59376800  1
  Cu  Cu13  1  0.99997100  0.00031300  0.90647800  1
  Cu  Cu14  1  0.66572600  0.33341200  0.22855000  1
  Cu  Cu15  1  0.33341200  0.66572600  0.72855000  1
  C  C16  1  0.14866200  0.84535400  0.06892000  1
  C  C17  1  0.15537600  0.30378600  0.06873100  1
  C  C18  1  0.69633200  0.85164100  0.06875900  1
  C  C19  1  0.14948100  0.84388600  0.43026400  1
  C  C20  1  0.15631000  0.30541100  0.43016200  1
  C  C21  1  0.69419800  0.85059600  0.43017500  1
  C  C22  1  0.84535400  0.14866200  0.56892000  1
  C  C23  1  0.30378600  0.15537600  0.56873100  1
  C  C24  1  0.85164100  0.69633200  0.56875900  1
  C  C25  1  0.84388600  0.14948100  0.93026400  1
  C  C26  1  0.30541100  0.15631000  0.93016200  1
  C  C27  1  0.85059600  0.69419800  0.93017500  1
  C  C28  1  0.99678500  0.99966000  0.16766400  1
  C  C29  1  0.00188700  0.00020600  0.33286200  1
  C  C30  1  0.99966000  0.99678500  0.66766400  1
  C  C31  1  0.00020600  0.00188700  0.83286200  1
  C  C32  1  0.66604000  0.33338700  0.15747600  1
  C  C33  1  0.33338700  0.66604000  0.65747600  1
  C  C34  1  0.37201600  0.09253800  0.25244000  1
  C  C35  1  0.90439800  0.27976000  0.25147200  1
  C  C36  1  0.71907200  0.62515800  0.25166600  1
  C  C37  1  0.09253800  0.37201600  0.75244000  1
  C  C38  1  0.27976000  0.90439800  0.75147200  1
  C  C39  1  0.62515800  0.71907200  0.75166600  1
