# generated using pymatgen
data_CuNiC10
_symmetry_space_group_name_H-M   'P 1'
_cell_length_a   9.67187000
_cell_length_b   16.55894100
_cell_length_c   7.70261000
_cell_angle_alpha   90.00000000
_cell_angle_beta   90.00000000
_cell_angle_gamma   90.00000000
_symmetry_Int_Tables_number   1
_chemical_formula_structural   CuNiC10
_chemical_formula_sum   'Cu4 Ni4 C40'
_cell_volume   1233.61862707
_cell_formula_units_Z   4
loop_
 _symmetry_equiv_pos_site_id
 _symmetry_equiv_pos_as_xyz
  1  'x, y, z'
loop_
 _atom_site_type_symbol
 _atom_site_label
 _atom_site_symmetry_multiplicity
 _atom_site_fract_x
 _atom_site_fract_y
 _atom_site_fract_z
 _atom_site_occupancy
  Ni  Ni0  1  0.75000000  0.74774300  0.41147300  1
  Ni  Ni1  1  0.25000000  0.25225700  0.58852700  1
  Ni  Ni2  1  0.25000000  0.75225700  0.91147300  1
  Ni  Ni3  1  0.75000000  0.24774300  0.08852700  1
  Cu  Cu4  1  0.75000000  0.85603200  0.81801900  1
  Cu  Cu5  1  0.25000000  0.14396800  0.18198100  1
  Cu  Cu6  1  0.25000000  0.64396800  0.31801900  1
  Cu  Cu7  1  0.75000000  0.35603200  0.68198100  1
  C  C8  1  0.75000000  0.98519900  0.57246300  1
  C  C9  1  0.25000000  0.01480100  0.42753700  1
  C  C10  1  0.25000000  0.51480100  0.07246300  1
  C  C11  1  0.75000000  0.48519900  0.92753700  1
  C  C12  1  0.99877700  0.72331400  0.84715000  1
  C  C13  1  0.00122300  0.27668600  0.15285000  1
  C  C14  1  0.00122300  0.77668600  0.34715000  1
  C  C15  1  0.49877700  0.27668600  0.15285000  1
  C  C16  1  0.99877700  0.22331400  0.65285000  1
  C  C17  1  0.50122300  0.72331400  0.84715000  1
  C  C18  1  0.50122300  0.22331400  0.65285000  1
  C  C19  1  0.49877700  0.77668600  0.34715000  1
  C  C20  1  0.75000000  0.65231700  0.17118900  1
  C  C21  1  0.25000000  0.34768300  0.82881100  1
  C  C22  1  0.25000000  0.84768300  0.67118900  1
  C  C23  1  0.75000000  0.15231700  0.32881100  1
  C  C24  1  0.91313300  0.81821400  0.93040400  1
  C  C25  1  0.08686700  0.18178600  0.06959600  1
  C  C26  1  0.08686700  0.68178600  0.43040400  1
  C  C27  1  0.41313300  0.18178600  0.06959600  1
  C  C28  1  0.91313300  0.31821400  0.56959600  1
  C  C29  1  0.58686700  0.81821400  0.93040400  1
  C  C30  1  0.58686700  0.31821400  0.56959600  1
  C  C31  1  0.41313300  0.68178600  0.43040400  1
  C  C32  1  0.89165900  0.93744000  0.66572700  1
  C  C33  1  0.10834100  0.06256000  0.33427300  1
  C  C34  1  0.10834100  0.56256000  0.16572700  1
  C  C35  1  0.39165900  0.06256000  0.33427300  1
  C  C36  1  0.89165900  0.43744000  0.83427300  1
  C  C37  1  0.60834100  0.93744000  0.66572700  1
  C  C38  1  0.60834100  0.43744000  0.83427300  1
  C  C39  1  0.39165900  0.56256000  0.16572700  1
  C  C40  1  0.75000000  0.78289400  0.63474000  1
  C  C41  1  0.25000000  0.21710600  0.36526000  1
  C  C42  1  0.25000000  0.71710600  0.13474000  1
  C  C43  1  0.75000000  0.28289400  0.86526000  1
  C  C44  1  0.75000000  0.45706400  0.46127200  1
  C  C45  1  0.25000000  0.54293600  0.53872900  1
  C  C46  1  0.25000000  0.04293600  0.96127100  1
  C  C47  1  0.75000000  0.95706400  0.03872800  1
