# generated using pymatgen
data_Cu5Ni8
_symmetry_space_group_name_H-M   'P 1'
_cell_length_a   7.87891334
_cell_length_b   7.87891334
_cell_length_c   7.87891327
_cell_angle_alpha   109.69519045
_cell_angle_beta   109.69519045
_cell_angle_gamma   109.69518182
_symmetry_Int_Tables_number   1
_chemical_formula_structural   Cu5Ni8
_chemical_formula_sum   'Cu10 Ni16'
_cell_volume   373.35577475
_cell_formula_units_Z   2
loop_
 _symmetry_equiv_pos_site_id
 _symmetry_equiv_pos_as_xyz
  1  'x, y, z'
loop_
 _atom_site_type_symbol
 _atom_site_label
 _atom_site_symmetry_multiplicity
 _atom_site_fract_x
 _atom_site_fract_y
 _atom_site_fract_z
 _atom_site_occupancy
  Ni  Ni0  1  0.30354500  0.30354500  0.30354500  1
  Ni  Ni1  1  0.35343700  0.99795600  0.35343700  1
  Ni  Ni2  1  0.35343700  0.35343700  0.99795600  1
  Ni  Ni3  1  0.99795600  0.35343700  0.35343700  1
  Ni  Ni4  1  0.66347700  0.44143100  0.66347700  1
  Ni  Ni5  1  0.66347700  0.66347700  0.44143100  1
  Ni  Ni6  1  0.44143100  0.66347700  0.66347700  1
  Ni  Ni7  1  0.26522900  0.61637800  0.26522900  1
  Ni  Ni8  1  0.26522900  0.26522900  0.61637800  1
  Ni  Ni9  1  0.61637800  0.26522900  0.26522900  1
  Ni  Ni10  1  0.71920300  0.33325500  0.96194700  1
  Ni  Ni11  1  0.96194700  0.71920300  0.33325500  1
  Ni  Ni12  1  0.33325500  0.96194700  0.71920300  1
  Ni  Ni13  1  0.33325500  0.71920300  0.96194700  1
  Ni  Ni14  1  0.96194700  0.33325500  0.71920300  1
  Ni  Ni15  1  0.71920300  0.96194700  0.33325500  1
  Cu  Cu16  1  0.84887600  0.84887600  0.84887600  1
  Cu  Cu17  1  0.98465700  0.20273400  0.98465700  1
  Cu  Cu18  1  0.98465700  0.98465700  0.20273400  1
  Cu  Cu19  1  0.20273400  0.98465700  0.98465700  1
  Cu  Cu20  1  0.01217200  0.66631000  0.01217200  1
  Cu  Cu21  1  0.01217200  0.01217200  0.66631000  1
  Cu  Cu22  1  0.66631000  0.01217200  0.01217200  1
  Cu  Cu23  1  0.63497700  0.98406800  0.63497700  1
  Cu  Cu24  1  0.63497700  0.63497700  0.98406800  1
  Cu  Cu25  1  0.98406800  0.63497700  0.63497700  1
