# generated using pymatgen
data_Cu3(Ni5C11)2
_symmetry_space_group_name_H-M   'P 1'
_cell_length_a   6.70814367
_cell_length_b   11.18071505
_cell_length_c   11.46880556
_cell_angle_alpha   72.29970303
_cell_angle_beta   107.16467381
_cell_angle_gamma   72.63982305
_symmetry_Int_Tables_number   1
_chemical_formula_structural   Cu3(Ni5C11)2
_chemical_formula_sum   'Cu6 Ni20 C44'
_cell_volume   708.22319750
_cell_formula_units_Z   2
loop_
 _symmetry_equiv_pos_site_id
 _symmetry_equiv_pos_as_xyz
  1  'x, y, z'
loop_
 _atom_site_type_symbol
 _atom_site_label
 _atom_site_symmetry_multiplicity
 _atom_site_fract_x
 _atom_site_fract_y
 _atom_site_fract_z
 _atom_site_occupancy
  C  C0  1  0.68985600  0.98944100  0.37633700  1
  C  C1  1  0.31343800  0.01364900  0.62374900  1
  C  C2  1  0.73290000  0.45595800  0.90486200  1
  C  C3  1  0.26440600  0.53563000  0.09052700  1
  C  C4  1  0.50005500  0.01133300  0.99158100  1
  C  C5  1  0.23600600  0.87562400  0.08537800  1
  Ni  Ni6  1  0.20149200  0.50216000  0.81191500  1
  Ni  Ni7  1  0.79782100  0.49895200  0.18649800  1
  Ni  Ni8  1  0.37793000  0.26393100  0.99557100  1
  Ni  Ni9  1  0.62077400  0.73634800  0.00262300  1
  Ni  Ni10  1  0.24562600  0.30253700  0.75725400  1
  Ni  Ni11  1  0.74828300  0.70005000  0.24124000  1
  Ni  Ni12  1  0.33948100  0.70157500  0.35512700  1
  Ni  Ni13  1  0.66887500  0.29391200  0.64864600  1
  Ni  Ni14  1  0.13952300  0.14770100  0.07669900  1
  Ni  Ni15  1  0.85751700  0.85721700  0.92585000  1
  Ni  Ni16  1  0.22063500  0.95903900  0.29867300  1
  Ni  Ni17  1  0.78320700  0.04159000  0.70279200  1
  Ni  Ni18  1  0.81563600  0.69022700  0.69905200  1
  Ni  Ni19  1  0.18314400  0.30976200  0.30094100  1
  Ni  Ni20  1  0.39236300  0.77808600  0.53790500  1
  Ni  Ni21  1  0.60556200  0.22222000  0.46327900  1
  Ni  Ni22  1  0.12724400  0.72556200  0.64619100  1
  Ni  Ni23  1  0.87030700  0.27572200  0.35335300  1
  Ni  Ni24  1  0.81775100  0.13235400  0.14184900  1
  Ni  Ni25  1  0.18481200  0.86552500  0.85441800  1
  Cu  Cu26  1  0.11149900  0.32709200  0.57051000  1
  Cu  Cu27  1  0.88983300  0.67496300  0.42764100  1
  Cu  Cu28  1  0.43830800  0.50361700  0.38488700  1
  Cu  Cu29  1  0.56305900  0.49281800  0.61518300  1
  Cu  Cu30  1  0.04320900  0.10907200  0.90891400  1
  Cu  Cu31  1  0.90039100  0.87783500  0.10020500  1
  C  C32  1  0.58931700  0.72332600  0.67035600  1
  C  C33  1  0.40966500  0.27625000  0.33000000  1
  C  C34  1  0.35658400  0.59900100  0.30870000  1
  C  C35  1  0.64877500  0.39868000  0.69255900  1
  C  C36  1  0.97968800  0.57796100  0.81887000  1
  C  C37  1  0.02000900  0.42295100  0.18181800  1
  C  C38  1  0.41629300  0.66665900  0.49122000  1
  C  C39  1  0.57960800  0.33259500  0.51027500  1
  C  C40  1  0.88931800  0.76187000  0.60984100  1
  C  C41  1  0.10846000  0.23807400  0.38925200  1
  C  C42  1  0.17487500  0.06288300  0.99841000  1
  C  C43  1  0.82633000  0.94034300  0.00380000  1
  C  C44  1  0.28627800  0.60681700  0.75745800  1
  C  C45  1  0.71204800  0.39554600  0.24246400  1
  C  C46  1  0.59121900  0.16295900  0.11892100  1
  C  C47  1  0.41149600  0.83522500  0.87787800  1
  C  C48  1  0.20437900  0.24968400  0.66027400  1
  C  C49  1  0.79392500  0.75240800  0.33795900  1
  C  C50  1  0.17518100  0.81560500  0.56056800  1
  C  C51  1  0.82238300  0.18567400  0.43886200  1
  C  C52  1  0.88876200  0.20203400  0.05391200  1
  C  C53  1  0.11939100  0.80273400  0.95191400  1
  C  C54  1  0.14724500  0.44271600  0.71554500  1
  C  C55  1  0.85095800  0.56126100  0.28107700  1
  C  C56  1  0.37958500  0.21153800  0.88870300  1
  C  C57  1  0.60104500  0.79318400  0.10923100  1
  C  C58  1  0.97280400  0.02560200  0.26822000  1
  C  C59  1  0.02905500  0.96703900  0.72822800  1
  C  C60  1  0.17715100  0.27159700  0.02377000  1
  C  C61  1  0.82689300  0.73102400  0.98213000  1
  C  C62  1  0.37582000  0.40426000  0.94702300  1
  C  C63  1  0.62469400  0.59666500  0.05117900  1
  C  C64  1  0.37307200  0.90575700  0.44232400  1
  C  C65  1  0.62643400  0.09398000  0.55895000  1
  C  C66  1  0.24698200  0.83596500  0.26099300  1
  C  C67  1  0.77406600  0.15935500  0.74098700  1
  C  C68  1  0.28877900  0.05440500  0.22003400  1
  C  C69  1  0.71599000  0.94536800  0.78304900  1
