# generated using pymatgen
data_Cu5Ni3C32
_symmetry_space_group_name_H-M   'P 1'
_cell_length_a   7.80978441
_cell_length_b   7.80978441
_cell_length_c   7.77178508
_cell_angle_alpha   89.99403586
_cell_angle_beta   89.99403586
_cell_angle_gamma   89.99085940
_symmetry_Int_Tables_number   1
_chemical_formula_structural   Cu5Ni3C32
_chemical_formula_sum   'Cu5 Ni3 C32'
_cell_volume   474.02239804
_cell_formula_units_Z   1
loop_
 _symmetry_equiv_pos_site_id
 _symmetry_equiv_pos_as_xyz
  1  'x, y, z'
loop_
 _atom_site_type_symbol
 _atom_site_label
 _atom_site_symmetry_multiplicity
 _atom_site_fract_x
 _atom_site_fract_y
 _atom_site_fract_z
 _atom_site_occupancy
  C  C0  1  0.75120800  0.24871100  0.24645900  1
  C  C1  1  0.75118800  0.24880900  0.75349900  1
  C  C2  1  0.75116700  0.75116700  0.75377400  1
  C  C3  1  0.24884300  0.24884300  0.24646400  1
  C  C4  1  0.24884000  0.24884000  0.75345200  1
  C  C5  1  0.24871100  0.75120800  0.24645900  1
  C  C6  1  0.24880900  0.75118800  0.75349900  1
  C  C7  1  0.75143000  0.75143000  0.24571400  1
  Ni  Ni8  1  0.99941200  0.50079000  0.49926200  1
  Ni  Ni9  1  0.50079000  0.99941200  0.49926200  1
  Ni  Ni10  1  0.50056200  0.50056200  0.49920000  1
  Cu  Cu11  1  0.99973400  0.99973400  0.00035300  1
  Cu  Cu12  1  0.99966700  0.99966700  0.49947800  1
  Cu  Cu13  1  0.99949800  0.50055800  0.00032300  1
  Cu  Cu14  1  0.50055800  0.99949800  0.00032300  1
  Cu  Cu15  1  0.50039600  0.50039600  0.00030000  1
  C  C16  1  0.74984800  0.99785300  0.00218700  1
  C  C17  1  0.75274300  0.99836600  0.49840400  1
  C  C18  1  0.75008600  0.50212300  0.00220100  1
  C  C19  1  0.75028700  0.50136300  0.49865500  1
  C  C20  1  0.25015400  0.99977300  0.00016600  1
  C  C21  1  0.24730100  0.99970000  0.49971000  1
  C  C22  1  0.24989600  0.50020400  0.00015600  1
  C  C23  1  0.24966100  0.50033600  0.49965800  1
  C  C24  1  0.99977300  0.25015400  0.00016600  1
  C  C25  1  0.99970000  0.24730100  0.49971000  1
  C  C26  1  0.99785300  0.74984800  0.00218700  1
  C  C27  1  0.99836600  0.75274300  0.49840400  1
  C  C28  1  0.50020400  0.24989600  0.00015600  1
  C  C29  1  0.50033600  0.24966100  0.49965800  1
  C  C30  1  0.50212300  0.75008600  0.00220100  1
  C  C31  1  0.50136300  0.75028700  0.49865500  1
  C  C32  1  0.99770400  0.99770400  0.25075000  1
  C  C33  1  0.99996600  0.99996600  0.74928600  1
  C  C34  1  0.99837500  0.50159400  0.24731400  1
  C  C35  1  0.99969900  0.50028900  0.75265200  1
  C  C36  1  0.50159400  0.99837500  0.24731400  1
  C  C37  1  0.50028900  0.99969900  0.75265200  1
  C  C38  1  0.50159100  0.50159100  0.24718400  1
  C  C39  1  0.50027800  0.50027800  0.75274900  1
