# generated using pymatgen
data_Cu11NiC24
_symmetry_space_group_name_H-M   'P 1'
_cell_length_a   6.87853100
_cell_length_b   6.87853100
_cell_length_c   11.29261300
_cell_angle_alpha   90.00000000
_cell_angle_beta   90.00000000
_cell_angle_gamma   90.00000000
_symmetry_Int_Tables_number   1
_chemical_formula_structural   Cu11NiC24
_chemical_formula_sum   'Cu11 Ni1 C24'
_cell_volume   534.30082260
_cell_formula_units_Z   1
loop_
 _symmetry_equiv_pos_site_id
 _symmetry_equiv_pos_as_xyz
  1  'x, y, z'
loop_
 _atom_site_type_symbol
 _atom_site_label
 _atom_site_symmetry_multiplicity
 _atom_site_fract_x
 _atom_site_fract_y
 _atom_site_fract_z
 _atom_site_occupancy
  Ni  Ni0  1  0.50000000  0.50000000  0.00000000  1
  Cu  Cu1  1  0.66952500  0.16800900  0.74922500  1
  Cu  Cu2  1  0.16800900  0.66952500  0.25077500  1
  Cu  Cu3  1  0.83199100  0.33047500  0.25077500  1
  Cu  Cu4  1  0.33047500  0.83199100  0.74922500  1
  Cu  Cu5  1  0.83199100  0.66952500  0.74922500  1
  Cu  Cu6  1  0.33047500  0.16800900  0.25077500  1
  Cu  Cu7  1  0.66952500  0.83199100  0.25077500  1
  Cu  Cu8  1  0.16800900  0.33047500  0.74922500  1
  Cu  Cu9  1  0.00000000  0.00000000  0.50000000  1
  Cu  Cu10  1  0.00000000  0.00000000  0.00000000  1
  Cu  Cu11  1  0.50000000  0.50000000  0.50000000  1
  C  C12  1  0.00000000  0.50000000  0.00000000  1
  C  C13  1  0.50000000  0.00000000  0.50000000  1
  C  C14  1  0.50000000  0.00000000  0.00000000  1
  C  C15  1  0.00000000  0.50000000  0.50000000  1
  C  C16  1  0.64431700  0.13734700  0.10291500  1
  C  C17  1  0.14160900  0.64211600  0.60169500  1
  C  C18  1  0.35568300  0.86265300  0.10291500  1
  C  C19  1  0.85839100  0.35788400  0.60169500  1
  C  C20  1  0.86265300  0.64431700  0.10291500  1
  C  C21  1  0.35788400  0.14160900  0.60169500  1
  C  C22  1  0.13734700  0.35568300  0.10291500  1
  C  C23  1  0.64211600  0.85839100  0.60169500  1
  C  C24  1  0.86265300  0.35568300  0.89708500  1
  C  C25  1  0.35788400  0.85839100  0.39830500  1
  C  C26  1  0.13734700  0.64431700  0.89708500  1
  C  C27  1  0.64211600  0.14160900  0.39830500  1
  C  C28  1  0.64431700  0.86265300  0.89708500  1
  C  C29  1  0.14160900  0.35788400  0.39830500  1
  C  C30  1  0.35568300  0.13734700  0.89708500  1
  C  C31  1  0.85839100  0.64211600  0.39830500  1
  C  C32  1  0.50000000  0.50000000  0.25438700  1
  C  C33  1  0.00000000  0.00000000  0.74940700  1
  C  C34  1  0.00000000  0.00000000  0.25059300  1
  C  C35  1  0.50000000  0.50000000  0.74561300  1
