# generated using pymatgen
data_CuNi3C7
_symmetry_space_group_name_H-M   'P 1'
_cell_length_a   8.45594364
_cell_length_b   8.45594364
_cell_length_c   8.45594373
_cell_angle_alpha   92.22055488
_cell_angle_beta   92.22055488
_cell_angle_gamma   92.22055037
_symmetry_Int_Tables_number   1
_chemical_formula_structural   CuNi3C7
_chemical_formula_sum   'Cu2 Ni6 C14'
_cell_volume   603.22684974
_cell_formula_units_Z   2
loop_
 _symmetry_equiv_pos_site_id
 _symmetry_equiv_pos_as_xyz
  1  'x, y, z'
loop_
 _atom_site_type_symbol
 _atom_site_label
 _atom_site_symmetry_multiplicity
 _atom_site_fract_x
 _atom_site_fract_y
 _atom_site_fract_z
 _atom_site_occupancy
  Ni  Ni0  1  0.12752800  0.37247200  0.75000000  1
  Ni  Ni1  1  0.75000000  0.12752800  0.37247200  1
  Ni  Ni2  1  0.37247200  0.75000000  0.12752800  1
  Ni  Ni3  1  0.25000000  0.87247200  0.62752800  1
  Ni  Ni4  1  0.62752800  0.25000000  0.87247200  1
  Ni  Ni5  1  0.87247200  0.62752800  0.25000000  1
  Cu  Cu6  1  0.25000000  0.25000000  0.25000000  1
  Cu  Cu7  1  0.75000000  0.75000000  0.75000000  1
  C  C8  1  0.50000000  0.50000000  0.50000000  1
  C  C9  1  0.00000000  0.00000000  0.00000000  1
  C  C10  1  0.21090500  0.54462400  0.41855000  1
  C  C11  1  0.41855000  0.21090500  0.54462400  1
  C  C12  1  0.54462400  0.41855000  0.21090500  1
  C  C13  1  0.91855000  0.04462400  0.71090500  1
  C  C14  1  0.71090500  0.91855000  0.04462400  1
  C  C15  1  0.04462400  0.71090500  0.91855000  1
  C  C16  1  0.78909500  0.45537600  0.58145000  1
  C  C17  1  0.58145000  0.78909500  0.45537600  1
  C  C18  1  0.45537600  0.58145000  0.78909500  1
  C  C19  1  0.08145000  0.95537600  0.28909500  1
  C  C20  1  0.28909500  0.08145000  0.95537600  1
  C  C21  1  0.95537600  0.28909500  0.08145000  1
