# generated using pymatgen
data_CuNiC4
_symmetry_space_group_name_H-M   'P 1'
_cell_length_a   7.32070403
_cell_length_b   9.72382835
_cell_length_c   8.35107660
_cell_angle_alpha   69.39754332
_cell_angle_beta   102.11270466
_cell_angle_gamma   76.94636353
_symmetry_Int_Tables_number   1
_chemical_formula_structural   CuNiC4
_chemical_formula_sum   'Cu8 Ni8 C32'
_cell_volume   514.06675070
_cell_formula_units_Z   8
loop_
 _symmetry_equiv_pos_site_id
 _symmetry_equiv_pos_as_xyz
  1  'x, y, z'
loop_
 _atom_site_type_symbol
 _atom_site_label
 _atom_site_symmetry_multiplicity
 _atom_site_fract_x
 _atom_site_fract_y
 _atom_site_fract_z
 _atom_site_occupancy
  C  C0  1  0.48450100  0.76534300  0.24087000  1
  C  C1  1  0.51543300  0.23441600  0.75906500  1
  C  C2  1  0.99996500  0.50000000  0.50003100  1
  C  C3  1  0.99995800  0.99994800  0.99996500  1
  Ni  Ni4  1  0.17923700  0.10528800  0.62460900  1
  Ni  Ni5  1  0.18085300  0.60462100  0.12477100  1
  Ni  Ni6  1  0.81915600  0.39546200  0.87524700  1
  Ni  Ni7  1  0.82070300  0.89475100  0.37531300  1
  Ni  Ni8  1  0.60573900  0.88220700  0.87951600  1
  Ni  Ni9  1  0.60560100  0.38268800  0.38004000  1
  Ni  Ni10  1  0.39447000  0.61738300  0.62003200  1
  Ni  Ni11  1  0.39433600  0.11777500  0.12047900  1
  Cu  Cu12  1  0.74211400  0.84466200  0.67894200  1
  Cu  Cu13  1  0.73762000  0.34487000  0.17828300  1
  Cu  Cu14  1  0.26236100  0.65508800  0.82177800  1
  Cu  Cu15  1  0.25780400  0.15526700  0.32100700  1
  Cu  Cu16  1  0.97113900  0.47684100  0.16164100  1
  Cu  Cu17  1  0.97154300  0.97564000  0.66137000  1
  Cu  Cu18  1  0.02830700  0.02441900  0.33859700  1
  Cu  Cu19  1  0.02902700  0.52310100  0.83859900  1
  C  C20  1  0.13208600  0.26982300  0.60919600  1
  C  C21  1  0.13150400  0.77052800  0.10681800  1
  C  C22  1  0.86832300  0.22962600  0.89298900  1
  C  C23  1  0.86801100  0.73018500  0.39081800  1
  C  C24  1  0.14585200  0.08557000  0.45024800  1
  C  C25  1  0.14885400  0.58416600  0.95100300  1
  C  C26  1  0.85127200  0.41573300  0.04912400  1
  C  C27  1  0.85399300  0.91449800  0.54963900  1
  C  C28  1  0.74037700  0.97729200  0.91209200  1
  C  C29  1  0.74567000  0.47281100  0.41350100  1
  C  C30  1  0.25457900  0.52709500  0.58670000  1
  C  C31  1  0.25965600  0.02274200  0.08781900  1
  C  C32  1  0.43763400  0.71993800  0.46421500  1
  C  C33  1  0.43619000  0.22093500  0.96427400  1
  C  C34  1  0.56387200  0.77904300  0.03569100  1
  C  C35  1  0.56231100  0.28012800  0.53574500  1
  C  C36  1  0.40462900  0.02701300  0.74178200  1
  C  C37  1  0.40520800  0.52866700  0.24339100  1
  C  C38  1  0.59485000  0.47149700  0.75664800  1
  C  C39  1  0.59533500  0.97286200  0.25811300  1
  C  C40  1  0.67922800  0.79259000  0.77049500  1
  C  C41  1  0.67408200  0.29297500  0.26897500  1
  C  C42  1  0.32580900  0.70708500  0.73103000  1
  C  C43  1  0.32080100  0.20732700  0.22952800  1
  C  C44  1  0.05450400  0.01860200  0.73796800  1
  C  C45  1  0.05548500  0.51886400  0.23793700  1
  C  C46  1  0.94465600  0.48113700  0.76219200  1
  C  C47  1  0.94535900  0.98150000  0.26191700  1
