# generated using pymatgen
data_Cu20(NiC6)3
_symmetry_space_group_name_H-M   'P 1'
_cell_length_a   7.00794258
_cell_length_b   7.00794258
_cell_length_c   22.54561803
_cell_angle_alpha   82.21076671
_cell_angle_beta   82.21076671
_cell_angle_gamma   71.35811766
_symmetry_Int_Tables_number   1
_chemical_formula_structural   Cu20(NiC6)3
_chemical_formula_sum   'Cu40 Ni6 C36'
_cell_volume   1034.44595053
_cell_formula_units_Z   2
loop_
 _symmetry_equiv_pos_site_id
 _symmetry_equiv_pos_as_xyz
  1  'x, y, z'
loop_
 _atom_site_type_symbol
 _atom_site_label
 _atom_site_symmetry_multiplicity
 _atom_site_fract_x
 _atom_site_fract_y
 _atom_site_fract_z
 _atom_site_occupancy
  C  C0  1  0.12665100  0.20792400  0.08864500  1
  C  C1  1  0.79207600  0.87334900  0.41135500  1
  C  C2  1  0.87334900  0.79207600  0.91135500  1
  C  C3  1  0.20792400  0.12665100  0.58864500  1
  C  C4  1  0.51045500  0.13198700  0.99778600  1
  C  C5  1  0.86801300  0.48954500  0.50221400  1
  C  C6  1  0.48954500  0.86801300  0.00221400  1
  C  C7  1  0.13198700  0.51045500  0.49778600  1
  C  C8  1  0.24605300  0.63878200  0.97054800  1
  C  C9  1  0.36121800  0.75394700  0.52945200  1
  C  C10  1  0.75394700  0.36121800  0.02945200  1
  C  C11  1  0.63878200  0.24605300  0.47054800  1
  C  C12  1  0.16271200  0.44387700  0.27313400  1
  C  C13  1  0.55612300  0.83728800  0.22686600  1
  C  C14  1  0.83728800  0.55612300  0.72686600  1
  C  C15  1  0.44387700  0.16271200  0.77313400  1
  C  C16  1  0.33872500  0.33996600  0.16318000  1
  C  C17  1  0.66003400  0.66127500  0.33682000  1
  C  C18  1  0.66127500  0.66003400  0.83682000  1
  C  C19  1  0.33996600  0.33872500  0.66318000  1
  C  C20  1  0.58037800  0.43286500  0.12526300  1
  C  C21  1  0.56713500  0.41962200  0.37473700  1
  C  C22  1  0.41962200  0.56713500  0.87473700  1
  C  C23  1  0.43286500  0.58037800  0.62526300  1
  C  C24  1  0.70327800  0.17244700  0.06658400  1
  C  C25  1  0.82755300  0.29672200  0.43341600  1
  C  C26  1  0.29672200  0.82755300  0.93341600  1
  C  C27  1  0.17244700  0.70327800  0.56658400  1
  C  C28  1  0.56551400  0.83301800  0.19349700  1
  C  C29  1  0.16698200  0.43448600  0.30650300  1
  C  C30  1  0.43448600  0.16698200  0.80650300  1
  C  C31  1  0.83301800  0.56551400  0.69349700  1
  C  C32  1  0.39875200  0.61527100  0.14763600  1
  C  C33  1  0.38472900  0.60124800  0.35236400  1
  C  C34  1  0.60124800  0.38472900  0.85236400  1
  C  C35  1  0.61527100  0.39875200  0.64763600  1
  Ni  Ni36  1  0.99141700  0.30404400  0.93152000  1
  Ni  Ni37  1  0.69595600  0.00858300  0.56848000  1
  Ni  Ni38  1  0.00858300  0.69595600  0.06848000  1
  Ni  Ni39  1  0.30404400  0.99141700  0.43152000  1
  Ni  Ni40  1  0.77861100  0.22138900  0.25000000  1
  Ni  Ni41  1  0.22138900  0.77861100  0.75000000  1
  Cu  Cu42  1  0.11422600  0.18660100  0.98167700  1
  Cu  Cu43  1  0.81339900  0.88577400  0.51832300  1
  Cu  Cu44  1  0.88577400  0.81339900  0.01832300  1
  Cu  Cu45  1  0.18660100  0.11422600  0.48167700  1
  Cu  Cu46  1  0.10135000  0.42789100  0.89141400  1
  Cu  Cu47  1  0.57210900  0.89865000  0.60858600  1
  Cu  Cu48  1  0.89865000  0.57210900  0.10858600  1
  Cu  Cu49  1  0.42789100  0.10135000  0.39141400  1
  Cu  Cu50  1  0.80510000  0.45925900  0.95920700  1
  Cu  Cu51  1  0.54074100  0.19490000  0.54079300  1
  Cu  Cu52  1  0.19490000  0.54074100  0.04079300  1
  Cu  Cu53  1  0.45925900  0.80510000  0.45920700  1
  Cu  Cu54  1  0.93406400  0.16313300  0.89967900  1
  Cu  Cu55  1  0.83686700  0.06593600  0.60032100  1
  Cu  Cu56  1  0.06593600  0.83686700  0.10032100  1
  Cu  Cu57  1  0.16313300  0.93406400  0.39967900  1
  Cu  Cu58  1  0.89599600  0.14977500  0.19486600  1
  Cu  Cu59  1  0.85022500  0.10400400  0.30513400  1
  Cu  Cu60  1  0.10400400  0.85022500  0.80513400  1
  Cu  Cu61  1  0.14977500  0.89599600  0.69486600  1
  Cu  Cu62  1  0.47755700  0.47630700  0.15952900  1
  Cu  Cu63  1  0.52369300  0.52244300  0.34047100  1
  Cu  Cu64  1  0.52244300  0.52369300  0.84047100  1
  Cu  Cu65  1  0.47630700  0.47755700  0.65952900  1
  Cu  Cu66  1  0.47572700  0.13925900  0.04404800  1
  Cu  Cu67  1  0.86074100  0.52427300  0.45595200  1
  Cu  Cu68  1  0.52427300  0.86074100  0.95595200  1
  Cu  Cu69  1  0.13925900  0.47572700  0.54404800  1
  Cu  Cu70  1  0.25257400  0.24926100  0.15885300  1
  Cu  Cu71  1  0.75073900  0.74742600  0.34114700  1
  Cu  Cu72  1  0.74742600  0.75073900  0.84114700  1
  Cu  Cu73  1  0.24926100  0.25257400  0.65885300  1
  Cu  Cu74  1  0.76111200  0.28147000  0.07014900  1
  Cu  Cu75  1  0.71853000  0.23888800  0.42985100  1
  Cu  Cu76  1  0.23888800  0.71853000  0.92985100  1
  Cu  Cu77  1  0.28147000  0.76111200  0.57014900  1
  Cu  Cu78  1  0.41728000  0.95629100  0.06302500  1
  Cu  Cu79  1  0.04370900  0.58272000  0.43697500  1
  Cu  Cu80  1  0.58272000  0.04370900  0.93697500  1
  Cu  Cu81  1  0.95629100  0.41728000  0.56302500  1
