# generated using pymatgen
data_CuNiC8
_symmetry_space_group_name_H-M   'P 1'
_cell_length_a   8.77731448
_cell_length_b   8.77347800
_cell_length_c   8.77174316
_cell_angle_alpha   90.00000000
_cell_angle_beta   90.00000000
_cell_angle_gamma   90.00000000
_symmetry_Int_Tables_number   1
_chemical_formula_structural   CuNiC8
_chemical_formula_sum   'Cu4 Ni4 C32'
_cell_volume   675.49067357
_cell_formula_units_Z   4
loop_
 _symmetry_equiv_pos_site_id
 _symmetry_equiv_pos_as_xyz
  1  'x, y, z'
loop_
 _atom_site_type_symbol
 _atom_site_label
 _atom_site_symmetry_multiplicity
 _atom_site_fract_x
 _atom_site_fract_y
 _atom_site_fract_z
 _atom_site_occupancy
  C  C0  1  -0.00000000  0.00000000  0.00000000  1
  C  C1  1  0.50000000  0.50000000  0.50000000  1
  C  C2  1  0.50000000  0.00000000  0.50000000  1
  C  C3  1  0.50000000  0.50000000  0.00000000  1
  C  C4  1  -0.00000000  0.50000000  0.50000000  1
  C  C5  1  0.50000000  0.00000000  0.00000000  1
  C  C6  1  -0.00000000  0.50000000  0.00000000  1
  C  C7  1  -0.00000000  0.00000000  0.50000000  1
  Ni  Ni8  1  0.24658851  0.24978775  0.24887546  1
  Ni  Ni9  1  0.75341149  0.75021225  0.24887546  1
  Ni  Ni10  1  0.75341149  0.24978775  0.75112454  1
  Ni  Ni11  1  0.24658851  0.75021225  0.75112454  1
  Cu  Cu12  1  0.75326010  0.75070687  0.74962870  1
  Cu  Cu13  1  0.24673990  0.24929313  0.74962870  1
  Cu  Cu14  1  0.24673990  0.75070687  0.25037130  1
  Cu  Cu15  1  0.75326010  0.24929313  0.25037130  1
  C  C16  1  0.99745184  0.20214704  0.28994427  1
  C  C17  1  0.00254816  0.79785296  0.28994427  1
  C  C18  1  0.00254816  0.20214704  0.71005573  1
  C  C19  1  0.99745184  0.79785296  0.71005573  1
  C  C20  1  0.28688543  0.99765807  0.20369988  1
  C  C21  1  0.28688543  0.00234193  0.79630012  1
  C  C22  1  0.71311457  0.00234193  0.20369988  1
  C  C23  1  0.71311457  0.99765807  0.79630012  1
  C  C24  1  0.20332995  0.29077558  0.99713498  1
  C  C25  1  0.79667005  0.29077558  0.00286502  1
  C  C26  1  0.20332995  0.70922442  0.00286502  1
  C  C27  1  0.79667005  0.70922442  0.99713498  1
  C  C28  1  0.50269216  0.28290631  0.22279722  1
  C  C29  1  0.49730784  0.71709369  0.22279722  1
  C  C30  1  0.49730784  0.28290631  0.77720278  1
  C  C31  1  0.50269216  0.71709369  0.77720278  1
  C  C32  1  0.20988583  0.50228635  0.29189435  1
  C  C33  1  0.20988583  0.49771365  0.70810565  1
  C  C34  1  0.79011417  0.49771365  0.29189435  1
  C  C35  1  0.79011417  0.50228635  0.70810565  1
  C  C36  1  0.28130508  0.21953712  0.50223228  1
  C  C37  1  0.71869492  0.21953712  0.49776772  1
  C  C38  1  0.28130508  0.78046288  0.49776772  1
  C  C39  1  0.71869492  0.78046288  0.50223228  1
