# generated using pymatgen
data_Cu5(Ni3C)3
_symmetry_space_group_name_H-M   'P 1'
_cell_length_a   10.12288648
_cell_length_b   10.12288648
_cell_length_c   15.53441000
_cell_angle_alpha   90.00000000
_cell_angle_beta   90.00000000
_cell_angle_gamma   120.67559586
_symmetry_Int_Tables_number   1
_chemical_formula_structural   Cu5(Ni3C)3
_chemical_formula_sum   'Cu10 Ni18 C6'
_cell_volume   1369.10614442
_cell_formula_units_Z   2
loop_
 _symmetry_equiv_pos_site_id
 _symmetry_equiv_pos_as_xyz
  1  'x, y, z'
loop_
 _atom_site_type_symbol
 _atom_site_label
 _atom_site_symmetry_multiplicity
 _atom_site_fract_x
 _atom_site_fract_y
 _atom_site_fract_z
 _atom_site_occupancy
  C  C0  1  0.39188900  0.45689500  0.25000000  1
  C  C1  1  0.06325300  0.60294600  0.25000000  1
  C  C2  1  0.53961800  0.93460400  0.25000000  1
  C  C3  1  0.45689500  0.39188900  0.75000000  1
  C  C4  1  0.60294600  0.06325300  0.75000000  1
  C  C5  1  0.93460400  0.53961800  0.75000000  1
  Ni  Ni6  1  0.50278100  0.39221500  0.60694800  1
  Ni  Ni7  1  0.88858500  0.49936700  0.60568500  1
  Ni  Ni8  1  0.61130000  0.11240000  0.60686100  1
  Ni  Ni9  1  0.50278100  0.39221500  0.89305200  1
  Ni  Ni10  1  0.88858500  0.49936700  0.89431500  1
  Ni  Ni11  1  0.61130000  0.11240000  0.89313900  1
  Ni  Ni12  1  0.39221500  0.50278100  0.10694800  1
  Ni  Ni13  1  0.49936700  0.88858500  0.10568500  1
  Ni  Ni14  1  0.11240000  0.61130000  0.10686100  1
  Ni  Ni15  1  0.39221500  0.50278100  0.39305200  1
  Ni  Ni16  1  0.49936700  0.88858500  0.39431500  1
  Ni  Ni17  1  0.11240000  0.61130000  0.39313900  1
  Ni  Ni18  1  0.73762500  0.60531300  0.75000000  1
  Ni  Ni19  1  0.87286900  0.27016500  0.75000000  1
  Ni  Ni20  1  0.39471100  0.12732300  0.75000000  1
  Ni  Ni21  1  0.60531300  0.73762500  0.25000000  1
  Ni  Ni22  1  0.27016500  0.87286900  0.25000000  1
  Ni  Ni23  1  0.12732300  0.39471100  0.25000000  1
  Cu  Cu24  1  0.30791800  0.42197400  0.75000000  1
  Cu  Cu25  1  0.11752500  0.68741600  0.75000000  1
  Cu  Cu26  1  0.56450800  0.88033500  0.75000000  1
  Cu  Cu27  1  0.42197400  0.30791800  0.25000000  1
  Cu  Cu28  1  0.68741600  0.11752500  0.25000000  1
  Cu  Cu29  1  0.88033500  0.56450800  0.25000000  1
  Cu  Cu30  1  0.33439500  0.67061500  0.62350300  1
  Cu  Cu31  1  0.33439500  0.67061500  0.87649700  1
  Cu  Cu32  1  0.67061500  0.33439500  0.12350300  1
  Cu  Cu33  1  0.67061500  0.33439500  0.37649700  1
