# generated using pymatgen
data_Cu24NiC8
_symmetry_space_group_name_H-M   'P 1'
_cell_length_a   8.45295700
_cell_length_b   8.45295700
_cell_length_c   8.45295700
_cell_angle_alpha   90.00000000
_cell_angle_beta   90.00000000
_cell_angle_gamma   90.00000000
_symmetry_Int_Tables_number   1
_chemical_formula_structural   Cu24NiC8
_chemical_formula_sum   'Cu24 Ni1 C8'
_cell_volume   603.98475826
_cell_formula_units_Z   1
loop_
 _symmetry_equiv_pos_site_id
 _symmetry_equiv_pos_as_xyz
  1  'x, y, z'
loop_
 _atom_site_type_symbol
 _atom_site_label
 _atom_site_symmetry_multiplicity
 _atom_site_fract_x
 _atom_site_fract_y
 _atom_site_fract_z
 _atom_site_occupancy
  C  C0  1  0.25090100  0.25090100  0.74909900  1
  C  C1  1  0.25090100  0.74909900  0.25090100  1
  C  C2  1  0.74909900  0.25090100  0.25090100  1
  C  C3  1  0.74909900  0.74909900  0.74909900  1
  C  C4  1  0.74909900  0.74909900  0.25090100  1
  C  C5  1  0.74909900  0.25090100  0.74909900  1
  C  C6  1  0.25090100  0.74909900  0.74909900  1
  C  C7  1  0.25090100  0.25090100  0.25090100  1
  Ni  Ni8  1  0.00000000  0.00000000  0.00000000  1
  Cu  Cu9  1  0.50000000  0.50000000  0.74586500  1
  Cu  Cu10  1  0.50000000  0.25413500  0.50000000  1
  Cu  Cu11  1  0.25413500  0.50000000  0.50000000  1
  Cu  Cu12  1  0.50000000  0.50000000  0.25413500  1
  Cu  Cu13  1  0.50000000  0.74586500  0.50000000  1
  Cu  Cu14  1  0.74586500  0.50000000  0.50000000  1
  Cu  Cu15  1  0.00000000  0.00000000  0.70720600  1
  Cu  Cu16  1  0.00000000  0.29279400  0.00000000  1
  Cu  Cu17  1  0.29279400  0.00000000  0.00000000  1
  Cu  Cu18  1  0.00000000  0.00000000  0.29279400  1
  Cu  Cu19  1  0.00000000  0.70720600  0.00000000  1
  Cu  Cu20  1  0.70720600  0.00000000  0.00000000  1
  Cu  Cu21  1  0.00000000  0.50000000  0.74002400  1
  Cu  Cu22  1  0.50000000  0.25997600  0.00000000  1
  Cu  Cu23  1  0.25997600  0.00000000  0.50000000  1
  Cu  Cu24  1  0.00000000  0.25997600  0.50000000  1
  Cu  Cu25  1  0.50000000  0.00000000  0.74002400  1
  Cu  Cu26  1  0.25997600  0.50000000  0.00000000  1
  Cu  Cu27  1  0.00000000  0.50000000  0.25997600  1
  Cu  Cu28  1  0.50000000  0.74002400  0.00000000  1
  Cu  Cu29  1  0.00000000  0.74002400  0.50000000  1
  Cu  Cu30  1  0.50000000  0.00000000  0.25997600  1
  Cu  Cu31  1  0.74002400  0.00000000  0.50000000  1
  Cu  Cu32  1  0.74002400  0.50000000  0.00000000  1
