# generated using pymatgen
data_CuNiC6
_symmetry_space_group_name_H-M   'P 1'
_cell_length_a   8.70933200
_cell_length_b   6.64761400
_cell_length_c   14.98943579
_cell_angle_alpha   67.68388140
_cell_angle_beta   90.00000000
_cell_angle_gamma   90.00000000
_symmetry_Int_Tables_number   1
_chemical_formula_structural   CuNiC6
_chemical_formula_sum   'Cu8 Ni8 C48'
_cell_volume   802.83441954
_cell_formula_units_Z   8
loop_
 _symmetry_equiv_pos_site_id
 _symmetry_equiv_pos_as_xyz
  1  'x, y, z'
loop_
 _atom_site_type_symbol
 _atom_site_label
 _atom_site_symmetry_multiplicity
 _atom_site_fract_x
 _atom_site_fract_y
 _atom_site_fract_z
 _atom_site_occupancy
  C  C0  1  0.15253200  0.47101000  0.80114200  1
  C  C1  1  0.84746800  0.52899000  0.19885800  1
  C  C2  1  0.65253200  0.52899000  0.69885800  1
  C  C3  1  0.34746800  0.47101000  0.30114200  1
  C  C4  1  0.76155200  0.83518900  0.91153700  1
  C  C5  1  0.23844800  0.16481100  0.08846300  1
  C  C6  1  0.26155200  0.16481100  0.58846300  1
  C  C7  1  0.73844800  0.83518900  0.41153700  1
  Ni  Ni8  1  0.95462400  0.77794900  0.58034500  1
  Ni  Ni9  1  0.04537600  0.22205100  0.41965500  1
  Ni  Ni10  1  0.45462400  0.22205100  0.91965500  1
  Ni  Ni11  1  0.54537600  0.77794900  0.08034500  1
  Ni  Ni12  1  0.45625500  0.45379600  0.92376300  1
  Ni  Ni13  1  0.54374500  0.54620400  0.07623700  1
  Ni  Ni14  1  0.95625500  0.54620400  0.57623700  1
  Ni  Ni15  1  0.04374500  0.45379600  0.42376300  1
  Cu  Cu16  1  0.47026500  0.86415300  0.76869300  1
  Cu  Cu17  1  0.52973500  0.13584700  0.23130700  1
  Cu  Cu18  1  0.97026500  0.13584700  0.73130700  1
  Cu  Cu19  1  0.02973500  0.86415300  0.26869300  1
  Cu  Cu20  1  0.96534300  0.91581500  0.71975100  1
  Cu  Cu21  1  0.03465700  0.08418500  0.28024900  1
  Cu  Cu22  1  0.46534300  0.08418500  0.78024900  1
  Cu  Cu23  1  0.53465700  0.91581500  0.21975100  1
  C  C24  1  0.16205500  0.75575600  0.97787400  1
  C  C25  1  0.83794500  0.24424400  0.02212600  1
  C  C26  1  0.66205500  0.24424400  0.52212600  1
  C  C27  1  0.33794500  0.75575600  0.47787400  1
  C  C28  1  0.26683600  0.93335100  0.50146900  1
  C  C29  1  0.73316400  0.06664900  0.49853100  1
  C  C30  1  0.76683600  0.06664900  0.99853100  1
  C  C31  1  0.23316400  0.93335100  0.00146900  1
  C  C32  1  0.89855700  0.68344900  0.55370000  1
  C  C33  1  0.10144300  0.31655100  0.44630000  1
  C  C34  1  0.39855700  0.31655100  0.94630000  1
  C  C35  1  0.60144300  0.68344900  0.05370000  1
  C  C36  1  0.05501000  0.28207600  0.67260300  1
  C  C37  1  0.94499000  0.71792400  0.32739700  1
  C  C38  1  0.55501000  0.71792400  0.82739700  1
  C  C39  1  0.44499000  0.28207600  0.17260300  1
  C  C40  1  0.87625000  0.77129700  0.77450900  1
  C  C41  1  0.12375000  0.22870300  0.22549100  1
  C  C42  1  0.37625000  0.22870300  0.72549100  1
  C  C43  1  0.62375000  0.77129700  0.27450900  1
  C  C44  1  0.19018900  0.79329400  0.87592900  1
  C  C45  1  0.80981100  0.20670600  0.12407100  1
  C  C46  1  0.69018900  0.20670600  0.62407100  1
  C  C47  1  0.30981100  0.79329400  0.37592900  1
  C  C48  1  0.05311000  0.89415900  0.65607400  1
  C  C49  1  0.94689000  0.10584100  0.34392600  1
  C  C50  1  0.55311000  0.10584100  0.84392600  1
  C  C51  1  0.44689000  0.89415900  0.15607400  1
  C  C52  1  0.39217900  0.84484700  0.70116400  1
  C  C53  1  0.60782100  0.15515300  0.29883600  1
  C  C54  1  0.89217900  0.15515300  0.79883600  1
  C  C55  1  0.10782100  0.84484700  0.20116400  1
  C  C56  1  0.99229800  0.74821700  0.99743200  1
  C  C57  1  0.00770200  0.25178300  0.00256800  1
  C  C58  1  0.49229800  0.25178300  0.50256800  1
  C  C59  1  0.50770200  0.74821700  0.49743200  1
  C  C60  1  0.26899100  0.54564000  0.54287400  1
  C  C61  1  0.73100900  0.45436000  0.45712600  1
  C  C62  1  0.76899100  0.45436000  0.95712600  1
  C  C63  1  0.23100900  0.54564000  0.04287400  1
