# generated using pymatgen
data_Cu13NiC6
_symmetry_space_group_name_H-M   'P 1'
_cell_length_a   13.20647844
_cell_length_b   13.20647844
_cell_length_c   13.20647844
_cell_angle_alpha   144.21084647
_cell_angle_beta   144.21084647
_cell_angle_gamma   51.51211948
_symmetry_Int_Tables_number   1
_chemical_formula_structural   Cu13NiC6
_chemical_formula_sum   'Cu26 Ni2 C12'
_cell_volume   783.44548311
_cell_formula_units_Z   2
loop_
 _symmetry_equiv_pos_site_id
 _symmetry_equiv_pos_as_xyz
  1  'x, y, z'
loop_
 _atom_site_type_symbol
 _atom_site_label
 _atom_site_symmetry_multiplicity
 _atom_site_fract_x
 _atom_site_fract_y
 _atom_site_fract_z
 _atom_site_occupancy
  C  C0  1  0.60411600  0.60411600  0.00000000  1
  C  C1  1  0.10411600  0.10411600  0.00000000  1
  C  C2  1  0.39588400  0.39588400  0.00000000  1
  C  C3  1  0.89588400  0.89588400  0.00000000  1
  C  C4  1  0.47889700  0.97889700  0.82639800  1
  C  C5  1  0.15250000  0.65250000  0.17360200  1
  C  C6  1  0.97889700  0.15250000  0.50000000  1
  C  C7  1  0.65250000  0.47889700  0.50000000  1
  C  C8  1  0.52110300  0.02110300  0.17360200  1
  C  C9  1  0.84750000  0.34750000  0.82639800  1
  C  C10  1  0.02110300  0.84750000  0.50000000  1
  C  C11  1  0.34750000  0.52110300  0.50000000  1
  Ni  Ni12  1  0.25000000  0.25000000  0.00000000  1
  Ni  Ni13  1  0.75000000  0.75000000  0.00000000  1
  Cu  Cu14  1  0.50000000  0.00000000  0.50000000  1
  Cu  Cu15  1  0.00000000  0.50000000  0.50000000  1
  Cu  Cu16  1  0.56677000  0.71050200  0.27727100  1
  Cu  Cu17  1  0.43323000  0.28949800  0.72272900  1
  Cu  Cu18  1  0.06677000  0.78949800  0.85626800  1
  Cu  Cu19  1  0.93323000  0.21050200  0.14373200  1
  Cu  Cu20  1  0.28949800  0.56677000  0.85626800  1
  Cu  Cu21  1  0.71050200  0.43323000  0.14373200  1
  Cu  Cu22  1  0.21050200  0.06677000  0.27727100  1
  Cu  Cu23  1  0.78949800  0.93323000  0.72272900  1
  Cu  Cu24  1  0.62111900  0.12111900  0.85769300  1
  Cu  Cu25  1  0.26342600  0.76342600  0.14230700  1
  Cu  Cu26  1  0.12111900  0.26342600  0.50000000  1
  Cu  Cu27  1  0.76342600  0.62111900  0.50000000  1
  Cu  Cu28  1  0.37888100  0.87888100  0.14230700  1
  Cu  Cu29  1  0.73657400  0.23657400  0.85769300  1
  Cu  Cu30  1  0.87888100  0.73657400  0.50000000  1
  Cu  Cu31  1  0.23657400  0.37888100  0.50000000  1
  Cu  Cu32  1  0.79544500  0.29544500  0.27548100  1
  Cu  Cu33  1  0.01996400  0.51996400  0.72451900  1
  Cu  Cu34  1  0.29544500  0.01996400  0.50000000  1
  Cu  Cu35  1  0.51996400  0.79544500  0.50000000  1
  Cu  Cu36  1  0.20455500  0.70455500  0.72451900  1
  Cu  Cu37  1  0.98003600  0.48003600  0.27548100  1
  Cu  Cu38  1  0.70455500  0.98003600  0.50000000  1
  Cu  Cu39  1  0.48003600  0.20455500  0.50000000  1
