# generated using pymatgen
data_Cu2Ni
_symmetry_space_group_name_H-M   'P 1'
_cell_length_a   5.81154750
_cell_length_b   5.81154750
_cell_length_c   5.81154751
_cell_angle_alpha   49.58669028
_cell_angle_beta   49.58669028
_cell_angle_gamma   49.58669183
_symmetry_Int_Tables_number   1
_chemical_formula_structural   Cu2Ni
_chemical_formula_sum   'Cu4 Ni2'
_cell_volume   104.61495943
_cell_formula_units_Z   2
loop_
 _symmetry_equiv_pos_site_id
 _symmetry_equiv_pos_as_xyz
  1  'x, y, z'
loop_
 _atom_site_type_symbol
 _atom_site_label
 _atom_site_symmetry_multiplicity
 _atom_site_fract_x
 _atom_site_fract_y
 _atom_site_fract_z
 _atom_site_occupancy
  Ni  Ni0  1  0.83312900  0.83312900  0.83312900  1
  Ni  Ni1  1  0.16687100  0.16687100  0.16687100  1
  Cu  Cu2  1  0.00000000  0.66197500  0.33802500  1
  Cu  Cu3  1  0.66197500  0.33802500  0.00000000  1
  Cu  Cu4  1  0.50000000  0.50000000  0.50000000  1
  Cu  Cu5  1  0.33802500  0.00000000  0.66197500  1
