# generated using pymatgen
data_Cu4(NiC6)3
_symmetry_space_group_name_H-M   'P 1'
_cell_length_a   9.61414800
_cell_length_b   7.86967100
_cell_length_c   9.37608890
_cell_angle_alpha   84.60750628
_cell_angle_beta   90.00000000
_cell_angle_gamma   90.00000000
_symmetry_Int_Tables_number   1
_chemical_formula_structural   Cu4(NiC6)3
_chemical_formula_sum   'Cu8 Ni6 C36'
_cell_volume   706.25700253
_cell_formula_units_Z   2
loop_
 _symmetry_equiv_pos_site_id
 _symmetry_equiv_pos_as_xyz
  1  'x, y, z'
loop_
 _atom_site_type_symbol
 _atom_site_label
 _atom_site_symmetry_multiplicity
 _atom_site_fract_x
 _atom_site_fract_y
 _atom_site_fract_z
 _atom_site_occupancy
  C  C0  1  0.53969400  0.38102900  0.18649700  1
  C  C1  1  0.03969400  0.61897100  0.31350300  1
  C  C2  1  0.46030600  0.61897100  0.81350300  1
  C  C3  1  0.96030600  0.38102900  0.68649700  1
  Ni  Ni4  1  0.64561000  0.88835600  0.18411900  1
  Ni  Ni5  1  0.14561000  0.11164400  0.31588100  1
  Ni  Ni6  1  0.35439000  0.11164400  0.81588100  1
  Ni  Ni7  1  0.85439000  0.88835600  0.68411900  1
  Ni  Ni8  1  0.50000000  0.00000000  0.50000000  1
  Ni  Ni9  1  0.00000000  0.00000000  0.00000000  1
  Cu  Cu10  1  0.68869500  0.10845100  0.88813300  1
  Cu  Cu11  1  0.18869500  0.89154900  0.61186700  1
  Cu  Cu12  1  0.31130500  0.89154900  0.11186700  1
  Cu  Cu13  1  0.81130500  0.10845100  0.38813300  1
  Cu  Cu14  1  0.81452300  0.68771200  0.98196800  1
  Cu  Cu15  1  0.31452300  0.31228800  0.51803200  1
  Cu  Cu16  1  0.18547700  0.31228800  0.01803200  1
  Cu  Cu17  1  0.68547700  0.68771200  0.48196800  1
  C  C18  1  0.65936400  0.09373500  0.04878800  1
  C  C19  1  0.15936400  0.90626500  0.45121200  1
  C  C20  1  0.34063600  0.90626500  0.95121200  1
  C  C21  1  0.84063600  0.09373500  0.54878800  1
  C  C22  1  0.66621700  0.73149600  0.02731800  1
  C  C23  1  0.16621700  0.26850400  0.47268200  1
  C  C24  1  0.33378300  0.26850400  0.97268200  1
  C  C25  1  0.83378300  0.73149600  0.52731800  1
  C  C26  1  0.16857200  0.31786700  0.17946200  1
  C  C27  1  0.66857200  0.68213300  0.32053800  1
  C  C28  1  0.83142800  0.68213300  0.82053800  1
  C  C29  1  0.33142800  0.31786700  0.67946200  1
  C  C30  1  0.66314500  0.04050300  0.35417000  1
  C  C31  1  0.16314500  0.95949700  0.14583000  1
  C  C32  1  0.33685500  0.95949700  0.64583000  1
  C  C33  1  0.83685500  0.04050300  0.85417000  1
  C  C34  1  0.42903800  0.22074800  0.44214600  1
  C  C35  1  0.92903800  0.77925200  0.05785400  1
  C  C36  1  0.57096200  0.77925200  0.55785400  1
  C  C37  1  0.07096200  0.22074800  0.94214600  1
  C  C38  1  0.42003300  0.94393800  0.21376600  1
  C  C39  1  0.92003300  0.05606200  0.28623400  1
  C  C40  1  0.57996700  0.05606200  0.78623400  1
  C  C41  1  0.07996700  0.94393800  0.71376600  1
  C  C42  1  0.70285700  0.31279100  0.85281200  1
  C  C43  1  0.20285700  0.68720900  0.64718800  1
  C  C44  1  0.29714300  0.68720900  0.14718800  1
  C  C45  1  0.79714300  0.31279100  0.35281200  1
  C  C46  1  0.83598300  0.49416200  0.04590700  1
  C  C47  1  0.33598300  0.50583800  0.45409300  1
  C  C48  1  0.16401700  0.50583800  0.95409300  1
  C  C49  1  0.66401700  0.49416200  0.54590700  1
