# generated using pymatgen
data_Cu5NiC22
_symmetry_space_group_name_H-M   'P 1'
_cell_length_a   7.12781100
_cell_length_b   11.61020300
_cell_length_c   12.80266400
_cell_angle_alpha   90.00000000
_cell_angle_beta   90.00000000
_cell_angle_gamma   90.00000000
_symmetry_Int_Tables_number   1
_chemical_formula_structural   Cu5NiC22
_chemical_formula_sum   'Cu20 Ni4 C88'
_cell_volume   1059.48871820
_cell_formula_units_Z   4
loop_
 _symmetry_equiv_pos_site_id
 _symmetry_equiv_pos_as_xyz
  1  'x, y, z'
loop_
 _atom_site_type_symbol
 _atom_site_label
 _atom_site_symmetry_multiplicity
 _atom_site_fract_x
 _atom_site_fract_y
 _atom_site_fract_z
 _atom_site_occupancy
  C  C0  1  0.25000000  0.80317200  0.48926000  1
  C  C1  1  0.25000000  0.30317200  0.01074000  1
  C  C2  1  0.75000000  0.19682800  0.51074000  1
  C  C3  1  0.75000000  0.69682800  0.98926000  1
  C  C4  1  0.13298800  0.64439600  0.35240700  1
  C  C5  1  0.36701200  0.14439600  0.14759300  1
  C  C6  1  0.63298800  0.35560400  0.64759300  1
  C  C7  1  0.86701200  0.85560400  0.85240700  1
  C  C8  1  0.86701200  0.35560400  0.64759300  1
  C  C9  1  0.63298800  0.85560400  0.85240700  1
  C  C10  1  0.36701200  0.64439600  0.35240700  1
  C  C11  1  0.13298800  0.14439600  0.14759300  1
  C  C12  1  0.25000000  0.57658100  0.44378000  1
  C  C13  1  0.25000000  0.07658100  0.05622000  1
  C  C14  1  0.75000000  0.42341900  0.55622000  1
  C  C15  1  0.75000000  0.92341900  0.94378000  1
  C  C16  1  0.08684100  0.69912600  0.64673000  1
  C  C17  1  0.41315900  0.19912600  0.85327000  1
  C  C18  1  0.58684100  0.30087400  0.35327000  1
  C  C19  1  0.91315900  0.80087400  0.14673000  1
  C  C20  1  0.91315900  0.30087400  0.35327000  1
  C  C21  1  0.58684100  0.80087400  0.14673000  1
  C  C22  1  0.41315900  0.69912600  0.64673000  1
  C  C23  1  0.08684100  0.19912600  0.85327000  1
  C  C24  1  0.95376200  0.67058900  0.54206100  1
  C  C25  1  0.54623800  0.17058900  0.95793900  1
  C  C26  1  0.45376200  0.32941100  0.45793900  1
  C  C27  1  0.04623800  0.82941100  0.04206100  1
  C  C28  1  0.04623800  0.32941100  0.45793900  1
  C  C29  1  0.45376200  0.82941100  0.04206100  1
  C  C30  1  0.54623800  0.67058900  0.54206100  1
  C  C31  1  0.95376200  0.17058900  0.95793900  1
  C  C32  1  0.93633600  0.79738700  0.60250800  1
  C  C33  1  0.56366400  0.29738700  0.89749200  1
  C  C34  1  0.43633600  0.20261300  0.39749200  1
  C  C35  1  0.06366400  0.70261300  0.10250800  1
  C  C36  1  0.06366400  0.20261300  0.39749200  1
  C  C37  1  0.43633600  0.70261300  0.10250800  1
  C  C38  1  0.56366400  0.79738700  0.60250800  1
  C  C39  1  0.93633600  0.29738700  0.89749200  1
  C  C40  1  0.13399000  0.99456100  0.58203900  1
  C  C41  1  0.36601000  0.49456100  0.91796100  1
  C  C42  1  0.63399000  0.00543900  0.41796100  1
  C  C43  1  0.86601000  0.50543900  0.08203900  1
  C  C44  1  0.86601000  0.00543900  0.41796100  1
  C  C45  1  0.63399000  0.50543900  0.08203900  1
  C  C46  1  0.36601000  0.99456100  0.58203900  1
  C  C47  1  0.13399000  0.49456100  0.91796100  1
  C  C48  1  0.25000000  0.92249600  0.67224400  1
  C  C49  1  0.25000000  0.42249600  0.82775600  1
  C  C50  1  0.75000000  0.07750400  0.32775600  1
  C  C51  1  0.75000000  0.57750400  0.17224400  1
  C  C52  1  0.14043000  0.68030100  0.82674500  1
  C  C53  1  0.35957000  0.18030100  0.67325500  1
  C  C54  1  0.64043000  0.31969900  0.17325500  1
  C  C55  1  0.85957000  0.81969900  0.32674500  1
  C  C56  1  0.85957000  0.31969900  0.17325500  1
  C  C57  1  0.64043000  0.81969900  0.32674500  1
  C  C58  1  0.35957000  0.68030100  0.82674500  1
  C  C59  1  0.14043000  0.18030100  0.67325500  1
  Ni  Ni60  1  0.25000000  0.95308500  0.31527400  1
  Ni  Ni61  1  0.25000000  0.45308500  0.18472600  1
  Ni  Ni62  1  0.75000000  0.04691500  0.68472600  1
  Ni  Ni63  1  0.75000000  0.54691500  0.81527400  1
  Cu  Cu64  1  0.25000000  0.65043100  0.39880800  1
  Cu  Cu65  1  0.25000000  0.15043100  0.10119200  1
  Cu  Cu66  1  0.75000000  0.34956900  0.60119200  1
  Cu  Cu67  1  0.75000000  0.84956900  0.89880800  1
  Cu  Cu68  1  0.02922100  0.73349000  0.58019500  1
  Cu  Cu69  1  0.47077900  0.23349000  0.91980500  1
  Cu  Cu70  1  0.52922100  0.26651000  0.41980500  1
  Cu  Cu71  1  0.97077900  0.76651000  0.08019500  1
  Cu  Cu72  1  0.97077900  0.26651000  0.41980500  1
  Cu  Cu73  1  0.52922100  0.76651000  0.08019500  1
  Cu  Cu74  1  0.47077900  0.73349000  0.58019500  1
  Cu  Cu75  1  0.02922100  0.23349000  0.91980500  1
  Cu  Cu76  1  0.25000000  0.94352600  0.59418200  1
  Cu  Cu77  1  0.25000000  0.44352600  0.90581800  1
  Cu  Cu78  1  0.75000000  0.05647400  0.40581800  1
  Cu  Cu79  1  0.75000000  0.55647400  0.09418200  1
  Cu  Cu80  1  0.75000000  0.54554200  0.37562400  1
  Cu  Cu81  1  0.75000000  0.04554200  0.12437600  1
  Cu  Cu82  1  0.25000000  0.45445800  0.62437600  1
  Cu  Cu83  1  0.25000000  0.95445800  0.87562400  1
  C  C84  1  0.07306700  0.88257600  0.38981100  1
  C  C85  1  0.42693300  0.38257600  0.11018900  1
  C  C86  1  0.57306700  0.11742400  0.61018900  1
  C  C87  1  0.92693300  0.61742400  0.88981100  1
  C  C88  1  0.92693300  0.11742400  0.61018900  1
  C  C89  1  0.57306700  0.61742400  0.88981100  1
  C  C90  1  0.42693300  0.88257600  0.38981100  1
  C  C91  1  0.07306700  0.38257600  0.11018900  1
  C  C92  1  0.25000000  0.08937100  0.35834500  1
  C  C93  1  0.25000000  0.58937100  0.14165500  1
  C  C94  1  0.75000000  0.91062900  0.64165500  1
  C  C95  1  0.75000000  0.41062900  0.85834500  1
  C  C96  1  0.90369300  0.53172400  0.32841200  1
  C  C97  1  0.59630700  0.03172400  0.17158800  1
  C  C98  1  0.40369300  0.46827600  0.67158800  1
  C  C99  1  0.09630700  0.96827600  0.82841200  1
  C  C100  1  0.09630700  0.46827600  0.67158800  1
  C  C101  1  0.40369300  0.96827600  0.82841200  1
  C  C102  1  0.59630700  0.53172400  0.32841200  1
  C  C103  1  0.90369300  0.03172400  0.17158800  1
  C  C104  1  0.75000000  0.57245300  0.47308600  1
  C  C105  1  0.75000000  0.07245300  0.02691400  1
  C  C106  1  0.25000000  0.42754700  0.52691400  1
  C  C107  1  0.25000000  0.92754700  0.97308600  1
  C  C108  1  0.25000000  0.71731800  0.79398400  1
  C  C109  1  0.25000000  0.21731800  0.70601600  1
  C  C110  1  0.75000000  0.28268200  0.20601600  1
  C  C111  1  0.75000000  0.78268200  0.29398400  1
