# generated using pymatgen
data_Cu5Ni2C25
_symmetry_space_group_name_H-M   'P 1'
_cell_length_a   6.51921277
_cell_length_b   6.51921277
_cell_length_c   10.25702271
_cell_angle_alpha   59.75968300
_cell_angle_beta   59.75968300
_cell_angle_gamma   52.89036034
_symmetry_Int_Tables_number   1
_chemical_formula_structural   Cu5Ni2C25
_chemical_formula_sum   'Cu5 Ni2 C25'
_cell_volume   287.43310426
_cell_formula_units_Z   1
loop_
 _symmetry_equiv_pos_site_id
 _symmetry_equiv_pos_as_xyz
  1  'x, y, z'
loop_
 _atom_site_type_symbol
 _atom_site_label
 _atom_site_symmetry_multiplicity
 _atom_site_fract_x
 _atom_site_fract_y
 _atom_site_fract_z
 _atom_site_occupancy
  C  C0  1  0.49997700  0.00030500  0.00084400  1
  C  C1  1  0.99981700  0.49937600  0.49966100  1
  C  C2  1  0.24617400  0.24728100  0.25169300  1
  C  C3  1  0.75271900  0.75382600  0.74830700  1
  C  C4  1  0.25806700  0.25985100  0.73472300  1
  C  C5  1  0.74014900  0.74193300  0.26527700  1
  C  C6  1  0.99969500  0.50002300  0.99915600  1
  C  C7  1  0.50062400  0.00018300  0.50033900  1
  C  C8  1  0.74702800  0.25297200  0.50000000  1
  Ni  Ni9  1  0.00184100  0.99698200  0.74753500  1
  Ni  Ni10  1  0.00301800  0.99815900  0.25246500  1
  Cu  Cu11  1  0.50686500  0.49566700  0.25620800  1
  Cu  Cu12  1  0.74805200  0.25194800  0.00000000  1
  Cu  Cu13  1  0.24812400  0.75187600  0.50000000  1
  Cu  Cu14  1  0.25491500  0.74508500  0.00000000  1
  Cu  Cu15  1  0.50433300  0.49313500  0.74379200  1
  C  C16  1  0.63855200  0.13171600  0.75343300  1
  C  C17  1  0.13519800  0.64071300  0.24374900  1
  C  C18  1  0.38673700  0.38523300  0.99685600  1
  C  C19  1  0.90470800  0.88082600  0.47815700  1
  C  C20  1  0.36889100  0.41063700  0.48877400  1
  C  C21  1  0.89219000  0.89110100  0.98263400  1
  C  C22  1  0.11700300  0.64165900  0.75664400  1
  C  C23  1  0.64835500  0.12114600  0.24642000  1
  C  C24  1  0.35834100  0.88299700  0.24335600  1
  C  C25  1  0.87885400  0.35164500  0.75358000  1
  C  C26  1  0.11917400  0.09529200  0.52184300  1
  C  C27  1  0.61476700  0.61326300  0.00314400  1
  C  C28  1  0.10889900  0.10781000  0.01736600  1
  C  C29  1  0.58936300  0.63110900  0.51122600  1
  C  C30  1  0.86828400  0.36144800  0.24656700  1
  C  C31  1  0.35928700  0.86480200  0.75625100  1
