# generated using pymatgen
data_Cu2Ni2C7
_symmetry_space_group_name_H-M   'P 1'
_cell_length_a   6.68654800
_cell_length_b   12.86794000
_cell_length_c   13.57105700
_cell_angle_alpha   90.00000000
_cell_angle_beta   90.00000000
_cell_angle_gamma   90.00000000
_symmetry_Int_Tables_number   1
_chemical_formula_structural   Cu2Ni2C7
_chemical_formula_sum   'Cu16 Ni16 C56'
_cell_volume   1167.68222275
_cell_formula_units_Z   8
loop_
 _symmetry_equiv_pos_site_id
 _symmetry_equiv_pos_as_xyz
  1  'x, y, z'
loop_
 _atom_site_type_symbol
 _atom_site_label
 _atom_site_symmetry_multiplicity
 _atom_site_fract_x
 _atom_site_fract_y
 _atom_site_fract_z
 _atom_site_occupancy
  Ni  Ni0  1  0.47670300  0.37774100  0.47309700  1
  Ni  Ni1  1  0.02329700  0.12225900  0.47309700  1
  Ni  Ni2  1  0.97670300  0.62225900  0.02690300  1
  Ni  Ni3  1  0.52329700  0.87774100  0.02690300  1
  Ni  Ni4  1  0.52329700  0.62225900  0.52690300  1
  Ni  Ni5  1  0.97670300  0.87774100  0.52690300  1
  Ni  Ni6  1  0.02329700  0.37774100  0.97309700  1
  Ni  Ni7  1  0.47670300  0.12225900  0.97309700  1
  Ni  Ni8  1  0.25000000  0.25000000  0.29660100  1
  Ni  Ni9  1  0.75000000  0.75000000  0.20339900  1
  Ni  Ni10  1  0.75000000  0.75000000  0.70339900  1
  Ni  Ni11  1  0.25000000  0.25000000  0.79660100  1
  Ni  Ni12  1  0.75000000  0.25000000  0.33113200  1
  Ni  Ni13  1  0.25000000  0.75000000  0.16886800  1
  Ni  Ni14  1  0.25000000  0.75000000  0.66886800  1
  Ni  Ni15  1  0.75000000  0.25000000  0.83113200  1
  Cu  Cu16  1  0.51747600  0.13410900  0.53538000  1
  Cu  Cu17  1  0.98252400  0.36589100  0.53538000  1
  Cu  Cu18  1  0.01747600  0.86589100  0.96462000  1
  Cu  Cu19  1  0.48252400  0.63410900  0.96462000  1
  Cu  Cu20  1  0.48252400  0.86589100  0.46462000  1
  Cu  Cu21  1  0.01747600  0.63410900  0.46462000  1
  Cu  Cu22  1  0.98252400  0.13410900  0.03538000  1
  Cu  Cu23  1  0.51747600  0.36589100  0.03538000  1
  Cu  Cu24  1  0.50711000  0.44765200  0.71829900  1
  Cu  Cu25  1  0.99289000  0.05234800  0.71829900  1
  Cu  Cu26  1  0.00711000  0.55234800  0.78170100  1
  Cu  Cu27  1  0.49289000  0.94765200  0.78170100  1
  Cu  Cu28  1  0.49289000  0.55234800  0.28170100  1
  Cu  Cu29  1  0.00711000  0.94765200  0.28170100  1
  Cu  Cu30  1  0.99289000  0.44765200  0.21829900  1
  Cu  Cu31  1  0.50711000  0.05234800  0.21829900  1
  C  C32  1  0.51170800  0.47560100  0.58931200  1
  C  C33  1  0.98829200  0.02439900  0.58931200  1
  C  C34  1  0.01170800  0.52439900  0.91068800  1
  C  C35  1  0.48829200  0.97560100  0.91068800  1
  C  C36  1  0.48829200  0.52439900  0.41068800  1
  C  C37  1  0.01170800  0.97560100  0.41068800  1
  C  C38  1  0.98829200  0.47560100  0.08931200  1
  C  C39  1  0.51170800  0.02439900  0.08931200  1
  C  C40  1  0.48728000  0.26231100  0.56455400  1
  C  C41  1  0.01272000  0.23768900  0.56455400  1
  C  C42  1  0.98728000  0.73768900  0.93544600  1
  C  C43  1  0.51272000  0.76231100  0.93544600  1
  C  C44  1  0.51272000  0.73768900  0.43544600  1
  C  C45  1  0.98728000  0.76231100  0.43544600  1
  C  C46  1  0.01272000  0.26231100  0.06455400  1
  C  C47  1  0.48728000  0.23768900  0.06455400  1
  C  C48  1  0.48462100  0.29671100  0.35239100  1
  C  C49  1  0.01537900  0.20328900  0.35239100  1
  C  C50  1  0.98462100  0.70328900  0.14760900  1
  C  C51  1  0.51537900  0.79671100  0.14760900  1
  C  C52  1  0.51537900  0.70328900  0.64760900  1
  C  C53  1  0.98462100  0.79671100  0.64760900  1
  C  C54  1  0.01537900  0.29671100  0.85239100  1
  C  C55  1  0.48462100  0.20328900  0.85239100  1
  C  C56  1  0.71158100  0.13408600  0.44650600  1
  C  C57  1  0.78841900  0.36591400  0.44650600  1
  C  C58  1  0.21158100  0.86591400  0.05349400  1
  C  C59  1  0.28841900  0.63408600  0.05349400  1
  C  C60  1  0.28841900  0.86591400  0.55349400  1
  C  C61  1  0.21158100  0.63408600  0.55349400  1
  C  C62  1  0.78841900  0.13408600  0.94650600  1
  C  C63  1  0.71158100  0.36591400  0.94650600  1
  C  C64  1  0.29336400  0.37148700  0.71965500  1
  C  C65  1  0.20663600  0.12851300  0.71965500  1
  C  C66  1  0.79336400  0.62851300  0.78034500  1
  C  C67  1  0.70663600  0.87148700  0.78034500  1
  C  C68  1  0.70663600  0.62851300  0.28034500  1
  C  C69  1  0.79336400  0.87148700  0.28034500  1
  C  C70  1  0.20663600  0.37148700  0.21965500  1
  C  C71  1  0.29336400  0.12851300  0.21965500  1
  C  C72  1  0.32004500  0.10860300  0.45526900  1
  C  C73  1  0.17995500  0.39139700  0.45526900  1
  C  C74  1  0.82004500  0.89139700  0.04473100  1
  C  C75  1  0.67995500  0.60860300  0.04473100  1
  C  C76  1  0.67995500  0.89139700  0.54473100  1
  C  C77  1  0.82004500  0.60860300  0.54473100  1
  C  C78  1  0.17995500  0.10860300  0.95526900  1
  C  C79  1  0.32004500  0.39139700  0.95526900  1
  C  C80  1  0.69965800  0.36116900  0.72954400  1
  C  C81  1  0.80034200  0.13883100  0.72954400  1
  C  C82  1  0.19965800  0.63883100  0.77045600  1
  C  C83  1  0.30034200  0.86116900  0.77045600  1
  C  C84  1  0.30034200  0.63883100  0.27045600  1
  C  C85  1  0.19965800  0.86116900  0.27045600  1
  C  C86  1  0.80034200  0.36116900  0.22954400  1
  C  C87  1  0.69965800  0.13883100  0.22954400  1
