# generated using pymatgen
data_Cu7(NiC)3
_symmetry_space_group_name_H-M   'P 1'
_cell_length_a   9.63806300
_cell_length_b   9.67216900
_cell_length_c   9.93228415
_cell_angle_alpha   83.93178514
_cell_angle_beta   90.00000000
_cell_angle_gamma   90.00000000
_symmetry_Int_Tables_number   1
_chemical_formula_structural   Cu7(NiC)3
_chemical_formula_sum   'Cu14 Ni6 C6'
_cell_volume   920.70916332
_cell_formula_units_Z   2
loop_
 _symmetry_equiv_pos_site_id
 _symmetry_equiv_pos_as_xyz
  1  'x, y, z'
loop_
 _atom_site_type_symbol
 _atom_site_label
 _atom_site_symmetry_multiplicity
 _atom_site_fract_x
 _atom_site_fract_y
 _atom_site_fract_z
 _atom_site_occupancy
  C  C0  1  0.75000000  0.80515200  0.90776100  1
  C  C1  1  0.25000000  0.19484800  0.09223900  1
  C  C2  1  0.75000000  0.54523000  0.64046500  1
  C  C3  1  0.25000000  0.45477000  0.35953500  1
  C  C4  1  0.75000000  0.14738900  0.75839000  1
  C  C5  1  0.25000000  0.85261100  0.24161000  1
  Ni  Ni6  1  0.75000000  0.58108700  0.99343200  1
  Ni  Ni7  1  0.25000000  0.41891300  0.00656800  1
  Ni  Ni8  1  0.51802800  0.78741700  0.85958800  1
  Ni  Ni9  1  0.01802800  0.21258300  0.14041200  1
  Ni  Ni10  1  0.48197200  0.21258300  0.14041200  1
  Ni  Ni11  1  0.98197200  0.78741700  0.85958800  1
  Cu  Cu12  1  0.75000000  0.99496700  0.76879000  1
  Cu  Cu13  1  0.25000000  0.00503300  0.23121000  1
  Cu  Cu14  1  0.75000000  0.89769900  0.05305300  1
  Cu  Cu15  1  0.25000000  0.10230100  0.94694700  1
  Cu  Cu16  1  0.75000000  0.69178100  0.59749300  1
  Cu  Cu17  1  0.25000000  0.30821900  0.40250700  1
  Cu  Cu18  1  0.62088500  0.47155000  0.66038000  1
  Cu  Cu19  1  0.12088500  0.52845000  0.33962000  1
  Cu  Cu20  1  0.37911500  0.52845000  0.33962000  1
  Cu  Cu21  1  0.87911500  0.47155000  0.66038000  1
  Cu  Cu22  1  0.66938400  0.21011700  0.88370100  1
  Cu  Cu23  1  0.16938400  0.78988300  0.11629900  1
  Cu  Cu24  1  0.33061600  0.78988300  0.11629900  1
  Cu  Cu25  1  0.83061600  0.21011700  0.88370100  1
