# generated using pymatgen
data_Cu(NiC2)6
_symmetry_space_group_name_H-M   'P 1'
_cell_length_a   16.50978200
_cell_length_b   6.70211300
_cell_length_c   7.24424275
_cell_angle_alpha   74.65549044
_cell_angle_beta   90.00000000
_cell_angle_gamma   90.00000000
_symmetry_Int_Tables_number   1
_chemical_formula_structural   Cu(NiC2)6
_chemical_formula_sum   'Cu4 Ni24 C48'
_cell_volume   773.00397669
_cell_formula_units_Z   4
loop_
 _symmetry_equiv_pos_site_id
 _symmetry_equiv_pos_as_xyz
  1  'x, y, z'
loop_
 _atom_site_type_symbol
 _atom_site_label
 _atom_site_symmetry_multiplicity
 _atom_site_fract_x
 _atom_site_fract_y
 _atom_site_fract_z
 _atom_site_occupancy
  Ni  Ni0  1  0.03009500  0.32996000  0.54614700  1
  Ni  Ni1  1  0.53009500  0.17004000  0.45385300  1
  Ni  Ni2  1  0.96990500  0.67004000  0.45385300  1
  Ni  Ni3  1  0.46990500  0.82996000  0.54614700  1
  Ni  Ni4  1  0.20488900  0.04545100  0.43734700  1
  Ni  Ni5  1  0.70488900  0.45454900  0.56265300  1
  Ni  Ni6  1  0.79511100  0.95454900  0.56265300  1
  Ni  Ni7  1  0.29511100  0.54545100  0.43734700  1
  Ni  Ni8  1  0.94676500  0.41363800  0.13671300  1
  Ni  Ni9  1  0.44676500  0.08636200  0.86328700  1
  Ni  Ni10  1  0.05323500  0.58636200  0.86328700  1
  Ni  Ni11  1  0.55323500  0.91363800  0.13671300  1
  Ni  Ni12  1  0.20587800  0.63493900  0.71523300  1
  Ni  Ni13  1  0.70587800  0.86506100  0.28476700  1
  Ni  Ni14  1  0.79412200  0.36506100  0.28476700  1
  Ni  Ni15  1  0.29412200  0.13493900  0.71523300  1
  Ni  Ni16  1  0.03524300  0.05591600  0.30628900  1
  Ni  Ni17  1  0.53524300  0.44408400  0.69371100  1
  Ni  Ni18  1  0.96475700  0.94408400  0.69371100  1
  Ni  Ni19  1  0.46475700  0.55591600  0.30628900  1
  Ni  Ni20  1  0.99557700  0.82380100  0.07158000  1
  Ni  Ni21  1  0.49557700  0.67619900  0.92842000  1
  Ni  Ni22  1  0.00442300  0.17619900  0.92842000  1
  Ni  Ni23  1  0.50442300  0.32380100  0.07158000  1
  Cu  Cu24  1  0.30998800  0.34716900  0.07952100  1
  Cu  Cu25  1  0.80998800  0.15283100  0.92047900  1
  Cu  Cu26  1  0.69001200  0.65283100  0.92047900  1
  Cu  Cu27  1  0.19001200  0.84716900  0.07952100  1
  C  C28  1  0.87886100  0.00133400  0.28540500  1
  C  C29  1  0.37886100  0.49866600  0.71459500  1
  C  C30  1  0.12113900  0.99866600  0.71459500  1
  C  C31  1  0.62113900  0.50133400  0.28540500  1
  C  C32  1  0.13599100  0.33838700  0.08367000  1
  C  C33  1  0.63599100  0.16161300  0.91633000  1
  C  C34  1  0.86400900  0.66161300  0.91633000  1
  C  C35  1  0.36400900  0.83838700  0.08367000  1
  C  C36  1  0.38441800  0.18986400  0.43846700  1
  C  C37  1  0.88441800  0.31013600  0.56153300  1
  C  C38  1  0.61558200  0.81013600  0.56153300  1
  C  C39  1  0.11558200  0.68986400  0.43846700  1
  C  C40  1  0.92560000  0.04347900  0.11915600  1
  C  C41  1  0.42560000  0.45652100  0.88084400  1
  C  C42  1  0.07440000  0.95652100  0.88084400  1
  C  C43  1  0.57440000  0.54347900  0.11915600  1
  C  C44  1  0.79734700  0.05832000  0.25883600  1
  C  C45  1  0.29734700  0.44168000  0.74116400  1
  C  C46  1  0.20265300  0.94168000  0.74116400  1
  C  C47  1  0.70265300  0.55832000  0.25883600  1
  C  C48  1  0.91128300  0.91385900  0.46243600  1
  C  C49  1  0.41128300  0.58614100  0.53756400  1
  C  C50  1  0.08871700  0.08614100  0.53756400  1
  C  C51  1  0.58871700  0.41385900  0.46243600  1
  C  C52  1  0.05359000  0.32413800  0.08819300  1
  C  C53  1  0.55359000  0.17586200  0.91180700  1
  C  C54  1  0.94641000  0.67586200  0.91180700  1
  C  C55  1  0.44641000  0.82413800  0.08819300  1
  C  C56  1  0.32557400  0.02845500  0.00907900  1
  C  C57  1  0.82557400  0.47154500  0.99092100  1
  C  C58  1  0.67442600  0.97154500  0.99092100  1
  C  C59  1  0.17442600  0.52845500  0.00907900  1
  C  C60  1  0.18587000  0.16566100  0.14379300  1
  C  C61  1  0.68587000  0.33433900  0.85620700  1
  C  C62  1  0.81413000  0.83433900  0.85620700  1
  C  C63  1  0.31413000  0.66566100  0.14379300  1
  C  C64  1  0.42089800  0.07747700  0.60507000  1
  C  C65  1  0.92089800  0.42252300  0.39493000  1
  C  C66  1  0.57910200  0.92252300  0.39493000  1
  C  C67  1  0.07910200  0.57747700  0.60507000  1
  C  C68  1  0.30160200  0.22956000  0.41974100  1
  C  C69  1  0.80160200  0.27044000  0.58025900  1
  C  C70  1  0.69839800  0.77044000  0.58025900  1
  C  C71  1  0.19839800  0.72956000  0.41974100  1
  C  C72  1  0.43101000  0.27153500  0.27532700  1
  C  C73  1  0.93101000  0.22846500  0.72467300  1
  C  C74  1  0.56899000  0.72846500  0.72467300  1
  C  C75  1  0.06899000  0.77153500  0.27532700  1
