# generated using pymatgen
data_Cu15NiC6
_symmetry_space_group_name_H-M   'P 1'
_cell_length_a   15.44368400
_cell_length_b   5.78601100
_cell_length_c   10.10627688
_cell_angle_alpha   86.85492689
_cell_angle_beta   90.00000000
_cell_angle_gamma   90.00000000
_symmetry_Int_Tables_number   1
_chemical_formula_structural   Cu15NiC6
_chemical_formula_sum   'Cu30 Ni2 C12'
_cell_volume   901.70968632
_cell_formula_units_Z   2
loop_
 _symmetry_equiv_pos_site_id
 _symmetry_equiv_pos_as_xyz
  1  'x, y, z'
loop_
 _atom_site_type_symbol
 _atom_site_label
 _atom_site_symmetry_multiplicity
 _atom_site_fract_x
 _atom_site_fract_y
 _atom_site_fract_z
 _atom_site_occupancy
  C  C0  1  0.05864600  0.77349100  0.24232400  1
  C  C1  1  0.55864600  0.22650900  0.75767600  1
  C  C2  1  0.94135400  0.22650900  0.75767600  1
  C  C3  1  0.44135400  0.77349100  0.24232400  1
  C  C4  1  0.04622300  0.04554600  0.51063600  1
  C  C5  1  0.54622300  0.95445400  0.48936400  1
  C  C6  1  0.95377700  0.95445400  0.48936400  1
  C  C7  1  0.45377700  0.04554600  0.51063600  1
  C  C8  1  0.95415500  0.49301100  0.02916200  1
  C  C9  1  0.45415500  0.50698900  0.97083800  1
  C  C10  1  0.04584500  0.50698900  0.97083800  1
  C  C11  1  0.54584500  0.49301100  0.02916200  1
  Ni  Ni12  1  0.25000000  0.97846800  0.04412400  1
  Ni  Ni13  1  0.75000000  0.02153200  0.95587600  1
  Cu  Cu14  1  0.10209900  0.99054300  0.42652000  1
  Cu  Cu15  1  0.60209900  0.00945700  0.57348000  1
  Cu  Cu16  1  0.89790100  0.00945700  0.57348000  1
  Cu  Cu17  1  0.39790100  0.99054300  0.42652000  1
  Cu  Cu18  1  0.94379200  0.58224300  0.13966600  1
  Cu  Cu19  1  0.44379200  0.41775700  0.86033400  1
  Cu  Cu20  1  0.05620800  0.41775700  0.86033400  1
  Cu  Cu21  1  0.55620800  0.58224300  0.13966600  1
  Cu  Cu22  1  0.09241500  0.51361300  0.33267000  1
  Cu  Cu23  1  0.59241500  0.48638700  0.66733000  1
  Cu  Cu24  1  0.90758500  0.48638700  0.66733000  1
  Cu  Cu25  1  0.40758500  0.51361300  0.33267000  1
  Cu  Cu26  1  0.25000000  0.87818300  0.14792000  1
  Cu  Cu27  1  0.75000000  0.12181700  0.85208000  1
  Cu  Cu28  1  0.03685700  0.04176200  0.14986900  1
  Cu  Cu29  1  0.53685700  0.95823800  0.85013100  1
  Cu  Cu30  1  0.96314300  0.95823800  0.85013100  1
  Cu  Cu31  1  0.46314300  0.04176200  0.14986900  1
  Cu  Cu32  1  0.10214400  0.60573000  0.03901900  1
  Cu  Cu33  1  0.60214400  0.39427000  0.96098100  1
  Cu  Cu34  1  0.89785600  0.39427000  0.96098100  1
  Cu  Cu35  1  0.39785600  0.60573000  0.03901900  1
  Cu  Cu36  1  0.94320100  0.83453900  0.38953900  1
  Cu  Cu37  1  0.44320100  0.16546100  0.61046100  1
  Cu  Cu38  1  0.05679900  0.16546100  0.61046100  1
  Cu  Cu39  1  0.55679900  0.83453900  0.38953900  1
  Cu  Cu40  1  0.25000000  0.67898600  0.71054600  1
  Cu  Cu41  1  0.75000000  0.32101400  0.28945400  1
  Cu  Cu42  1  0.25000000  0.49650200  0.65311900  1
  Cu  Cu43  1  0.75000000  0.50349800  0.34688100  1
