# generated using pymatgen
data_Cu3Ni7C25
_symmetry_space_group_name_H-M   'P 1'
_cell_length_a   8.65216400
_cell_length_b   8.67081030
_cell_length_c   13.36228556
_cell_angle_alpha   74.44866959
_cell_angle_beta   71.10994812
_cell_angle_gamma   60.07111144
_symmetry_Int_Tables_number   1
_chemical_formula_structural   Cu3Ni7C25
_chemical_formula_sum   'Cu6 Ni14 C50'
_cell_volume   815.01038879
_cell_formula_units_Z   2
loop_
 _symmetry_equiv_pos_site_id
 _symmetry_equiv_pos_as_xyz
  1  'x, y, z'
loop_
 _atom_site_type_symbol
 _atom_site_label
 _atom_site_symmetry_multiplicity
 _atom_site_fract_x
 _atom_site_fract_y
 _atom_site_fract_z
 _atom_site_occupancy
  C  C0  1  0.89283400  0.01462400  0.00395100  1
  C  C1  1  0.08859200  0.51462400  0.50395100  1
  C  C2  1  0.34790100  0.48758900  0.94647400  1
  C  C3  1  0.21803600  0.98758900  0.44647400  1
  C  C4  1  0.76803300  0.55465200  0.06040800  1
  C  C5  1  0.61690800  0.05465200  0.56040800  1
  C  C6  1  0.75364200  0.52906400  0.75934100  1
  C  C7  1  0.95795300  0.02906400  0.25934100  1
  C  C8  1  0.22544600  0.00426000  0.74757600  1
  C  C9  1  0.02271800  0.50426000  0.24757600  1
  Ni  Ni10  1  0.48681900  0.83210000  0.87717300  1
  Ni  Ni11  1  0.80390900  0.33210000  0.37717300  1
  Ni  Ni12  1  0.17641300  0.20063600  0.12972000  1
  Ni  Ni13  1  0.49323100  0.70063600  0.62972000  1
  Ni  Ni14  1  0.47679900  0.01766000  0.00275000  1
  Ni  Ni15  1  0.50279200  0.51766000  0.50275000  1
  Ni  Ni16  1  0.24635100  0.67559900  0.22468200  1
  Ni  Ni17  1  0.85336900  0.17559900  0.72468200  1
  Ni  Ni18  1  0.12675500  0.35713600  0.78095400  1
  Ni  Ni19  1  0.73515500  0.85713600  0.28095400  1
  Ni  Ni20  1  0.34784700  0.49369400  0.69515100  1
  Ni  Ni21  1  0.46330900  0.99369400  0.19515100  1
  Ni  Ni22  1  0.51819200  0.53992200  0.31027900  1
  Ni  Ni23  1  0.63160800  0.03992200  0.81027900  1
  Cu  Cu24  1  0.14755900  0.23926900  0.93343000  1
  Cu  Cu25  1  0.67974200  0.73926900  0.43343000  1
  Cu  Cu26  1  0.30203900  0.79318700  0.07227200  1
  Cu  Cu27  1  0.83250200  0.29318700  0.57227200  1
  Cu  Cu28  1  0.99502700  0.73530700  0.86558400  1
  Cu  Cu29  1  0.40408200  0.23530700  0.36558400  1
  C  C30  1  0.60814300  0.63342500  0.87614100  1
  C  C31  1  0.88229100  0.13342500  0.37614100  1
  C  C32  1  0.97677100  0.50763500  0.73151900  1
  C  C33  1  0.78407600  0.00763500  0.23151900  1
  C  C34  1  0.25117500  0.42707000  0.78236500  1
  C  C35  1  0.53939000  0.92707000  0.28236500  1
  C  C36  1  0.23163300  0.21241100  0.70997800  1
  C  C37  1  0.84597800  0.71241100  0.20997800  1
  C  C38  1  0.05237900  0.29434900  0.89123300  1
  C  C39  1  0.76203900  0.79434900  0.39123300  1
  C  C40  1  0.44230200  0.60680000  0.22290800  1
  C  C41  1  0.72799000  0.10680000  0.72290800  1
  C  C42  1  0.74908300  0.32017400  0.79589000  1
  C  C43  1  0.13485400  0.82017400  0.29589000  1
  C  C44  1  0.27610700  0.09736100  0.21517600  1
  C  C45  1  0.41135600  0.59736100  0.71517600  1
  C  C46  1  0.02258700  0.15904900  0.14186200  1
  C  C47  1  0.67650100  0.65904900  0.64186200  1
  C  C48  1  0.56639400  0.95736000  0.09358700  1
  C  C49  1  0.38265900  0.45736000  0.59358700  1
  C  C50  1  0.21945800  0.73840500  0.11434300  1
  C  C51  1  0.92779400  0.23840500  0.61434300  1
  C  C52  1  0.00283200  0.02511400  0.77437100  1
  C  C53  1  0.19768300  0.52511400  0.27437100  1
  C  C54  1  0.70515700  0.43365100  0.29114000  1
  C  C55  1  0.57005200  0.93365100  0.79114000  1
  C  C56  1  0.41461900  0.57831900  0.41147500  1
  C  C57  1  0.59558600  0.07831900  0.91147500  1
  C  C58  1  0.09884000  0.39832300  0.13160000  1
  C  C59  1  0.37123700  0.89832300  0.63160000  1
  C  C60  1  0.30339000  0.87374700  0.86486100  1
  C  C61  1  0.95800200  0.37374700  0.36486100  1
  C  C62  1  0.46854200  0.86351300  0.98345100  1
  C  C63  1  0.68449400  0.36351300  0.48345100  1
  C  C64  1  0.29481600  0.17082700  0.02288700  1
  C  C65  1  0.51147000  0.67082700  0.52288700  1
  C  C66  1  0.99173600  0.70764800  0.94165400  1
  C  C67  1  0.35896200  0.20764800  0.44165400  1
  C  C68  1  0.62136500  0.33447400  0.05926500  1
  C  C69  1  0.98489600  0.83447400  0.55926500  1
