# generated using pymatgen
data_Cu2Ni6C19
_symmetry_space_group_name_H-M   'P 1'
_cell_length_a   5.97328500
_cell_length_b   7.95259200
_cell_length_c   18.55297150
_cell_angle_alpha   88.47057490
_cell_angle_beta   90.00000000
_cell_angle_gamma   90.00000000
_symmetry_Int_Tables_number   1
_chemical_formula_structural   Cu2Ni6C19
_chemical_formula_sum   'Cu4 Ni12 C38'
_cell_volume   881.00966099
_cell_formula_units_Z   2
loop_
 _symmetry_equiv_pos_site_id
 _symmetry_equiv_pos_as_xyz
  1  'x, y, z'
loop_
 _atom_site_type_symbol
 _atom_site_label
 _atom_site_symmetry_multiplicity
 _atom_site_fract_x
 _atom_site_fract_y
 _atom_site_fract_z
 _atom_site_occupancy
  Ni  Ni0  1  0.75800300  0.50203200  0.08226100  1
  Ni  Ni1  1  0.24199700  0.49796800  0.91773900  1
  Ni  Ni2  1  0.75800300  0.49796800  0.41773900  1
  Ni  Ni3  1  0.24199700  0.50203200  0.58226100  1
  Ni  Ni4  1  0.74461800  0.96909400  0.08964900  1
  Ni  Ni5  1  0.25538200  0.03090600  0.91035100  1
  Ni  Ni6  1  0.74461800  0.03090600  0.41035100  1
  Ni  Ni7  1  0.25538200  0.96909400  0.58964900  1
  Ni  Ni8  1  0.72505400  0.00000000  0.75000000  1
  Ni  Ni9  1  0.27494600  0.00000000  0.25000000  1
  Ni  Ni10  1  0.66995500  0.50000000  0.75000000  1
  Ni  Ni11  1  0.33004500  0.50000000  0.25000000  1
  Cu  Cu12  1  0.74602200  0.75138100  0.91014900  1
  Cu  Cu13  1  0.25397800  0.24861900  0.08985100  1
  Cu  Cu14  1  0.74602200  0.24861900  0.58985100  1
  Cu  Cu15  1  0.25397800  0.75138100  0.41014900  1
  C  C16  1  0.75088900  0.75248600  0.55615400  1
  C  C17  1  0.24911100  0.24751400  0.44384600  1
  C  C18  1  0.75088900  0.24751400  0.94384600  1
  C  C19  1  0.24911100  0.75248600  0.05615400  1
  C  C20  1  0.77198900  0.77941400  0.26734900  1
  C  C21  1  0.22801100  0.22058600  0.73265100  1
  C  C22  1  0.77198900  0.22058600  0.23265100  1
  C  C23  1  0.22801100  0.77941400  0.76734900  1
  C  C24  1  0.21000000  0.00000000  0.75000000  1
  C  C25  1  0.79000000  0.00000000  0.25000000  1
  C  C26  1  0.49520100  0.76390200  0.00060600  1
  C  C27  1  0.50479900  0.23609800  0.99939400  1
  C  C28  1  0.49520100  0.23609800  0.49939400  1
  C  C29  1  0.50479900  0.76390200  0.50060600  1
  C  C30  1  0.75956000  0.94310800  0.60631400  1
  C  C31  1  0.24044000  0.05689200  0.39368600  1
  C  C32  1  0.75956000  0.05689200  0.89368600  1
  C  C33  1  0.24044000  0.94310800  0.10631400  1
  C  C34  1  0.01029100  0.76201200  0.99672000  1
  C  C35  1  0.98970900  0.23798800  0.00328000  1
  C  C36  1  0.01029100  0.23798800  0.50328000  1
  C  C37  1  0.98970900  0.76201200  0.49672000  1
  C  C38  1  0.31391400  0.69340600  0.68664300  1
  C  C39  1  0.68608600  0.30659400  0.31335700  1
  C  C40  1  0.31391400  0.30659400  0.81335700  1
  C  C41  1  0.68608600  0.69340600  0.18664300  1
  C  C42  1  0.44875400  0.75292500  0.83284100  1
  C  C43  1  0.55124600  0.24707500  0.16715900  1
  C  C44  1  0.44875400  0.24707500  0.66715900  1
  C  C45  1  0.55124600  0.75292500  0.33284100  1
  C  C46  1  0.96972600  0.73019500  0.81067800  1
  C  C47  1  0.03027400  0.26980500  0.18932200  1
  C  C48  1  0.96972600  0.26980500  0.68932200  1
  C  C49  1  0.03027400  0.73019500  0.31067800  1
  C  C50  1  0.75384800  0.54037100  0.59237600  1
  C  C51  1  0.24615200  0.45962900  0.40762400  1
  C  C52  1  0.75384800  0.45962900  0.90762400  1
  C  C53  1  0.24615200  0.54037100  0.09237600  1
