# generated using pymatgen
data_Cu2(NiC3)3
_symmetry_space_group_name_H-M   'P 1'
_cell_length_a   5.26973579
_cell_length_b   5.26973579
_cell_length_c   14.60165900
_cell_angle_alpha   90.00000000
_cell_angle_beta   90.00000000
_cell_angle_gamma   119.99999731
_symmetry_Int_Tables_number   1
_chemical_formula_structural   Cu2(NiC3)3
_chemical_formula_sum   'Cu4 Ni6 C18'
_cell_volume   351.16443686
_cell_formula_units_Z   2
loop_
 _symmetry_equiv_pos_site_id
 _symmetry_equiv_pos_as_xyz
  1  'x, y, z'
loop_
 _atom_site_type_symbol
 _atom_site_label
 _atom_site_symmetry_multiplicity
 _atom_site_fract_x
 _atom_site_fract_y
 _atom_site_fract_z
 _atom_site_occupancy
  Ni  Ni0  1  0.66666700  0.33333300  0.68296400  1
  Ni  Ni1  1  0.66666700  0.33333300  0.97759300  1
  Ni  Ni2  1  0.66666700  0.33333300  0.47759300  1
  Ni  Ni3  1  0.33333300  0.66666700  0.50569300  1
  Ni  Ni4  1  0.33333300  0.66666700  0.00569300  1
  Ni  Ni5  1  0.66666700  0.33333300  0.18296400  1
  Cu  Cu6  1  0.00000000  0.00000000  0.85766300  1
  Cu  Cu7  1  0.00000000  0.00000000  0.14546400  1
  Cu  Cu8  1  0.00000000  0.00000000  0.64546400  1
  Cu  Cu9  1  0.00000000  0.00000000  0.35766300  1
  C  C10  1  0.36149600  0.32599200  0.09102900  1
  C  C11  1  0.67890400  0.69801700  0.92066300  1
  C  C12  1  0.92973900  0.24288100  0.24394500  1
  C  C13  1  0.31314200  0.07026100  0.24394500  1
  C  C14  1  0.96449700  0.63850400  0.09102900  1
  C  C15  1  0.67400800  0.63850400  0.59102900  1
  C  C16  1  0.75711900  0.07026100  0.74394500  1
  C  C17  1  0.01911300  0.32109600  0.92066300  1
  C  C18  1  0.01911300  0.69801700  0.42066300  1
  C  C19  1  0.36149600  0.03550300  0.59102900  1
  C  C20  1  0.31314200  0.24288100  0.74394500  1
  C  C21  1  0.96449700  0.32599200  0.59102900  1
  C  C22  1  0.75711900  0.68685800  0.24394500  1
  C  C23  1  0.30198300  0.98088700  0.92066300  1
  C  C24  1  0.67400800  0.03550300  0.09102900  1
  C  C25  1  0.67890400  0.98088700  0.42066300  1
  C  C26  1  0.30198300  0.32109600  0.42066300  1
  C  C27  1  0.92973900  0.68685800  0.74394500  1
