# generated using pymatgen
data_Cu2Ni2C5
_symmetry_space_group_name_H-M   'P 1'
_cell_length_a   3.34932565
_cell_length_b   3.34932565
_cell_length_c   30.95270500
_cell_angle_alpha   90.00000000
_cell_angle_beta   90.00000000
_cell_angle_gamma   119.99999313
_symmetry_Int_Tables_number   1
_chemical_formula_structural   Cu2Ni2C5
_chemical_formula_sum   'Cu2 Ni2 C5'
_cell_volume   300.70733501
_cell_formula_units_Z   1
loop_
 _symmetry_equiv_pos_site_id
 _symmetry_equiv_pos_as_xyz
  1  'x, y, z'
loop_
 _atom_site_type_symbol
 _atom_site_label
 _atom_site_symmetry_multiplicity
 _atom_site_fract_x
 _atom_site_fract_y
 _atom_site_fract_z
 _atom_site_occupancy
  C  C0  1  0.33333300  0.66666700  0.05445300  1
  C  C1  1  0.33333300  0.66666700  0.17686400  1
  C  C2  1  0.00000000  0.00000000  0.11562000  1
  C  C3  1  0.33333300  0.66666700  0.34698400  1
  C  C4  1  0.00000000  0.00000000  0.57830800  1
  Ni  Ni5  1  0.33333300  0.66666700  0.52424200  1
  Ni  Ni6  1  0.33333300  0.66666700  0.63239300  1
  Cu  Cu7  1  0.00000000  0.00000000  0.39595000  1
  Cu  Cu8  1  0.00000000  0.00000000  0.29802700  1
