# generated using pymatgen
data_CuNiC18
_symmetry_space_group_name_H-M   'P 1'
_cell_length_a   16.66022200
_cell_length_b   7.20027500
_cell_length_c   12.29111529
_cell_angle_alpha   56.88529247
_cell_angle_beta   90.00000000
_cell_angle_gamma   90.00000000
_symmetry_Int_Tables_number   1
_chemical_formula_structural   CuNiC18
_chemical_formula_sum   'Cu4 Ni4 C72'
_cell_volume   1234.94235215
_cell_formula_units_Z   4
loop_
 _symmetry_equiv_pos_site_id
 _symmetry_equiv_pos_as_xyz
  1  'x, y, z'
loop_
 _atom_site_type_symbol
 _atom_site_label
 _atom_site_symmetry_multiplicity
 _atom_site_fract_x
 _atom_site_fract_y
 _atom_site_fract_z
 _atom_site_occupancy
  Ni  Ni0  1  0.33110800  0.79761600  0.87902300  1
  Ni  Ni1  1  0.16889200  0.79761600  0.37902300  1
  Ni  Ni2  1  0.66889200  0.20238400  0.12097700  1
  Ni  Ni3  1  0.83110800  0.20238400  0.62097700  1
  Cu  Cu4  1  0.50000000  0.00000000  0.50000000  1
  Cu  Cu5  1  0.00000000  0.00000000  0.00000000  1
  Cu  Cu6  1  0.50000000  0.50000000  0.50000000  1
  Cu  Cu7  1  0.00000000  0.50000000  0.00000000  1
  C  C8  1  0.35020400  0.19850200  0.57867800  1
  C  C9  1  0.14979600  0.19850200  0.07867800  1
  C  C10  1  0.64979600  0.80149800  0.42132200  1
  C  C11  1  0.85020400  0.80149800  0.92132200  1
  C  C12  1  0.43587400  0.17942000  0.20006000  1
  C  C13  1  0.06412600  0.17942000  0.70006000  1
  C  C14  1  0.56412600  0.82058000  0.79994000  1
  C  C15  1  0.93587400  0.82058000  0.29994000  1
  C  C16  1  0.38416500  0.07622600  0.52245700  1
  C  C17  1  0.11583500  0.07622600  0.02245700  1
  C  C18  1  0.61583500  0.92377400  0.47754300  1
  C  C19  1  0.88416500  0.92377400  0.97754300  1
  C  C20  1  0.30816100  0.03500900  0.70500800  1
  C  C21  1  0.19183900  0.03500900  0.20500800  1
  C  C22  1  0.69183900  0.96499100  0.29499200  1
  C  C23  1  0.80816100  0.96499100  0.79499200  1
  C  C24  1  0.41726100  0.28936300  0.62138400  1
  C  C25  1  0.08273900  0.28936300  0.12138400  1
  C  C26  1  0.58273900  0.71063700  0.37861600  1
  C  C27  1  0.91726100  0.71063700  0.87861600  1
  C  C28  1  0.29372300  0.36676600  0.49132900  1
  C  C29  1  0.20627700  0.36676600  0.99132900  1
  C  C30  1  0.70627700  0.63323400  0.50867100  1
  C  C31  1  0.79372300  0.63323400  0.00867100  1
  C  C32  1  0.37272400  0.01091100  0.24629600  1
  C  C33  1  0.12727600  0.01091100  0.74629600  1
  C  C34  1  0.62727600  0.98908900  0.75370400  1
  C  C35  1  0.87272400  0.98908900  0.25370400  1
  C  C36  1  0.48980100  0.14654600  0.30662700  1
  C  C37  1  0.01019900  0.14654600  0.80662700  1
  C  C38  1  0.51019900  0.85345400  0.69337300  1
  C  C39  1  0.98980100  0.85345400  0.19337300  1
  C  C40  1  0.39640700  0.40193800  0.14673500  1
  C  C41  1  0.10359300  0.40193800  0.64673500  1
  C  C42  1  0.60359300  0.59806200  0.85326500  1
  C  C43  1  0.89640700  0.59806200  0.35326500  1
  C  C44  1  0.48578900  0.17069200  0.10280300  1
  C  C45  1  0.01421100  0.17069200  0.60280300  1
  C  C46  1  0.51421100  0.82930800  0.89719700  1
  C  C47  1  0.98578900  0.82930800  0.39719700  1
  C  C48  1  0.46380300  0.70950000  0.52835600  1
  C  C49  1  0.03619700  0.70950000  0.02835600  1
  C  C50  1  0.53619700  0.29050000  0.47164400  1
  C  C51  1  0.96380300  0.29050000  0.97164400  1
  C  C52  1  0.41191700  0.58511400  0.93832600  1
  C  C53  1  0.08808300  0.58511400  0.43832600  1
  C  C54  1  0.58808300  0.41488600  0.06167400  1
  C  C55  1  0.91191700  0.41488600  0.56167400  1
  C  C56  1  0.26182100  0.70742900  0.11479100  1
  C  C57  1  0.23817900  0.70742900  0.61479100  1
  C  C58  1  0.73817900  0.29257100  0.88520900  1
  C  C59  1  0.76182100  0.29257100  0.38520900  1
  C  C60  1  0.31631200  0.25194200  0.85829000  1
  C  C61  1  0.18368800  0.25194200  0.35829000  1
  C  C62  1  0.68368800  0.74805800  0.14171000  1
  C  C63  1  0.81631200  0.74805800  0.64171000  1
  C  C64  1  0.44587400  0.55556200  0.35855300  1
  C  C65  1  0.05412600  0.55556200  0.85855300  1
  C  C66  1  0.55412600  0.44443800  0.64144700  1
  C  C67  1  0.94587400  0.44443800  0.14144700  1
  C  C68  1  0.26150500  0.77766600  0.49085500  1
  C  C69  1  0.23849500  0.77766600  0.99085500  1
  C  C70  1  0.73849500  0.22233400  0.50914500  1
  C  C71  1  0.76150500  0.22233400  0.00914500  1
  C  C72  1  0.29478600  0.64776700  0.69413100  1
  C  C73  1  0.20521400  0.64776700  0.19413100  1
  C  C74  1  0.70521400  0.35223300  0.30586900  1
  C  C75  1  0.79478600  0.35223300  0.80586900  1
  C  C76  1  0.38520000  0.21616600  0.89890100  1
  C  C77  1  0.11480000  0.21616600  0.39890100  1
  C  C78  1  0.61480000  0.78383400  0.10109900  1
  C  C79  1  0.88520000  0.78383400  0.60109900  1
