# generated using pymatgen
data_CuNi2C7
_symmetry_space_group_name_H-M   'P 1'
_cell_length_a   7.57350700
_cell_length_b   7.57350700
_cell_length_c   7.62645800
_cell_angle_alpha   90.00000000
_cell_angle_beta   90.00000000
_cell_angle_gamma   90.00000000
_symmetry_Int_Tables_number   1
_chemical_formula_structural   CuNi2C7
_chemical_formula_sum   'Cu4 Ni8 C28'
_cell_volume   437.43844110
_cell_formula_units_Z   4
loop_
 _symmetry_equiv_pos_site_id
 _symmetry_equiv_pos_as_xyz
  1  'x, y, z'
loop_
 _atom_site_type_symbol
 _atom_site_label
 _atom_site_symmetry_multiplicity
 _atom_site_fract_x
 _atom_site_fract_y
 _atom_site_fract_z
 _atom_site_occupancy
  C  C0  1  0.00000000  0.50000000  0.02806200  1
  C  C1  1  0.00000000  0.50000000  0.52806200  1
  C  C2  1  0.50000000  0.00000000  0.47193800  1
  C  C3  1  0.50000000  0.00000000  0.97193800  1
  Ni  Ni4  1  0.75000000  0.25000000  0.25000000  1
  Ni  Ni5  1  0.25000000  0.25000000  0.25000000  1
  Ni  Ni6  1  0.75000000  0.75000000  0.25000000  1
  Ni  Ni7  1  0.25000000  0.75000000  0.25000000  1
  Ni  Ni8  1  0.75000000  0.25000000  0.75000000  1
  Ni  Ni9  1  0.25000000  0.25000000  0.75000000  1
  Ni  Ni10  1  0.75000000  0.75000000  0.75000000  1
  Ni  Ni11  1  0.25000000  0.75000000  0.75000000  1
  Cu  Cu12  1  0.00000000  0.00000000  0.00000000  1
  Cu  Cu13  1  0.50000000  0.50000000  0.50000000  1
  Cu  Cu14  1  0.00000000  0.00000000  0.50000000  1
  Cu  Cu15  1  0.50000000  0.50000000  0.00000000  1
  C  C16  1  0.00000000  0.69474900  0.78682000  1
  C  C17  1  0.00000000  0.30525100  0.78682000  1
  C  C18  1  0.19474900  0.50000000  0.28682000  1
  C  C19  1  0.80525100  0.50000000  0.28682000  1
  C  C20  1  0.50000000  0.80525100  0.71318000  1
  C  C21  1  0.50000000  0.19474900  0.71318000  1
  C  C22  1  0.30525100  0.00000000  0.21318000  1
  C  C23  1  0.69474900  0.00000000  0.21318000  1
  C  C24  1  0.29317700  0.50000000  0.67967700  1
  C  C25  1  0.70682300  0.50000000  0.67967700  1
  C  C26  1  0.00000000  0.79317700  0.17967700  1
  C  C27  1  0.00000000  0.20682300  0.17967700  1
  C  C28  1  0.20682300  0.00000000  0.82032300  1
  C  C29  1  0.79317700  0.00000000  0.82032300  1
  C  C30  1  0.50000000  0.70682300  0.32032300  1
  C  C31  1  0.50000000  0.29317700  0.32032300  1
  C  C32  1  0.69337100  0.69337100  0.00000000  1
  C  C33  1  0.30662900  0.69337100  0.00000000  1
  C  C34  1  0.69337100  0.30662900  0.00000000  1
  C  C35  1  0.30662900  0.30662900  0.00000000  1
  C  C36  1  0.19337100  0.19337100  0.50000000  1
  C  C37  1  0.80662900  0.19337100  0.50000000  1
  C  C38  1  0.19337100  0.80662900  0.50000000  1
  C  C39  1  0.80662900  0.80662900  0.50000000  1
