# generated using pymatgen
data_Cu2Ni2C15
_symmetry_space_group_name_H-M   'P 1'
_cell_length_a   5.17618851
_cell_length_b   5.58458355
_cell_length_c   13.28569603
_cell_angle_alpha   88.97065162
_cell_angle_beta   91.79115205
_cell_angle_gamma   95.57795832
_symmetry_Int_Tables_number   1
_chemical_formula_structural   Cu2Ni2C15
_chemical_formula_sum   'Cu4 Ni4 C30'
_cell_volume   381.99943377
_cell_formula_units_Z   2
loop_
 _symmetry_equiv_pos_site_id
 _symmetry_equiv_pos_as_xyz
  1  'x, y, z'
loop_
 _atom_site_type_symbol
 _atom_site_label
 _atom_site_symmetry_multiplicity
 _atom_site_fract_x
 _atom_site_fract_y
 _atom_site_fract_z
 _atom_site_occupancy
  C  C0  1  0.36390300  0.99156400  0.41866800  1
  C  C1  1  0.86371200  0.49130700  0.91877400  1
  C  C2  1  0.09063800  0.45756700  0.15711200  1
  C  C3  1  0.59063200  0.95777200  0.65711500  1
  C  C4  1  0.42209400  0.75961500  0.07402600  1
  C  C5  1  0.92218300  0.25987000  0.57389600  1
  C  C6  1  0.25104800  0.25345200  0.75086700  1
  C  C7  1  0.75148800  0.75341800  0.25065600  1
  C  C8  1  0.50473100  0.50720300  0.49476200  1
  C  C9  1  0.00487500  0.00698500  0.99478800  1
  Ni  Ni10  1  0.54973200  0.24414700  0.10860000  1
  Ni  Ni11  1  0.04982700  0.74430400  0.60848900  1
  Ni  Ni12  1  0.95844200  0.25784800  0.37597300  1
  Ni  Ni13  1  0.45843600  0.75769500  0.87603900  1
  Cu  Cu14  1  0.16507700  0.91414800  0.17156800  1
  Cu  Cu15  1  0.66512200  0.41434700  0.67160100  1
  Cu  Cu16  1  0.30591700  0.61997100  0.33412000  1
  Cu  Cu17  1  0.80573500  0.11970800  0.83414900  1
  C  C18  1  0.46943200  0.69096300  0.36628900  1
  C  C19  1  0.96937600  0.19061400  0.86633200  1
  C  C20  1  0.52947000  0.02441600  0.18089200  1
  C  C21  1  0.02950600  0.52462700  0.68069400  1
  C  C22  1  0.00591000  0.01767500  0.32974000  1
  C  C23  1  0.50597200  0.51732800  0.82991100  1
  C  C24  1  0.34050600  0.20009900  0.02340200  1
  C  C25  1  0.84054700  0.70019300  0.52334600  1
  C  C26  1  0.82788700  0.27838700  0.06281900  1
  C  C27  1  0.32798300  0.77854800  0.56276600  1
  C  C28  1  0.69279100  0.24247000  0.43064300  1
  C  C29  1  0.19255300  0.74236500  0.93054900  1
  C  C30  1  0.17205000  0.29932600  0.46357800  1
  C  C31  1  0.67174700  0.79912800  0.96380000  1
  C  C32  1  0.49738700  0.48271000  0.15970400  1
  C  C33  1  0.99746100  0.98295700  0.65956300  1
  C  C34  1  0.98538800  0.46655500  0.29803800  1
  C  C35  1  0.48538100  0.96643100  0.79816800  1
  C  C36  1  0.04256000  0.81205300  0.12832500  1
  C  C37  1  0.54254300  0.31225100  0.62836900  1
