# generated using pymatgen
data_Cu4NiC
_symmetry_space_group_name_H-M   'P 1'
_cell_length_a   7.34837300
_cell_length_b   7.34837300
_cell_length_c   12.27678100
_cell_angle_alpha   90.00000000
_cell_angle_beta   90.00000000
_cell_angle_gamma   90.00000000
_symmetry_Int_Tables_number   1
_chemical_formula_structural   Cu4NiC
_chemical_formula_sum   'Cu16 Ni4 C4'
_cell_volume   662.92881153
_cell_formula_units_Z   4
loop_
 _symmetry_equiv_pos_site_id
 _symmetry_equiv_pos_as_xyz
  1  'x, y, z'
loop_
 _atom_site_type_symbol
 _atom_site_label
 _atom_site_symmetry_multiplicity
 _atom_site_fract_x
 _atom_site_fract_y
 _atom_site_fract_z
 _atom_site_occupancy
  C  C0  1  0.50000000  0.50000000  0.75000000  1
  C  C1  1  0.00000000  0.00000000  0.00000000  1
  C  C2  1  0.00000000  0.00000000  0.50000000  1
  C  C3  1  0.50000000  0.50000000  0.25000000  1
  Ni  Ni4  1  0.50000000  0.00000000  0.54715100  1
  Ni  Ni5  1  0.00000000  0.50000000  0.45284900  1
  Ni  Ni6  1  0.00000000  0.50000000  0.04715100  1
  Ni  Ni7  1  0.50000000  0.00000000  0.95284900  1
  Cu  Cu8  1  0.81448900  0.22537700  0.60025500  1
  Cu  Cu9  1  0.77462300  0.18551100  0.10025500  1
  Cu  Cu10  1  0.27996900  0.28996800  0.16412300  1
  Cu  Cu11  1  0.18551100  0.77462300  0.60025500  1
  Cu  Cu12  1  0.77462300  0.81448900  0.39974500  1
  Cu  Cu13  1  0.71003200  0.27996900  0.83587700  1
  Cu  Cu14  1  0.81448900  0.77462300  0.89974500  1
  Cu  Cu15  1  0.28996800  0.27996900  0.66412300  1
  Cu  Cu16  1  0.28996800  0.72003100  0.83587700  1
  Cu  Cu17  1  0.22537700  0.18551100  0.39974500  1
  Cu  Cu18  1  0.71003200  0.72003100  0.66412300  1
  Cu  Cu19  1  0.22537700  0.81448900  0.10025500  1
  Cu  Cu20  1  0.72003100  0.71003200  0.16412300  1
  Cu  Cu21  1  0.27996900  0.71003200  0.33587700  1
  Cu  Cu22  1  0.72003100  0.28996800  0.33587700  1
  Cu  Cu23  1  0.18551100  0.22537700  0.89974500  1
