# generated using pymatgen
data_Cu2NiC6
_symmetry_space_group_name_H-M   'P 1'
_cell_length_a   4.84553663
_cell_length_b   9.04108000
_cell_length_c   4.84553600
_cell_angle_alpha   90.00000000
_cell_angle_beta   119.99999569
_cell_angle_gamma   90.00000000
_symmetry_Int_Tables_number   1
_chemical_formula_structural   Cu2NiC6
_chemical_formula_sum   'Cu4 Ni2 C12'
_cell_volume   183.83773826
_cell_formula_units_Z   2
loop_
 _symmetry_equiv_pos_site_id
 _symmetry_equiv_pos_as_xyz
  1  'x, y, z'
loop_
 _atom_site_type_symbol
 _atom_site_label
 _atom_site_symmetry_multiplicity
 _atom_site_fract_x
 _atom_site_fract_y
 _atom_site_fract_z
 _atom_site_occupancy
  Ni  Ni0  1  0.00000000  0.50000000  0.00000000  1
  Ni  Ni1  1  0.00000000  0.00000000  0.00000000  1
  Cu  Cu2  1  0.66666700  0.25000000  0.33333300  1
  Cu  Cu3  1  0.66666700  0.75000000  0.33333300  1
  Cu  Cu4  1  0.33333300  0.25000000  0.66666700  1
  Cu  Cu5  1  0.33333300  0.75000000  0.66666700  1
  C  C6  1  0.36209700  0.36366000  0.36209700  1
  C  C7  1  0.36209700  0.86366000  0.36209700  1
  C  C8  1  0.00000000  0.36366000  0.63790300  1
  C  C9  1  0.00000000  0.86366000  0.63790300  1
  C  C10  1  0.63790300  0.36366000  0.00000000  1
  C  C11  1  0.63790300  0.86366000  0.00000000  1
  C  C12  1  0.00000000  0.13634000  0.36209700  1
  C  C13  1  0.00000000  0.63634000  0.36209700  1
  C  C14  1  0.36209700  0.13634000  0.00000000  1
  C  C15  1  0.36209700  0.63634000  0.00000000  1
  C  C16  1  0.63790300  0.13634000  0.63790300  1
  C  C17  1  0.63790300  0.63634000  0.63790300  1
