# generated using pymatgen
data_Cu2Ni8C7
_symmetry_space_group_name_H-M   'P 1'
_cell_length_a   7.67338844
_cell_length_b   7.67338844
_cell_length_c   7.67338844
_cell_angle_alpha   60.00000000
_cell_angle_beta   60.00000000
_cell_angle_gamma   60.00000000
_symmetry_Int_Tables_number   1
_chemical_formula_structural   Cu2Ni8C7
_chemical_formula_sum   'Cu2 Ni8 C7'
_cell_volume   319.48211620
_cell_formula_units_Z   1
loop_
 _symmetry_equiv_pos_site_id
 _symmetry_equiv_pos_as_xyz
  1  'x, y, z'
loop_
 _atom_site_type_symbol
 _atom_site_label
 _atom_site_symmetry_multiplicity
 _atom_site_fract_x
 _atom_site_fract_y
 _atom_site_fract_z
 _atom_site_occupancy
  C  C0  1  0.00000000  0.00000000  0.00000000  1
  Ni  Ni1  1  0.67322900  0.67322900  0.98031300  1
  Ni  Ni2  1  0.67322900  0.98031300  0.67322900  1
  Ni  Ni3  1  0.98031300  0.67322900  0.67322900  1
  Ni  Ni4  1  0.67322900  0.67322900  0.67322900  1
  Ni  Ni5  1  0.32677100  0.32677100  0.01968700  1
  Ni  Ni6  1  0.32677100  0.01968700  0.32677100  1
  Ni  Ni7  1  0.01968700  0.32677100  0.32677100  1
  Ni  Ni8  1  0.32677100  0.32677100  0.32677100  1
  Cu  Cu9  1  0.75000000  0.75000000  0.75000000  1
  Cu  Cu10  1  0.25000000  0.25000000  0.25000000  1
  C  C11  1  0.78487400  0.78487400  0.21512600  1
  C  C12  1  0.21512600  0.78487400  0.21512600  1
  C  C13  1  0.78487400  0.21512600  0.21512600  1
  C  C14  1  0.21512600  0.21512600  0.78487400  1
  C  C15  1  0.78487400  0.21512600  0.78487400  1
  C  C16  1  0.21512600  0.78487400  0.78487400  1
