# generated using pymatgen
data_CuNi2C7
_symmetry_space_group_name_H-M   'P 1'
_cell_length_a   6.09898400
_cell_length_b   7.22133800
_cell_length_c   11.80585500
_cell_angle_alpha   90.00000000
_cell_angle_beta   90.00000000
_cell_angle_gamma   90.00000000
_symmetry_Int_Tables_number   1
_chemical_formula_structural   CuNi2C7
_chemical_formula_sum   'Cu4 Ni8 C28'
_cell_volume   519.96320480
_cell_formula_units_Z   4
loop_
 _symmetry_equiv_pos_site_id
 _symmetry_equiv_pos_as_xyz
  1  'x, y, z'
loop_
 _atom_site_type_symbol
 _atom_site_label
 _atom_site_symmetry_multiplicity
 _atom_site_fract_x
 _atom_site_fract_y
 _atom_site_fract_z
 _atom_site_occupancy
  C  C0  1  0.25000000  0.35108900  0.56242900  1
  C  C1  1  0.25000000  0.14891100  0.06242900  1
  C  C2  1  0.75000000  0.64891100  0.43757100  1
  C  C3  1  0.75000000  0.85108900  0.93757100  1
  Ni  Ni4  1  0.99202300  0.32033100  0.34586000  1
  Ni  Ni5  1  0.50797700  0.17966900  0.84586000  1
  Ni  Ni6  1  0.49202300  0.67966900  0.65414000  1
  Ni  Ni7  1  0.00797700  0.82033100  0.15414000  1
  Ni  Ni8  1  0.00797700  0.67966900  0.65414000  1
  Ni  Ni9  1  0.49202300  0.82033100  0.15414000  1
  Ni  Ni10  1  0.50797700  0.32033100  0.34586000  1
  Ni  Ni11  1  0.99202300  0.17966900  0.84586000  1
  Cu  Cu12  1  0.25000000  0.94673100  0.36017100  1
  Cu  Cu13  1  0.25000000  0.55326900  0.86017100  1
  Cu  Cu14  1  0.75000000  0.05326900  0.63982900  1
  Cu  Cu15  1  0.75000000  0.44673100  0.13982900  1
  C  C16  1  0.25000000  0.04037800  0.47174200  1
  C  C17  1  0.25000000  0.45962200  0.97174200  1
  C  C18  1  0.75000000  0.95962200  0.52825800  1
  C  C19  1  0.75000000  0.54037800  0.02825800  1
  C  C20  1  0.94864100  0.17081100  0.65304400  1
  C  C21  1  0.55135900  0.32918900  0.15304400  1
  C  C22  1  0.44864100  0.82918900  0.34695600  1
  C  C23  1  0.05135900  0.67081100  0.84695600  1
  C  C24  1  0.05135900  0.82918900  0.34695600  1
  C  C25  1  0.44864100  0.67081100  0.84695600  1
  C  C26  1  0.55135900  0.17081100  0.65304400  1
  C  C27  1  0.94864100  0.32918900  0.15304400  1
  C  C28  1  0.25000000  0.41029800  0.76912400  1
  C  C29  1  0.25000000  0.08970200  0.26912400  1
  C  C30  1  0.75000000  0.58970200  0.23087600  1
  C  C31  1  0.75000000  0.91029800  0.73087600  1
  C  C32  1  0.99425300  0.39300500  0.41551300  1
  C  C33  1  0.50574700  0.10699500  0.91551300  1
  C  C34  1  0.49425300  0.60699500  0.58448700  1
  C  C35  1  0.00574700  0.89300500  0.08448700  1
  C  C36  1  0.00574700  0.60699500  0.58448700  1
  C  C37  1  0.49425300  0.89300500  0.08448700  1
  C  C38  1  0.50574700  0.39300500  0.41551300  1
  C  C39  1  0.99425300  0.10699500  0.91551300  1
