# generated using pymatgen
data_Cu6NiC4
_symmetry_space_group_name_H-M   'P 1'
_cell_length_a   5.61879882
_cell_length_b   5.61879882
_cell_length_c   10.38712813
_cell_angle_alpha   89.52322293
_cell_angle_beta   89.52322293
_cell_angle_gamma   78.66696491
_symmetry_Int_Tables_number   1
_chemical_formula_structural   Cu6NiC4
_chemical_formula_sum   'Cu12 Ni2 C8'
_cell_volume   321.51822047
_cell_formula_units_Z   2
loop_
 _symmetry_equiv_pos_site_id
 _symmetry_equiv_pos_as_xyz
  1  'x, y, z'
loop_
 _atom_site_type_symbol
 _atom_site_label
 _atom_site_symmetry_multiplicity
 _atom_site_fract_x
 _atom_site_fract_y
 _atom_site_fract_z
 _atom_site_occupancy
  C  C0  1  0.50000000  0.50000000  0.00000000  1
  C  C1  1  0.50000000  0.50000000  0.50000000  1
  Ni  Ni2  1  0.99390700  0.00609300  0.25000000  1
  Ni  Ni3  1  0.00609300  0.99390700  0.75000000  1
  C  C4  1  0.86738700  0.62526200  0.24753900  1
  C  C5  1  0.37473800  0.13261300  0.25246100  1
  C  C6  1  0.13261300  0.37473800  0.75246100  1
  C  C7  1  0.62526200  0.86738700  0.74753900  1
  C  C8  1  0.00000000  0.00000000  0.50000000  1
  C  C9  1  0.00000000  0.00000000  0.00000000  1
  Cu  Cu10  1  0.64822400  0.66520700  0.15995900  1
  Cu  Cu11  1  0.33479300  0.35177600  0.34004100  1
  Cu  Cu12  1  0.35177600  0.33479300  0.84004100  1
  Cu  Cu13  1  0.66520700  0.64822400  0.65995900  1
  Cu  Cu14  1  0.79825000  0.56989200  0.38347900  1
  Cu  Cu15  1  0.43010800  0.20175000  0.11652100  1
  Cu  Cu16  1  0.20175000  0.43010800  0.61652100  1
  Cu  Cu17  1  0.56989200  0.79825000  0.88347900  1
  Cu  Cu18  1  0.17876900  0.72299800  0.04238600  1
  Cu  Cu19  1  0.27700200  0.82123100  0.45761400  1
  Cu  Cu20  1  0.82123100  0.27700200  0.95761400  1
  Cu  Cu21  1  0.72299800  0.17876900  0.54238600  1
