# generated using pymatgen
data_CuNiC
_symmetry_space_group_name_H-M   'P 1'
_cell_length_a   3.60747700
_cell_length_b   6.12571900
_cell_length_c   6.95504100
_cell_angle_alpha   90.00000000
_cell_angle_beta   90.00000000
_cell_angle_gamma   90.00000000
_symmetry_Int_Tables_number   1
_chemical_formula_structural   CuNiC
_chemical_formula_sum   'Cu4 Ni4 C4'
_cell_volume   153.69521127
_cell_formula_units_Z   4
loop_
 _symmetry_equiv_pos_site_id
 _symmetry_equiv_pos_as_xyz
  1  'x, y, z'
loop_
 _atom_site_type_symbol
 _atom_site_label
 _atom_site_symmetry_multiplicity
 _atom_site_fract_x
 _atom_site_fract_y
 _atom_site_fract_z
 _atom_site_occupancy
  Ni  Ni0  1  0.25000000  0.02624000  0.82711800  1
  Ni  Ni1  1  0.25000000  0.52624000  0.67288200  1
  Ni  Ni2  1  0.75000000  0.97376000  0.17288200  1
  Ni  Ni3  1  0.75000000  0.47376000  0.32711800  1
  Cu  Cu4  1  0.25000000  0.14844800  0.43743800  1
  Cu  Cu5  1  0.25000000  0.64844800  0.06256200  1
  Cu  Cu6  1  0.75000000  0.85155200  0.56256200  1
  Cu  Cu7  1  0.75000000  0.35155200  0.93743800  1
  C  C8  1  0.25000000  0.27785400  0.12133000  1
  C  C9  1  0.25000000  0.77785400  0.37867000  1
  C  C10  1  0.75000000  0.72214600  0.87867000  1
  C  C11  1  0.75000000  0.22214600  0.62133000  1
