# generated using pymatgen
data_Cu8NiC4
_symmetry_space_group_name_H-M   'P 1'
_cell_length_a   7.10731600
_cell_length_b   5.22971600
_cell_length_c   10.13558422
_cell_angle_alpha   74.80099291
_cell_angle_beta   90.00000000
_cell_angle_gamma   90.00000000
_symmetry_Int_Tables_number   1
_chemical_formula_structural   Cu8NiC4
_chemical_formula_sum   'Cu16 Ni2 C8'
_cell_volume   363.55431034
_cell_formula_units_Z   2
loop_
 _symmetry_equiv_pos_site_id
 _symmetry_equiv_pos_as_xyz
  1  'x, y, z'
loop_
 _atom_site_type_symbol
 _atom_site_label
 _atom_site_symmetry_multiplicity
 _atom_site_fract_x
 _atom_site_fract_y
 _atom_site_fract_z
 _atom_site_occupancy
  C  C0  1  0.99390100  0.12089400  0.74243200  1
  C  C1  1  0.49390100  0.87910600  0.25756800  1
  C  C2  1  0.00609900  0.87910600  0.25756800  1
  C  C3  1  0.50609900  0.12089400  0.74243200  1
  C  C4  1  0.25000000  0.26428300  0.40910600  1
  C  C5  1  0.75000000  0.73571700  0.59089400  1
  C  C6  1  0.75000000  0.32953200  0.41247200  1
  C  C7  1  0.25000000  0.67046800  0.58752800  1
  Ni  Ni8  1  0.25000000  0.45378400  0.10296200  1
  Ni  Ni9  1  0.75000000  0.54621600  0.89703800  1
  Cu  Cu10  1  0.92185400  0.23661200  0.35672700  1
  Cu  Cu11  1  0.42185400  0.76338800  0.64327300  1
  Cu  Cu12  1  0.07814600  0.76338800  0.64327300  1
  Cu  Cu13  1  0.57814600  0.23661200  0.35672700  1
  Cu  Cu14  1  0.75000000  0.22821300  0.56577800  1
  Cu  Cu15  1  0.25000000  0.77178700  0.43422200  1
  Cu  Cu16  1  0.25000000  0.37289300  0.62156500  1
  Cu  Cu17  1  0.75000000  0.62710700  0.37843500  1
  Cu  Cu18  1  0.25000000  0.20363300  0.15003700  1
  Cu  Cu19  1  0.75000000  0.79636700  0.84996300  1
  Cu  Cu20  1  0.25000000  0.99278100  0.90025400  1
  Cu  Cu21  1  0.75000000  0.00721900  0.09974600  1
  Cu  Cu22  1  0.25000000  0.55014600  0.97510900  1
  Cu  Cu23  1  0.75000000  0.44985400  0.02489100  1
  Cu  Cu24  1  0.75000000  0.39954500  0.81516700  1
  Cu  Cu25  1  0.25000000  0.60045500  0.18483300  1
