# generated using pymatgen
data_Cu3(NiC8)2
_symmetry_space_group_name_H-M   'P 1'
_cell_length_a   13.03654128
_cell_length_b   9.92072677
_cell_length_c   9.70499943
_cell_angle_alpha   83.24302730
_cell_angle_beta   49.08727384
_cell_angle_gamma   47.66969887
_symmetry_Int_Tables_number   1
_chemical_formula_structural   Cu3(NiC8)2
_chemical_formula_sum   'Cu6 Ni4 C32'
_cell_volume   571.83490068
_cell_formula_units_Z   2
loop_
 _symmetry_equiv_pos_site_id
 _symmetry_equiv_pos_as_xyz
  1  'x, y, z'
loop_
 _atom_site_type_symbol
 _atom_site_label
 _atom_site_symmetry_multiplicity
 _atom_site_fract_x
 _atom_site_fract_y
 _atom_site_fract_z
 _atom_site_occupancy
  C  C0  1  0.83462700  0.60580400  0.11278500  1
  C  C1  1  0.44678400  0.11278500  0.60580400  1
  C  C2  1  0.13721500  0.80321600  0.41537300  1
  C  C3  1  0.64419600  0.41537300  0.80321600  1
  Ni  Ni4  1  0.57554200  0.73477500  0.99679200  1
  Ni  Ni5  1  0.69289100  0.99679200  0.73477500  1
  Ni  Ni6  1  0.25320800  0.55710900  0.67445800  1
  Ni  Ni7  1  0.51522500  0.67445800  0.55710900  1
  Cu  Cu8  1  0.24484900  0.25515100  0.25515100  1
  Cu  Cu9  1  0.99484900  0.00515100  0.00515100  1
  Cu  Cu10  1  0.56784800  0.50824800  0.23731400  1
  Cu  Cu11  1  0.68658900  0.23731400  0.50824800  1
  Cu  Cu12  1  0.01268600  0.56341100  0.68215200  1
  Cu  Cu13  1  0.74175200  0.68215200  0.56341100  1
  C  C14  1  0.33882500  0.02448600  0.20415400  1
  C  C15  1  0.43253500  0.20415400  0.02448600  1
  C  C16  1  0.04584600  0.81746500  0.91117500  1
  C  C17  1  0.22551400  0.91117500  0.81746500  1
  C  C18  1  0.52323400  0.60794300  0.11120300  1
  C  C19  1  0.75762000  0.11120300  0.60794300  1
  C  C20  1  0.13879700  0.49238000  0.72676600  1
  C  C21  1  0.64205700  0.72676600  0.49238000  1
  C  C22  1  0.80599800  0.62516900  0.89111600  1
  C  C23  1  0.67771700  0.89111600  0.62516900  1
  C  C24  1  0.35888400  0.57228300  0.44400200  1
  C  C25  1  0.62483100  0.44400200  0.57228300  1
  C  C26  1  0.58732000  0.61077700  0.32518800  1
  C  C27  1  0.47671500  0.32518800  0.61077700  1
  C  C28  1  0.92481200  0.77328500  0.66268000  1
  C  C29  1  0.63922300  0.66268000  0.77328500  1
  C  C30  1  0.80694500  0.23505200  0.05234900  1
  C  C31  1  0.90565300  0.05234900  0.23505200  1
  C  C32  1  0.19765100  0.34434700  0.44305500  1
  C  C33  1  0.01494800  0.44305500  0.34434700  1
  C  C34  1  0.05854900  0.10051600  0.57888400  1
  C  C35  1  0.26205000  0.57888400  0.10051600  1
  C  C36  1  0.67111600  0.98795000  0.19145100  1
  C  C37  1  0.14948400  0.19145100  0.98795000  1
  C  C38  1  0.18470300  0.10363300  0.61765900  1
  C  C39  1  0.09400500  0.61765900  0.10363300  1
  C  C40  1  0.63234100  0.15599500  0.06529700  1
  C  C41  1  0.14636700  0.06529700  0.15599500  1
