# generated using pymatgen
data_Cu27(Ni3C22)2
_symmetry_space_group_name_H-M   'P 1'
_cell_length_a   7.24670662
_cell_length_b   7.92121035
_cell_length_c   13.61126329
_cell_angle_alpha   90.74073365
_cell_angle_beta   91.92241361
_cell_angle_gamma   83.90241963
_symmetry_Int_Tables_number   1
_chemical_formula_structural   Cu27(Ni3C22)2
_chemical_formula_sum   'Cu27 Ni6 C44'
_cell_volume   776.43096479
_cell_formula_units_Z   1
loop_
 _symmetry_equiv_pos_site_id
 _symmetry_equiv_pos_as_xyz
  1  'x, y, z'
loop_
 _atom_site_type_symbol
 _atom_site_label
 _atom_site_symmetry_multiplicity
 _atom_site_fract_x
 _atom_site_fract_y
 _atom_site_fract_z
 _atom_site_occupancy
  C  C0  1  0.45618900  0.57147400  0.76783400  1
  C  C1  1  0.54381100  0.42852600  0.23216600  1
  C  C2  1  0.02199400  0.06027600  0.89667200  1
  C  C3  1  0.10384700  0.56397600  0.00148700  1
  C  C4  1  0.15277200  0.17773800  0.68217000  1
  C  C5  1  0.09829700  0.34017400  0.26767800  1
  C  C6  1  0.10381900  0.53337000  0.28480100  1
  C  C7  1  0.18644600  0.39681300  0.43253300  1
  C  C8  1  0.12954200  0.93166900  0.81208500  1
  C  C9  1  0.17078500  0.34145900  0.74757000  1
  C  C10  1  0.18284500  0.30187700  0.54732400  1
  C  C11  1  0.24470700  0.07605700  0.87620100  1
  C  C12  1  0.18817600  0.90443900  0.93634500  1
  C  C13  1  0.23595800  0.50441900  0.54004600  1
  C  C14  1  0.19034300  0.98623700  0.35808500  1
  C  C15  1  0.27996500  0.81397700  0.42090900  1
  C  C16  1  0.38137500  0.34486200  0.50147400  1
  C  C17  1  0.40336700  0.25898000  0.07703900  1
  C  C18  1  0.42762900  0.12963100  0.16794000  1
  C  C19  1  0.34909500  0.85010700  0.30076500  1
  C  C20  1  0.41774500  0.96392000  0.39606800  1
  C  C21  1  0.58225500  0.03608000  0.60393200  1
  C  C22  1  0.65090500  0.14989300  0.69923500  1
  C  C23  1  0.57237100  0.87036900  0.83205900  1
  C  C24  1  0.59663300  0.74102000  0.92296100  1
  C  C25  1  0.61862500  0.65513800  0.49852600  1
  C  C26  1  0.72003500  0.18602300  0.57909100  1
  C  C27  1  0.80965700  0.01376300  0.64191500  1
  C  C28  1  0.76404200  0.49558100  0.45995400  1
  C  C29  1  0.81182400  0.09556100  0.06365500  1
  C  C30  1  0.75529300  0.92394300  0.12379900  1
  C  C31  1  0.81715500  0.69812300  0.45267600  1
  C  C32  1  0.82921500  0.65854100  0.25243000  1
  C  C33  1  0.87045800  0.06833100  0.18791500  1
  C  C34  1  0.81355400  0.60318600  0.56746700  1
  C  C35  1  0.89618100  0.46663000  0.71519900  1
  C  C36  1  0.90170300  0.65982600  0.73232200  1
  C  C37  1  0.84722800  0.82226200  0.31783000  1
  C  C38  1  0.89615300  0.43602400  0.99851300  1
  C  C39  1  0.97800600  0.93972400  0.10332800  1
  C  C40  1  0.23775100  0.85794100  0.62462700  1
  C  C41  1  0.40881200  0.75648100  0.10105600  1
  C  C42  1  0.59118800  0.24351900  0.89894400  1
  C  C43  1  0.76224900  0.14205900  0.37537300  1
  Ni  Ni44  1  0.14633700  0.99141900  0.87993800  1
  Ni  Ni45  1  0.24298200  0.38607800  0.50500100  1
  Ni  Ni46  1  0.30810700  0.90222900  0.36912200  1
  Ni  Ni47  1  0.69189300  0.09777100  0.63087800  1
  Ni  Ni48  1  0.75701800  0.61392200  0.49499900  1
  Ni  Ni49  1  0.85366300  0.00858100  0.12006200  1
  Cu  Cu50  1  0.08039500  0.27236800  0.71567900  1
  Cu  Cu51  1  0.06528300  0.87971400  0.68152800  1
  Cu  Cu52  1  0.16441500  0.42172500  0.30560800  1
  Cu  Cu53  1  0.28378700  0.02377700  0.58812800  1
  Cu  Cu54  1  0.22126000  0.73546200  0.54175000  1
  Cu  Cu55  1  0.23140200  0.80243200  0.04494600  1
  Cu  Cu56  1  0.24905100  0.56113700  0.81156200  1
  Cu  Cu57  1  0.39915700  0.24952600  0.15085400  1
  Cu  Cu58  1  0.39286800  0.57907300  0.13948900  1
  Cu  Cu59  1  0.42677900  0.24496800  0.96012100  1
  Cu  Cu60  1  0.46733100  0.44895200  0.66791800  1
  Cu  Cu61  1  0.40023000  0.79374000  0.69287300  1
  Cu  Cu62  1  0.43033800  0.87375500  0.18586800  1
  Cu  Cu63  1  0.56966200  0.12624500  0.81413200  1
  Cu  Cu64  1  0.59977000  0.20626000  0.30712700  1
  Cu  Cu65  1  0.53266900  0.55104800  0.33208200  1
  Cu  Cu66  1  0.57322100  0.75503200  0.03987900  1
  Cu  Cu67  1  0.60713200  0.42092700  0.86051100  1
  Cu  Cu68  1  0.60084300  0.75047400  0.84914600  1
  Cu  Cu69  1  0.75094900  0.43886300  0.18843800  1
  Cu  Cu70  1  0.76859800  0.19756800  0.95505400  1
  Cu  Cu71  1  0.77874000  0.26453800  0.45825000  1
  Cu  Cu72  1  0.71621300  0.97622300  0.41187200  1
  Cu  Cu73  1  0.83558500  0.57827500  0.69439200  1
  Cu  Cu74  1  0.93471700  0.12028600  0.31847200  1
  Cu  Cu75  1  0.91960500  0.72763200  0.28432100  1
  Cu  Cu76  1  0.00000000  0.50000000  0.00000000  1
