# generated using pymatgen
data_Cu2Ni10C31
_symmetry_space_group_name_H-M   'P 1'
_cell_length_a   11.67429158
_cell_length_b   18.37335791
_cell_length_c   18.37335791
_cell_angle_alpha   118.37959162
_cell_angle_beta   90.00000000
_cell_angle_gamma   90.00000000
_symmetry_Int_Tables_number   1
_chemical_formula_structural   Cu2Ni10C31
_chemical_formula_sum   'Cu8 Ni40 C124'
_cell_volume   3467.37181962
_cell_formula_units_Z   4
loop_
 _symmetry_equiv_pos_site_id
 _symmetry_equiv_pos_as_xyz
  1  'x, y, z'
loop_
 _atom_site_type_symbol
 _atom_site_label
 _atom_site_symmetry_multiplicity
 _atom_site_fract_x
 _atom_site_fract_y
 _atom_site_fract_z
 _atom_site_occupancy
  C  C0  1  0.50000000  0.51836568  0.51836568  1
  C  C1  1  -0.00000000  0.01836568  0.01836568  1
  C  C2  1  0.50000000  0.00961674  0.00961674  1
  C  C3  1  -0.00000000  0.50961674  0.50961674  1
  C  C4  1  0.74468756  0.73219549  0.22603095  1
  C  C5  1  0.25531244  0.22603095  0.73219549  1
  C  C6  1  0.75531244  0.23219549  0.72603095  1
  C  C7  1  0.24468756  0.72603095  0.23219549  1
  C  C8  1  0.75991232  0.47364828  0.68688883  1
  C  C9  1  0.24008768  0.68688883  0.47364828  1
  C  C10  1  0.74008768  0.97364828  0.18688883  1
  C  C11  1  0.25991232  0.18688883  0.97364828  1
  C  C12  1  0.75128124  0.18358679  0.96275598  1
  C  C13  1  0.24871876  0.96275598  0.18358679  1
  C  C14  1  0.74871876  0.68358679  0.46275598  1
  C  C15  1  0.25128124  0.46275598  0.68358679  1
  C  C16  1  0.50081897  0.77973482  0.05783495  1
  C  C17  1  0.49918103  0.05783495  0.77973482  1
  C  C18  1  0.99918103  0.27973482  0.55783495  1
  C  C19  1  0.00081897  0.55783495  0.27973482  1
  C  C20  1  0.99596693  0.77628801  0.06315214  1
  C  C21  1  0.00403307  0.06315214  0.77628801  1
  C  C22  1  0.50403307  0.27628801  0.56315214  1
  C  C23  1  0.49596693  0.56315214  0.27628801  1
  Ni  Ni24  1  0.51119761  0.30007498  0.12838956  1
  Ni  Ni25  1  0.48880239  0.12838956  0.30007498  1
  Ni  Ni26  1  0.98880239  0.80007498  0.62838956  1
  Ni  Ni27  1  0.01119761  0.62838956  0.80007498  1
  Ni  Ni28  1  0.99584236  0.28822946  0.12800449  1
  Ni  Ni29  1  0.00415764  0.12800449  0.28822946  1
  Ni  Ni30  1  0.50415764  0.78822946  0.62800449  1
  Ni  Ni31  1  0.49584236  0.62800449  0.78822946  1
  Ni  Ni32  1  0.73271138  0.62667308  0.93656757  1
  Ni  Ni33  1  0.26728862  0.93656757  0.62667308  1
  Ni  Ni34  1  0.76728862  0.12667308  0.43656757  1
  Ni  Ni35  1  0.23271138  0.43656757  0.12667308  1
  Ni  Ni36  1  0.74395251  0.46009133  0.12402147  1
  Ni  Ni37  1  0.25604749  0.12402147  0.46009133  1
  Ni  Ni38  1  0.75604749  0.96009133  0.62402147  1
  Ni  Ni39  1  0.24395251  0.62402147  0.96009133  1
  Ni  Ni40  1  0.50556077  0.28547851  0.90162373  1
  Ni  Ni41  1  0.49443923  0.90162373  0.28547851  1
  Ni  Ni42  1  0.99443923  0.78547851  0.40162373  1
  Ni  Ni43  1  0.00556077  0.40162373  0.78547851  1
  Ni  Ni44  1  0.99729648  0.29099649  0.90381364  1
  Ni  Ni45  1  0.00270352  0.90381364  0.29099649  1
  Ni  Ni46  1  0.50270352  0.79099649  0.40381364  1
  Ni  Ni47  1  0.49729648  0.40381364  0.79099649  1
  Ni  Ni48  1  0.75743342  0.84918790  0.96175339  1
  Ni  Ni49  1  0.24256658  0.96175339  0.84918790  1
  Ni  Ni50  1  0.74256658  0.34918790  0.46175339  1
  Ni  Ni51  1  0.25743342  0.46175339  0.34918790  1
  Ni  Ni52  1  0.74888976  0.45900835  0.34370911  1
  Ni  Ni53  1  0.25111024  0.34370911  0.45900835  1
  Ni  Ni54  1  0.75111024  0.95900835  0.84370911  1
  Ni  Ni55  1  0.24888976  0.84370911  0.95900835  1
  Ni  Ni56  1  0.75321837  0.19603925  0.18380769  1
  Ni  Ni57  1  0.24678163  0.18380769  0.19603925  1
  Ni  Ni58  1  0.74678163  0.69603925  0.68380769  1
  Ni  Ni59  1  0.25321837  0.68380769  0.69603925  1
  Ni  Ni60  1  0.99909449  0.56395008  0.07121237  1
  Ni  Ni61  1  0.00090551  0.07121237  0.56395008  1
  Ni  Ni62  1  0.50090551  0.06395008  0.57121237  1
  Ni  Ni63  1  0.49909449  0.57121237  0.06395008  1
  Cu  Cu64  1  0.75216371  0.41954431  0.92023568  1
  Cu  Cu65  1  0.24783629  0.92023568  0.41954431  1
  Cu  Cu66  1  0.74783629  0.91954431  0.42023568  1
  Cu  Cu67  1  0.25216371  0.42023568  0.91954431  1
  Cu  Cu68  1  0.50000000  0.82848967  0.82848967  1
  Cu  Cu69  1  -0.00000000  0.32848967  0.32848967  1
  Cu  Cu70  1  -0.00000000  0.83163119  0.83163119  1
  Cu  Cu71  1  0.50000000  0.33163119  0.33163119  1
  C  C72  1  0.62124693  0.36984269  0.71670325  1
  C  C73  1  0.37875307  0.71670325  0.36984269  1
  C  C74  1  0.87875307  0.86984269  0.21670325  1
  C  C75  1  0.12124693  0.21670325  0.86984269  1
  C  C76  1  0.88172426  0.36152135  0.71134591  1
  C  C77  1  0.11827574  0.71134591  0.36152135  1
  C  C78  1  0.61827574  0.86152135  0.21134591  1
  C  C79  1  0.38172426  0.21134591  0.86152135  1
  C  C80  1  0.62263329  0.20639680  0.85338224  1
  C  C81  1  0.37736671  0.85338224  0.20639680  1
  C  C82  1  0.87736671  0.70639680  0.35338224  1
  C  C83  1  0.12263329  0.35338224  0.70639680  1
  C  C84  1  0.88025917  0.21178144  0.85512919  1
  C  C85  1  0.11974083  0.85512919  0.21178144  1
  C  C86  1  0.61974083  0.71178144  0.35512919  1
  C  C87  1  0.38025917  0.35512919  0.71178144  1
  C  C88  1  0.63145190  0.88957452  0.03460535  1
  C  C89  1  0.36854810  0.03460535  0.88957452  1
  C  C90  1  0.86854810  0.38957452  0.53460535  1
  C  C91  1  0.13145190  0.53460535  0.38957452  1
  C  C92  1  0.87363248  0.89545845  0.04191474  1
  C  C93  1  0.12636752  0.04191474  0.89545845  1
  C  C94  1  0.62636752  0.39545845  0.54191474  1
  C  C95  1  0.37363248  0.54191474  0.39545845  1
  C  C96  1  0.63018105  0.53747237  0.38472606  1
  C  C97  1  0.36981895  0.38472606  0.53747237  1
  C  C98  1  0.86981895  0.03747237  0.88472606  1
  C  C99  1  0.13018105  0.88472606  0.03747237  1
  C  C100  1  0.87081808  0.53461340  0.39181190  1
  C  C101  1  0.12918192  0.39181190  0.53461340  1
  C  C102  1  0.62918192  0.03461340  0.89181190  1
  C  C103  1  0.37081808  0.89181190  0.03461340  1
  C  C104  1  0.50426468  0.29925854  0.80003714  1
  C  C105  1  0.49573532  0.80003714  0.29925854  1
  C  C106  1  0.99573532  0.79925854  0.30003714  1
  C  C107  1  0.00426468  0.30003714  0.79925854  1
  C  C108  1  0.74135527  0.45191219  0.45063223  1
  C  C109  1  0.25864473  0.45063223  0.45191219  1
  C  C110  1  0.75864473  0.95191219  0.95063223  1
  C  C111  1  0.24135527  0.95063223  0.95191219  1
  C  C112  1  0.51863630  0.23917512  0.01114082  1
  C  C113  1  0.48136370  0.01114082  0.23917512  1
  C  C114  1  0.98136370  0.73917512  0.51114082  1
  C  C115  1  0.01863630  0.51114082  0.73917512  1
  C  C116  1  0.96340374  0.25885964  0.01705831  1
  C  C117  1  0.03659626  0.01705831  0.25885964  1
  C  C118  1  0.53659626  0.75885964  0.51705831  1
  C  C119  1  0.46340374  0.51705831  0.75885964  1
  C  C120  1  0.76792786  0.73971731  0.00345124  1
  C  C121  1  0.23207214  0.00345124  0.73971731  1
  C  C122  1  0.73207214  0.23971731  0.50345124  1
  C  C123  1  0.26792786  0.50345124  0.23971731  1
  C  C124  1  0.77765325  0.49106156  0.23653871  1
  C  C125  1  0.22234675  0.23653871  0.49106156  1
  C  C126  1  0.72234675  0.99106156  0.73653871  1
  C  C127  1  0.27765325  0.73653871  0.99106156  1
  C  C128  1  0.62072335  0.60756925  0.71622001  1
  C  C129  1  0.37927665  0.71622001  0.60756925  1
  C  C130  1  0.87927665  0.10756925  0.21622001  1
  C  C131  1  0.12072335  0.21622001  0.10756925  1
  C  C132  1  0.83627150  0.60077241  0.63411268  1
  C  C133  1  0.16372850  0.63411268  0.60077241  1
  C  C134  1  0.66372850  0.10077241  0.13411268  1
  C  C135  1  0.33627150  0.13411268  0.10077241  1
  C  C136  1  0.67146574  0.25880115  0.13323025  1
  C  C137  1  0.32853426  0.13323025  0.25880115  1
  C  C138  1  0.82853426  0.75880115  0.63323025  1
  C  C139  1  0.17146574  0.63323025  0.75880115  1
  C  C140  1  0.87051190  0.17622301  0.10273229  1
  C  C141  1  0.12948810  0.10273229  0.17622301  1
  C  C142  1  0.62948810  0.67622301  0.60273229  1
  C  C143  1  0.37051190  0.60273229  0.67622301  1
  C  C144  1  0.59428330  0.66309197  0.09109893  1
  C  C145  1  0.40571670  0.09109893  0.66309197  1
  C  C146  1  0.90571670  0.16309197  0.59109893  1
  C  C147  1  0.09428330  0.59109893  0.16309197  1
  C  C148  1  0.90820967  0.65756106  0.09985253  1
  C  C149  1  0.09179033  0.09985253  0.65756106  1
  C  C150  1  0.59179033  0.15756106  0.59985253  1
  C  C151  1  0.40820967  0.59985253  0.15756106  1
  C  C152  1  0.64636955  0.54999198  0.14592662  1
  C  C153  1  0.35363045  0.14592662  0.54999198  1
  C  C154  1  0.85363045  0.04999198  0.64592662  1
  C  C155  1  0.14636955  0.64592662  0.04999198  1
  C  C156  1  0.88942452  0.51659161  0.12503056  1
  C  C157  1  0.11057548  0.12503056  0.51659161  1
  C  C158  1  0.61057548  0.01659161  0.62503056  1
  C  C159  1  0.38942452  0.62503056  0.01659161  1
  C  C160  1  0.82462387  0.59889365  0.84232841  1
  C  C161  1  0.17537613  0.84232841  0.59889365  1
  C  C162  1  0.67537613  0.09889365  0.34232841  1
  C  C163  1  0.32462387  0.34232841  0.09889365  1
  C  C164  1  0.58953727  0.65028766  0.89480552  1
  C  C165  1  0.41046273  0.89480552  0.65028766  1
  C  C166  1  0.91046273  0.15028766  0.39480552  1
  C  C167  1  0.08953727  0.39480552  0.15028766  1
  C  C168  1  0.56571847  0.40528755  0.15195650  1
  C  C169  1  0.43428153  0.15195650  0.40528755  1
  C  C170  1  0.93428153  0.90528755  0.65195650  1
  C  C171  1  0.06571847  0.65195650  0.90528755  1
