# generated using pymatgen
data_Cu2NiC4
_symmetry_space_group_name_H-M   'P 1'
_cell_length_a   6.39455476
_cell_length_b   12.47526264
_cell_length_c   13.03950224
_cell_angle_alpha   115.35860598
_cell_angle_beta   98.48170879
_cell_angle_gamma   101.78556602
_symmetry_Int_Tables_number   1
_chemical_formula_structural   Cu2NiC4
_chemical_formula_sum   'Cu12 Ni6 C24'
_cell_volume   887.10918703
_cell_formula_units_Z   6
loop_
 _symmetry_equiv_pos_site_id
 _symmetry_equiv_pos_as_xyz
  1  'x, y, z'
loop_
 _atom_site_type_symbol
 _atom_site_label
 _atom_site_symmetry_multiplicity
 _atom_site_fract_x
 _atom_site_fract_y
 _atom_site_fract_z
 _atom_site_occupancy
  Ni  Ni0  1  0.12447900  0.87447900  0.74895900  1
  Ni  Ni1  1  0.87552100  0.12552100  0.25104100  1
  Ni  Ni2  1  0.29353900  0.04353900  0.08707900  1
  Ni  Ni3  1  0.70646100  0.95646100  0.91292100  1
  Ni  Ni4  1  0.46497700  0.21497600  0.42995300  1
  Ni  Ni5  1  0.53502300  0.78502300  0.57004700  1
  Cu  Cu6  1  0.53379200  0.16024400  0.74644900  1
  Cu  Cu7  1  0.71265700  0.58620500  0.74644900  1
  Cu  Cu8  1  0.46620800  0.83975600  0.25355100  1
  Cu  Cu9  1  0.28734300  0.41379500  0.25355100  1
  Cu  Cu10  1  0.70122700  0.32424000  0.08151100  1
  Cu  Cu11  1  0.88028500  0.75727100  0.08151100  1
  Cu  Cu12  1  0.29877300  0.67576000  0.91848900  1
  Cu  Cu13  1  0.11971500  0.24272900  0.91848900  1
  Cu  Cu14  1  0.86093600  0.51457100  0.40506100  1
  Cu  Cu15  1  0.04412500  0.89049000  0.40506100  1
  Cu  Cu16  1  0.13906400  0.48542900  0.59493900  1
  Cu  Cu17  1  0.95587500  0.10951000  0.59493900  1
  C  C18  1  0.48404300  0.96978500  0.73622900  1
  C  C19  1  0.75218600  0.76644400  0.73622900  1
  C  C20  1  0.51595700  0.03021500  0.26377100  1
  C  C21  1  0.24781400  0.23355600  0.26377100  1
  C  C22  1  0.65992700  0.14552600  0.08641800  1
  C  C23  1  0.92649100  0.94089200  0.08641800  1
  C  C24  1  0.34007300  0.85447400  0.91358200  1
  C  C25  1  0.07350900  0.05910800  0.91358200  1
  C  C26  1  0.84645500  0.34152000  0.43253000  1
  C  C27  1  0.08607400  0.09101000  0.43253000  1
  C  C28  1  0.15354500  0.65848000  0.56747000  1
  C  C29  1  0.91392600  0.90899000  0.56747000  1
  C  C30  1  0.98354900  0.48890900  0.23725800  1
  C  C31  1  0.75370900  0.74835000  0.23725800  1
  C  C32  1  0.01645100  0.51109100  0.76274200  1
  C  C33  1  0.24629100  0.25165000  0.76274200  1
  C  C34  1  0.81425500  0.31892100  0.91725700  1
  C  C35  1  0.60300200  0.59833600  0.91725700  1
  C  C36  1  0.18574500  0.68107900  0.08274300  1
  C  C37  1  0.39699800  0.40166400  0.08274300  1
  C  C38  1  0.66019600  0.18010400  0.59920800  1
  C  C39  1  0.43901200  0.41910400  0.59920800  1
  C  C40  1  0.33980400  0.81989600  0.40079200  1
  C  C41  1  0.56098800  0.58089600  0.40079200  1
