# generated using pymatgen
data_Cu7Ni3C5
_symmetry_space_group_name_H-M   'P 1'
_cell_length_a   13.48732715
_cell_length_b   13.48732715
_cell_length_c   6.92045400
_cell_angle_alpha   90.00000000
_cell_angle_beta   90.00000000
_cell_angle_gamma   140.24371526
_symmetry_Int_Tables_number   1
_chemical_formula_structural   Cu7Ni3C5
_chemical_formula_sum   'Cu14 Ni6 C10'
_cell_volume   805.08690700
_cell_formula_units_Z   2
loop_
 _symmetry_equiv_pos_site_id
 _symmetry_equiv_pos_as_xyz
  1  'x, y, z'
loop_
 _atom_site_type_symbol
 _atom_site_label
 _atom_site_symmetry_multiplicity
 _atom_site_fract_x
 _atom_site_fract_y
 _atom_site_fract_z
 _atom_site_occupancy
  C  C0  1  0.48373500  0.89728400  0.68535000  1
  C  C1  1  0.89728400  0.48373500  0.68535000  1
  C  C2  1  0.51626500  0.10271600  0.18535000  1
  C  C3  1  0.10271600  0.51626500  0.18535000  1
  C  C4  1  0.67979500  0.67979500  0.37388100  1
  C  C5  1  0.32020500  0.32020500  0.87388100  1
  C  C6  1  0.40246700  0.58290000  0.62764600  1
  C  C7  1  0.58290000  0.40246700  0.62764600  1
  C  C8  1  0.59753300  0.41710000  0.12764600  1
  C  C9  1  0.41710000  0.59753300  0.12764600  1
  Ni  Ni10  1  0.98182800  0.23785700  0.68548300  1
  Ni  Ni11  1  0.23785700  0.98182800  0.68548300  1
  Ni  Ni12  1  0.01817200  0.76214300  0.18548300  1
  Ni  Ni13  1  0.76214300  0.01817200  0.18548300  1
  Ni  Ni14  1  0.84182100  0.84182100  0.82893900  1
  Ni  Ni15  1  0.15817900  0.15817900  0.32893900  1
  Cu  Cu16  1  0.61887200  0.61887200  0.02766900  1
  Cu  Cu17  1  0.38112800  0.38112800  0.52766900  1
  Cu  Cu18  1  0.81782900  0.19425000  0.42732300  1
  Cu  Cu19  1  0.19425000  0.81782900  0.42732300  1
  Cu  Cu20  1  0.18217100  0.80575000  0.92732300  1
  Cu  Cu21  1  0.80575000  0.18217100  0.92732300  1
  Cu  Cu22  1  0.17630600  0.51792700  0.69085600  1
  Cu  Cu23  1  0.51792700  0.17630600  0.69085600  1
  Cu  Cu24  1  0.82369400  0.48207300  0.19085600  1
  Cu  Cu25  1  0.48207300  0.82369400  0.19085600  1
  Cu  Cu26  1  0.84187900  0.69327100  0.61885300  1
  Cu  Cu27  1  0.69327100  0.84187900  0.61885300  1
  Cu  Cu28  1  0.15812100  0.30672900  0.11885300  1
  Cu  Cu29  1  0.30672900  0.15812100  0.11885300  1
