# generated using pymatgen
data_Cu9Ni6C
_symmetry_space_group_name_H-M   'P 1'
_cell_length_a   7.44907528
_cell_length_b   13.09822884
_cell_length_c   11.54201900
_cell_angle_alpha   90.00000000
_cell_angle_beta   90.00000000
_cell_angle_gamma   28.45580593
_symmetry_Int_Tables_number   1
_chemical_formula_structural   Cu9Ni6C
_chemical_formula_sum   'Cu18 Ni12 C2'
_cell_volume   536.58940029
_cell_formula_units_Z   2
loop_
 _symmetry_equiv_pos_site_id
 _symmetry_equiv_pos_as_xyz
  1  'x, y, z'
loop_
 _atom_site_type_symbol
 _atom_site_label
 _atom_site_symmetry_multiplicity
 _atom_site_fract_x
 _atom_site_fract_y
 _atom_site_fract_z
 _atom_site_occupancy
  C  C0  1  0.00000000  0.27698400  0.25000000  1
  C  C1  1  0.00000000  0.72301600  0.75000000  1
  Ni  Ni2  1  0.67968800  0.77924400  0.25000000  1
  Ni  Ni3  1  0.67968800  0.54106800  0.75000000  1
  Ni  Ni4  1  0.32031200  0.22075600  0.75000000  1
  Ni  Ni5  1  0.32031200  0.45893200  0.25000000  1
  Ni  Ni6  1  0.68128300  0.30659600  0.90597200  1
  Ni  Ni7  1  0.68128300  0.01212200  0.09402800  1
  Ni  Ni8  1  0.68128300  0.30659600  0.59402800  1
  Ni  Ni9  1  0.68128300  0.01212200  0.40597200  1
  Ni  Ni10  1  0.31871700  0.69340400  0.09402800  1
  Ni  Ni11  1  0.31871700  0.98787800  0.90597200  1
  Ni  Ni12  1  0.31871700  0.69340400  0.40597200  1
  Ni  Ni13  1  0.31871700  0.98787800  0.59402800  1
  Cu  Cu14  1  0.00000000  0.57228500  0.25000000  1
  Cu  Cu15  1  0.00000000  0.42771500  0.75000000  1
  Cu  Cu16  1  0.37698000  0.96764000  0.25000000  1
  Cu  Cu17  1  0.37698000  0.65538100  0.75000000  1
  Cu  Cu18  1  0.62302000  0.03236000  0.75000000  1
  Cu  Cu19  1  0.62302000  0.34461900  0.25000000  1
  Cu  Cu20  1  0.00000000  0.12081000  0.95005300  1
  Cu  Cu21  1  0.00000000  0.87919000  0.04994700  1
  Cu  Cu22  1  0.00000000  0.12081000  0.54994700  1
  Cu  Cu23  1  0.00000000  0.87919000  0.45005300  1
  Cu  Cu24  1  0.37973400  0.47834500  0.87025300  1
  Cu  Cu25  1  0.37973400  0.14192100  0.12974700  1
  Cu  Cu26  1  0.37973400  0.47834500  0.62974700  1
  Cu  Cu27  1  0.37973400  0.14192100  0.37025300  1
  Cu  Cu28  1  0.62026600  0.52165500  0.12974700  1
  Cu  Cu29  1  0.62026600  0.85807900  0.87025300  1
  Cu  Cu30  1  0.62026600  0.52165500  0.37025300  1
  Cu  Cu31  1  0.62026600  0.85807900  0.62974700  1
