# generated using pymatgen
data_Cu3NiC10
_symmetry_space_group_name_H-M   'P 1'
_cell_length_a   8.19275130
_cell_length_b   8.19275130
_cell_length_c   8.19275130
_cell_angle_alpha   60.00000000
_cell_angle_beta   60.00000000
_cell_angle_gamma   60.00000000
_symmetry_Int_Tables_number   1
_chemical_formula_structural   Cu3NiC10
_chemical_formula_sum   'Cu6 Ni2 C20'
_cell_volume   388.84302826
_cell_formula_units_Z   2
loop_
 _symmetry_equiv_pos_site_id
 _symmetry_equiv_pos_as_xyz
  1  'x, y, z'
loop_
 _atom_site_type_symbol
 _atom_site_label
 _atom_site_symmetry_multiplicity
 _atom_site_fract_x
 _atom_site_fract_y
 _atom_site_fract_z
 _atom_site_occupancy
  Ni  Ni0  1  0.25000000  0.25000000  0.25000000  1
  Ni  Ni1  1  0.75000000  0.75000000  0.75000000  1
  Cu  Cu2  1  0.75960500  0.24039500  0.24039500  1
  Cu  Cu3  1  0.24039500  0.75960500  0.75960500  1
  Cu  Cu4  1  0.24039500  0.75960500  0.24039500  1
  Cu  Cu5  1  0.75960500  0.24039500  0.75960500  1
  Cu  Cu6  1  0.24039500  0.24039500  0.75960500  1
  Cu  Cu7  1  0.75960500  0.75960500  0.24039500  1
  C  C8  1  0.82981800  0.50000000  0.50000000  1
  C  C9  1  0.17018200  0.50000000  0.50000000  1
  C  C10  1  0.50000000  0.82981800  0.17018200  1
  C  C11  1  0.50000000  0.17018200  0.82981800  1
  C  C12  1  0.50000000  0.82981800  0.50000000  1
  C  C13  1  0.17018200  0.50000000  0.82981800  1
  C  C14  1  0.50000000  0.17018200  0.50000000  1
  C  C15  1  0.82981800  0.50000000  0.17018200  1
  C  C16  1  0.50000000  0.50000000  0.82981800  1
  C  C17  1  0.50000000  0.50000000  0.17018200  1
  C  C18  1  0.17018200  0.82981800  0.50000000  1
  C  C19  1  0.82981800  0.17018200  0.50000000  1
  C  C20  1  0.11136100  0.11136100  0.11136100  1
  C  C21  1  0.88863900  0.88863900  0.88863900  1
  C  C22  1  0.11136100  0.11136100  0.66591800  1
  C  C23  1  0.11136100  0.66591800  0.11136100  1
  C  C24  1  0.88863900  0.88863900  0.33408200  1
  C  C25  1  0.88863900  0.33408200  0.88863900  1
  C  C26  1  0.66591800  0.11136100  0.11136100  1
  C  C27  1  0.33408200  0.88863900  0.88863900  1
