# generated using pymatgen
data_Cu5NiC7
_symmetry_space_group_name_H-M   'P 1'
_cell_length_a   5.32448983
_cell_length_b   5.32448983
_cell_length_c   18.27177300
_cell_angle_alpha   90.00000000
_cell_angle_beta   90.00000000
_cell_angle_gamma   147.40977708
_symmetry_Int_Tables_number   1
_chemical_formula_structural   Cu5NiC7
_chemical_formula_sum   'Cu10 Ni2 C14'
_cell_volume   279.01325118
_cell_formula_units_Z   2
loop_
 _symmetry_equiv_pos_site_id
 _symmetry_equiv_pos_as_xyz
  1  'x, y, z'
loop_
 _atom_site_type_symbol
 _atom_site_label
 _atom_site_symmetry_multiplicity
 _atom_site_fract_x
 _atom_site_fract_y
 _atom_site_fract_z
 _atom_site_occupancy
  Ni  Ni0  1  0.21338500  0.78661500  0.75000000  1
  Ni  Ni1  1  0.78661500  0.21338500  0.25000000  1
  Cu  Cu2  1  0.72927700  0.27072300  0.57758200  1
  Cu  Cu3  1  0.53369800  0.46630200  0.16013000  1
  Cu  Cu4  1  0.00000000  0.00000000  0.50000000  1
  Cu  Cu5  1  0.00000000  0.00000000  0.00000000  1
  Cu  Cu6  1  0.46630200  0.53369800  0.83987000  1
  Cu  Cu7  1  0.27072300  0.72927700  0.42241800  1
  Cu  Cu8  1  0.27072300  0.72927700  0.07758200  1
  Cu  Cu9  1  0.72927700  0.27072300  0.92241800  1
  Cu  Cu10  1  0.46630200  0.53369800  0.66013000  1
  Cu  Cu11  1  0.53369800  0.46630200  0.33987000  1
  C  C12  1  0.34918400  0.65081600  0.96502100  1
  C  C13  1  0.65081600  0.34918400  0.03497900  1
  C  C14  1  0.65081600  0.34918400  0.46502100  1
  C  C15  1  0.34918400  0.65081600  0.53497900  1
  C  C16  1  0.81726200  0.18273800  0.82877100  1
  C  C17  1  0.18273800  0.81726200  0.17122900  1
  C  C18  1  0.18273800  0.81726200  0.32877100  1
  C  C19  1  0.81726200  0.18273800  0.67122900  1
  C  C20  1  0.09564900  0.90435100  0.90172600  1
  C  C21  1  0.90435100  0.09564900  0.09827400  1
  C  C22  1  0.90435100  0.09564900  0.40172600  1
  C  C23  1  0.09564900  0.90435100  0.59827400  1
  C  C24  1  0.57579500  0.42420500  0.75000000  1
  C  C25  1  0.42420500  0.57579500  0.25000000  1
