# generated using pymatgen
data_Cu4Ni25C31
_symmetry_space_group_name_H-M   'P 1'
_cell_length_a   13.72129073
_cell_length_b   13.72129073
_cell_length_c   13.72129040
_cell_angle_alpha   43.23679199
_cell_angle_beta   43.23679199
_cell_angle_gamma   43.23679301
_symmetry_Int_Tables_number   1
_chemical_formula_structural   Cu4Ni25C31
_chemical_formula_sum   'Cu4 Ni25 C31'
_cell_volume   1099.29988350
_cell_formula_units_Z   1
loop_
 _symmetry_equiv_pos_site_id
 _symmetry_equiv_pos_as_xyz
  1  'x, y, z'
loop_
 _atom_site_type_symbol
 _atom_site_label
 _atom_site_symmetry_multiplicity
 _atom_site_fract_x
 _atom_site_fract_y
 _atom_site_fract_z
 _atom_site_occupancy
  C  C0  1  0.84951000  0.84951000  0.84951000  1
  C  C1  1  0.35127000  0.35127000  0.35127000  1
  C  C2  1  0.64873000  0.64873000  0.64873000  1
  C  C3  1  0.15049000  0.15049000  0.15049000  1
  C  C4  1  0.99983200  0.13946600  0.72605200  1
  C  C5  1  0.49744400  0.64924400  0.20615500  1
  C  C6  1  0.72605200  0.99983200  0.13946600  1
  C  C7  1  0.20615500  0.49744400  0.64924400  1
  C  C8  1  0.13946600  0.72605200  0.99983200  1
  C  C9  1  0.64924400  0.20615500  0.49744400  1
  C  C10  1  0.50255600  0.35075600  0.79384500  1
  C  C11  1  0.00016800  0.86053400  0.27394800  1
  C  C12  1  0.79384500  0.50255600  0.35075600  1
  C  C13  1  0.27394800  0.00016800  0.86053400  1
  C  C14  1  0.35075600  0.79384500  0.50255600  1
  C  C15  1  0.86053400  0.27394800  0.00016800  1
  C  C16  1  0.74953400  0.74953400  0.74953400  1
  C  C17  1  0.25046600  0.25046600  0.25046600  1
  C  C18  1  0.50000000  0.50000000  0.50000000  1
  C  C19  1  0.85267500  0.47031900  0.06692800  1
  C  C20  1  0.35759200  0.96869100  0.56137300  1
  C  C21  1  0.06692800  0.85267500  0.47031900  1
  C  C22  1  0.56137300  0.35759200  0.96869100  1
  C  C23  1  0.47031900  0.06692800  0.85267500  1
  C  C24  1  0.96869100  0.56137300  0.35759200  1
  C  C25  1  0.64240800  0.03130900  0.43862700  1
  C  C26  1  0.14732500  0.52968100  0.93307200  1
  C  C27  1  0.43862700  0.64240800  0.03130900  1
  C  C28  1  0.93307200  0.14732500  0.52968100  1
  C  C29  1  0.03130900  0.43862700  0.64240800  1
  C  C30  1  0.52968100  0.93307200  0.14732500  1
  Ni  Ni31  1  0.55430100  0.92503900  0.88438700  1
  Ni  Ni32  1  0.05808400  0.42156400  0.38184200  1
  Ni  Ni33  1  0.88438700  0.55430100  0.92503900  1
  Ni  Ni34  1  0.38184200  0.05808400  0.42156400  1
  Ni  Ni35  1  0.92503900  0.88438700  0.55430100  1
  Ni  Ni36  1  0.42156400  0.38184200  0.05808400  1
  Ni  Ni37  1  0.94191600  0.57843600  0.61815800  1
  Ni  Ni38  1  0.44569900  0.07496100  0.11561300  1
  Ni  Ni39  1  0.61815800  0.94191600  0.57843600  1
  Ni  Ni40  1  0.11561300  0.44569900  0.07496100  1
  Ni  Ni41  1  0.57843600  0.61815800  0.94191600  1
  Ni  Ni42  1  0.07496100  0.11561300  0.44569900  1
  Ni  Ni43  1  0.70243400  0.32914200  0.87765900  1
  Ni  Ni44  1  0.21066800  0.81512300  0.38856800  1
  Ni  Ni45  1  0.87765900  0.70243400  0.32914200  1
  Ni  Ni46  1  0.38856800  0.21066800  0.81512300  1
  Ni  Ni47  1  0.32914200  0.87765900  0.70243400  1
  Ni  Ni48  1  0.81512300  0.38856800  0.21066800  1
  Ni  Ni49  1  0.78933200  0.18487700  0.61143200  1
  Ni  Ni50  1  0.29756600  0.67085800  0.12234100  1
  Ni  Ni51  1  0.61143200  0.78933200  0.18487700  1
  Ni  Ni52  1  0.12234100  0.29756600  0.67085800  1
  Ni  Ni53  1  0.18487700  0.61143200  0.78933200  1
  Ni  Ni54  1  0.67085800  0.12234100  0.29756600  1
  Ni  Ni55  1  0.00000000  0.00000000  0.00000000  1
  Cu  Cu56  1  0.91506500  0.91506500  0.91506500  1
  Cu  Cu57  1  0.41931700  0.41931700  0.41931700  1
  Cu  Cu58  1  0.58068300  0.58068300  0.58068300  1
  Cu  Cu59  1  0.08493500  0.08493500  0.08493500  1
