# generated using pymatgen
data_Cu3(NiC4)2
_symmetry_space_group_name_H-M   'P 1'
_cell_length_a   6.33491001
_cell_length_b   6.33491001
_cell_length_c   9.50612100
_cell_angle_alpha   90.00000000
_cell_angle_beta   90.00000000
_cell_angle_gamma   120.00000008
_symmetry_Int_Tables_number   1
_chemical_formula_structural   Cu3(NiC4)2
_chemical_formula_sum   'Cu6 Ni4 C16'
_cell_volume   330.38085206
_cell_formula_units_Z   2
loop_
 _symmetry_equiv_pos_site_id
 _symmetry_equiv_pos_as_xyz
  1  'x, y, z'
loop_
 _atom_site_type_symbol
 _atom_site_label
 _atom_site_symmetry_multiplicity
 _atom_site_fract_x
 _atom_site_fract_y
 _atom_site_fract_z
 _atom_site_occupancy
  Ni  Ni0  1  0.66666700  0.33333300  0.04011700  1
  Ni  Ni1  1  0.33333300  0.66666700  0.54011700  1
  Ni  Ni2  1  0.66666700  0.33333300  0.40455400  1
  Ni  Ni3  1  0.33333300  0.66666700  0.90455400  1
  Cu  Cu4  1  0.67184700  0.83592300  0.24467200  1
  Cu  Cu5  1  0.83592300  0.16407700  0.74467200  1
  Cu  Cu6  1  0.16407700  0.32815300  0.24467200  1
  Cu  Cu7  1  0.83592300  0.67184700  0.74467200  1
  Cu  Cu8  1  0.32815300  0.16407700  0.74467200  1
  Cu  Cu9  1  0.16407700  0.83592300  0.24467200  1
  C  C10  1  0.83352100  0.16647900  0.13956300  1
  C  C11  1  0.66704300  0.83352100  0.63956300  1
  C  C12  1  0.16647900  0.33295700  0.63956300  1
  C  C13  1  0.83352100  0.66704300  0.13956300  1
  C  C14  1  0.33295700  0.16647900  0.13956300  1
  C  C15  1  0.16647900  0.83352100  0.63956300  1
  C  C16  1  0.51638400  0.48361600  0.87045500  1
  C  C17  1  0.03276700  0.51638400  0.37045500  1
  C  C18  1  0.48361600  0.96723300  0.37045500  1
  C  C19  1  0.51638400  0.03276700  0.87045500  1
  C  C20  1  0.00000000  0.00000000  0.35801800  1
  C  C21  1  0.00000000  0.00000000  0.85801800  1
  C  C22  1  0.33333300  0.66666700  0.12674500  1
  C  C23  1  0.96723300  0.48361600  0.87045500  1
  C  C24  1  0.48361600  0.51638400  0.37045500  1
  C  C25  1  0.66666700  0.33333300  0.62674500  1
