# generated using pymatgen
data_Cu3NiC9
_symmetry_space_group_name_H-M   'P 1'
_cell_length_a   7.56589700
_cell_length_b   8.75331600
_cell_length_c   8.88925500
_cell_angle_alpha   90.00000000
_cell_angle_beta   90.00000000
_cell_angle_gamma   90.00000000
_symmetry_Int_Tables_number   1
_chemical_formula_structural   Cu3NiC9
_chemical_formula_sum   'Cu12 Ni4 C36'
_cell_volume   588.70591090
_cell_formula_units_Z   4
loop_
 _symmetry_equiv_pos_site_id
 _symmetry_equiv_pos_as_xyz
  1  'x, y, z'
loop_
 _atom_site_type_symbol
 _atom_site_label
 _atom_site_symmetry_multiplicity
 _atom_site_fract_x
 _atom_site_fract_y
 _atom_site_fract_z
 _atom_site_occupancy
  Ni  Ni0  1  0.25000000  0.20871300  0.96524000  1
  Ni  Ni1  1  0.25000000  0.29128700  0.46524000  1
  Ni  Ni2  1  0.75000000  0.79128700  0.03476000  1
  Ni  Ni3  1  0.75000000  0.70871300  0.53476000  1
  Cu  Cu4  1  0.42015100  0.08292600  0.25101600  1
  Cu  Cu5  1  0.07984900  0.41707400  0.75101600  1
  Cu  Cu6  1  0.92015100  0.91707400  0.74898400  1
  Cu  Cu7  1  0.57984900  0.58292600  0.24898400  1
  Cu  Cu8  1  0.57984900  0.91707400  0.74898400  1
  Cu  Cu9  1  0.92015100  0.58292600  0.24898400  1
  Cu  Cu10  1  0.07984900  0.08292600  0.25101600  1
  Cu  Cu11  1  0.42015100  0.41707400  0.75101600  1
  Cu  Cu12  1  0.25000000  0.85097300  0.31522000  1
  Cu  Cu13  1  0.25000000  0.64902700  0.81522000  1
  Cu  Cu14  1  0.75000000  0.14902700  0.68478000  1
  Cu  Cu15  1  0.75000000  0.35097300  0.18478000  1
  C  C16  1  0.45176300  0.17133900  0.38288400  1
  C  C17  1  0.04823700  0.32866100  0.88288400  1
  C  C18  1  0.95176300  0.82866100  0.61711600  1
  C  C19  1  0.54823700  0.67133900  0.11711600  1
  C  C20  1  0.54823700  0.82866100  0.61711600  1
  C  C21  1  0.95176300  0.67133900  0.11711600  1
  C  C22  1  0.04823700  0.17133900  0.38288400  1
  C  C23  1  0.45176300  0.32866100  0.88288400  1
  C  C24  1  0.25000000  0.12725900  0.17109600  1
  C  C25  1  0.25000000  0.37274100  0.67109600  1
  C  C26  1  0.75000000  0.87274100  0.82890400  1
  C  C27  1  0.75000000  0.62725900  0.32890400  1
  C  C28  1  0.54789500  0.10261600  0.12489700  1
  C  C29  1  0.95210500  0.39738400  0.62489700  1
  C  C30  1  0.04789500  0.89738400  0.87510300  1
  C  C31  1  0.45210500  0.60261600  0.37510300  1
  C  C32  1  0.45210500  0.89738400  0.87510300  1
  C  C33  1  0.04789500  0.60261600  0.37510300  1
  C  C34  1  0.95210500  0.10261600  0.12489700  1
  C  C35  1  0.54789500  0.39738400  0.62489700  1
  C  C36  1  0.40971800  0.92228600  0.30094200  1
  C  C37  1  0.09028200  0.57771400  0.80094200  1
  C  C38  1  0.90971800  0.07771400  0.69905800  1
  C  C39  1  0.59028200  0.42228600  0.19905800  1
  C  C40  1  0.59028200  0.07771400  0.69905800  1
  C  C41  1  0.90971800  0.42228600  0.19905800  1
  C  C42  1  0.09028200  0.92228600  0.30094200  1
  C  C43  1  0.40971800  0.57771400  0.80094200  1
  C  C44  1  0.25000000  0.68972700  0.34207400  1
  C  C45  1  0.25000000  0.81027300  0.84207400  1
  C  C46  1  0.75000000  0.31027300  0.65792600  1
  C  C47  1  0.75000000  0.18972700  0.15792600  1
  C  C48  1  0.25000000  0.07611200  0.78653500  1
  C  C49  1  0.25000000  0.42388800  0.28653500  1
  C  C50  1  0.75000000  0.92388800  0.21346500  1
  C  C51  1  0.75000000  0.57611200  0.71346500  1
