# generated using pymatgen
data_CuNi2C3
_symmetry_space_group_name_H-M   'P 1'
_cell_length_a   3.39788548
_cell_length_b   3.39788548
_cell_length_c   38.62552700
_cell_angle_alpha   90.00000000
_cell_angle_beta   90.00000000
_cell_angle_gamma   119.99998996
_symmetry_Int_Tables_number   1
_chemical_formula_structural   CuNi2C3
_chemical_formula_sum   'Cu2 Ni4 C6'
_cell_volume   386.20915990
_cell_formula_units_Z   2
loop_
 _symmetry_equiv_pos_site_id
 _symmetry_equiv_pos_as_xyz
  1  'x, y, z'
loop_
 _atom_site_type_symbol
 _atom_site_label
 _atom_site_symmetry_multiplicity
 _atom_site_fract_x
 _atom_site_fract_y
 _atom_site_fract_z
 _atom_site_occupancy
  Ni  Ni0  1  0.00000000  0.00000000  0.70596500  1
  Ni  Ni1  1  0.33333300  0.66666700  0.04544700  1
  Ni  Ni2  1  0.33333300  0.66666700  0.14242400  1
  Ni  Ni3  1  0.00000000  0.00000000  0.60910400  1
  C  C4  1  0.00000000  0.00000000  0.09391500  1
  C  C5  1  0.00000000  0.00000000  0.46966400  1
  C  C6  1  0.33333300  0.66666700  0.28180700  1
  C  C7  1  0.33333300  0.66666700  0.65755000  1
  Cu  Cu8  1  0.33333300  0.66666700  0.42702300  1
  Cu  Cu9  1  0.33333300  0.66666700  0.51226500  1
  C  C10  1  0.00000000  0.00000000  0.32065300  1
  C  C11  1  0.00000000  0.00000000  0.24293100  1
