# generated using pymatgen
data_Cu8NiC4
_symmetry_space_group_name_H-M   'P 1'
_cell_length_a   9.37392107
_cell_length_b   9.37392107
_cell_length_c   8.81971310
_cell_angle_alpha   82.54722486
_cell_angle_beta   82.54722486
_cell_angle_gamma   89.90756072
_symmetry_Int_Tables_number   1
_chemical_formula_structural   Cu8NiC4
_chemical_formula_sum   'Cu32 Ni4 C16'
_cell_volume   761.86170526
_cell_formula_units_Z   4
loop_
 _symmetry_equiv_pos_site_id
 _symmetry_equiv_pos_as_xyz
  1  'x, y, z'
loop_
 _atom_site_type_symbol
 _atom_site_label
 _atom_site_symmetry_multiplicity
 _atom_site_fract_x
 _atom_site_fract_y
 _atom_site_fract_z
 _atom_site_occupancy
  C  C0  1  0.54923400  0.28777700  0.55542200  1
  C  C1  1  0.45076600  0.71222300  0.44457800  1
  C  C2  1  0.71222300  0.45076600  0.94457800  1
  C  C3  1  0.28777700  0.54923400  0.05542200  1
  C  C4  1  0.80449900  0.92420900  0.89248300  1
  C  C5  1  0.19550100  0.07579100  0.10751700  1
  C  C6  1  0.07579100  0.19550100  0.60751700  1
  C  C7  1  0.92420900  0.80449900  0.39248300  1
  C  C8  1  0.41981100  0.29805700  0.90997100  1
  C  C9  1  0.58018900  0.70194300  0.09002900  1
  C  C10  1  0.70194300  0.58018900  0.59002900  1
  C  C11  1  0.29805700  0.41981100  0.40997100  1
  C  C12  1  0.79321800  0.05836100  0.54203600  1
  C  C13  1  0.20678200  0.94163900  0.45796400  1
  C  C14  1  0.94163900  0.20678200  0.95796400  1
  C  C15  1  0.05836100  0.79321800  0.04203600  1
  Ni  Ni16  1  0.42954400  0.92637000  0.77497600  1
  Ni  Ni17  1  0.57045600  0.07363000  0.22502400  1
  Ni  Ni18  1  0.07363000  0.57045600  0.72502400  1
  Ni  Ni19  1  0.92637000  0.42954400  0.27497600  1
  Cu  Cu20  1  0.56075200  0.33496500  0.96991800  1
  Cu  Cu21  1  0.43924800  0.66503500  0.03008200  1
  Cu  Cu22  1  0.66503500  0.43924800  0.53008200  1
  Cu  Cu23  1  0.33496500  0.56075200  0.46991800  1
  Cu  Cu24  1  0.78280200  0.95851100  0.69678100  1
  Cu  Cu25  1  0.21719800  0.04148900  0.30321900  1
  Cu  Cu26  1  0.04148900  0.21719800  0.80321900  1
  Cu  Cu27  1  0.95851100  0.78280200  0.19678100  1
  Cu  Cu28  1  0.64890600  0.83737200  0.99257400  1
  Cu  Cu29  1  0.35109400  0.16262800  0.00742600  1
  Cu  Cu30  1  0.16262800  0.35109400  0.50742600  1
  Cu  Cu31  1  0.83737200  0.64890600  0.49257400  1
  Cu  Cu32  1  0.17414500  0.03573200  0.58909700  1
  Cu  Cu33  1  0.82585500  0.96426800  0.41090300  1
  Cu  Cu34  1  0.96426800  0.82585500  0.91090300  1
  Cu  Cu35  1  0.03573200  0.17414500  0.08909700  1
  Cu  Cu36  1  0.57554500  0.68573300  0.57824800  1
  Cu  Cu37  1  0.42445500  0.31426700  0.42175200  1
  Cu  Cu38  1  0.31426700  0.42445500  0.92175200  1
  Cu  Cu39  1  0.68573300  0.57554500  0.07824800  1
  Cu  Cu40  1  0.82637600  0.08804700  0.96528100  1
  Cu  Cu41  1  0.17362400  0.91195300  0.03471900  1
  Cu  Cu42  1  0.91195300  0.17362400  0.53471900  1
  Cu  Cu43  1  0.08804700  0.82637600  0.46528100  1
  Cu  Cu44  1  0.45146200  0.27017100  0.74110800  1
  Cu  Cu45  1  0.54853800  0.72982900  0.25889200  1
  Cu  Cu46  1  0.72982900  0.54853800  0.75889200  1
  Cu  Cu47  1  0.27017100  0.45146200  0.24110800  1
  Cu  Cu48  1  0.34942900  0.86467600  0.47551400  1
  Cu  Cu49  1  0.65057100  0.13532400  0.52448600  1
  Cu  Cu50  1  0.13532400  0.65057100  0.02448600  1
  Cu  Cu51  1  0.86467600  0.34942900  0.97551400  1
