# generated using pymatgen
data_CuNiC5
_symmetry_space_group_name_H-M   'P 1'
_cell_length_a   4.82611200
_cell_length_b   8.88331300
_cell_length_c   9.22132700
_cell_angle_alpha   90.00000000
_cell_angle_beta   90.00000000
_cell_angle_gamma   90.00000000
_symmetry_Int_Tables_number   1
_chemical_formula_structural   CuNiC5
_chemical_formula_sum   'Cu4 Ni4 C20'
_cell_volume   395.33547215
_cell_formula_units_Z   4
loop_
 _symmetry_equiv_pos_site_id
 _symmetry_equiv_pos_as_xyz
  1  'x, y, z'
loop_
 _atom_site_type_symbol
 _atom_site_label
 _atom_site_symmetry_multiplicity
 _atom_site_fract_x
 _atom_site_fract_y
 _atom_site_fract_z
 _atom_site_occupancy
  Ni  Ni0  1  0.62075100  0.29297100  0.45931000  1
  Ni  Ni1  1  0.37924900  0.79297100  0.54069000  1
  Ni  Ni2  1  0.62075100  0.79297100  0.04069000  1
  Ni  Ni3  1  0.37924900  0.29297100  0.95931000  1
  Cu  Cu4  1  0.89334900  0.97201900  0.45682500  1
  Cu  Cu5  1  0.10665100  0.47201900  0.54317500  1
  Cu  Cu6  1  0.89334900  0.47201900  0.04317500  1
  Cu  Cu7  1  0.10665100  0.97201900  0.95682500  1
  C  C8  1  0.50568200  0.19369900  0.32208600  1
  C  C9  1  0.49431800  0.69369900  0.67791400  1
  C  C10  1  0.50568200  0.69369900  0.17791400  1
  C  C11  1  0.49431800  0.19369900  0.82208600  1
  C  C12  1  0.64956700  0.83346200  0.44900000  1
  C  C13  1  0.35043300  0.33346200  0.55100000  1
  C  C14  1  0.64956700  0.33346200  0.05100000  1
  C  C15  1  0.35043300  0.83346200  0.94900000  1
  C  C16  1  0.06227100  0.98905700  0.29170100  1
  C  C17  1  0.93772900  0.48905700  0.70829900  1
  C  C18  1  0.06227100  0.48905700  0.20829900  1
  C  C19  1  0.93772900  0.98905700  0.79170100  1
  C  C20  1  0.16707200  0.92903100  0.57036200  1
  C  C21  1  0.83292800  0.42903100  0.42963800  1
  C  C22  1  0.16707200  0.42903100  0.92963800  1
  C  C23  1  0.83292800  0.92903100  0.07036200  1
  C  C24  1  0.76097300  0.13966000  0.52033900  1
  C  C25  1  0.23902700  0.63966000  0.47966100  1
  C  C26  1  0.76097300  0.63966000  0.97966100  1
  C  C27  1  0.23902700  0.13966000  0.02033900  1
