# generated using pymatgen
data_Cu4NiC2
_symmetry_space_group_name_H-M   'P 1'
_cell_length_a   13.80031506
_cell_length_b   13.80031506
_cell_length_c   13.80031506
_cell_angle_alpha   164.04843657
_cell_angle_beta   164.04843657
_cell_angle_gamma   22.63299786
_symmetry_Int_Tables_number   1
_chemical_formula_structural   Cu4NiC2
_chemical_formula_sum   'Cu8 Ni2 C4'
_cell_volume   198.46987925
_cell_formula_units_Z   2
loop_
 _symmetry_equiv_pos_site_id
 _symmetry_equiv_pos_as_xyz
  1  'x, y, z'
loop_
 _atom_site_type_symbol
 _atom_site_label
 _atom_site_symmetry_multiplicity
 _atom_site_fract_x
 _atom_site_fract_y
 _atom_site_fract_z
 _atom_site_occupancy
  Ni  Ni0  1  0.75000000  0.25000000  0.50000000  1
  Ni  Ni1  1  0.00000000  0.00000000  0.00000000  1
  Cu  Cu2  1  0.85372200  0.35372200  0.50000000  1
  Cu  Cu3  1  0.10372200  0.10372200  0.00000000  1
  Cu  Cu4  1  0.17782900  0.67782900  0.50000000  1
  Cu  Cu5  1  0.42782900  0.42782900  0.00000000  1
  Cu  Cu6  1  0.57217100  0.57217100  0.00000000  1
  Cu  Cu7  1  0.89627800  0.89627800  0.00000000  1
  Cu  Cu8  1  0.64627800  0.14627800  0.50000000  1
  Cu  Cu9  1  0.32217100  0.82217100  0.50000000  1
  C  C10  1  0.81802900  0.81802900  0.00000000  1
  C  C11  1  0.56802900  0.06802900  0.50000000  1
  C  C12  1  0.93197100  0.43197100  0.50000000  1
  C  C13  1  0.18197100  0.18197100  0.00000000  1
