# generated using pymatgen
data_CuNiC6
_symmetry_space_group_name_H-M   'P 1'
_cell_length_a   4.44017200
_cell_length_b   6.39264800
_cell_length_c   9.93749400
_cell_angle_alpha   90.00000000
_cell_angle_beta   90.00000000
_cell_angle_gamma   90.00000000
_symmetry_Int_Tables_number   1
_chemical_formula_structural   CuNiC6
_chemical_formula_sum   'Cu2 Ni2 C12'
_cell_volume   282.07036771
_cell_formula_units_Z   2
loop_
 _symmetry_equiv_pos_site_id
 _symmetry_equiv_pos_as_xyz
  1  'x, y, z'
loop_
 _atom_site_type_symbol
 _atom_site_label
 _atom_site_symmetry_multiplicity
 _atom_site_fract_x
 _atom_site_fract_y
 _atom_site_fract_z
 _atom_site_occupancy
  C  C0  1  0.50000000  0.25153400  0.59630500  1
  C  C1  1  0.50000000  0.74846600  0.59630500  1
  C  C2  1  0.00000000  0.24559000  0.40549600  1
  C  C3  1  0.00000000  0.75441000  0.40549600  1
  C  C4  1  0.00000000  0.00000000  0.67460200  1
  C  C5  1  0.00000000  0.00000000  0.17085400  1
  C  C6  1  0.50000000  0.75153400  0.09630500  1
  C  C7  1  0.50000000  0.24846600  0.09630500  1
  C  C8  1  0.00000000  0.74559000  0.90549600  1
  C  C9  1  0.00000000  0.25441000  0.90549600  1
  C  C10  1  0.00000000  0.50000000  0.17460200  1
  C  C11  1  0.00000000  0.50000000  0.67085400  1
  Ni  Ni12  1  0.50000000  0.00000000  0.83614500  1
  Ni  Ni13  1  0.50000000  0.50000000  0.33614500  1
  Cu  Cu14  1  0.50000000  0.00000000  0.31480000  1
  Cu  Cu15  1  0.50000000  0.50000000  0.81480000  1
