# generated using pymatgen
data_Cu41Ni5C12
_symmetry_space_group_name_H-M   'P 1'
_cell_length_a   12.82032891
_cell_length_b   12.82032891
_cell_length_c   12.82032879
_cell_angle_alpha   33.53164431
_cell_angle_beta   33.53164431
_cell_angle_gamma   33.53164512
_symmetry_Int_Tables_number   1
_chemical_formula_structural   Cu41Ni5C12
_chemical_formula_sum   'Cu41 Ni5 C12'
_cell_volume   572.69771236
_cell_formula_units_Z   1
loop_
 _symmetry_equiv_pos_site_id
 _symmetry_equiv_pos_as_xyz
  1  'x, y, z'
loop_
 _atom_site_type_symbol
 _atom_site_label
 _atom_site_symmetry_multiplicity
 _atom_site_fract_x
 _atom_site_fract_y
 _atom_site_fract_z
 _atom_site_occupancy
  Ni  Ni0  1  0.62508700  0.62508700  0.62508700  1
  Ni  Ni1  1  0.12502000  0.12502000  0.12502000  1
  Ni  Ni2  1  0.87498000  0.87498000  0.87498000  1
  Ni  Ni3  1  0.37491300  0.37491300  0.37491300  1
  Ni  Ni4  1  0.50000000  0.50000000  0.50000000  1
  Cu  Cu5  1  0.50000000  0.83841100  0.16158900  1
  Cu  Cu6  1  0.00000000  0.33742300  0.66257700  1
  Cu  Cu7  1  0.16158900  0.83841100  0.50000000  1
  Cu  Cu8  1  0.66257700  0.33742300  0.00000000  1
  Cu  Cu9  1  0.83226400  0.16755700  0.83226400  1
  Cu  Cu10  1  0.32993200  0.66992100  0.32993200  1
  Cu  Cu11  1  0.00000000  0.66257700  0.33742300  1
  Cu  Cu12  1  0.50000000  0.16158900  0.83841100  1
  Cu  Cu13  1  0.83226400  0.83226400  0.16755700  1
  Cu  Cu14  1  0.32993200  0.32993200  0.66992100  1
  Cu  Cu15  1  0.66257700  0.00000000  0.33742300  1
  Cu  Cu16  1  0.16158900  0.50000000  0.83841100  1
  Cu  Cu17  1  0.33007900  0.67006800  0.67006800  1
  Cu  Cu18  1  0.83244300  0.16773600  0.16773600  1
  Cu  Cu19  1  0.67006800  0.67006800  0.33007900  1
  Cu  Cu20  1  0.16773600  0.16773600  0.83244300  1
  Cu  Cu21  1  0.67006800  0.33007900  0.67006800  1
  Cu  Cu22  1  0.16773600  0.83244300  0.16773600  1
  Cu  Cu23  1  0.16755700  0.83226400  0.83226400  1
  Cu  Cu24  1  0.66992100  0.32993200  0.32993200  1
  Cu  Cu25  1  0.33742300  0.66257700  0.00000000  1
  Cu  Cu26  1  0.83841100  0.16158900  0.50000000  1
  Cu  Cu27  1  0.83841100  0.50000000  0.16158900  1
  Cu  Cu28  1  0.33742300  0.00000000  0.66257700  1
  Cu  Cu29  1  0.42636000  0.95566200  0.42636000  1
  Cu  Cu30  1  0.92654800  0.45590900  0.92654800  1
  Cu  Cu31  1  0.42636000  0.42636000  0.95566200  1
  Cu  Cu32  1  0.92654800  0.92654800  0.45590900  1
  Cu  Cu33  1  0.19104800  0.19104800  0.19104800  1
  Cu  Cu34  1  0.69131500  0.69131500  0.69131500  1
  Cu  Cu35  1  0.95566200  0.42636000  0.42636000  1
  Cu  Cu36  1  0.45590900  0.92654800  0.92654800  1
  Cu  Cu37  1  0.07345200  0.54409100  0.07345200  1
  Cu  Cu38  1  0.57364000  0.04433800  0.57364000  1
  Cu  Cu39  1  0.07345200  0.07345200  0.54409100  1
  Cu  Cu40  1  0.57364000  0.57364000  0.04433800  1
  Cu  Cu41  1  0.30868500  0.30868500  0.30868500  1
  Cu  Cu42  1  0.80895200  0.80895200  0.80895200  1
  Cu  Cu43  1  0.54409100  0.07345200  0.07345200  1
  Cu  Cu44  1  0.04433800  0.57364000  0.57364000  1
  Cu  Cu45  1  0.00000000  0.00000000  0.00000000  1
  C  C46  1  0.36300100  0.91088300  0.36300100  1
  C  C47  1  0.86332100  0.40960200  0.86332100  1
  C  C48  1  0.59039800  0.13667900  0.13667900  1
  C  C49  1  0.08911700  0.63699900  0.63699900  1
  C  C50  1  0.13667900  0.13667900  0.59039800  1
  C  C51  1  0.63699900  0.63699900  0.08911700  1
  C  C52  1  0.13667900  0.59039800  0.13667900  1
  C  C53  1  0.63699900  0.08911700  0.63699900  1
  C  C54  1  0.36300100  0.36300100  0.91088300  1
  C  C55  1  0.86332100  0.86332100  0.40960200  1
  C  C56  1  0.91088300  0.36300100  0.36300100  1
  C  C57  1  0.40960200  0.86332100  0.86332100  1
