# generated using pymatgen
data_Cu4Ni3C16
_symmetry_space_group_name_H-M   'P 1'
_cell_length_a   8.68419500
_cell_length_b   8.68419500
_cell_length_c   8.68419500
_cell_angle_alpha   90.00000000
_cell_angle_beta   90.00000000
_cell_angle_gamma   90.00000000
_symmetry_Int_Tables_number   1
_chemical_formula_structural   Cu4Ni3C16
_chemical_formula_sum   'Cu8 Ni6 C32'
_cell_volume   654.92067443
_cell_formula_units_Z   2
loop_
 _symmetry_equiv_pos_site_id
 _symmetry_equiv_pos_as_xyz
  1  'x, y, z'
loop_
 _atom_site_type_symbol
 _atom_site_label
 _atom_site_symmetry_multiplicity
 _atom_site_fract_x
 _atom_site_fract_y
 _atom_site_fract_z
 _atom_site_occupancy
  Ni  Ni0  1  0.25000000  0.50000000  0.00000000  1
  Ni  Ni1  1  0.50000000  0.00000000  0.75000000  1
  Ni  Ni2  1  0.50000000  0.00000000  0.25000000  1
  Ni  Ni3  1  0.00000000  0.25000000  0.50000000  1
  Ni  Ni4  1  0.00000000  0.75000000  0.50000000  1
  Ni  Ni5  1  0.75000000  0.50000000  0.00000000  1
  Cu  Cu6  1  0.18469000  0.18469000  0.18469000  1
  Cu  Cu7  1  0.31531000  0.68469000  0.31531000  1
  Cu  Cu8  1  0.31531000  0.31531000  0.68469000  1
  Cu  Cu9  1  0.68469000  0.31531000  0.31531000  1
  Cu  Cu10  1  0.81531000  0.81531000  0.18469000  1
  Cu  Cu11  1  0.18469000  0.81531000  0.81531000  1
  Cu  Cu12  1  0.81531000  0.18469000  0.81531000  1
  Cu  Cu13  1  0.68469000  0.68469000  0.68469000  1
  C  C14  1  0.75000000  0.00000000  0.50000000  1
  C  C15  1  0.50000000  0.75000000  0.00000000  1
  C  C16  1  0.50000000  0.25000000  0.00000000  1
  C  C17  1  0.00000000  0.50000000  0.25000000  1
  C  C18  1  0.00000000  0.50000000  0.75000000  1
  C  C19  1  0.25000000  0.00000000  0.50000000  1
  C  C20  1  0.00000000  0.00000000  0.00000000  1
  C  C21  1  0.50000000  0.50000000  0.50000000  1
  C  C22  1  0.85385700  0.43770000  0.85384700  1
  C  C23  1  0.85385700  0.56230000  0.14615300  1
  C  C24  1  0.43770000  0.85384700  0.85385700  1
  C  C25  1  0.56230000  0.85384700  0.14614300  1
  C  C26  1  0.85384700  0.85385700  0.43770000  1
  C  C27  1  0.14615300  0.14614300  0.43770000  1
  C  C28  1  0.35385700  0.35384700  0.93770000  1
  C  C29  1  0.14614300  0.43770000  0.14615300  1
  C  C30  1  0.14614300  0.56230000  0.85384700  1
  C  C31  1  0.56230000  0.14615300  0.85385700  1
  C  C32  1  0.43770000  0.14615300  0.14614300  1
  C  C33  1  0.85384700  0.14614300  0.56230000  1
  C  C34  1  0.14615300  0.85385700  0.56230000  1
  C  C35  1  0.93770000  0.35385700  0.35384700  1
  C  C36  1  0.35384700  0.93770000  0.35385700  1
  C  C37  1  0.64615300  0.06230000  0.35385700  1
  C  C38  1  0.93770000  0.64614300  0.64615300  1
  C  C39  1  0.64615300  0.93770000  0.64614300  1
  C  C40  1  0.06230000  0.64614300  0.35384700  1
  C  C41  1  0.06230000  0.35385700  0.64615300  1
  C  C42  1  0.35384700  0.06230000  0.64614300  1
  C  C43  1  0.35385700  0.64615300  0.06230000  1
  C  C44  1  0.64614300  0.35384700  0.06230000  1
  C  C45  1  0.64614300  0.64615300  0.93770000  1
