# generated using pymatgen
data_CuNi3C23
_symmetry_space_group_name_H-M   'P 1'
_cell_length_a   7.86144187
_cell_length_b   7.86684601
_cell_length_c   15.73392972
_cell_angle_alpha   109.13004839
_cell_angle_beta   109.23654802
_cell_angle_gamma   109.48541853
_symmetry_Int_Tables_number   1
_chemical_formula_structural   CuNi3C23
_chemical_formula_sum   'Cu2 Ni6 C46'
_cell_volume   754.20437877
_cell_formula_units_Z   2
loop_
 _symmetry_equiv_pos_site_id
 _symmetry_equiv_pos_as_xyz
  1  'x, y, z'
loop_
 _atom_site_type_symbol
 _atom_site_label
 _atom_site_symmetry_multiplicity
 _atom_site_fract_x
 _atom_site_fract_y
 _atom_site_fract_z
 _atom_site_occupancy
  Ni  Ni0  1  0.01908000  0.01225500  0.83495200  1
  Ni  Ni1  1  0.00613000  0.01058800  0.24718400  1
  Ni  Ni2  1  0.42004000  0.41381900  0.20122200  1
  Ni  Ni3  1  0.99488100  0.62265600  0.50204500  1
  Ni  Ni4  1  0.61297400  0.00194000  0.00023800  1
  Ni  Ni5  1  0.00475300  0.61865900  0.99808700  1
  Cu  Cu6  1  0.34697200  0.34803200  0.69139800  1
  Cu  Cu7  1  0.62459300  0.99145500  0.50058400  1
  C  C8  1  0.23947300  0.49309600  0.87097100  1
  C  C9  1  0.49575600  0.23851600  0.87183900  1
  C  C10  1  0.49365300  0.74165800  0.63243400  1
  C  C11  1  0.26067500  0.75673400  0.25116000  1
  C  C12  1  0.74457800  0.49661400  0.63230700  1
  C  C13  1  0.75907100  0.26051000  0.25109700  1
  C  C14  1  0.23595100  0.75142600  0.75021700  1
  C  C15  1  0.26630600  0.51050200  0.38172700  1
  C  C16  1  0.75029300  0.23297400  0.74877200  1
  C  C17  1  0.51599600  0.26466300  0.38244100  1
  C  C18  1  0.50594800  0.75611900  0.11968300  1
  C  C19  1  0.75761100  0.50787900  0.12020800  1
  C  C20  1  0.99197800  0.99404400  0.48101900  1
  C  C21  1  0.99072300  0.99818200  0.01806900  1
  C  C22  1  0.98224400  0.39213800  0.84643900  1
  C  C23  1  0.99745400  0.70766900  0.71086100  1
  C  C24  1  0.27257300  0.58680300  0.78609600  1
  C  C25  1  0.81487100  0.81637900  0.46853200  1
  C  C26  1  0.99266200  0.18750300  0.54536700  1
  C  C27  1  0.28380500  0.71876300  0.65394000  1
  C  C28  1  0.29289700  0.29123400  0.83305100  1
  C  C29  1  0.02250000  0.40659000  0.34831100  1
  C  C30  1  0.00045400  0.69104600  0.18943900  1
  C  C31  1  0.41589700  0.01943700  0.35333000  1
  C  C32  1  0.40908200  0.69468000  0.50296600  1
  C  C33  1  0.39269700  0.98330200  0.84934300  1
  C  C34  1  0.19248700  0.00985500  0.54470900  1
  C  C35  1  0.32695600  0.62778900  0.31866500  1
  C  C36  1  0.81001300  0.80427800  0.98991000  1
  C  C37  1  0.10259500  0.13492200  0.13349300  1
  C  C38  1  0.91521200  0.10630800  0.96551400  1
  C  C39  1  0.33193800  0.70598700  0.15584300  1
  C  C40  1  0.58573200  0.26685300  0.78467400  1
  C  C41  1  0.32996400  0.32622400  0.36369200  1
  C  C42  1  0.56542100  0.56454200  0.65411300  1
  C  C43  1  0.71315600  0.27812900  0.65036100  1
  C  C44  1  0.39295300  0.69256500  0.99884800  1
  C  C45  1  0.13309300  0.94626400  0.98510500  1
  C  C46  1  0.69479600  0.39781400  0.50325000  1
  C  C47  1  0.70827300  0.99481700  0.70297700  1
  C  C48  1  0.96398400  0.97207100  0.38116800  1
  C  C49  1  0.61498100  0.31025100  0.31143300  1
  C  C50  1  0.61320900  0.61342800  0.13880700  1
  C  C51  1  0.70674200  0.33370900  0.15599500  1
  C  C52  1  0.68689600  0.99835200  0.18640900  1
  C  C53  1  0.69702600  0.39797600  0.99970300  1
