# generated using pymatgen
data_Cu2Ni
_symmetry_space_group_name_H-M   'P 1'
_cell_length_a   5.82312003
_cell_length_b   5.82312003
_cell_length_c   6.81516391
_cell_angle_alpha   63.40562354
_cell_angle_beta   63.40562354
_cell_angle_gamma   37.04447036
_symmetry_Int_Tables_number   1
_chemical_formula_structural   Cu2Ni
_chemical_formula_sum   'Cu4 Ni2'
_cell_volume   122.72556897
_cell_formula_units_Z   2
loop_
 _symmetry_equiv_pos_site_id
 _symmetry_equiv_pos_as_xyz
  1  'x, y, z'
loop_
 _atom_site_type_symbol
 _atom_site_label
 _atom_site_symmetry_multiplicity
 _atom_site_fract_x
 _atom_site_fract_y
 _atom_site_fract_z
 _atom_site_occupancy
  Ni  Ni0  1  0.18471400  0.18471400  0.34925300  1
  Ni  Ni1  1  0.81528600  0.81528600  0.65074700  1
  Cu  Cu2  1  0.11961000  0.11961000  0.98544000  1
  Cu  Cu3  1  0.88039000  0.88039000  0.01456000  1
  Cu  Cu4  1  0.47076600  0.47076600  0.29362100  1
  Cu  Cu5  1  0.52923400  0.52923400  0.70637900  1
