# generated using pymatgen
data_Cu(NiC3)2
_symmetry_space_group_name_H-M   'P 1'
_cell_length_a   6.58135500
_cell_length_b   7.40979100
_cell_length_c   9.67549600
_cell_angle_alpha   90.00000000
_cell_angle_beta   90.00000000
_cell_angle_gamma   90.00000000
_symmetry_Int_Tables_number   1
_chemical_formula_structural   Cu(NiC3)2
_chemical_formula_sum   'Cu4 Ni8 C24'
_cell_volume   471.83973749
_cell_formula_units_Z   4
loop_
 _symmetry_equiv_pos_site_id
 _symmetry_equiv_pos_as_xyz
  1  'x, y, z'
loop_
 _atom_site_type_symbol
 _atom_site_label
 _atom_site_symmetry_multiplicity
 _atom_site_fract_x
 _atom_site_fract_y
 _atom_site_fract_z
 _atom_site_occupancy
  Ni  Ni0  1  0.58731400  0.52475900  0.82688800  1
  Ni  Ni1  1  0.41268600  0.47524100  0.17311200  1
  Ni  Ni2  1  0.08731400  0.47524100  0.67311200  1
  Ni  Ni3  1  0.41268600  0.02475900  0.17311200  1
  Ni  Ni4  1  0.91268600  0.52475900  0.32688800  1
  Ni  Ni5  1  0.58731400  0.97524100  0.82688800  1
  Ni  Ni6  1  0.91268600  0.97524100  0.32688800  1
  Ni  Ni7  1  0.08731400  0.02475900  0.67311200  1
  Cu  Cu8  1  0.09175200  0.75000000  0.97159600  1
  Cu  Cu9  1  0.90824800  0.25000000  0.02840400  1
  Cu  Cu10  1  0.59175200  0.25000000  0.52840400  1
  Cu  Cu11  1  0.40824800  0.75000000  0.47159600  1
  C  C12  1  0.81152300  0.75000000  0.60256600  1
  C  C13  1  0.18847700  0.25000000  0.39743400  1
  C  C14  1  0.31152300  0.25000000  0.89743400  1
  C  C15  1  0.68847700  0.75000000  0.10256600  1
  C  C16  1  0.32747600  0.75000000  0.71524500  1
  C  C17  1  0.67252400  0.25000000  0.28475500  1
  C  C18  1  0.82747600  0.25000000  0.78475500  1
  C  C19  1  0.17252400  0.75000000  0.21524500  1
  C  C20  1  0.68715000  0.56365700  0.56402000  1
  C  C21  1  0.31285000  0.43634300  0.43598000  1
  C  C22  1  0.18715000  0.43634300  0.93598000  1
  C  C23  1  0.31285000  0.06365700  0.43598000  1
  C  C24  1  0.81285000  0.56365700  0.06402000  1
  C  C25  1  0.68715000  0.93634300  0.56402000  1
  C  C26  1  0.81285000  0.93634300  0.06402000  1
  C  C27  1  0.18715000  0.06365700  0.93598000  1
  C  C28  1  0.03194400  0.75000000  0.51307700  1
  C  C29  1  0.96805600  0.25000000  0.48692300  1
  C  C30  1  0.53194400  0.25000000  0.98692300  1
  C  C31  1  0.46805600  0.75000000  0.01307700  1
  C  C32  1  0.87501900  0.75000000  0.77057800  1
  C  C33  1  0.12498100  0.25000000  0.22942200  1
  C  C34  1  0.37501900  0.25000000  0.72942200  1
  C  C35  1  0.62498100  0.75000000  0.27057800  1
