# generated using pymatgen
data_CuNiC4
_symmetry_space_group_name_H-M   'P 1'
_cell_length_a   7.15827000
_cell_length_b   7.26026600
_cell_length_c   16.66453200
_cell_angle_alpha   90.00000000
_cell_angle_beta   90.00000000
_cell_angle_gamma   90.00000000
_symmetry_Int_Tables_number   1
_chemical_formula_structural   CuNiC4
_chemical_formula_sum   'Cu8 Ni8 C32'
_cell_volume   866.07146435
_cell_formula_units_Z   8
loop_
 _symmetry_equiv_pos_site_id
 _symmetry_equiv_pos_as_xyz
  1  'x, y, z'
loop_
 _atom_site_type_symbol
 _atom_site_label
 _atom_site_symmetry_multiplicity
 _atom_site_fract_x
 _atom_site_fract_y
 _atom_site_fract_z
 _atom_site_occupancy
  C  C0  1  0.53771400  0.75024100  0.15382600  1
  C  C1  1  0.96228600  0.25024100  0.84617400  1
  C  C2  1  0.03771400  0.24975900  0.34617400  1
  C  C3  1  0.46228600  0.74975900  0.65382600  1
  C  C4  1  0.46228600  0.24975900  0.84617400  1
  C  C5  1  0.03771400  0.74975900  0.15382600  1
  C  C6  1  0.96228600  0.75024100  0.65382600  1
  C  C7  1  0.53771400  0.25024100  0.34617400  1
  Ni  Ni8  1  0.78646900  0.31985800  0.16091200  1
  Ni  Ni9  1  0.71353100  0.81985800  0.83908800  1
  Ni  Ni10  1  0.28646900  0.68014200  0.33908800  1
  Ni  Ni11  1  0.21353100  0.18014200  0.66091200  1
  Ni  Ni12  1  0.21353100  0.68014200  0.83908800  1
  Ni  Ni13  1  0.28646900  0.18014200  0.16091200  1
  Ni  Ni14  1  0.71353100  0.31985800  0.66091200  1
  Ni  Ni15  1  0.78646900  0.81985800  0.33908800  1
  Cu  Cu16  1  0.78708300  0.80928000  0.04650300  1
  Cu  Cu17  1  0.71291700  0.30928000  0.95349700  1
  Cu  Cu18  1  0.28708300  0.19072000  0.45349700  1
  Cu  Cu19  1  0.21291700  0.69072000  0.54650300  1
  Cu  Cu20  1  0.21291700  0.19072000  0.95349700  1
  Cu  Cu21  1  0.28708300  0.69072000  0.04650300  1
  Cu  Cu22  1  0.71291700  0.80928000  0.54650300  1
  Cu  Cu23  1  0.78708300  0.30928000  0.45349700  1
  C  C24  1  0.98074100  0.45574000  0.15231400  1
  C  C25  1  0.51925900  0.95574000  0.84768600  1
  C  C26  1  0.48074100  0.54426000  0.34768600  1
  C  C27  1  0.01925900  0.04426000  0.65231400  1
  C  C28  1  0.01925900  0.54426000  0.84768600  1
  C  C29  1  0.48074100  0.04426000  0.15231400  1
  C  C30  1  0.51925900  0.45574000  0.65231400  1
  C  C31  1  0.98074100  0.95574000  0.34768600  1
  C  C32  1  0.59164300  0.45591600  0.15430200  1
  C  C33  1  0.90835700  0.95591600  0.84569800  1
  C  C34  1  0.09164300  0.54408400  0.34569800  1
  C  C35  1  0.40835700  0.04408400  0.65430200  1
  C  C36  1  0.40835700  0.54408400  0.84569800  1
  C  C37  1  0.09164300  0.04408400  0.15430200  1
  C  C38  1  0.90835700  0.45591600  0.65430200  1
  C  C39  1  0.59164300  0.95591600  0.34569800  1
  C  C40  1  0.78777800  0.28438700  0.26923200  1
  C  C41  1  0.71222200  0.78438700  0.73076800  1
  C  C42  1  0.28777800  0.71561300  0.23076800  1
  C  C43  1  0.21222200  0.21561300  0.76923200  1
  C  C44  1  0.21222200  0.71561300  0.73076800  1
  C  C45  1  0.28777800  0.21561300  0.26923200  1
  C  C46  1  0.71222200  0.28438700  0.76923200  1
  C  C47  1  0.78777800  0.78438700  0.23076800  1
