# generated using pymatgen
data_Cu(NiC9)3
_symmetry_space_group_name_H-M   'P 1'
_cell_length_a   7.29566815
_cell_length_b   7.29566815
_cell_length_c   17.69982100
_cell_angle_alpha   90.00000000
_cell_angle_beta   90.00000000
_cell_angle_gamma   120.00000137
_symmetry_Int_Tables_number   1
_chemical_formula_structural   Cu(NiC9)3
_chemical_formula_sum   'Cu2 Ni6 C54'
_cell_volume   815.88630457
_cell_formula_units_Z   2
loop_
 _symmetry_equiv_pos_site_id
 _symmetry_equiv_pos_as_xyz
  1  'x, y, z'
loop_
 _atom_site_type_symbol
 _atom_site_label
 _atom_site_symmetry_multiplicity
 _atom_site_fract_x
 _atom_site_fract_y
 _atom_site_fract_z
 _atom_site_occupancy
  Ni  Ni0  1  0.66666700  0.33333300  0.86799900  1
  Ni  Ni1  1  0.33333300  0.66666700  0.13200100  1
  Ni  Ni2  1  0.33333300  0.66666700  0.36799900  1
  Ni  Ni3  1  0.66666700  0.33333300  0.63200100  1
  Ni  Ni4  1  0.00000000  0.00000000  0.75000000  1
  Ni  Ni5  1  0.00000000  0.00000000  0.25000000  1
  Cu  Cu6  1  0.00000000  0.00000000  0.00000000  1
  Cu  Cu7  1  0.00000000  0.00000000  0.50000000  1
  C  C8  1  0.54917700  0.83475800  0.91783600  1
  C  C9  1  0.45082300  0.16524200  0.08216400  1
  C  C10  1  0.28558100  0.45082300  0.91783600  1
  C  C11  1  0.45082300  0.16524200  0.41783600  1
  C  C12  1  0.71441900  0.54917700  0.08216400  1
  C  C13  1  0.54917700  0.83475800  0.58216400  1
  C  C14  1  0.16524200  0.71441900  0.91783600  1
  C  C15  1  0.71441900  0.54917700  0.41783600  1
  C  C16  1  0.83475800  0.28558100  0.08216400  1
  C  C17  1  0.28558100  0.45082300  0.58216400  1
  C  C18  1  0.83475800  0.28558100  0.41783600  1
  C  C19  1  0.16524200  0.71441900  0.58216400  1
  C  C20  1  0.50449600  0.62220300  0.75000000  1
  C  C21  1  0.49550400  0.37779700  0.25000000  1
  C  C22  1  0.11770700  0.49550400  0.75000000  1
  C  C23  1  0.88229300  0.50449600  0.25000000  1
  C  C24  1  0.37779700  0.88229300  0.75000000  1
  C  C25  1  0.62220300  0.11770700  0.25000000  1
  C  C26  1  0.54124200  0.83242100  0.75000000  1
  C  C27  1  0.45875800  0.16757900  0.25000000  1
  C  C28  1  0.29117900  0.45875800  0.75000000  1
  C  C29  1  0.70882100  0.54124200  0.25000000  1
  C  C30  1  0.16757900  0.70882100  0.75000000  1
  C  C31  1  0.83242100  0.29117900  0.25000000  1
  C  C32  1  0.92032300  0.33273300  0.75000000  1
  C  C33  1  0.07967700  0.66726700  0.25000000  1
  C  C34  1  0.41241000  0.07967700  0.75000000  1
  C  C35  1  0.58759000  0.92032300  0.25000000  1
  C  C36  1  0.66726700  0.58759000  0.75000000  1
  C  C37  1  0.33273300  0.41241000  0.25000000  1
  C  C38  1  0.74828600  0.99547300  0.91810500  1
  C  C39  1  0.25171400  0.00452700  0.08189500  1
  C  C40  1  0.24718700  0.25171400  0.91810500  1
  C  C41  1  0.25171400  0.00452700  0.41810500  1
  C  C42  1  0.75281300  0.74828600  0.08189500  1
  C  C43  1  0.74828600  0.99547300  0.58189500  1
  C  C44  1  0.00452700  0.75281300  0.91810500  1
  C  C45  1  0.75281300  0.74828600  0.41810500  1
  C  C46  1  0.99547300  0.24718700  0.08189500  1
  C  C47  1  0.24718700  0.25171400  0.58189500  1
  C  C48  1  0.99547300  0.24718700  0.41810500  1
  C  C49  1  0.00452700  0.75281300  0.58189500  1
  C  C50  1  0.49653900  0.62068400  0.91836100  1
  C  C51  1  0.50346100  0.37931600  0.08163900  1
  C  C52  1  0.12414500  0.50346100  0.91836100  1
  C  C53  1  0.50346100  0.37931600  0.41836100  1
  C  C54  1  0.87585500  0.49653900  0.08163900  1
  C  C55  1  0.49653900  0.62068400  0.58163900  1
  C  C56  1  0.37931600  0.87585500  0.91836100  1
  C  C57  1  0.87585500  0.49653900  0.41836100  1
  C  C58  1  0.62068400  0.12414500  0.08163900  1
  C  C59  1  0.12414500  0.50346100  0.58163900  1
  C  C60  1  0.62068400  0.12414500  0.41836100  1
  C  C61  1  0.37931600  0.87585500  0.58163900  1
