# generated using pymatgen
data_Cu3Ni2C11
_symmetry_space_group_name_H-M   'P 1'
_cell_length_a   11.16533175
_cell_length_b   11.16533175
_cell_length_c   11.16533175
_cell_angle_alpha   114.32982711
_cell_angle_beta   114.32982711
_cell_angle_gamma   100.13816533
_symmetry_Int_Tables_number   1
_chemical_formula_structural   Cu3Ni2C11
_chemical_formula_sum   'Cu12 Ni8 C44'
_cell_volume   1050.68661935
_cell_formula_units_Z   4
loop_
 _symmetry_equiv_pos_site_id
 _symmetry_equiv_pos_as_xyz
  1  'x, y, z'
loop_
 _atom_site_type_symbol
 _atom_site_label
 _atom_site_symmetry_multiplicity
 _atom_site_fract_x
 _atom_site_fract_y
 _atom_site_fract_z
 _atom_site_occupancy
  C  C0  1  0.42132300  0.92132300  0.84264700  1
  C  C1  1  0.67132300  0.32867700  0.00000000  1
  C  C2  1  0.32867700  0.67132300  0.00000000  1
  C  C3  1  0.07867700  0.57867700  0.15735300  1
  C  C4  1  0.32867700  0.32867700  0.65735300  1
  C  C5  1  0.07867700  0.92132300  0.50000000  1
  C  C6  1  0.42132300  0.57867700  0.50000000  1
  C  C7  1  0.67132300  0.67132300  0.34264700  1
  C  C8  1  0.03167400  0.79468300  0.76300900  1
  C  C9  1  0.03167400  0.26866600  0.23699100  1
  C  C10  1  0.20531700  0.96832600  0.23699100  1
  C  C11  1  0.01866600  0.28167400  0.73699100  1
  C  C12  1  0.54468300  0.28167400  0.26300900  1
  C  C13  1  0.71832600  0.98133400  0.26300900  1
  C  C14  1  0.71832600  0.45531700  0.73699100  1
  C  C15  1  0.73133400  0.96832600  0.76300900  1
  Ni  Ni16  1  0.27728200  0.40129900  0.12401700  1
  Ni  Ni17  1  0.27728200  0.15326500  0.87598300  1
  Ni  Ni18  1  0.59870100  0.72271800  0.87598300  1
  Ni  Ni19  1  0.90326500  0.52728200  0.37598300  1
  Ni  Ni20  1  0.15129900  0.52728200  0.62401700  1
  Ni  Ni21  1  0.47271800  0.09673500  0.62401700  1
  Ni  Ni22  1  0.47271800  0.84870100  0.37598300  1
  Ni  Ni23  1  0.84673500  0.72271800  0.12401700  1
  Cu  Cu24  1  0.50000000  0.50000000  0.00000000  1
  Cu  Cu25  1  0.25000000  0.75000000  0.50000000  1
  Cu  Cu26  1  0.75000000  0.25000000  0.50000000  1
  Cu  Cu27  1  0.00000000  0.00000000  0.00000000  1
  Cu  Cu28  1  0.87500000  0.97597400  0.60097400  1
  Cu  Cu29  1  0.72597400  0.62500000  0.60097400  1
  Cu  Cu30  1  0.02402600  0.12500000  0.39902600  1
  Cu  Cu31  1  0.37500000  0.27402600  0.39902600  1
  Cu  Cu32  1  0.87500000  0.27402600  0.89902600  1
  Cu  Cu33  1  0.02402600  0.62500000  0.89902600  1
  Cu  Cu34  1  0.72597400  0.12500000  0.10097400  1
  Cu  Cu35  1  0.37500000  0.97597400  0.10097400  1
  C  C36  1  0.77076300  0.77076300  0.00000000  1
  C  C37  1  0.52076300  0.02076300  0.50000000  1
  C  C38  1  0.97923700  0.47923700  0.50000000  1
  C  C39  1  0.22923700  0.22923700  0.00000000  1
  C  C40  1  0.20030000  0.97414300  0.77384300  1
  C  C41  1  0.20030000  0.42645700  0.22615700  1
  C  C42  1  0.02585700  0.79970000  0.22615700  1
  C  C43  1  0.17645700  0.45030000  0.72615700  1
  C  C44  1  0.72414300  0.45030000  0.27384300  1
  C  C45  1  0.54970000  0.82354300  0.27384300  1
  C  C46  1  0.54970000  0.27585700  0.72615700  1
  C  C47  1  0.57354300  0.79970000  0.77384300  1
  C  C48  1  0.30026900  0.05935800  0.52203400  1
  C  C49  1  0.53732300  0.77823400  0.47796600  1
  C  C50  1  0.94064200  0.69973100  0.47796600  1
  C  C51  1  0.52823400  0.55026900  0.74091100  1
  C  C52  1  0.80935800  0.78732300  0.25908900  1
  C  C53  1  0.44973100  0.47176600  0.25908900  1
  C  C54  1  0.21267700  0.19064200  0.74091100  1
  C  C55  1  0.22176600  0.46267700  0.52203400  1
  C  C56  1  0.44973100  0.19064200  0.97796600  1
  C  C57  1  0.21267700  0.47176600  0.02203400  1
  C  C58  1  0.80935800  0.55026900  0.02203400  1
  C  C59  1  0.22176600  0.69973100  0.75908900  1
  C  C60  1  0.94064200  0.46267700  0.24091100  1
  C  C61  1  0.30026900  0.77823400  0.24091100  1
  C  C62  1  0.53732300  0.05935800  0.75908900  1
  C  C63  1  0.52823400  0.78732300  0.97796600  1
