# generated using pymatgen
data_Cu(NiC3)2
_symmetry_space_group_name_H-M   'P 1'
_cell_length_a   7.02752100
_cell_length_b   7.02752100
_cell_length_c   4.14445600
_cell_angle_alpha   90.00000000
_cell_angle_beta   90.00000000
_cell_angle_gamma   120.00000941
_symmetry_Int_Tables_number   1
_chemical_formula_structural   Cu(NiC3)2
_chemical_formula_sum   'Cu1 Ni2 C6'
_cell_volume   177.25660536
_cell_formula_units_Z   1
loop_
 _symmetry_equiv_pos_site_id
 _symmetry_equiv_pos_as_xyz
  1  'x, y, z'
loop_
 _atom_site_type_symbol
 _atom_site_label
 _atom_site_symmetry_multiplicity
 _atom_site_fract_x
 _atom_site_fract_y
 _atom_site_fract_z
 _atom_site_occupancy
  C  C0  1  0.91309500  0.66521100  0.50000000  1
  C  C1  1  0.75211600  0.08690500  0.50000000  1
  C  C2  1  0.33478900  0.24788400  0.50000000  1
  C  C3  1  0.56270100  0.66308000  0.00000000  1
  C  C4  1  0.10037900  0.43729900  0.00000000  1
  C  C5  1  0.33692000  0.89962100  0.00000000  1
  Ni  Ni6  1  0.00000000  0.00000000  0.00000000  1
  Ni  Ni7  1  0.33333300  0.66666700  0.50000000  1
  Cu  Cu8  1  0.66666700  0.33333300  0.00000000  1
