# generated using pymatgen
data_CuNiC5
_symmetry_space_group_name_H-M   'P 1'
_cell_length_a   5.78934100
_cell_length_b   23.33414500
_cell_length_c   9.28785759
_cell_angle_alpha   90.00000000
_cell_angle_beta   123.85202213
_cell_angle_gamma   90.00000000
_symmetry_Int_Tables_number   1
_chemical_formula_structural   CuNiC5
_chemical_formula_sum   'Cu12 Ni12 C60'
_cell_volume   1041.99406141
_cell_formula_units_Z   12
loop_
 _symmetry_equiv_pos_site_id
 _symmetry_equiv_pos_as_xyz
  1  'x, y, z'
loop_
 _atom_site_type_symbol
 _atom_site_label
 _atom_site_symmetry_multiplicity
 _atom_site_fract_x
 _atom_site_fract_y
 _atom_site_fract_z
 _atom_site_occupancy
  C  C0  1  0.54162900  0.08271100  0.52616800  1
  C  C1  1  0.54162900  0.41728900  0.02616800  1
  C  C2  1  0.45837100  0.91728900  0.47383200  1
  C  C3  1  0.45837100  0.58271100  0.97383200  1
  C  C4  1  0.26999600  0.04589400  0.33318500  1
  C  C5  1  0.26999600  0.45410600  0.83318500  1
  C  C6  1  0.73000400  0.95410600  0.66681500  1
  C  C7  1  0.73000400  0.54589400  0.16681500  1
  C  C8  1  0.22622600  0.12045200  0.36765700  1
  C  C9  1  0.22622600  0.37954800  0.86765700  1
  C  C10  1  0.77377400  0.87954800  0.63234300  1
  C  C11  1  0.77377400  0.62045200  0.13234300  1
  C  C12  1  0.18653700  0.27374700  0.95901500  1
  C  C13  1  0.18653700  0.22625300  0.45901500  1
  C  C14  1  0.81346300  0.72625300  0.04098500  1
  C  C15  1  0.81346300  0.77374700  0.54098500  1
  C  C16  1  0.38492700  0.22266200  0.92590600  1
  C  C17  1  0.38492700  0.27733800  0.42590600  1
  C  C18  1  0.61507300  0.77733800  0.07409400  1
  C  C19  1  0.61507300  0.72266200  0.57409400  1
  C  C20  1  0.49632100  0.24181200  0.14418100  1
  C  C21  1  0.49632100  0.25818800  0.64418100  1
  C  C22  1  0.50367900  0.75818800  0.85581900  1
  C  C23  1  0.50367900  0.74181200  0.35581900  1
  C  C24  1  0.21786000  0.05762000  0.68350600  1
  C  C25  1  0.21786000  0.44238000  0.18350600  1
  C  C26  1  0.78214000  0.94238000  0.31649400  1
  C  C27  1  0.78214000  0.55762000  0.81649400  1
  C  C28  1  0.48375500  0.10432200  0.84370600  1
  C  C29  1  0.48375500  0.39567800  0.34370600  1
  C  C30  1  0.51624500  0.89567800  0.15629400  1
  C  C31  1  0.51624500  0.60432200  0.65629400  1
  C  C32  1  0.11956100  0.12759700  0.71436300  1
  C  C33  1  0.11956100  0.37240300  0.21436300  1
  C  C34  1  0.88043900  0.87240300  0.28563700  1
  C  C35  1  0.88043900  0.62759700  0.78563700  1
  Ni  Ni36  1  0.37417100  0.08701800  0.38801200  1
  Ni  Ni37  1  0.37417100  0.41298200  0.88801200  1
  Ni  Ni38  1  0.62582900  0.91298200  0.61198800  1
  Ni  Ni39  1  0.62582900  0.58701800  0.11198800  1
  Ni  Ni40  1  0.31842800  0.23540500  0.01082600  1
  Ni  Ni41  1  0.31842800  0.26459500  0.51082600  1
  Ni  Ni42  1  0.68157200  0.76459500  0.98917400  1
  Ni  Ni43  1  0.68157200  0.73540500  0.48917400  1
  Ni  Ni44  1  0.26472600  0.09177000  0.77737900  1
  Ni  Ni45  1  0.26472600  0.40823000  0.27737900  1
  Ni  Ni46  1  0.73527400  0.90823000  0.22262100  1
  Ni  Ni47  1  0.73527400  0.59177000  0.72262100  1
  Cu  Cu48  1  0.21199800  0.05788900  0.93145500  1
  Cu  Cu49  1  0.21199800  0.44211100  0.43145500  1
  Cu  Cu50  1  0.78800200  0.94211100  0.06854500  1
  Cu  Cu51  1  0.78800200  0.55788900  0.56854500  1
  Cu  Cu52  1  0.54453700  0.10832800  0.28685600  1
  Cu  Cu53  1  0.54453700  0.39167200  0.78685600  1
  Cu  Cu54  1  0.45546300  0.89167200  0.71314400  1
  Cu  Cu55  1  0.45546300  0.60832800  0.21314400  1
  Cu  Cu56  1  0.09835400  0.18176500  0.00727000  1
  Cu  Cu57  1  0.09835400  0.31823500  0.50727000  1
  Cu  Cu58  1  0.90164600  0.81823500  0.99273000  1
  Cu  Cu59  1  0.90164600  0.68176500  0.49273000  1
  C  C60  1  0.29068300  0.11939300  0.07196400  1
  C  C61  1  0.29068300  0.38060700  0.57196400  1
  C  C62  1  0.70931700  0.88060700  0.92803600  1
  C  C63  1  0.70931700  0.61939300  0.42803600  1
  C  C64  1  0.70661500  0.06066500  0.29017400  1
  C  C65  1  0.70661500  0.43933500  0.79017400  1
  C  C66  1  0.29338500  0.93933500  0.70982600  1
  C  C67  1  0.29338500  0.56066500  0.20982600  1
  C  C68  1  0.67511100  0.16324400  0.35529300  1
  C  C69  1  0.67511100  0.33675600  0.85529300  1
  C  C70  1  0.32488900  0.83675600  0.64470700  1
  C  C71  1  0.32488900  0.66324400  0.14470700  1
  C  C72  1  0.87277200  0.17119700  0.82973000  1
  C  C73  1  0.87277200  0.32880300  0.32973000  1
  C  C74  1  0.12722800  0.82880300  0.17027000  1
  C  C75  1  0.12722800  0.67119700  0.67027000  1
  C  C76  1  0.03788700  0.19542100  0.13439200  1
  C  C77  1  0.03788700  0.30457900  0.63439200  1
  C  C78  1  0.96211300  0.80457900  0.86560800  1
  C  C79  1  0.96211300  0.69542100  0.36560800  1
  C  C80  1  0.91216300  0.04395800  0.83477900  1
  C  C81  1  0.91216300  0.45604200  0.33477900  1
  C  C82  1  0.08783700  0.95604200  0.16522100  1
  C  C83  1  0.08783700  0.54395800  0.66522100  1
