# generated using pymatgen
data_Cu24Ni4C17
_symmetry_space_group_name_H-M   'P 1'
_cell_length_a   8.06370798
_cell_length_b   10.18438775
_cell_length_c   7.00278605
_cell_angle_alpha   81.43191227
_cell_angle_beta   116.34663469
_cell_angle_gamma   91.38530832
_symmetry_Int_Tables_number   1
_chemical_formula_structural   Cu24Ni4C17
_chemical_formula_sum   'Cu24 Ni4 C17'
_cell_volume   509.03560930
_cell_formula_units_Z   1
loop_
 _symmetry_equiv_pos_site_id
 _symmetry_equiv_pos_as_xyz
  1  'x, y, z'
loop_
 _atom_site_type_symbol
 _atom_site_label
 _atom_site_symmetry_multiplicity
 _atom_site_fract_x
 _atom_site_fract_y
 _atom_site_fract_z
 _atom_site_occupancy
  C  C0  1  0.99449131  0.59176615  0.41117389  1
  Ni  Ni1  1  0.87142177  0.43175188  0.81541520  1
  Ni  Ni2  1  0.14090679  0.02594310  0.65300591  1
  Ni  Ni3  1  0.12661938  0.48501850  0.08819284  1
  Ni  Ni4  1  0.86433808  0.08314242  0.37230781  1
  Cu  Cu5  1  0.97105849  0.21526220  0.82670612  1
  Cu  Cu6  1  0.01948246  0.82244147  0.64214232  1
  Cu  Cu7  1  0.08764402  0.70258420  0.12033293  1
  Cu  Cu8  1  0.90295745  0.30751013  0.30047992  1
  Cu  Cu9  1  0.84385080  0.21530734  0.96113695  1
  Cu  Cu10  1  0.19359671  0.82011851  0.58772457  1
  Cu  Cu11  1  0.17068153  0.69948814  0.93456093  1
  Cu  Cu12  1  0.80980962  0.27651381  0.47274671  1
  Cu  Cu13  1  0.33538125  0.36863947  0.84508246  1
  Cu  Cu14  1  0.72033162  0.96222521  0.69526310  1
  Cu  Cu15  1  0.63327140  0.63293277  0.18345537  1
  Cu  Cu16  1  0.31798699  0.09575689  0.36405691  1
  Cu  Cu17  1  0.29091769  0.39182186  0.58062719  1
  Cu  Cu18  1  0.75849728  0.97800458  0.95798520  1
  Cu  Cu19  1  0.65581835  0.55151849  0.41797814  1
  Cu  Cu20  1  0.27466610  0.08521892  0.09949316  1
  Cu  Cu21  1  0.51430748  0.39414310  0.77607584  1
  Cu  Cu22  1  0.53998123  0.96873052  0.75658425  1
  Cu  Cu23  1  0.47913685  0.50891575  0.18660164  1
  Cu  Cu24  1  0.49910847  0.08265830  0.30447849  1
  Cu  Cu25  1  0.39083233  0.24833610  0.73513328  1
  Cu  Cu26  1  0.69063700  0.83306605  0.86119942  1
  Cu  Cu27  1  0.46127143  0.65361263  0.25828941  1
  Cu  Cu28  1  0.35601569  0.22345255  0.20697544  1
  C  C29  1  0.86950209  0.26772017  0.83989375  1
  C  C30  1  0.15110131  0.85656987  0.68937467  1
  C  C31  1  0.16254416  0.64844137  0.06830259  1
  C  C32  1  0.81897718  0.24647632  0.34476573  1
  C  C33  1  0.38415146  0.34987630  0.73643889  1
  C  C34  1  0.67785278  0.93470962  0.81726838  1
  C  C35  1  0.55769032  0.58714312  0.26185514  1
  C  C36  1  0.36215465  0.12077543  0.24393567  1
  C  C37  1  0.89916512  0.48201532  0.61248156  1
  C  C38  1  0.12743286  0.07376296  0.84146190  1
  C  C39  1  0.10550150  0.44893858  0.29896662  1
  C  C40  1  0.86690900  0.05786331  0.16548312  1
  C  C41  1  0.70053017  0.48630676  0.82064234  1
  C  C42  1  0.30994765  0.07057837  0.61662001  1
  C  C43  1  0.28806675  0.41323877  0.07894436  1
  C  C44  1  0.72845344  0.01064069  0.44465586  1
