# generated using pymatgen
data_Cu4Ni4C9
_symmetry_space_group_name_H-M   'P 1'
_cell_length_a   7.75265600
_cell_length_b   11.71100000
_cell_length_c   13.12739000
_cell_angle_alpha   90.00000000
_cell_angle_beta   90.00000000
_cell_angle_gamma   90.00000000
_symmetry_Int_Tables_number   1
_chemical_formula_structural   Cu4Ni4C9
_chemical_formula_sum   'Cu16 Ni16 C36'
_cell_volume   1191.85351805
_cell_formula_units_Z   4
loop_
 _symmetry_equiv_pos_site_id
 _symmetry_equiv_pos_as_xyz
  1  'x, y, z'
loop_
 _atom_site_type_symbol
 _atom_site_label
 _atom_site_symmetry_multiplicity
 _atom_site_fract_x
 _atom_site_fract_y
 _atom_site_fract_z
 _atom_site_occupancy
  C  C0  1  0.25000000  0.66316200  0.50000000  1
  C  C1  1  0.75000000  0.33683800  0.50000000  1
  C  C2  1  0.75000000  0.83683800  0.00000000  1
  C  C3  1  0.25000000  0.16316200  0.00000000  1
  C  C4  1  0.10875300  0.85386300  0.84413400  1
  C  C5  1  0.89124700  0.14613700  0.15586600  1
  C  C6  1  0.60875300  0.64613700  0.65586600  1
  C  C7  1  0.39124700  0.85386300  0.15586600  1
  C  C8  1  0.39124700  0.35386300  0.34413400  1
  C  C9  1  0.60875300  0.14613700  0.84413400  1
  C  C10  1  0.89124700  0.64613700  0.34413400  1
  C  C11  1  0.10875300  0.35386300  0.65586600  1
  Ni  Ni12  1  0.07188500  0.68948700  0.90111400  1
  Ni  Ni13  1  0.92811500  0.31051300  0.09888600  1
  Ni  Ni14  1  0.57188500  0.81051300  0.59888600  1
  Ni  Ni15  1  0.42811500  0.68948700  0.09888600  1
  Ni  Ni16  1  0.42811500  0.18948700  0.40111400  1
  Ni  Ni17  1  0.57188500  0.31051300  0.90111400  1
  Ni  Ni18  1  0.92811500  0.81051300  0.40111400  1
  Ni  Ni19  1  0.07188500  0.18948700  0.59888600  1
  Ni  Ni20  1  0.19605400  0.62041100  0.73861300  1
  Ni  Ni21  1  0.80394600  0.37958900  0.26138700  1
  Ni  Ni22  1  0.69605400  0.87958900  0.76138700  1
  Ni  Ni23  1  0.30394600  0.62041100  0.26138700  1
  Ni  Ni24  1  0.30394600  0.12041100  0.23861300  1
  Ni  Ni25  1  0.69605400  0.37958900  0.73861300  1
  Ni  Ni26  1  0.80394600  0.87958900  0.23861300  1
  Ni  Ni27  1  0.19605400  0.12041100  0.76138700  1
  C  C28  1  0.11839300  0.55614500  0.85075100  1
  C  C29  1  0.88160700  0.44385500  0.14924900  1
  C  C30  1  0.61839300  0.94385500  0.64924900  1
  C  C31  1  0.38160700  0.55614500  0.14924900  1
  C  C32  1  0.38160700  0.05614500  0.35075100  1
  C  C33  1  0.61839300  0.44385500  0.85075100  1
  C  C34  1  0.88160700  0.94385500  0.35075100  1
  C  C35  1  0.11839300  0.05614500  0.64924900  1
  C  C36  1  0.27892600  0.53973100  0.64057000  1
  C  C37  1  0.72107400  0.46026900  0.35943000  1
  C  C38  1  0.77892600  0.96026900  0.85943000  1
  C  C39  1  0.22107400  0.53973100  0.35943000  1
  C  C40  1  0.22107400  0.03973100  0.14057000  1
  C  C41  1  0.77892600  0.46026900  0.64057000  1
  C  C42  1  0.72107400  0.96026900  0.14057000  1
  C  C43  1  0.27892600  0.03973100  0.85943000  1
  C  C44  1  0.00721200  0.78745500  0.51993300  1
  C  C45  1  0.99278800  0.21254500  0.48006700  1
  C  C46  1  0.50721200  0.71254500  0.98006700  1
  C  C47  1  0.49278800  0.78745500  0.48006700  1
  C  C48  1  0.49278800  0.28745500  0.01993300  1
  C  C49  1  0.50721200  0.21254500  0.51993300  1
  C  C50  1  0.99278800  0.71254500  0.01993300  1
  C  C51  1  0.00721200  0.28745500  0.98006700  1
  Cu  Cu52  1  0.18376900  0.73271400  0.74074200  1
  Cu  Cu53  1  0.81623100  0.26728600  0.25925800  1
  Cu  Cu54  1  0.68376900  0.76728600  0.75925800  1
  Cu  Cu55  1  0.31623100  0.73271400  0.25925800  1
  Cu  Cu56  1  0.31623100  0.23271400  0.24074200  1
  Cu  Cu57  1  0.68376900  0.26728600  0.74074200  1
  Cu  Cu58  1  0.81623100  0.76728600  0.24074200  1
  Cu  Cu59  1  0.18376900  0.23271400  0.75925800  1
  Cu  Cu60  1  0.11580700  0.76751500  0.83080200  1
  Cu  Cu61  1  0.88419300  0.23248500  0.16919800  1
  Cu  Cu62  1  0.61580700  0.73248500  0.66919800  1
  Cu  Cu63  1  0.38419300  0.76751500  0.16919800  1
  Cu  Cu64  1  0.38419300  0.26751500  0.33080200  1
  Cu  Cu65  1  0.61580700  0.23248500  0.83080200  1
  Cu  Cu66  1  0.88419300  0.73248500  0.33080200  1
  Cu  Cu67  1  0.11580700  0.26751500  0.66919800  1
