# generated using pymatgen
data_Cu(Ni2C21)2
_symmetry_space_group_name_H-M   'P 1'
_cell_length_a   15.16765600
_cell_length_b   15.16765600
_cell_length_c   7.10300400
_cell_angle_alpha   90.00000000
_cell_angle_beta   90.00000000
_cell_angle_gamma   90.00000000
_symmetry_Int_Tables_number   1
_chemical_formula_structural   Cu(Ni2C21)2
_chemical_formula_sum   'Cu2 Ni8 C84'
_cell_volume   1634.10139219
_cell_formula_units_Z   2
loop_
 _symmetry_equiv_pos_site_id
 _symmetry_equiv_pos_as_xyz
  1  'x, y, z'
loop_
 _atom_site_type_symbol
 _atom_site_label
 _atom_site_symmetry_multiplicity
 _atom_site_fract_x
 _atom_site_fract_y
 _atom_site_fract_z
 _atom_site_occupancy
  C  C0  1  0.37865400  0.80288300  0.37718600  1
  C  C1  1  0.62134600  0.19711700  0.37718600  1
  C  C2  1  0.87865400  0.30288300  0.62281400  1
  C  C3  1  0.12134600  0.69711700  0.62281400  1
  C  C4  1  0.19711700  0.37865400  0.62281400  1
  C  C5  1  0.80288300  0.62134600  0.62281400  1
  C  C6  1  0.69711700  0.87865400  0.37718600  1
  C  C7  1  0.30288300  0.12134600  0.37718600  1
  C  C8  1  0.50000000  0.50000000  0.00000000  1
  C  C9  1  0.00000000  0.00000000  0.00000000  1
  Ni  Ni10  1  0.19059500  0.56719600  0.12571800  1
  Ni  Ni11  1  0.80940500  0.43280400  0.12571800  1
  Ni  Ni12  1  0.69059500  0.06719600  0.87428200  1
  Ni  Ni13  1  0.30940500  0.93280400  0.87428200  1
  Ni  Ni14  1  0.43280400  0.19059500  0.87428200  1
  Ni  Ni15  1  0.56719600  0.80940500  0.87428200  1
  Ni  Ni16  1  0.93280400  0.69059500  0.12571800  1
  Ni  Ni17  1  0.06719600  0.30940500  0.12571800  1
  Cu  Cu18  1  0.00000000  0.50000000  0.31196000  1
  Cu  Cu19  1  0.50000000  0.00000000  0.68804000  1
  C  C20  1  0.70018100  0.64254300  0.12411300  1
  C  C21  1  0.29981900  0.35745700  0.12411300  1
  C  C22  1  0.20018100  0.14254300  0.87588700  1
  C  C23  1  0.79981900  0.85745700  0.87588700  1
  C  C24  1  0.35745700  0.70018100  0.87588700  1
  C  C25  1  0.64254300  0.29981900  0.87588700  1
  C  C26  1  0.85745700  0.20018100  0.12411300  1
  C  C27  1  0.14254300  0.79981900  0.12411300  1
  C  C28  1  0.69441000  0.54442600  0.15101600  1
  C  C29  1  0.30559000  0.45557400  0.15101600  1
  C  C30  1  0.19441000  0.04442600  0.84898400  1
  C  C31  1  0.80559000  0.95557400  0.84898400  1
  C  C32  1  0.45557400  0.69441000  0.84898400  1
  C  C33  1  0.54442600  0.30559000  0.84898400  1
  C  C34  1  0.95557400  0.19441000  0.15101600  1
  C  C35  1  0.04442600  0.80559000  0.15101600  1
  C  C36  1  0.16208200  0.53977800  0.88410900  1
  C  C37  1  0.83791800  0.46022200  0.88410900  1
  C  C38  1  0.66208200  0.03977800  0.11589100  1
  C  C39  1  0.33791800  0.96022200  0.11589100  1
  C  C40  1  0.46022200  0.16208200  0.11589100  1
  C  C41  1  0.53977800  0.83791800  0.11589100  1
  C  C42  1  0.96022200  0.66208200  0.88410900  1
  C  C43  1  0.03977800  0.33791800  0.88410900  1
  C  C44  1  0.49718000  0.63819300  0.38520100  1
  C  C45  1  0.50282000  0.36180700  0.38520100  1
  C  C46  1  0.99718000  0.13819300  0.61479900  1
  C  C47  1  0.00282000  0.86180700  0.61479900  1
  C  C48  1  0.36180700  0.49718000  0.61479900  1
  C  C49  1  0.63819300  0.50282000  0.61479900  1
  C  C50  1  0.86180700  0.99718000  0.38520100  1
  C  C51  1  0.13819300  0.00282000  0.38520100  1
  C  C52  1  0.22330400  0.59704600  0.36399600  1
  C  C53  1  0.77669600  0.40295400  0.36399600  1
  C  C54  1  0.72330400  0.09704600  0.63600400  1
  C  C55  1  0.27669600  0.90295400  0.63600400  1
  C  C56  1  0.40295400  0.22330400  0.63600400  1
  C  C57  1  0.59704600  0.77669600  0.63600400  1
  C  C58  1  0.90295400  0.72330400  0.36399600  1
  C  C59  1  0.09704600  0.27669600  0.36399600  1
  C  C60  1  0.62647800  0.66736900  0.99409700  1
  C  C61  1  0.37352200  0.33263100  0.99409700  1
  C  C62  1  0.12647800  0.16736900  0.00590300  1
  C  C63  1  0.87352200  0.83263100  0.00590300  1
  C  C64  1  0.33263100  0.62647800  0.00590300  1
  C  C65  1  0.66736900  0.37352200  0.00590300  1
  C  C66  1  0.83263100  0.12647800  0.99409700  1
  C  C67  1  0.16736900  0.87352200  0.99409700  1
  C  C68  1  0.78565300  0.66127900  0.02259000  1
  C  C69  1  0.21434700  0.33872100  0.02259000  1
  C  C70  1  0.28565300  0.16127900  0.97741000  1
  C  C71  1  0.71434700  0.83872100  0.97741000  1
  C  C72  1  0.33872100  0.78565300  0.97741000  1
  C  C73  1  0.66127900  0.21434700  0.97741000  1
  C  C74  1  0.83872100  0.28565300  0.02259000  1
  C  C75  1  0.16127900  0.71434700  0.02259000  1
  C  C76  1  0.10834900  0.45132400  0.23007400  1
  C  C77  1  0.89165100  0.54867600  0.23007400  1
  C  C78  1  0.60834900  0.95132400  0.76992600  1
  C  C79  1  0.39165100  0.04867600  0.76992600  1
  C  C80  1  0.54867600  0.10834900  0.76992600  1
  C  C81  1  0.45132400  0.89165100  0.76992600  1
  C  C82  1  0.04867600  0.60834900  0.23007400  1
  C  C83  1  0.95132400  0.39165100  0.23007400  1
  C  C84  1  0.69621600  0.68899900  0.30396700  1
  C  C85  1  0.30378400  0.31100100  0.30396700  1
  C  C86  1  0.19621600  0.18899900  0.69603300  1
  C  C87  1  0.80378400  0.81100100  0.69603300  1
  C  C88  1  0.31100100  0.69621600  0.69603300  1
  C  C89  1  0.68899900  0.30378400  0.69603300  1
  C  C90  1  0.81100100  0.19621600  0.30396700  1
  C  C91  1  0.18899900  0.80378400  0.30396700  1
  C  C92  1  0.00000000  0.50000000  0.54202200  1
  C  C93  1  0.50000000  0.00000000  0.45797800  1
