# generated using pymatgen
data_CuNi3C10
_symmetry_space_group_name_H-M   'P 1'
_cell_length_a   5.91521778
_cell_length_b   5.91521778
_cell_length_c   5.91521731
_cell_angle_alpha   60.20130650
_cell_angle_beta   60.20130650
_cell_angle_gamma   60.20131596
_symmetry_Int_Tables_number   1
_chemical_formula_structural   CuNi3C10
_chemical_formula_sum   'Cu1 Ni3 C10'
_cell_volume   147.01862559
_cell_formula_units_Z   1
loop_
 _symmetry_equiv_pos_site_id
 _symmetry_equiv_pos_as_xyz
  1  'x, y, z'
loop_
 _atom_site_type_symbol
 _atom_site_label
 _atom_site_symmetry_multiplicity
 _atom_site_fract_x
 _atom_site_fract_y
 _atom_site_fract_z
 _atom_site_occupancy
  C  C0  1  0.88408200  0.88408200  0.88408200  1
  C  C1  1  0.50209000  0.50209000  0.50209000  1
  Ni  Ni2  1  0.98945000  0.50247200  0.50247200  1
  Ni  Ni3  1  0.50247200  0.98945000  0.50247200  1
  Ni  Ni4  1  0.50247200  0.50247200  0.98945000  1
  Cu  Cu5  1  0.11675800  0.11675800  0.11675800  1
  C  C6  1  0.74128100  0.74128100  0.74128100  1
  C  C7  1  0.74702900  0.74702900  0.29100400  1
  C  C8  1  0.74702900  0.29100400  0.74702900  1
  C  C9  1  0.29100400  0.74702900  0.74702900  1
  C  C10  1  0.72103400  0.25005000  0.25005000  1
  C  C11  1  0.25005000  0.72103400  0.25005000  1
  C  C12  1  0.25005000  0.25005000  0.72103400  1
  C  C13  1  0.25520000  0.25520000  0.25520000  1
