# generated using pymatgen
data_Cu12Ni4C9
_symmetry_space_group_name_H-M   'P 1'
_cell_length_a   10.20034000
_cell_length_b   11.21584010
_cell_length_c   14.90575576
_cell_angle_alpha   110.67517372
_cell_angle_beta   87.70051818
_cell_angle_gamma   110.91002170
_symmetry_Int_Tables_number   1
_chemical_formula_structural   Cu12Ni4C9
_chemical_formula_sum   'Cu48 Ni16 C36'
_cell_volume   1483.18378058
_cell_formula_units_Z   4
loop_
 _symmetry_equiv_pos_site_id
 _symmetry_equiv_pos_as_xyz
  1  'x, y, z'
loop_
 _atom_site_type_symbol
 _atom_site_label
 _atom_site_symmetry_multiplicity
 _atom_site_fract_x
 _atom_site_fract_y
 _atom_site_fract_z
 _atom_site_occupancy
  C  C0  1  0.59167800  0.03363800  0.34189400  1
  C  C1  1  0.40832200  0.96636200  0.65810600  1
  C  C2  1  0.55535600  0.54937200  0.83455600  1
  C  C3  1  0.44464400  0.45062800  0.16544400  1
  C  C4  1  0.40516200  0.72994400  0.03820900  1
  C  C5  1  0.56842000  0.82200400  0.38690400  1
  C  C6  1  0.43158000  0.17799600  0.61309600  1
  C  C7  1  0.76216800  0.60161400  0.99665600  1
  C  C8  1  0.24197600  0.02120600  0.10646500  1
  C  C9  1  0.77302100  0.02859800  0.20241600  1
  C  C10  1  0.09404600  0.39266800  0.93973800  1
  C  C11  1  0.17700100  0.50629200  0.62631800  1
  C  C12  1  0.42601100  0.64880400  0.12894400  1
  C  C13  1  0.55385100  0.27734800  0.61193300  1
  C  C14  1  0.22251600  0.39470400  0.30155000  1
  C  C15  1  0.75802400  0.97879400  0.89353500  1
  C  C16  1  0.24439700  0.94252900  0.47351000  1
  C  C17  1  0.69670700  0.44388600  0.30349500  1
  C  C18  1  0.30329300  0.55611400  0.69650500  1
  C  C19  1  0.10760300  0.93431100  0.40183200  1
  C  C20  1  0.82299900  0.49370800  0.37368200  1
  C  C21  1  0.35785800  0.06737100  0.18354500  1
  C  C22  1  0.59483800  0.27005600  0.96179100  1
  C  C23  1  0.22697900  0.97140200  0.79758400  1
  C  C24  1  0.33295700  0.36640300  0.28956500  1
  C  C25  1  0.89239700  0.06568900  0.59816800  1
  C  C26  1  0.24008400  0.90670100  0.74362400  1
  C  C27  1  0.77748400  0.60529600  0.69845000  1
  C  C28  1  0.23783200  0.39838600  0.00334400  1
  C  C29  1  0.64214200  0.93262900  0.81645500  1
  C  C30  1  0.90595400  0.60733200  0.06026200  1
  C  C31  1  0.57398900  0.35119600  0.87105600  1
  C  C32  1  0.66704300  0.63359700  0.71043500  1
  C  C33  1  0.75991600  0.09329900  0.25637600  1
  C  C34  1  0.75560300  0.05747100  0.52649000  1
  C  C35  1  0.44614900  0.72265200  0.38806700  1
  Ni  Ni36  1  0.22877200  0.96592800  0.54761400  1
  Ni  Ni37  1  0.44458400  0.99471100  0.21723500  1
  Ni  Ni38  1  0.33900400  0.39548200  0.97328100  1
  Ni  Ni39  1  0.67592100  0.33573200  0.29139200  1
  Ni  Ni40  1  0.77122800  0.03407200  0.45238600  1
  Ni  Ni41  1  0.66099600  0.60451800  0.02671900  1
  Ni  Ni42  1  0.23532100  0.41368600  0.08363700  1
  Ni  Ni43  1  0.62069900  0.52668000  0.26437700  1
  Ni  Ni44  1  0.63992700  0.83635800  0.79541200  1
  Ni  Ni45  1  0.37930100  0.47332000  0.73562300  1
  Ni  Ni46  1  0.34951200  0.92821000  0.45701800  1
  Ni  Ni47  1  0.55541600  0.00528900  0.78276500  1
  Ni  Ni48  1  0.36007300  0.16364200  0.20458800  1
  Ni  Ni49  1  0.32407900  0.66426800  0.70860800  1
  Ni  Ni50  1  0.76467900  0.58631400  0.91636300  1
  Ni  Ni51  1  0.65048800  0.07179000  0.54298200  1
  Cu  Cu52  1  0.38907200  0.27806400  0.36553100  1
  Cu  Cu53  1  0.32097000  0.08351600  0.80810000  1
  Cu  Cu54  1  0.83832400  0.51821900  0.76612600  1
  Cu  Cu55  1  0.77278200  0.49048800  0.45100700  1
  Cu  Cu56  1  0.60644000  0.30449600  0.03847300  1
  Cu  Cu57  1  0.60743600  0.14729000  0.98642300  1
  Cu  Cu58  1  0.01802900  0.68739400  0.00902800  1
  Cu  Cu59  1  0.00619600  0.15755100  0.55281100  1
  Cu  Cu60  1  0.43608300  0.69325700  0.20176200  1
  Cu  Cu61  1  0.88289100  0.07000400  0.15346900  1
  Cu  Cu62  1  0.91290700  0.65296100  0.13200900  1
  Cu  Cu63  1  0.67903000  0.91648400  0.19190000  1
  Cu  Cu64  1  0.11936400  0.89809600  0.32927300  1
  Cu  Cu65  1  0.70105200  0.93212000  0.97875700  1
  Cu  Cu66  1  0.09780900  0.37740500  0.66952500  1
  Cu  Cu67  1  0.44002700  0.59270900  0.41744100  1
  Cu  Cu68  1  0.88063600  0.10190400  0.67072700  1
  Cu  Cu69  1  0.86427400  0.20608900  0.26226400  1
  Cu  Cu70  1  0.09256400  0.58751900  0.59308300  1
  Cu  Cu71  1  0.91639700  0.94233400  0.63809600  1
  Cu  Cu72  1  0.16317100  0.33980700  0.38314100  1
  Cu  Cu73  1  0.16167600  0.48178100  0.23387400  1
  Cu  Cu74  1  0.55997300  0.40729100  0.58255900  1
  Cu  Cu75  1  0.81075300  0.11567000  0.86649900  1
  Cu  Cu76  1  0.86604600  0.92725200  0.90992000  1
  Cu  Cu77  1  0.99380400  0.84244900  0.44718900  1
  Cu  Cu78  1  0.11710900  0.92999600  0.84653100  1
  Cu  Cu79  1  0.68920500  0.78741700  0.41729400  1
  Cu  Cu80  1  0.90219100  0.62259500  0.33047500  1
  Cu  Cu81  1  0.31079500  0.21258300  0.58270600  1
  Cu  Cu82  1  0.91694900  0.47861400  0.10101700  1
  Cu  Cu83  1  0.61092800  0.72193600  0.63446900  1
  Cu  Cu84  1  0.08305100  0.52138600  0.89898300  1
  Cu  Cu85  1  0.67985300  0.25983300  0.64046400  1
  Cu  Cu86  1  0.22721800  0.50951200  0.54899300  1
  Cu  Cu87  1  0.39356000  0.69550400  0.96152700  1
  Cu  Cu88  1  0.32014700  0.74016700  0.35953600  1
  Cu  Cu89  1  0.13395400  0.07274800  0.09008000  1
  Cu  Cu90  1  0.83682900  0.66019300  0.61685900  1
  Cu  Cu91  1  0.08709300  0.34703900  0.86799100  1
  Cu  Cu92  1  0.39256400  0.85271000  0.01357700  1
  Cu  Cu93  1  0.98197100  0.31260600  0.99097200  1
  Cu  Cu94  1  0.29894800  0.06788000  0.02124300  1
  Cu  Cu95  1  0.56391700  0.30674300  0.79823800  1
  Cu  Cu96  1  0.90743600  0.41248100  0.40691700  1
  Cu  Cu97  1  0.13572600  0.79391100  0.73773600  1
  Cu  Cu98  1  0.08360300  0.05766600  0.36190400  1
  Cu  Cu99  1  0.18924700  0.88433000  0.13350100  1
