# generated using pymatgen
data_Cu4NiC8
_symmetry_space_group_name_H-M   'P 1'
_cell_length_a   6.65436294
_cell_length_b   6.65436294
_cell_length_c   6.65436276
_cell_angle_alpha   61.57440389
_cell_angle_beta   61.57440389
_cell_angle_gamma   61.57439895
_symmetry_Int_Tables_number   1
_chemical_formula_structural   Cu4NiC8
_chemical_formula_sum   'Cu4 Ni1 C8'
_cell_volume   215.71494376
_cell_formula_units_Z   1
loop_
 _symmetry_equiv_pos_site_id
 _symmetry_equiv_pos_as_xyz
  1  'x, y, z'
loop_
 _atom_site_type_symbol
 _atom_site_label
 _atom_site_symmetry_multiplicity
 _atom_site_fract_x
 _atom_site_fract_y
 _atom_site_fract_z
 _atom_site_occupancy
  Ni  Ni0  1  0.00000000  0.00000000  0.00000000  1
  Cu  Cu1  1  0.50000000  0.50000000  0.50000000  1
  Cu  Cu2  1  0.50000000  0.50000000  0.00000000  1
  Cu  Cu3  1  0.50000000  0.00000000  0.50000000  1
  Cu  Cu4  1  0.00000000  0.50000000  0.50000000  1
  C  C5  1  0.73918400  0.29221400  0.73918400  1
  C  C6  1  0.73918400  0.73918400  0.29221400  1
  C  C7  1  0.29221400  0.73918400  0.73918400  1
  C  C8  1  0.73734600  0.73734600  0.73734600  1
  C  C9  1  0.26265400  0.26265400  0.26265400  1
  C  C10  1  0.26081600  0.26081600  0.70778600  1
  C  C11  1  0.70778600  0.26081600  0.26081600  1
  C  C12  1  0.26081600  0.70778600  0.26081600  1
