# generated using pymatgen
data_Cu2NiC3
_symmetry_space_group_name_H-M   'P 1'
_cell_length_a   4.67105700
_cell_length_b   9.35654900
_cell_length_c   18.24983700
_cell_angle_alpha   90.00000000
_cell_angle_beta   90.00000000
_cell_angle_gamma   90.00000000
_symmetry_Int_Tables_number   1
_chemical_formula_structural   Cu2NiC3
_chemical_formula_sum   'Cu8 Ni4 C12'
_cell_volume   797.60864616
_cell_formula_units_Z   4
loop_
 _symmetry_equiv_pos_site_id
 _symmetry_equiv_pos_as_xyz
  1  'x, y, z'
loop_
 _atom_site_type_symbol
 _atom_site_label
 _atom_site_symmetry_multiplicity
 _atom_site_fract_x
 _atom_site_fract_y
 _atom_site_fract_z
 _atom_site_occupancy
  C  C0  1  0.25000000  0.27167400  0.54291700  1
  C  C1  1  0.25000000  0.77167400  0.95708300  1
  C  C2  1  0.75000000  0.72832600  0.45708300  1
  C  C3  1  0.75000000  0.22832600  0.04291700  1
  C  C4  1  0.25000000  0.41472500  0.28725200  1
  C  C5  1  0.25000000  0.91472500  0.21274800  1
  C  C6  1  0.75000000  0.58527500  0.71274800  1
  C  C7  1  0.75000000  0.08527500  0.78725200  1
  C  C8  1  0.25000000  0.36535600  0.86387700  1
  C  C9  1  0.25000000  0.86535600  0.63612300  1
  C  C10  1  0.75000000  0.63464400  0.13612300  1
  C  C11  1  0.75000000  0.13464400  0.36387700  1
  Ni  Ni12  1  0.25000000  0.99627000  0.40162600  1
  Ni  Ni13  1  0.25000000  0.49627000  0.09837400  1
  Ni  Ni14  1  0.75000000  0.00373000  0.59837400  1
  Ni  Ni15  1  0.75000000  0.50373000  0.90162600  1
  Cu  Cu16  1  0.25000000  0.12490600  0.92664300  1
  Cu  Cu17  1  0.25000000  0.62490600  0.57335700  1
  Cu  Cu18  1  0.75000000  0.87509400  0.07335700  1
  Cu  Cu19  1  0.75000000  0.37509400  0.42664300  1
  Cu  Cu20  1  0.25000000  0.32148000  0.72843400  1
  Cu  Cu21  1  0.25000000  0.82148000  0.77156600  1
  Cu  Cu22  1  0.75000000  0.67852000  0.27156600  1
  Cu  Cu23  1  0.75000000  0.17852000  0.22843400  1
