# generated using pymatgen
data_CuNi149
_symmetry_space_group_name_H-M   'P 1'
_cell_length_a   15.88232609
_cell_length_b   15.88233132
_cell_length_c   15.61148482
_cell_angle_alpha   90.00000000
_cell_angle_beta   90.00000000
_cell_angle_gamma   120.00001297
_symmetry_Int_Tables_number   1
_chemical_formula_structural   CuNi149
_chemical_formula_sum   'Cu1 Ni149'
_cell_volume   3410.38293279
_cell_formula_units_Z   1
loop_
 _symmetry_equiv_pos_site_id
 _symmetry_equiv_pos_as_xyz
  1  'x, y, z'
loop_
 _atom_site_type_symbol
 _atom_site_label
 _atom_site_symmetry_multiplicity
 _atom_site_fract_x
 _atom_site_fract_y
 _atom_site_fract_z
 _atom_site_occupancy
  Ni  Ni0  1  0.39855809  0.00011387  0.00000000  1
  Ni  Ni1  1  0.60155578  0.00011387  0.00000000  1
  Ni  Ni2  1  0.19312111  0.00162080  0.00000000  1
  Ni  Ni3  1  0.80850068  0.00162180  0.00000000  1
  Ni  Ni4  1  0.99837920  0.19149932  0.00000000  1
  Ni  Ni5  1  0.19312111  0.19150032  0.00000000  1
  Ni  Ni6  1  0.39817057  0.19908479  0.00000000  1
  Ni  Ni7  1  0.80091521  0.19908479  0.00000000  1
  Ni  Ni8  1  0.59980695  0.19961289  0.00000000  1
  Ni  Ni9  1  0.19854379  0.39708757  0.00000000  1
  Ni  Ni10  1  0.99988613  0.39844322  0.00000000  1
  Ni  Ni11  1  0.39855809  0.39844422  0.00000000  1
  Ni  Ni12  1  0.80038711  0.40019405  0.00000000  1
  Ni  Ni13  1  0.59980695  0.40019405  0.00000000  1
  Ni  Ni14  1  0.40013601  0.59986399  0.00000000  1
  Ni  Ni15  1  0.19972798  0.59986399  0.00000000  1
  Ni  Ni16  1  0.99988613  0.60144191  0.00000000  1
  Ni  Ni17  1  0.60155578  0.60144191  0.00000000  1
  Ni  Ni18  1  0.80091521  0.60183043  0.00000000  1
  Ni  Ni19  1  0.40013601  0.80027102  0.00000000  1
  Ni  Ni20  1  0.19854379  0.80145621  0.00000000  1
  Ni  Ni21  1  0.60291243  0.80145621  0.00000000  1
  Ni  Ni22  1  0.99837920  0.80687889  0.00000000  1
  Ni  Ni23  1  0.80850068  0.80687889  0.00000000  1
  Ni  Ni24  1  0.06416466  0.12832931  0.15984538  1
  Ni  Ni25  1  0.06416466  0.93583534  0.15984538  1
  Ni  Ni26  1  0.87167069  0.93583534  0.15984538  1
  Ni  Ni27  1  0.06594645  0.33107760  0.16560311  1
  Ni  Ni28  1  0.26513014  0.33107760  0.16560311  1
  Ni  Ni29  1  0.06594645  0.73486886  0.16560311  1
  Ni  Ni30  1  0.66892240  0.73486986  0.16560311  1
  Ni  Ni31  1  0.66892240  0.93405355  0.16560311  1
  Ni  Ni32  1  0.26513014  0.93405355  0.16560311  1
  Ni  Ni33  1  0.46672343  0.53327757  0.16610145  1
  Ni  Ni34  1  0.06655513  0.53327757  0.16610145  1
  Ni  Ni35  1  0.46672343  0.93344587  0.16610145  1
  Ni  Ni36  1  0.26624935  0.53250070  0.16605108  1
  Ni  Ni37  1  0.26624935  0.73374965  0.16605108  1
  Ni  Ni38  1  0.46749930  0.73374965  0.16605108  1
  Ni  Ni39  1  0.66648769  0.13363526  0.16661022  1
  Ni  Ni40  1  0.46714857  0.13363626  0.16661022  1
  Ni  Ni41  1  0.86636474  0.33351231  0.16661022  1
  Ni  Ni42  1  0.46714857  0.33351231  0.16661022  1
  Ni  Ni43  1  0.66648769  0.53285243  0.16661022  1
  Ni  Ni44  1  0.86636474  0.53285243  0.16661022  1
  Ni  Ni45  1  0.66666700  0.33333300  0.16665081  1
  Ni  Ni46  1  0.26816675  0.13408338  0.16728737  1
  Ni  Ni47  1  0.86591662  0.13408338  0.16728737  1
  Ni  Ni48  1  0.86591662  0.73183325  0.16728737  1
  Ni  Ni49  1  0.00000000  0.00000000  0.33134613  1
  Ni  Ni50  1  0.80080433  0.99969926  0.33188335  1
  Ni  Ni51  1  0.19889494  0.99969926  0.33188335  1
  Ni  Ni52  1  0.19889494  0.19919567  0.33188335  1
  Ni  Ni53  1  0.00030074  0.19919567  0.33188335  1
  Ni  Ni54  1  0.00030074  0.80110506  0.33188335  1
  Ni  Ni55  1  0.80080433  0.80110506  0.33188335  1
  Ni  Ni56  1  0.39949712  0.99981933  0.33276713  1
  Ni  Ni57  1  0.60032221  0.99981933  0.33276713  1
  Ni  Ni58  1  0.39949712  0.39967779  0.33276713  1
  Ni  Ni59  1  0.00018067  0.39967779  0.33276713  1
  Ni  Ni60  1  0.60032221  0.60050188  0.33276713  1
  Ni  Ni61  1  0.00018067  0.60050288  0.33276713  1
  Ni  Ni62  1  0.19988619  0.39977239  0.33288790  1
  Ni  Ni63  1  0.19988619  0.80011381  0.33288790  1
  Ni  Ni64  1  0.60022761  0.80011381  0.33288790  1
  Ni  Ni65  1  0.20002160  0.60001080  0.33314990  1
  Ni  Ni66  1  0.39998920  0.60001080  0.33314990  1
  Ni  Ni67  1  0.39998920  0.79997940  0.33314990  1
  Ni  Ni68  1  0.59986097  0.19972294  0.33344267  1
  Ni  Ni69  1  0.59986097  0.40013803  0.33344267  1
  Ni  Ni70  1  0.80027706  0.40013903  0.33344267  1
  Ni  Ni71  1  0.39979272  0.19989636  0.33360800  1
  Ni  Ni72  1  0.80010364  0.19989636  0.33360800  1
  Ni  Ni73  1  0.80010364  0.60020728  0.33360800  1
  Ni  Ni74  1  0.06655535  0.13311070  0.50000000  1
  Ni  Ni75  1  0.86688796  0.13311204  0.50000000  1
  Ni  Ni76  1  0.26622507  0.13311204  0.50000000  1
  Ni  Ni77  1  0.46672570  0.13329394  0.50000000  1
  Ni  Ni78  1  0.66656924  0.13329394  0.50000000  1
  Ni  Ni79  1  0.06638622  0.33277008  0.50000000  1
  Ni  Ni80  1  0.26638386  0.33277108  0.50000000  1
  Ni  Ni81  1  0.66666700  0.33333300  0.50000000  1
  Ni  Ni82  1  0.86670506  0.33343076  0.50000000  1
  Ni  Ni83  1  0.46672570  0.33343076  0.50000000  1
  Ni  Ni84  1  0.26649146  0.53298192  0.50000000  1
  Ni  Ni85  1  0.46674272  0.53325728  0.50000000  1
  Ni  Ni86  1  0.06651557  0.53325828  0.50000000  1
  Ni  Ni87  1  0.86670506  0.53327430  0.50000000  1
  Ni  Ni88  1  0.66656924  0.53327430  0.50000000  1
  Ni  Ni89  1  0.46701808  0.73350954  0.50000000  1
  Ni  Ni90  1  0.26649146  0.73350954  0.50000000  1
  Ni  Ni91  1  0.06638622  0.73361614  0.50000000  1
  Ni  Ni92  1  0.66722992  0.73361614  0.50000000  1
  Ni  Ni93  1  0.86688796  0.73377593  0.50000000  1
  Ni  Ni94  1  0.46674272  0.93348443  0.50000000  1
  Ni  Ni95  1  0.06655535  0.93344465  0.50000000  1
  Ni  Ni96  1  0.86688930  0.93344465  0.50000000  1
  Ni  Ni97  1  0.66722992  0.93361378  0.50000000  1
  Ni  Ni98  1  0.26638386  0.93361378  0.50000000  1
  Ni  Ni99  1  0.39979272  0.19989636  0.66639200  1
  Ni  Ni100  1  0.80010364  0.19989636  0.66639200  1
  Ni  Ni101  1  0.80010364  0.60020728  0.66639200  1
  Ni  Ni102  1  0.59986097  0.19972294  0.66655833  1
  Ni  Ni103  1  0.59986097  0.40013803  0.66655833  1
  Ni  Ni104  1  0.80027706  0.40013903  0.66655833  1
  Ni  Ni105  1  0.20002160  0.60001080  0.66685010  1
  Ni  Ni106  1  0.39998920  0.60001080  0.66685010  1
  Ni  Ni107  1  0.39998920  0.79997940  0.66685010  1
  Ni  Ni108  1  0.19988619  0.39977239  0.66711210  1
  Ni  Ni109  1  0.19988619  0.80011381  0.66711210  1
  Ni  Ni110  1  0.60022761  0.80011381  0.66711210  1
  Ni  Ni111  1  0.39949712  0.99981933  0.66723287  1
  Ni  Ni112  1  0.60032221  0.99981933  0.66723287  1
  Ni  Ni113  1  0.39949712  0.39967779  0.66723287  1
  Ni  Ni114  1  0.00018067  0.39967779  0.66723287  1
  Ni  Ni115  1  0.60032221  0.60050188  0.66723287  1
  Ni  Ni116  1  0.00018067  0.60050288  0.66723287  1
  Ni  Ni117  1  0.80080433  0.99969926  0.66811665  1
  Ni  Ni118  1  0.19889494  0.99969926  0.66811665  1
  Ni  Ni119  1  0.19889494  0.19919567  0.66811665  1
  Ni  Ni120  1  0.00030074  0.19919567  0.66811665  1
  Ni  Ni121  1  0.00030074  0.80110506  0.66811665  1
  Ni  Ni122  1  0.80080433  0.80110506  0.66811665  1
  Ni  Ni123  1  0.00000000  0.00000000  0.66865387  1
  Ni  Ni124  1  0.26816675  0.13408338  0.83271263  1
  Ni  Ni125  1  0.86591662  0.13408338  0.83271263  1
  Ni  Ni126  1  0.86591662  0.73183325  0.83271263  1
  Ni  Ni127  1  0.66666700  0.33333300  0.83335019  1
  Ni  Ni128  1  0.66648769  0.13363526  0.83338978  1
  Ni  Ni129  1  0.46714857  0.13363626  0.83338978  1
  Ni  Ni130  1  0.86636474  0.33351231  0.83338978  1
  Ni  Ni131  1  0.46714857  0.33351231  0.83338978  1
  Ni  Ni132  1  0.66648769  0.53285243  0.83338978  1
  Ni  Ni133  1  0.86636474  0.53285243  0.83338978  1
  Ni  Ni134  1  0.26624935  0.53250070  0.83394892  1
  Ni  Ni135  1  0.26624935  0.73374965  0.83394892  1
  Ni  Ni136  1  0.46749930  0.73374965  0.83394892  1
  Ni  Ni137  1  0.46672343  0.53327757  0.83389855  1
  Ni  Ni138  1  0.06655513  0.53327757  0.83389855  1
  Ni  Ni139  1  0.46672343  0.93344587  0.83389855  1
  Ni  Ni140  1  0.06594645  0.33107760  0.83439689  1
  Ni  Ni141  1  0.26513014  0.33107760  0.83439689  1
  Ni  Ni142  1  0.06594645  0.73486886  0.83439689  1
  Ni  Ni143  1  0.66892240  0.73486986  0.83439689  1
  Ni  Ni144  1  0.66892240  0.93405355  0.83439689  1
  Ni  Ni145  1  0.26513014  0.93405355  0.83439689  1
  Ni  Ni146  1  0.06416466  0.12832931  0.84015362  1
  Ni  Ni147  1  0.06416466  0.93583534  0.84015362  1
  Ni  Ni148  1  0.87167069  0.93583534  0.84015362  1
  Cu  Cu149  1  0.00000000  0.00000000  0.00000000  1
