# generated using pymatgen
data_CuNi6C35
_symmetry_space_group_name_H-M   'P 1'
_cell_length_a   14.87980348
_cell_length_b   14.87980348
_cell_length_c   7.16793963
_cell_angle_alpha   85.62084646
_cell_angle_beta   85.62084646
_cell_angle_gamma   142.17012097
_symmetry_Int_Tables_number   1
_chemical_formula_structural   CuNi6C35
_chemical_formula_sum   'Cu2 Ni12 C70'
_cell_volume   945.97589854
_cell_formula_units_Z   2
loop_
 _symmetry_equiv_pos_site_id
 _symmetry_equiv_pos_as_xyz
  1  'x, y, z'
loop_
 _atom_site_type_symbol
 _atom_site_label
 _atom_site_symmetry_multiplicity
 _atom_site_fract_x
 _atom_site_fract_y
 _atom_site_fract_z
 _atom_site_occupancy
  C  C0  1  0.02507700  0.25123400  0.64213300  1
  C  C1  1  0.25123400  0.02507700  0.14213300  1
  C  C2  1  0.38297800  0.69941100  0.35860000  1
  C  C3  1  0.69941100  0.38297800  0.85860000  1
  C  C4  1  0.32333800  0.70366500  0.56032000  1
  C  C5  1  0.70366500  0.32333800  0.06032000  1
  C  C6  1  0.26186300  0.55222600  0.54289600  1
  C  C7  1  0.55222600  0.26186300  0.04289600  1
  C  C8  1  0.27772100  0.47189400  0.81698500  1
  C  C9  1  0.47189400  0.27772100  0.31698500  1
  C  C10  1  0.37718100  0.57657000  0.97391300  1
  C  C11  1  0.57657000  0.37718100  0.47391300  1
  C  C12  1  0.42194600  0.52265200  0.84914300  1
  C  C13  1  0.52265200  0.42194600  0.34914300  1
  C  C14  1  0.80328700  0.92073300  0.69582500  1
  C  C15  1  0.92073300  0.80328700  0.19582500  1
  C  C16  1  0.67277500  0.78823700  0.89169900  1
  C  C17  1  0.78823700  0.67277500  0.39169900  1
  C  C18  1  0.73440300  0.94269500  0.84283400  1
  C  C19  1  0.94269500  0.73440300  0.34283400  1
  C  C20  1  0.65602100  0.01224800  0.46304300  1
  C  C21  1  0.01224800  0.65602100  0.96304300  1
  C  C22  1  0.67496700  0.95771100  0.28857300  1
  C  C23  1  0.95771100  0.67496700  0.78857300  1
  C  C24  1  0.79169900  0.04511600  0.43501600  1
  C  C25  1  0.04511600  0.79169900  0.93501600  1
  C  C26  1  0.53461000  0.75989800  0.62662800  1
  C  C27  1  0.75989800  0.53461000  0.12662800  1
  Ni  Ni28  1  0.44970200  0.91295000  0.01892400  1
  Ni  Ni29  1  0.91295000  0.44970200  0.51892400  1
  Ni  Ni30  1  0.97739200  0.35364600  0.03543900  1
  Ni  Ni31  1  0.35364600  0.97739200  0.53543900  1
  Ni  Ni32  1  0.10130500  0.17705600  0.26945200  1
  Ni  Ni33  1  0.17705600  0.10130500  0.76945200  1
  Ni  Ni34  1  0.46767300  0.82814600  0.96046500  1
  Ni  Ni35  1  0.82814600  0.46767300  0.46046500  1
  Ni  Ni36  1  0.94080000  0.25505600  0.89924100  1
  Ni  Ni37  1  0.25505600  0.94080000  0.39924100  1
  Ni  Ni38  1  0.12434500  0.26900500  0.40364600  1
  Ni  Ni39  1  0.26900500  0.12434500  0.90364600  1
  Cu  Cu40  1  0.58929400  0.69720800  0.44410800  1
  Cu  Cu41  1  0.69720800  0.58929400  0.94410800  1
  C  C42  1  0.35422100  0.66735200  0.50668900  1
  C  C43  1  0.66735200  0.35422100  0.00668900  1
  C  C44  1  0.38404000  0.55748700  0.84201100  1
  C  C45  1  0.55748700  0.38404000  0.34201100  1
  C  C46  1  0.70594900  0.86386100  0.78239700  1
  C  C47  1  0.86386100  0.70594900  0.28239700  1
  C  C48  1  0.68176900  0.96804100  0.42819700  1
  C  C49  1  0.96804100  0.68176900  0.92819700  1
  C  C50  1  0.55601100  0.57544100  0.50674500  1
  C  C51  1  0.57544100  0.55601100  0.00674500  1
  C  C52  1  0.67471900  0.78142400  0.24564700  1
  C  C53  1  0.78142400  0.67471900  0.74564700  1
  C  C54  1  0.49360100  0.84440600  0.77845700  1
  C  C55  1  0.84440600  0.49360100  0.27845700  1
  C  C56  1  0.45206500  0.75345800  0.08965600  1
  C  C57  1  0.75345800  0.45206500  0.58965600  1
  C  C58  1  0.81279300  0.11944400  0.93817100  1
  C  C59  1  0.11944400  0.81279300  0.43817100  1
  C  C60  1  0.05349100  0.32914500  0.76192300  1
  C  C61  1  0.32914500  0.05349100  0.26192300  1
  C  C62  1  0.24412100  0.40528700  0.37256200  1
  C  C63  1  0.40528700  0.24412100  0.87256200  1
  C  C64  1  0.00344900  0.18366900  0.53750300  1
  C  C65  1  0.18366900  0.00344900  0.03750300  1
  C  C66  1  0.48108900  0.94616200  0.19430000  1
  C  C67  1  0.94616200  0.48108900  0.69430000  1
  C  C68  1  0.53961600  0.04339400  0.89124900  1
  C  C69  1  0.04339400  0.53961600  0.39124900  1
  C  C70  1  0.30392400  0.82359700  0.03256000  1
  C  C71  1  0.82359700  0.30392400  0.53256000  1
  C  C72  1  0.09953500  0.50288500  0.95229600  1
  C  C73  1  0.50288500  0.09953500  0.45229600  1
  C  C74  1  0.85973300  0.31573300  0.09425700  1
  C  C75  1  0.31573300  0.85973300  0.59425700  1
  C  C76  1  0.00762900  0.33332500  0.19706200  1
  C  C77  1  0.33332500  0.00762900  0.69706200  1
  C  C78  1  0.03884700  0.16507400  0.12558600  1
  C  C79  1  0.16507400  0.03884700  0.62558600  1
  C  C80  1  0.23380600  0.24544800  0.18684200  1
  C  C81  1  0.24544800  0.23380600  0.68684200  1
  C  C82  1  0.00781500  0.03463300  0.36333800  1
  C  C83  1  0.03463300  0.00781500  0.86333800  1
