# generated using pymatgen
data_CuNi14C15
_symmetry_space_group_name_H-M   'P 1'
_cell_length_a   9.15408958
_cell_length_b   9.15408958
_cell_length_c   10.02455100
_cell_angle_alpha   90.00000000
_cell_angle_beta   90.00000000
_cell_angle_gamma   119.99999694
_symmetry_Int_Tables_number   1
_chemical_formula_structural   CuNi14C15
_chemical_formula_sum   'Cu2 Ni28 C30'
_cell_volume   727.48809468
_cell_formula_units_Z   2
loop_
 _symmetry_equiv_pos_site_id
 _symmetry_equiv_pos_as_xyz
  1  'x, y, z'
loop_
 _atom_site_type_symbol
 _atom_site_label
 _atom_site_symmetry_multiplicity
 _atom_site_fract_x
 _atom_site_fract_y
 _atom_site_fract_z
 _atom_site_occupancy
  C  C0  1  0.95212900  0.19557900  0.75234200  1
  C  C1  1  0.24345100  0.04787100  0.75234200  1
  C  C2  1  0.04787100  0.80442100  0.25234200  1
  C  C3  1  0.80442100  0.75654900  0.75234200  1
  C  C4  1  0.75654900  0.95212900  0.25234200  1
  C  C5  1  0.19557900  0.24345100  0.25234200  1
  C  C6  1  0.00000000  0.00000000  0.96008600  1
  C  C7  1  0.00000000  0.00000000  0.46008600  1
  Ni  Ni8  1  0.66666700  0.33333300  0.88099400  1
  Ni  Ni9  1  0.33333300  0.66666700  0.38099400  1
  Ni  Ni10  1  0.73899000  0.13709900  0.44998300  1
  Ni  Ni11  1  0.39810900  0.26101000  0.44998300  1
  Ni  Ni12  1  0.26101000  0.86290100  0.94998300  1
  Ni  Ni13  1  0.86290100  0.60189100  0.44998300  1
  Ni  Ni14  1  0.60189100  0.73899000  0.94998300  1
  Ni  Ni15  1  0.13709900  0.39810900  0.94998300  1
  Ni  Ni16  1  0.66666700  0.33333300  0.28118300  1
  Ni  Ni17  1  0.33333300  0.66666700  0.78118300  1
  Ni  Ni18  1  0.45499600  0.82683700  0.71871400  1
  Ni  Ni19  1  0.37184100  0.54500400  0.71871400  1
  Ni  Ni20  1  0.54500400  0.17316300  0.21871400  1
  Ni  Ni21  1  0.17316300  0.62815900  0.71871400  1
  Ni  Ni22  1  0.62815900  0.45499600  0.21871400  1
  Ni  Ni23  1  0.82683700  0.37184100  0.21871400  1
  Ni  Ni24  1  0.18171400  0.60800100  0.79594000  1
  Ni  Ni25  1  0.42628700  0.81828600  0.79594000  1
  Ni  Ni26  1  0.81828600  0.39199900  0.29594000  1
  Ni  Ni27  1  0.39199900  0.57371300  0.79594000  1
  Ni  Ni28  1  0.57371300  0.18171400  0.29594000  1
  Ni  Ni29  1  0.60800100  0.42628700  0.29594000  1
  Ni  Ni30  1  0.09234700  0.44872700  0.95604200  1
  Ni  Ni31  1  0.35638000  0.90765300  0.95604200  1
  Ni  Ni32  1  0.90765300  0.55127300  0.45604200  1
  Ni  Ni33  1  0.55127300  0.64362000  0.95604200  1
  Ni  Ni34  1  0.64362000  0.09234700  0.45604200  1
  Ni  Ni35  1  0.44872700  0.35638000  0.45604200  1
  Cu  Cu36  1  0.66666700  0.33333300  0.69260900  1
  Cu  Cu37  1  0.33333300  0.66666700  0.19260900  1
  C  C38  1  0.66666700  0.33333300  0.01480800  1
  C  C39  1  0.33333300  0.66666700  0.51480800  1
  C  C40  1  0.82239900  0.97374900  0.89359500  1
  C  C41  1  0.15135000  0.17760100  0.89359500  1
  C  C42  1  0.17760100  0.02625100  0.39359500  1
  C  C43  1  0.02625100  0.84865000  0.89359500  1
  C  C44  1  0.84865000  0.82239900  0.39359500  1
  C  C45  1  0.97374900  0.15135000  0.39359500  1
  C  C46  1  0.78943500  0.30074200  0.69538900  1
  C  C47  1  0.51130700  0.21056500  0.69538900  1
  C  C48  1  0.21056500  0.69925800  0.19538900  1
  C  C49  1  0.69925800  0.48869300  0.69538900  1
  C  C50  1  0.48869300  0.78943500  0.19538900  1
  C  C51  1  0.30074200  0.51130700  0.19538900  1
  C  C52  1  0.29386300  0.49549800  0.55619800  1
  C  C53  1  0.20163500  0.70613700  0.55619800  1
  C  C54  1  0.70613700  0.50450200  0.05619800  1
  C  C55  1  0.50450200  0.79836500  0.55619800  1
  C  C56  1  0.79836500  0.29386300  0.05619800  1
  C  C57  1  0.49549800  0.20163500  0.05619800  1
  C  C58  1  0.00000000  0.00000000  0.62570700  1
  C  C59  1  0.00000000  0.00000000  0.12570700  1
