# generated using pymatgen
data_CuNiC10
_symmetry_space_group_name_H-M   'P 1'
_cell_length_a   5.16941200
_cell_length_b   8.98056200
_cell_length_c   13.49492300
_cell_angle_alpha   90.00000000
_cell_angle_beta   90.00000000
_cell_angle_gamma   90.00000000
_symmetry_Int_Tables_number   1
_chemical_formula_structural   CuNiC10
_chemical_formula_sum   'Cu4 Ni4 C40'
_cell_volume   626.49134130
_cell_formula_units_Z   4
loop_
 _symmetry_equiv_pos_site_id
 _symmetry_equiv_pos_as_xyz
  1  'x, y, z'
loop_
 _atom_site_type_symbol
 _atom_site_label
 _atom_site_symmetry_multiplicity
 _atom_site_fract_x
 _atom_site_fract_y
 _atom_site_fract_z
 _atom_site_occupancy
  C  C0  1  0.99821200  0.90360600  0.13660900  1
  C  C1  1  0.49821200  0.09639400  0.86339100  1
  C  C2  1  0.49821200  0.40360600  0.36339100  1
  C  C3  1  0.99821200  0.59639400  0.63660900  1
  C  C4  1  0.01422000  0.91068200  0.40240800  1
  C  C5  1  0.51422000  0.08931800  0.59759200  1
  C  C6  1  0.51422000  0.41068200  0.09759200  1
  C  C7  1  0.01422000  0.58931800  0.90240800  1
  C  C8  1  0.00038000  0.23859000  0.24674800  1
  C  C9  1  0.50038000  0.76141000  0.75325200  1
  C  C10  1  0.50038000  0.73859000  0.25325200  1
  C  C11  1  0.00038000  0.26141000  0.74674800  1
  Ni  Ni12  1  0.99860900  0.56930600  0.22690300  1
  Ni  Ni13  1  0.49860900  0.43069400  0.77309700  1
  Ni  Ni14  1  0.49860900  0.06930600  0.27309700  1
  Ni  Ni15  1  0.99860900  0.93069400  0.72690300  1
  Cu  Cu16  1  0.02280800  0.22948000  0.99627700  1
  Cu  Cu17  1  0.52280800  0.77052000  0.00372300  1
  Cu  Cu18  1  0.52280800  0.72948000  0.50372300  1
  Cu  Cu19  1  0.02280800  0.27052000  0.49627700  1
  C  C20  1  0.32461400  0.24477800  0.99062300  1
  C  C21  1  0.82461400  0.75522200  0.00937700  1
  C  C22  1  0.82461400  0.74477800  0.50937700  1
  C  C23  1  0.32461400  0.25522200  0.49062300  1
  C  C24  1  0.94015300  0.13956400  0.08957000  1
  C  C25  1  0.44015300  0.86043600  0.91043000  1
  C  C26  1  0.44015300  0.63956400  0.41043000  1
  C  C27  1  0.94015300  0.36043600  0.58957000  1
  C  C28  1  0.89725400  0.38674300  0.00380200  1
  C  C29  1  0.39725400  0.61325700  0.99619800  1
  C  C30  1  0.39725400  0.88674300  0.49619800  1
  C  C31  1  0.89725400  0.11325700  0.50380200  1
  C  C32  1  0.43395500  0.85549400  0.09809600  1
  C  C33  1  0.93395500  0.14450600  0.90190400  1
  C  C34  1  0.93395500  0.35549400  0.40190400  1
  C  C35  1  0.43395500  0.64450600  0.59809600  1
  C  C36  1  0.06347000  0.71659800  0.24700200  1
  C  C37  1  0.56347000  0.28340200  0.75299800  1
  C  C38  1  0.56347000  0.21659800  0.25299800  1
  C  C39  1  0.06347000  0.78340200  0.74700200  1
  C  C40  1  0.18932500  0.46041300  0.21801800  1
  C  C41  1  0.68932500  0.53958700  0.78198200  1
  C  C42  1  0.68932500  0.96041300  0.28198200  1
  C  C43  1  0.18932500  0.03958700  0.71801800  1
  C  C44  1  0.23678100  0.03282700  0.28040200  1
  C  C45  1  0.73678100  0.96717300  0.71959800  1
  C  C46  1  0.73678100  0.53282700  0.21959800  1
  C  C47  1  0.23678100  0.46717300  0.78040200  1
