# generated using pymatgen
data_Cu(Ni3C)2
_symmetry_space_group_name_H-M   'P 1'
_cell_length_a   4.06163600
_cell_length_b   4.08531500
_cell_length_c   11.14971629
_cell_angle_alpha   90.00000000
_cell_angle_beta   100.49447897
_cell_angle_gamma   90.00000000
_symmetry_Int_Tables_number   1
_chemical_formula_structural   Cu(Ni3C)2
_chemical_formula_sum   'Cu1 Ni6 C2'
_cell_volume   181.91321187
_cell_formula_units_Z   1
loop_
 _symmetry_equiv_pos_site_id
 _symmetry_equiv_pos_as_xyz
  1  'x, y, z'
loop_
 _atom_site_type_symbol
 _atom_site_label
 _atom_site_symmetry_multiplicity
 _atom_site_fract_x
 _atom_site_fract_y
 _atom_site_fract_z
 _atom_site_occupancy
  C  C0  1  0.77781300  0.50000000  0.55562500  1
  C  C1  1  0.11704900  0.50000000  0.23409700  1
  Ni  Ni2  1  0.49306000  0.50000000  0.98611900  1
  Ni  Ni3  1  0.37878300  0.50000000  0.75756600  1
  Ni  Ni4  1  0.99207500  0.00000000  0.98415000  1
  Ni  Ni5  1  0.87754500  0.00000000  0.75509000  1
  Ni  Ni6  1  0.67011300  0.00000000  0.34022600  1
  Ni  Ni7  1  0.24086000  0.00000000  0.48172000  1
  Cu  Cu8  1  0.55970300  0.00000000  0.11940700  1
