# generated using pymatgen
data_Cu3NiC2
_symmetry_space_group_name_H-M   'P 1'
_cell_length_a   6.23883000
_cell_length_b   8.81875100
_cell_length_c   13.39413600
_cell_angle_alpha   90.00000000
_cell_angle_beta   90.00000000
_cell_angle_gamma   90.00000000
_symmetry_Int_Tables_number   1
_chemical_formula_structural   Cu3NiC2
_chemical_formula_sum   'Cu12 Ni4 C8'
_cell_volume   736.92779365
_cell_formula_units_Z   4
loop_
 _symmetry_equiv_pos_site_id
 _symmetry_equiv_pos_as_xyz
  1  'x, y, z'
loop_
 _atom_site_type_symbol
 _atom_site_label
 _atom_site_symmetry_multiplicity
 _atom_site_fract_x
 _atom_site_fract_y
 _atom_site_fract_z
 _atom_site_occupancy
  C  C0  1  0.23569000  0.34261800  0.57921600  1
  C  C1  1  0.76431000  0.65738200  0.07921600  1
  C  C2  1  0.26431000  0.84261800  0.92078400  1
  C  C3  1  0.73569000  0.15738200  0.42078400  1
  C  C4  1  0.73569000  0.15738200  0.07921600  1
  C  C5  1  0.23569000  0.34261800  0.92078400  1
  C  C6  1  0.76431000  0.65738200  0.42078400  1
  C  C7  1  0.26431000  0.84261800  0.57921600  1
  Ni  Ni8  1  0.71458700  0.07349200  0.75000000  1
  Ni  Ni9  1  0.78541300  0.57349200  0.75000000  1
  Ni  Ni10  1  0.21458700  0.42650800  0.25000000  1
  Ni  Ni11  1  0.28541300  0.92650800  0.25000000  1
  Cu  Cu12  1  0.78190700  0.91277900  0.89119400  1
  Cu  Cu13  1  0.28190700  0.58722100  0.10880600  1
  Cu  Cu14  1  0.71809300  0.41277900  0.60880600  1
  Cu  Cu15  1  0.21809300  0.08722100  0.39119400  1
  Cu  Cu16  1  0.21809300  0.08722100  0.10880600  1
  Cu  Cu17  1  0.71809300  0.41277900  0.89119400  1
  Cu  Cu18  1  0.28190700  0.58722100  0.39119400  1
  Cu  Cu19  1  0.32796400  0.07889600  0.75000000  1
  Cu  Cu20  1  0.67203600  0.92110400  0.25000000  1
  Cu  Cu21  1  0.17203600  0.57889600  0.75000000  1
  Cu  Cu22  1  0.82796400  0.42110400  0.25000000  1
  Cu  Cu23  1  0.78190700  0.91277900  0.60880600  1
