# generated using pymatgen
data_Cu8Ni2C25
_symmetry_space_group_name_H-M   'P 1'
_cell_length_a   5.85348579
_cell_length_b   10.52770400
_cell_length_c   15.14910395
_cell_angle_alpha   90.00000000
_cell_angle_beta   97.11665879
_cell_angle_gamma   90.00000000
_symmetry_Int_Tables_number   1
_chemical_formula_structural   Cu8Ni2C25
_chemical_formula_sum   'Cu16 Ni4 C50'
_cell_volume   926.35276554
_cell_formula_units_Z   2
loop_
 _symmetry_equiv_pos_site_id
 _symmetry_equiv_pos_as_xyz
  1  'x, y, z'
loop_
 _atom_site_type_symbol
 _atom_site_label
 _atom_site_symmetry_multiplicity
 _atom_site_fract_x
 _atom_site_fract_y
 _atom_site_fract_z
 _atom_site_occupancy
  C  C0  1  0.62789100  0.24916300  0.32506800  1
  C  C1  1  0.12789100  0.25083700  0.82506800  1
  C  C2  1  0.37210900  0.75083700  0.67493200  1
  C  C3  1  0.87210900  0.74916300  0.17493200  1
  C  C4  1  0.08846300  0.05593600  0.25744900  1
  C  C5  1  0.58846300  0.44406400  0.75744900  1
  C  C6  1  0.91153700  0.94406400  0.74255100  1
  C  C7  1  0.41153700  0.55593600  0.24255100  1
  C  C8  1  0.00000000  0.50000000  0.00000000  1
  C  C9  1  0.50000000  0.00000000  0.50000000  1
  Ni  Ni10  1  0.92467500  0.18643600  0.04706900  1
  Ni  Ni11  1  0.42467500  0.31356400  0.54706900  1
  Ni  Ni12  1  0.07532500  0.81356400  0.95293100  1
  Ni  Ni13  1  0.57532500  0.68643600  0.45293100  1
  C  C14  1  0.95154200  0.05910000  0.92961600  1
  C  C15  1  0.45154200  0.44090000  0.42961600  1
  C  C16  1  0.04845800  0.94090000  0.07038400  1
  C  C17  1  0.54845800  0.55910000  0.57038400  1
  Cu  Cu18  1  0.62388800  0.16988700  0.05166600  1
  Cu  Cu19  1  0.12388800  0.33011300  0.55166600  1
  Cu  Cu20  1  0.37611200  0.83011300  0.94833400  1
  Cu  Cu21  1  0.87611200  0.66988700  0.44833400  1
  Cu  Cu22  1  0.41113200  0.84808900  0.23741800  1
  Cu  Cu23  1  0.91113200  0.65191100  0.73741800  1
  Cu  Cu24  1  0.58886800  0.15191100  0.76258200  1
  Cu  Cu25  1  0.08886800  0.34808900  0.26258200  1
  Cu  Cu26  1  0.56169800  0.96949200  0.24558700  1
  Cu  Cu27  1  0.06169800  0.53050800  0.74558700  1
  Cu  Cu28  1  0.43830200  0.03050700  0.75441300  1
  Cu  Cu29  1  0.93830200  0.46949200  0.25441300  1
  Cu  Cu30  1  0.97776400  0.03068200  0.45290400  1
  Cu  Cu31  1  0.47776400  0.46931800  0.95290400  1
  Cu  Cu32  1  0.02223600  0.96931800  0.54709600  1
  Cu  Cu33  1  0.52223600  0.53068200  0.04709600  1
  C  C34  1  0.98793900  0.32457100  0.06110900  1
  C  C35  1  0.48793900  0.17542900  0.56110900  1
  C  C36  1  0.01206100  0.67542900  0.93889100  1
  C  C37  1  0.51206100  0.82457100  0.43889100  1
  C  C38  1  0.04788800  0.08841300  0.11083500  1
  C  C39  1  0.54788800  0.41158700  0.61083500  1
  C  C40  1  0.95211200  0.91158700  0.88916500  1
  C  C41  1  0.45211200  0.58841300  0.38916500  1
  C  C42  1  0.97049200  0.15141100  0.94802500  1
  C  C43  1  0.47049200  0.34858900  0.44802500  1
  C  C44  1  0.02950800  0.84858900  0.05197500  1
  C  C45  1  0.52950800  0.65141100  0.55197500  1
  C  C46  1  0.19965000  0.86348900  0.24226000  1
  C  C47  1  0.69965000  0.63651100  0.74226000  1
  C  C48  1  0.80035000  0.13651100  0.75774000  1
  C  C49  1  0.30035000  0.36348900  0.25774000  1
  C  C50  1  0.50994400  0.74291900  0.22599100  1
  C  C51  1  0.00994400  0.75708100  0.72599100  1
  C  C52  1  0.49005600  0.25708100  0.77400900  1
  C  C53  1  0.99005600  0.24291900  0.27400900  1
  C  C54  1  0.77217700  0.95669800  0.23769200  1
  C  C55  1  0.27217700  0.54330200  0.73769200  1
  C  C56  1  0.22782300  0.04330200  0.76230800  1
  C  C57  1  0.72782300  0.45669800  0.26230800  1
  C  C58  1  0.45686800  0.07135500  0.25989000  1
  C  C59  1  0.95686800  0.42864500  0.75989000  1
  C  C60  1  0.54313200  0.92864500  0.74011000  1
  C  C61  1  0.04313200  0.57135500  0.24011000  1
  C  C62  1  0.77552600  0.06705300  0.42594100  1
  C  C63  1  0.27552600  0.43294700  0.92594100  1
  C  C64  1  0.22447400  0.93294700  0.57405900  1
  C  C65  1  0.72447400  0.56705300  0.07405900  1
  C  C66  1  0.15102300  0.03890200  0.40966500  1
  C  C67  1  0.65102300  0.46109800  0.90966500  1
  C  C68  1  0.84897700  0.96109800  0.59033500  1
  C  C69  1  0.34897700  0.53890200  0.09033500  1
