# generated using pymatgen
data_Cu3(NiC4)2
_symmetry_space_group_name_H-M   'P 1'
_cell_length_a   5.81041033
_cell_length_b   5.81041033
_cell_length_c   4.82265225
_cell_angle_alpha   72.73308454
_cell_angle_beta   72.73308454
_cell_angle_gamma   58.35602092
_symmetry_Int_Tables_number   1
_chemical_formula_structural   Cu3(NiC4)2
_chemical_formula_sum   'Cu3 Ni2 C8'
_cell_volume   130.35433390
_cell_formula_units_Z   1
loop_
 _symmetry_equiv_pos_site_id
 _symmetry_equiv_pos_as_xyz
  1  'x, y, z'
loop_
 _atom_site_type_symbol
 _atom_site_label
 _atom_site_symmetry_multiplicity
 _atom_site_fract_x
 _atom_site_fract_y
 _atom_site_fract_z
 _atom_site_occupancy
  Ni  Ni0  1  0.71839200  0.71839200  0.34305700  1
  Ni  Ni1  1  0.28160800  0.28160800  0.65694300  1
  Cu  Cu2  1  0.00000000  0.00000000  0.50000000  1
  Cu  Cu3  1  0.74368700  0.25631300  0.00000000  1
  Cu  Cu4  1  0.25631300  0.74368700  0.00000000  1
  C  C5  1  0.39646200  0.39646200  0.93200400  1
  C  C6  1  0.60353800  0.60353800  0.06799600  1
  C  C7  1  0.89617400  0.89617400  0.91474300  1
  C  C8  1  0.10382600  0.10382600  0.08525700  1
  C  C9  1  0.33629700  0.88624500  0.60004400  1
  C  C10  1  0.88624500  0.33629700  0.60004400  1
  C  C11  1  0.11375500  0.66370300  0.39995600  1
  C  C12  1  0.66370300  0.11375500  0.39995600  1
