# generated using pymatgen
data_Cu2Ni4C13
_symmetry_space_group_name_H-M   'P 1'
_cell_length_a   5.08299702
_cell_length_b   5.08189630
_cell_length_c   10.23773954
_cell_angle_alpha   89.94927170
_cell_angle_beta   90.96174204
_cell_angle_gamma   59.61752672
_symmetry_Int_Tables_number   1
_chemical_formula_structural   Cu2Ni4C13
_chemical_formula_sum   'Cu2 Ni4 C13'
_cell_volume   228.09028896
_cell_formula_units_Z   1
loop_
 _symmetry_equiv_pos_site_id
 _symmetry_equiv_pos_as_xyz
  1  'x, y, z'
loop_
 _atom_site_type_symbol
 _atom_site_label
 _atom_site_symmetry_multiplicity
 _atom_site_fract_x
 _atom_site_fract_y
 _atom_site_fract_z
 _atom_site_occupancy
  C  C0  1  0.49533600  0.83335900  0.25008300  1
  Ni  Ni1  1  0.33145900  0.33154400  0.00052200  1
  Ni  Ni2  1  0.32805300  0.83358500  0.51105300  1
  Ni  Ni3  1  0.66688700  0.16608200  0.49955700  1
  Ni  Ni4  1  0.67241100  0.66438100  0.98936800  1
  Cu  Cu5  1  0.99768200  0.00422700  0.99079400  1
  Cu  Cu6  1  0.99786200  0.50315300  0.50879300  1
  C  C7  1  0.99477700  0.15846900  0.59739300  1
  C  C8  1  0.00361300  0.34424900  0.09668500  1
  C  C9  1  0.00587600  0.65247200  0.90193300  1
  C  C10  1  0.34420000  0.00847700  0.89985800  1
  C  C11  1  0.00009400  0.84603500  0.40374400  1
  C  C12  1  0.34174400  0.14413600  0.39939600  1
  C  C13  1  0.34810200  0.49321500  0.59821500  1
  C  C14  1  0.34900600  0.67077100  0.09793400  1
  C  C15  1  0.65329200  0.98427700  0.10182800  1
  C  C16  1  0.65920700  0.33443700  0.90423200  1
  C  C17  1  0.64621000  0.51841600  0.39999700  1
  C  C18  1  0.66418800  0.84621600  0.59861500  1
