# generated using pymatgen
data_CuNi4C7
_symmetry_space_group_name_H-M   'P 1'
_cell_length_a   9.11495852
_cell_length_b   14.17056296
_cell_length_c   11.36078811
_cell_angle_alpha   90.00000000
_cell_angle_beta   90.00000000
_cell_angle_gamma   90.00000000
_symmetry_Int_Tables_number   1
_chemical_formula_structural   CuNi4C7
_chemical_formula_sum   'Cu4 Ni16 C28'
_cell_volume   1467.40589864
_cell_formula_units_Z   4
loop_
 _symmetry_equiv_pos_site_id
 _symmetry_equiv_pos_as_xyz
  1  'x, y, z'
loop_
 _atom_site_type_symbol
 _atom_site_label
 _atom_site_symmetry_multiplicity
 _atom_site_fract_x
 _atom_site_fract_y
 _atom_site_fract_z
 _atom_site_occupancy
  C  C0  1  0.75000000  0.85769057  0.32051443  1
  C  C1  1  0.25000000  0.14230943  0.67948557  1
  C  C2  1  0.25000000  0.64230943  0.82051443  1
  C  C3  1  0.75000000  0.35769057  0.17948557  1
  C  C4  1  0.75000000  0.96243837  0.67235582  1
  C  C5  1  0.25000000  0.03756163  0.32764418  1
  C  C6  1  0.25000000  0.53756163  0.17235582  1
  C  C7  1  0.75000000  0.46243837  0.82764418  1
  Ni  Ni8  1  0.75000000  0.00468079  0.46192729  1
  Ni  Ni9  1  0.25000000  0.99531921  0.53807271  1
  Ni  Ni10  1  0.25000000  0.49531921  0.96192729  1
  Ni  Ni11  1  0.75000000  0.50468079  0.03807271  1
  Ni  Ni12  1  0.97481273  0.63640830  0.79438254  1
  Ni  Ni13  1  0.02518727  0.36359170  0.20561746  1
  Ni  Ni14  1  0.02518727  0.86359170  0.29438254  1
  Ni  Ni15  1  0.47481273  0.36359170  0.20561746  1
  Ni  Ni16  1  0.97481273  0.13640830  0.70561746  1
  Ni  Ni17  1  0.52518727  0.63640830  0.79438254  1
  Ni  Ni18  1  0.52518727  0.13640830  0.70561746  1
  Ni  Ni19  1  0.47481273  0.86359170  0.29438254  1
  Ni  Ni20  1  0.75000000  0.68725572  0.28612283  1
  Ni  Ni21  1  0.25000000  0.31274428  0.71387717  1
  Ni  Ni22  1  0.25000000  0.81274428  0.78612283  1
  Ni  Ni23  1  0.75000000  0.18725572  0.21387717  1
  C  C24  1  0.81110412  0.82185899  0.99194742  1
  C  C25  1  0.18889588  0.17814101  0.00805258  1
  C  C26  1  0.18889588  0.67814101  0.49194742  1
  C  C27  1  0.31110412  0.17814101  0.00805258  1
  C  C28  1  0.81110412  0.32185899  0.50805258  1
  C  C29  1  0.68889588  0.82185899  0.99194742  1
  C  C30  1  0.68889588  0.32185899  0.50805258  1
  C  C31  1  0.31110412  0.67814101  0.49194742  1
  C  C32  1  0.92555392  0.01049961  0.72764728  1
  C  C33  1  0.07444608  0.98950039  0.27235272  1
  C  C34  1  0.07444608  0.48950039  0.22764728  1
  C  C35  1  0.42555392  0.98950039  0.27235272  1
  C  C36  1  0.92555392  0.51049961  0.77235272  1
  C  C37  1  0.57444608  0.01049961  0.72764728  1
  C  C38  1  0.57444608  0.51049961  0.77235272  1
  C  C39  1  0.42555392  0.48950039  0.22764728  1
  C  C40  1  0.75000000  0.84737206  0.70078129  1
  C  C41  1  0.25000000  0.15262794  0.29921871  1
  C  C42  1  0.25000000  0.65262794  0.20078129  1
  C  C43  1  0.75000000  0.34737206  0.79921871  1
  Cu  Cu44  1  0.75000000  0.56212516  0.42779165  1
  Cu  Cu45  1  0.25000000  0.43787484  0.57220835  1
  Cu  Cu46  1  0.25000000  0.93787484  0.92779165  1
  Cu  Cu47  1  0.75000000  0.06212516  0.07220835  1
