# generated using pymatgen
data_Cu2NiC7
_symmetry_space_group_name_H-M   'P 1'
_cell_length_a   9.26354200
_cell_length_b   5.36368600
_cell_length_c   10.41717738
_cell_angle_alpha   75.27763210
_cell_angle_beta   90.00000000
_cell_angle_gamma   90.00000000
_symmetry_Int_Tables_number   1
_chemical_formula_structural   Cu2NiC7
_chemical_formula_sum   'Cu8 Ni4 C28'
_cell_volume   500.60210783
_cell_formula_units_Z   4
loop_
 _symmetry_equiv_pos_site_id
 _symmetry_equiv_pos_as_xyz
  1  'x, y, z'
loop_
 _atom_site_type_symbol
 _atom_site_label
 _atom_site_symmetry_multiplicity
 _atom_site_fract_x
 _atom_site_fract_y
 _atom_site_fract_z
 _atom_site_occupancy
  C  C0  1  0.45276100  0.52925200  0.27350100  1
  C  C1  1  0.95276100  0.97074800  0.72649900  1
  C  C2  1  0.54723900  0.47074800  0.72649900  1
  C  C3  1  0.04723900  0.02925200  0.27350100  1
  Ni  Ni4  1  0.66091000  0.03115000  0.23591700  1
  Ni  Ni5  1  0.16091000  0.46885000  0.76408300  1
  Ni  Ni6  1  0.33909000  0.96885000  0.76408300  1
  Ni  Ni7  1  0.83909000  0.53115000  0.23591700  1
  Cu  Cu8  1  0.34621600  0.16962500  0.04414700  1
  Cu  Cu9  1  0.84621600  0.33037500  0.95585300  1
  Cu  Cu10  1  0.65378400  0.83037500  0.95585300  1
  Cu  Cu11  1  0.15378400  0.66962500  0.04414700  1
  Cu  Cu12  1  0.35116000  0.90315600  0.48457300  1
  Cu  Cu13  1  0.85116000  0.59684400  0.51542700  1
  Cu  Cu14  1  0.64884000  0.09684400  0.51542700  1
  Cu  Cu15  1  0.14884000  0.40315600  0.48457300  1
  C  C16  1  0.24629900  0.68660400  0.39505000  1
  C  C17  1  0.74629900  0.81339600  0.60495000  1
  C  C18  1  0.75370100  0.31339600  0.60495000  1
  C  C19  1  0.25370100  0.18660400  0.39505000  1
  C  C20  1  0.30842500  0.82613000  0.09993900  1
  C  C21  1  0.80842500  0.67387000  0.90006100  1
  C  C22  1  0.69157500  0.17387000  0.90006100  1
  C  C23  1  0.19157500  0.32613000  0.09993900  1
  C  C24  1  0.97684200  0.34774400  0.41850600  1
  C  C25  1  0.47684200  0.15225600  0.58149400  1
  C  C26  1  0.02315800  0.65225600  0.58149400  1
  C  C27  1  0.52315800  0.84774400  0.41850600  1
  C  C28  1  0.01252600  0.73497400  0.13931300  1
  C  C29  1  0.51252600  0.76502600  0.86068700  1
  C  C30  1  0.98747400  0.26502600  0.86068700  1
  C  C31  1  0.48747400  0.23497400  0.13931300  1
  C  C32  1  0.35161000  0.25806700  0.87007500  1
  C  C33  1  0.85161000  0.24193300  0.12992500  1
  C  C34  1  0.64839000  0.74193300  0.12992500  1
  C  C35  1  0.14839000  0.75806700  0.87007500  1
  C  C36  1  0.32764400  0.70180400  0.64799100  1
  C  C37  1  0.82764400  0.79819600  0.35200900  1
  C  C38  1  0.67235600  0.29819600  0.35200900  1
  C  C39  1  0.17235600  0.20180400  0.64799100  1
