# generated using pymatgen
data_CuNi7C32
_symmetry_space_group_name_H-M   'P 1'
_cell_length_a   7.82344996
_cell_length_b   7.82344996
_cell_length_c   7.77963000
_cell_angle_alpha   90.00000000
_cell_angle_beta   90.00000000
_cell_angle_gamma   90.00962177
_symmetry_Int_Tables_number   1
_chemical_formula_structural   CuNi7C32
_chemical_formula_sum   'Cu1 Ni7 C32'
_cell_volume   476.16289999
_cell_formula_units_Z   1
loop_
 _symmetry_equiv_pos_site_id
 _symmetry_equiv_pos_as_xyz
  1  'x, y, z'
loop_
 _atom_site_type_symbol
 _atom_site_label
 _atom_site_symmetry_multiplicity
 _atom_site_fract_x
 _atom_site_fract_y
 _atom_site_fract_z
 _atom_site_occupancy
  Ni  Ni0  1  0.74941000  0.25062000  0.50000000  1
  Ni  Ni1  1  0.25059100  0.25059100  0.50000000  1
  Ni  Ni2  1  0.25062000  0.74941000  0.50000000  1
  Ni  Ni3  1  0.74938700  0.25057900  0.00000000  1
  Ni  Ni4  1  0.25057600  0.25057600  0.00000000  1
  Ni  Ni5  1  0.74942000  0.74942000  0.00000000  1
  Ni  Ni6  1  0.25057900  0.74938700  0.00000000  1
  Cu  Cu7  1  0.74935500  0.74935500  0.50000000  1
  C  C8  1  0.50049800  0.50049800  0.74943800  1
  C  C9  1  0.50049800  0.50049800  0.25056200  1
  C  C10  1  0.99942800  0.99942800  0.74942300  1
  C  C11  1  0.50056500  0.99938800  0.74944500  1
  C  C12  1  0.99938800  0.50056500  0.74944500  1
  C  C13  1  0.99942800  0.99942800  0.25057700  1
  C  C14  1  0.50056500  0.99938800  0.25055500  1
  C  C15  1  0.99938800  0.50056500  0.25055500  1
  C  C16  1  0.99735400  0.99735400  0.50000000  1
  C  C17  1  0.50260600  0.99737900  0.50000000  1
  C  C18  1  0.99737900  0.50260600  0.50000000  1
  C  C19  1  0.50277200  0.50277200  0.50000000  1
  C  C20  1  0.99966100  0.99966100  0.00000000  1
  C  C21  1  0.50033900  0.99966600  0.00000000  1
  C  C22  1  0.99966600  0.50033900  0.00000000  1
  C  C23  1  0.50025100  0.50025100  0.00000000  1
  C  C24  1  0.99964100  0.24905600  0.74966000  1
  C  C25  1  0.50034800  0.25448000  0.74968000  1
  C  C26  1  0.99737100  0.75094200  0.74733300  1
  C  C27  1  0.50274200  0.74555800  0.74727600  1
  C  C28  1  0.99964100  0.24905600  0.25034000  1
  C  C29  1  0.50034800  0.25448000  0.25032000  1
  C  C30  1  0.99737100  0.75094200  0.25266700  1
  C  C31  1  0.50274200  0.74555800  0.25272400  1
  C  C32  1  0.75094200  0.99737100  0.74733300  1
  C  C33  1  0.24905600  0.99964100  0.74966000  1
  C  C34  1  0.74555800  0.50274200  0.74727600  1
  C  C35  1  0.25448000  0.50034800  0.74968000  1
  C  C36  1  0.75094200  0.99737100  0.25266700  1
  C  C37  1  0.24905600  0.99964100  0.25034000  1
  C  C38  1  0.74555800  0.50274200  0.25272400  1
  C  C39  1  0.25448000  0.50034800  0.25032000  1
