# generated using pymatgen
data_CuNiC8
_symmetry_space_group_name_H-M   'P 1'
_cell_length_a   6.02875011
_cell_length_b   6.03394920
_cell_length_c   8.51935956
_cell_angle_alpha   90.26578017
_cell_angle_beta   89.72012137
_cell_angle_gamma   89.85383150
_symmetry_Int_Tables_number   1
_chemical_formula_structural   CuNiC8
_chemical_formula_sum   'Cu2 Ni2 C16'
_cell_volume   309.90214855
_cell_formula_units_Z   2
loop_
 _symmetry_equiv_pos_site_id
 _symmetry_equiv_pos_as_xyz
  1  'x, y, z'
loop_
 _atom_site_type_symbol
 _atom_site_label
 _atom_site_symmetry_multiplicity
 _atom_site_fract_x
 _atom_site_fract_y
 _atom_site_fract_z
 _atom_site_occupancy
  C  C0  1  0.99617578  0.01712471  0.24992584  1
  C  C1  1  0.00382422  0.98287529  0.75007416  1
  Ni  Ni2  1  0.50451399  0.52830830  0.25203373  1
  Ni  Ni3  1  0.49548601  0.47169170  0.74796627  1
  Cu  Cu4  1  0.50000000  -0.00000000  -0.00000000  1
  Cu  Cu5  1  0.00000000  0.50000000  0.50000000  1
  C  C6  1  0.00000000  0.50000000  -0.00000000  1
  C  C7  1  0.50000000  -0.00000000  0.50000000  1
  C  C8  1  0.20797987  0.24119986  0.96887769  1
  C  C9  1  0.30067768  0.73372899  0.53678413  1
  C  C10  1  0.79202013  0.75880014  0.03112231  1
  C  C11  1  0.69932232  0.26627101  0.46321587  1
  C  C12  1  0.26148317  0.70376037  0.96074293  1
  C  C13  1  0.24033134  0.20786519  0.52423806  1
  C  C14  1  0.73851683  0.29623963  0.03925707  1
  C  C15  1  0.75966866  0.79213481  0.47576194  1
  C  C16  1  0.44788957  0.96952300  0.26703014  1
  C  C17  1  0.07273789  0.49984679  0.23241129  1
  C  C18  1  0.55211043  0.03047700  0.73296986  1
  C  C19  1  0.92726211  0.50015321  0.76758871  1
