# generated using pymatgen
data_CuNi14C
_symmetry_space_group_name_H-M   'P 1'
_cell_length_a   6.50803506
_cell_length_b   6.33430095
_cell_length_c   10.30121009
_cell_angle_alpha   90.00000000
_cell_angle_beta   90.00000000
_cell_angle_gamma   119.12079146
_symmetry_Int_Tables_number   1
_chemical_formula_structural   CuNi14C
_chemical_formula_sum   'Cu1 Ni14 C1'
_cell_volume   370.97727065
_cell_formula_units_Z   1
loop_
 _symmetry_equiv_pos_site_id
 _symmetry_equiv_pos_as_xyz
  1  'x, y, z'
loop_
 _atom_site_type_symbol
 _atom_site_label
 _atom_site_symmetry_multiplicity
 _atom_site_fract_x
 _atom_site_fract_y
 _atom_site_fract_z
 _atom_site_occupancy
  C  C0  1  0.15026473  0.32513187  0.12500000  1
  Ni  Ni1  1  0.16512472  0.33256186  0.62500000  1
  Ni  Ni2  1  0.16053743  0.83026821  0.62500000  1
  Ni  Ni3  1  0.64670726  0.31519323  0.12500000  1
  Ni  Ni4  1  0.66580005  0.33703209  0.62500000  1
  Ni  Ni5  1  0.64670726  0.83151302  0.12500000  1
  Ni  Ni6  1  0.66580005  0.82876695  0.62500000  1
  Ni  Ni7  1  0.33744916  0.16659697  0.38013282  1
  Ni  Ni8  1  0.33744916  0.16659697  0.86986718  1
  Ni  Ni9  1  0.33744916  0.67085320  0.38013282  1
  Ni  Ni10  1  0.33744916  0.67085320  0.86986718  1
  Ni  Ni11  1  0.83144863  0.16572482  0.38450027  1
  Ni  Ni12  1  0.83144863  0.16572482  0.86549973  1
  Ni  Ni13  1  0.84599216  0.67299658  0.35841395  1
  Ni  Ni14  1  0.84599216  0.67299658  0.89158605  1
  Cu  Cu15  1  0.19438027  0.84718963  0.12500000  1
