# generated using pymatgen
data_CuNi3C17
_symmetry_space_group_name_H-M   'P 1'
_cell_length_a   8.29683050
_cell_length_b   10.02175045
_cell_length_c   8.29683042
_cell_angle_alpha   65.54734861
_cell_angle_beta   119.99999400
_cell_angle_gamma   114.45265167
_symmetry_Int_Tables_number   1
_chemical_formula_structural   CuNi3C17
_chemical_formula_sum   'Cu2 Ni6 C34'
_cell_volume   524.77972513
_cell_formula_units_Z   2
loop_
 _symmetry_equiv_pos_site_id
 _symmetry_equiv_pos_as_xyz
  1  'x, y, z'
loop_
 _atom_site_type_symbol
 _atom_site_label
 _atom_site_symmetry_multiplicity
 _atom_site_fract_x
 _atom_site_fract_y
 _atom_site_fract_z
 _atom_site_occupancy
  C  C0  1  0.13804300  0.91444600  0.80898500  1
  C  C1  1  0.58538800  0.91444600  0.86195700  1
  C  C2  1  0.19101500  0.91444600  0.41461200  1
  C  C3  1  0.85612400  0.08743800  0.19497000  1
  C  C4  1  0.42628300  0.08743800  0.14387600  1
  C  C5  1  0.80503000  0.08743800  0.57371700  1
  C  C6  1  0.08538900  0.41444600  0.30898500  1
  C  C7  1  0.69101500  0.41444600  0.36195700  1
  C  C8  1  0.63804300  0.41444600  0.91461200  1
  C  C9  1  0.92628300  0.58743800  0.69497000  1
  C  C10  1  0.30503000  0.58743800  0.64387600  1
  C  C11  1  0.35612400  0.58743800  0.07371700  1
  Ni  Ni12  1  0.22827400  0.25038600  0.72857300  1
  Ni  Ni13  1  0.75068500  0.25038600  0.77172600  1
  Ni  Ni14  1  0.27142700  0.25038600  0.24931500  1
  Ni  Ni15  1  0.77142700  0.75038600  0.27172600  1
  Ni  Ni16  1  0.25068500  0.75038600  0.22857300  1
  Ni  Ni17  1  0.72827400  0.75038600  0.74931500  1
  Cu  Cu18  1  0.25866200  0.77598600  0.74133800  1
  Cu  Cu19  1  0.75866200  0.27598600  0.24133800  1
  C  C20  1  0.29934500  0.89803500  0.70065500  1
  C  C21  1  0.70494900  0.11484700  0.29505100  1
  C  C22  1  0.79934500  0.39803500  0.20065500  1
  C  C23  1  0.20494900  0.61484700  0.79505100  1
  C  C24  1  0.89540300  0.75002800  0.75016600  1
  C  C25  1  0.60479100  0.75002800  0.10459700  1
  C  C26  1  0.24983400  0.75002800  0.39520900  1
  C  C27  1  0.10479100  0.25002800  0.25016600  1
  C  C28  1  0.39540300  0.25002800  0.89520900  1
  C  C29  1  0.74983400  0.25002800  0.60459700  1
  C  C30  1  0.08946400  0.11537700  0.69870900  1
  C  C31  1  0.72462200  0.11537700  0.91053600  1
  C  C32  1  0.30129100  0.11537700  0.27537800  1
  C  C33  1  0.90933200  0.88636900  0.30010900  1
  C  C34  1  0.27714500  0.88636900  0.09066800  1
  C  C35  1  0.69989100  0.88636900  0.72285500  1
  C  C36  1  0.22462200  0.61537700  0.19870900  1
  C  C37  1  0.80129100  0.61537700  0.41053600  1
  C  C38  1  0.58946400  0.61537700  0.77537800  1
  C  C39  1  0.77714500  0.38636900  0.80010900  1
  C  C40  1  0.19989100  0.38636900  0.59066800  1
  C  C41  1  0.40933200  0.38636900  0.22285500  1
