# generated using pymatgen
data_Cu9NiC32
_symmetry_space_group_name_H-M   'P 1'
_cell_length_a   9.86209182
_cell_length_b   9.86209182
_cell_length_c   7.18344900
_cell_angle_alpha   90.00000000
_cell_angle_beta   90.00000000
_cell_angle_gamma   119.99999880
_symmetry_Int_Tables_number   1
_chemical_formula_structural   Cu9NiC32
_chemical_formula_sum   'Cu9 Ni1 C32'
_cell_volume   605.06458381
_cell_formula_units_Z   1
loop_
 _symmetry_equiv_pos_site_id
 _symmetry_equiv_pos_as_xyz
  1  'x, y, z'
loop_
 _atom_site_type_symbol
 _atom_site_label
 _atom_site_symmetry_multiplicity
 _atom_site_fract_x
 _atom_site_fract_y
 _atom_site_fract_z
 _atom_site_occupancy
  Ni  Ni0  1  0.00000000  0.00000000  0.49154100  1
  Cu  Cu1  1  0.33333300  0.66666700  0.99786700  1
  Cu  Cu2  1  0.33333300  0.66666700  0.50009200  1
  Cu  Cu3  1  0.00000000  0.00000000  0.00020200  1
  Cu  Cu4  1  0.66125000  0.09745900  0.74836200  1
  Cu  Cu5  1  0.90254100  0.56379100  0.74836200  1
  Cu  Cu6  1  0.43620900  0.33875000  0.74836200  1
  Cu  Cu7  1  0.67115000  0.57216100  0.24918900  1
  Cu  Cu8  1  0.42783900  0.09899000  0.24918900  1
  Cu  Cu9  1  0.90101000  0.32885000  0.24918900  1
  C  C10  1  0.26441700  0.96106700  0.74774600  1
  C  C11  1  0.03893300  0.30335000  0.74774600  1
  C  C12  1  0.69665000  0.73558300  0.74774600  1
  C  C13  1  0.06374500  0.70574800  0.24775300  1
  C  C14  1  0.29425200  0.35799700  0.24775300  1
  C  C15  1  0.64200300  0.93625500  0.24775300  1
  C  C16  1  0.34818000  0.09613900  0.56268600  1
  C  C17  1  0.90386100  0.25204100  0.56268600  1
  C  C18  1  0.74795900  0.65182000  0.56268600  1
  C  C19  1  0.01361300  0.57484000  0.05505000  1
  C  C20  1  0.42516000  0.43877300  0.05505000  1
  C  C21  1  0.56122700  0.98638700  0.05505000  1
  C  C22  1  0.01342800  0.58028500  0.44442500  1
  C  C23  1  0.41971500  0.43314400  0.44442500  1
  C  C24  1  0.56685600  0.98657200  0.44442500  1
  C  C25  1  0.32825800  0.08905200  0.94296400  1
  C  C26  1  0.91094800  0.23920600  0.94296400  1
  C  C27  1  0.76079400  0.67174200  0.94296400  1
  C  C28  1  0.34841200  0.83825400  0.74831600  1
  C  C29  1  0.16174600  0.51015800  0.74831600  1
  C  C30  1  0.48984200  0.65158800  0.74831600  1
  C  C31  1  0.97005300  0.81449300  0.24055400  1
  C  C32  1  0.18550700  0.15556000  0.24055400  1
  C  C33  1  0.84444000  0.02994700  0.24055400  1
  C  C34  1  0.66666700  0.33333300  0.75819800  1
  C  C35  1  0.66666700  0.33333300  0.25023900  1
  C  C36  1  0.05959800  0.85333000  0.76367300  1
  C  C37  1  0.14667000  0.20626800  0.76367300  1
  C  C38  1  0.79373200  0.94040200  0.76367300  1
  C  C39  1  0.27286600  0.80678700  0.24990300  1
  C  C40  1  0.19321300  0.46607800  0.24990300  1
  C  C41  1  0.53392200  0.72713400  0.24990300  1
