# generated using pymatgen
data_Cu6Ni6C
_symmetry_space_group_name_H-M   'P 1'
_cell_length_a   5.17641000
_cell_length_b   6.52934703
_cell_length_c   6.67804924
_cell_angle_alpha   98.83739616
_cell_angle_beta   112.80333035
_cell_angle_gamma   66.64694249
_symmetry_Int_Tables_number   1
_chemical_formula_structural   Cu6Ni6C
_chemical_formula_sum   'Cu6 Ni6 C1'
_cell_volume   191.02238585
_cell_formula_units_Z   1
loop_
 _symmetry_equiv_pos_site_id
 _symmetry_equiv_pos_as_xyz
  1  'x, y, z'
loop_
 _atom_site_type_symbol
 _atom_site_label
 _atom_site_symmetry_multiplicity
 _atom_site_fract_x
 _atom_site_fract_y
 _atom_site_fract_z
 _atom_site_occupancy
  C  C0  1  0.00000000  0.00000000  0.00000000  1
  Ni  Ni1  1  0.50000000  0.50000000  0.00000000  1
  Ni  Ni2  1  0.00000000  0.50000000  0.00000000  1
  Ni  Ni3  1  0.64925500  0.33503100  0.63354100  1
  Ni  Ni4  1  0.35074500  0.66496900  0.36645900  1
  Ni  Ni5  1  0.01571400  0.33503100  0.36645900  1
  Ni  Ni6  1  0.98428600  0.66496900  0.63354100  1
  Cu  Cu7  1  0.70930900  0.79846700  0.21708500  1
  Cu  Cu8  1  0.29069100  0.20153300  0.78291500  1
  Cu  Cu9  1  0.49222400  0.79846700  0.78291500  1
  Cu  Cu10  1  0.50777600  0.20153300  0.21708500  1
  Cu  Cu11  1  0.50000000  0.00000000  0.50000000  1
  Cu  Cu12  1  0.00000000  0.00000000  0.50000000  1
