# generated using pymatgen
data_CuNi3C10
_symmetry_space_group_name_H-M   'P 1'
_cell_length_a   6.77385322
_cell_length_b   6.77385322
_cell_length_c   5.54547400
_cell_angle_alpha   90.00000000
_cell_angle_beta   90.00000000
_cell_angle_gamma   131.78062589
_symmetry_Int_Tables_number   1
_chemical_formula_structural   CuNi3C10
_chemical_formula_sum   'Cu1 Ni3 C10'
_cell_volume   189.74710603
_cell_formula_units_Z   1
loop_
 _symmetry_equiv_pos_site_id
 _symmetry_equiv_pos_as_xyz
  1  'x, y, z'
loop_
 _atom_site_type_symbol
 _atom_site_label
 _atom_site_symmetry_multiplicity
 _atom_site_fract_x
 _atom_site_fract_y
 _atom_site_fract_z
 _atom_site_occupancy
  Ni  Ni0  1  0.64370000  0.35630000  0.00000000  1
  Ni  Ni1  1  0.35791000  0.64209000  0.00000000  1
  Ni  Ni2  1  0.85587900  0.14412100  0.50000000  1
  Cu  Cu3  1  0.13714400  0.86285600  0.50000000  1
  C  C4  1  0.49916700  0.50083300  0.50000000  1
  C  C5  1  0.99855800  0.00144200  0.00000000  1
  C  C6  1  0.84161400  0.15838600  0.00000000  1
  C  C7  1  0.33011700  0.66988300  0.50000000  1
  C  C8  1  0.65932100  0.34067900  0.50000000  1
  C  C9  1  0.16021700  0.83978300  0.00000000  1
  C  C10  1  0.25075300  0.24256700  0.25869800  1
  C  C11  1  0.75743300  0.74924700  0.74130200  1
  C  C12  1  0.25075300  0.24256700  0.74130200  1
  C  C13  1  0.75743300  0.74924700  0.25869800  1
