# generated using pymatgen
data_CuNiC9
_symmetry_space_group_name_H-M   'P 1'
_cell_length_a   6.46359789
_cell_length_b   9.03479606
_cell_length_c   9.24580083
_cell_angle_alpha   89.99999462
_cell_angle_beta   90.00000334
_cell_angle_gamma   91.89261997
_symmetry_Int_Tables_number   1
_chemical_formula_structural   CuNiC9
_chemical_formula_sum   'Cu4 Ni4 C36'
_cell_volume   539.63515776
_cell_formula_units_Z   4
loop_
 _symmetry_equiv_pos_site_id
 _symmetry_equiv_pos_as_xyz
  1  'x, y, z'
loop_
 _atom_site_type_symbol
 _atom_site_label
 _atom_site_symmetry_multiplicity
 _atom_site_fract_x
 _atom_site_fract_y
 _atom_site_fract_z
 _atom_site_occupancy
  C  C0  1  0.61738400  0.56630800  0.68369200  1
  C  C1  1  0.61738400  0.06630800  0.18369200  1
  C  C2  1  0.25000000  0.75000000  0.13261600  1
  C  C3  1  0.25000000  0.25000000  0.63261600  1
  C  C4  1  0.88261600  0.43369200  0.18369200  1
  C  C5  1  0.88261600  0.93369200  0.68369200  1
  C  C6  1  0.38261600  0.43369200  0.31630800  1
  C  C7  1  0.38261600  0.93369200  0.81630800  1
  C  C8  1  0.11738400  0.56630800  0.81630800  1
  C  C9  1  0.11738400  0.06630800  0.31630800  1
  C  C10  1  0.75000000  0.25000000  0.86738400  1
  C  C11  1  0.75000000  0.75000000  0.36738400  1
  Ni  Ni12  1  0.25000000  0.75000000  0.50000000  1
  Ni  Ni13  1  0.75000000  0.75000000  0.00000000  1
  Ni  Ni14  1  0.25000000  0.25000000  0.00000000  1
  Ni  Ni15  1  0.75000000  0.25000000  0.50000000  1
  Cu  Cu16  1  0.00000000  0.00000000  0.00000000  1
  Cu  Cu17  1  0.00000000  0.50000000  0.50000000  1
  Cu  Cu18  1  0.50000000  0.50000000  0.00000000  1
  Cu  Cu19  1  0.50000000  0.00000000  0.50000000  1
  C  C20  1  0.79968800  0.53219000  0.93105500  1
  C  C21  1  0.79968800  0.03219000  0.43105500  1
  C  C22  1  0.60113500  0.63146700  0.16822200  1
  C  C23  1  0.60113500  0.13146700  0.66822200  1
  C  C24  1  0.46324500  0.70041100  0.90072300  1
  C  C25  1  0.46324500  0.20041100  0.40072300  1
  C  C26  1  0.03675500  0.79958900  0.90072300  1
  C  C27  1  0.03675500  0.29958900  0.40072300  1
  C  C28  1  0.89886500  0.36853300  0.66822200  1
  C  C29  1  0.89886500  0.86853300  0.16822200  1
  C  C30  1  0.70031200  0.46781000  0.43105500  1
  C  C31  1  0.70031200  0.96781000  0.93105500  1
  C  C32  1  0.20031200  0.46781000  0.06894500  1
  C  C33  1  0.20031200  0.96781000  0.56894500  1
  C  C34  1  0.39886500  0.36853300  0.83177800  1
  C  C35  1  0.39886500  0.86853300  0.33177800  1
  C  C36  1  0.53675500  0.29958900  0.09927700  1
  C  C37  1  0.53675500  0.79958900  0.59927700  1
  C  C38  1  0.96324500  0.20041100  0.09927700  1
  C  C39  1  0.96324500  0.70041100  0.59927700  1
  C  C40  1  0.29968800  0.53219000  0.56894500  1
  C  C41  1  0.29968800  0.03219000  0.06894500  1
  C  C42  1  0.10113500  0.63146700  0.33177800  1
  C  C43  1  0.10113500  0.13146700  0.83177800  1
