# generated using pymatgen
data_Cu2NiC4
_symmetry_space_group_name_H-M   'P 1'
_cell_length_a   3.97721600
_cell_length_b   12.04746600
_cell_length_c   14.31585200
_cell_angle_alpha   90.00000000
_cell_angle_beta   90.00000000
_cell_angle_gamma   90.00000000
_symmetry_Int_Tables_number   1
_chemical_formula_structural   Cu2NiC4
_chemical_formula_sum   'Cu8 Ni4 C16'
_cell_volume   685.94941036
_cell_formula_units_Z   4
loop_
 _symmetry_equiv_pos_site_id
 _symmetry_equiv_pos_as_xyz
  1  'x, y, z'
loop_
 _atom_site_type_symbol
 _atom_site_label
 _atom_site_symmetry_multiplicity
 _atom_site_fract_x
 _atom_site_fract_y
 _atom_site_fract_z
 _atom_site_occupancy
  Ni  Ni0  1  0.25000000  0.76040100  0.33543000  1
  Ni  Ni1  1  0.25000000  0.26040100  0.16457000  1
  Ni  Ni2  1  0.75000000  0.23959900  0.66457000  1
  Ni  Ni3  1  0.75000000  0.73959900  0.83543000  1
  Cu  Cu4  1  0.25000000  0.43694400  0.38977600  1
  Cu  Cu5  1  0.25000000  0.93694400  0.11022400  1
  Cu  Cu6  1  0.75000000  0.56305600  0.61022400  1
  Cu  Cu7  1  0.75000000  0.06305600  0.88977600  1
  Cu  Cu8  1  0.25000000  0.41687500  0.90058700  1
  Cu  Cu9  1  0.25000000  0.91687500  0.59941300  1
  Cu  Cu10  1  0.75000000  0.58312500  0.09941300  1
  Cu  Cu11  1  0.75000000  0.08312500  0.40058700  1
  C  C12  1  0.25000000  0.20436900  0.82862300  1
  C  C13  1  0.25000000  0.70436900  0.67137700  1
  C  C14  1  0.75000000  0.79563100  0.17137700  1
  C  C15  1  0.75000000  0.29563100  0.32862300  1
  C  C16  1  0.25000000  0.12799400  0.52920100  1
  C  C17  1  0.25000000  0.62799400  0.97079900  1
  C  C18  1  0.75000000  0.87200600  0.47079900  1
  C  C19  1  0.75000000  0.37200600  0.02920100  1
  C  C20  1  0.25000000  0.02698300  0.28442500  1
  C  C21  1  0.25000000  0.52698300  0.21557500  1
  C  C22  1  0.75000000  0.97301700  0.71557500  1
  C  C23  1  0.75000000  0.47301700  0.78442500  1
  C  C24  1  0.25000000  0.41195800  0.57739700  1
  C  C25  1  0.25000000  0.91195800  0.92260300  1
  C  C26  1  0.75000000  0.58804200  0.42260300  1
  C  C27  1  0.75000000  0.08804200  0.07739700  1
