# generated using pymatgen
data_CuNiC3
_symmetry_space_group_name_H-M   'P 1'
_cell_length_a   5.19711073
_cell_length_b   5.19840935
_cell_length_c   5.52177197
_cell_angle_alpha   61.96645431
_cell_angle_beta   90.01277699
_cell_angle_gamma   60.00543144
_symmetry_Int_Tables_number   1
_chemical_formula_structural   CuNiC3
_chemical_formula_sum   'Cu2 Ni2 C6'
_cell_volume   108.51128827
_cell_formula_units_Z   2
loop_
 _symmetry_equiv_pos_site_id
 _symmetry_equiv_pos_as_xyz
  1  'x, y, z'
loop_
 _atom_site_type_symbol
 _atom_site_label
 _atom_site_symmetry_multiplicity
 _atom_site_fract_x
 _atom_site_fract_y
 _atom_site_fract_z
 _atom_site_occupancy
  Ni  Ni0  1  0.00199900  0.99539400  0.00693600  1
  Ni  Ni1  1  0.50278800  0.99525000  0.50689500  1
  Cu  Cu2  1  0.28861100  0.42273000  0.86588900  1
  Cu  Cu3  1  0.78847200  0.42252700  0.36588400  1
  C  C4  1  0.22296800  0.16923100  0.68833100  1
  C  C5  1  0.72308800  0.91977000  0.18815300  1
  C  C6  1  0.10773300  0.16924400  0.18868000  1
  C  C7  1  0.85762100  0.91901100  0.68868200  1
  C  C8  1  0.60782700  0.53457900  0.68839700  1
  C  C9  1  0.35769300  0.53466400  0.18855100  1
