# generated using pymatgen
data_Cu3NiC15
_symmetry_space_group_name_H-M   'P 1'
_cell_length_a   8.81563656
_cell_length_b   8.81563656
_cell_length_c   8.95572784
_cell_angle_alpha   60.48436881
_cell_angle_beta   60.48436881
_cell_angle_gamma   59.94796441
_symmetry_Int_Tables_number   1
_chemical_formula_structural   Cu3NiC15
_chemical_formula_sum   'Cu6 Ni2 C30'
_cell_volume   495.51954074
_cell_formula_units_Z   2
loop_
 _symmetry_equiv_pos_site_id
 _symmetry_equiv_pos_as_xyz
  1  'x, y, z'
loop_
 _atom_site_type_symbol
 _atom_site_label
 _atom_site_symmetry_multiplicity
 _atom_site_fract_x
 _atom_site_fract_y
 _atom_site_fract_z
 _atom_site_occupancy
  C  C0  1  0.38297400  0.24764000  0.50073800  1
  C  C1  1  0.75236000  0.61702600  0.49926200  1
  C  C2  1  0.48189300  0.99620000  0.25552100  1
  C  C3  1  0.00380000  0.51810700  0.74447900  1
  C  C4  1  0.34401800  0.84888900  0.70129800  1
  C  C5  1  0.15111100  0.65598200  0.29870200  1
  Ni  Ni6  1  0.85833800  0.35336000  0.18204700  1
  Ni  Ni7  1  0.64664000  0.14166200  0.81795300  1
  Cu  Cu8  1  0.54211800  0.45788200  0.00000000  1
  Cu  Cu9  1  0.95559000  0.74799600  0.00721800  1
  Cu  Cu10  1  0.25200400  0.04441000  0.99278200  1
  Cu  Cu11  1  0.04663300  0.24844200  0.49909900  1
  Cu  Cu12  1  0.75155800  0.95336700  0.50090100  1
  Cu  Cu13  1  0.45462400  0.54537600  0.50000000  1
  C  C14  1  0.51185600  0.61692500  0.82472300  1
  C  C15  1  0.11788100  0.79319300  0.83824100  1
  C  C16  1  0.30086200  0.01965500  0.81402900  1
  C  C17  1  0.02021200  0.27916100  0.32700500  1
  C  C18  1  0.77139500  0.12884900  0.33235600  1
  C  C19  1  0.63035400  0.51790400  0.33096800  1
  C  C20  1  0.48209600  0.36964600  0.66903200  1
  C  C21  1  0.87115100  0.22860500  0.66764400  1
  C  C22  1  0.72083900  0.97978800  0.67299500  1
  C  C23  1  0.98034500  0.69913800  0.18597100  1
  C  C24  1  0.20680700  0.88211900  0.16175900  1
  C  C25  1  0.38307500  0.48814400  0.17527700  1
  C  C26  1  0.43589100  0.71969300  0.51722200  1
  C  C27  1  0.22624500  0.08145400  0.51529700  1
  C  C28  1  0.58160800  0.93086000  0.51261400  1
  C  C29  1  0.93711800  0.58329600  0.00325000  1
  C  C30  1  0.08424900  0.22899600  0.99704000  1
  C  C31  1  0.72762400  0.43857100  0.00067200  1
  C  C32  1  0.56142900  0.27237600  0.99932800  1
  C  C33  1  0.77100400  0.91575100  0.00296000  1
  C  C34  1  0.41670400  0.06288200  0.99675000  1
  C  C35  1  0.06914000  0.41839200  0.48738600  1
  C  C36  1  0.91854700  0.77375500  0.48470300  1
  C  C37  1  0.28030700  0.56410900  0.48277800  1
