# generated using pymatgen
data_Cu4NiC
_symmetry_space_group_name_H-M   'P 1'
_cell_length_a   12.08533018
_cell_length_b   12.08533018
_cell_length_c   9.67282100
_cell_angle_alpha   90.00000000
_cell_angle_beta   90.00000000
_cell_angle_gamma   120.00000098
_symmetry_Int_Tables_number   1
_chemical_formula_structural   Cu4NiC
_chemical_formula_sum   'Cu72 Ni18 C18'
_cell_volume   1223.49111166
_cell_formula_units_Z   18
loop_
 _symmetry_equiv_pos_site_id
 _symmetry_equiv_pos_as_xyz
  1  'x, y, z'
loop_
 _atom_site_type_symbol
 _atom_site_label
 _atom_site_symmetry_multiplicity
 _atom_site_fract_x
 _atom_site_fract_y
 _atom_site_fract_z
 _atom_site_occupancy
  C  C0  1  0.55797900  0.10235200  0.25647000  1
  C  C1  1  0.54437300  0.44202100  0.25647000  1
  C  C2  1  0.89764800  0.45562700  0.25647000  1
  C  C3  1  0.55797900  0.10235200  0.74353000  1
  C  C4  1  0.54437300  0.44202100  0.74353000  1
  C  C5  1  0.89764800  0.45562700  0.74353000  1
  C  C6  1  0.88805400  0.11853000  0.23900400  1
  C  C7  1  0.23047600  0.11194600  0.23900400  1
  C  C8  1  0.88147000  0.76952400  0.23900400  1
  C  C9  1  0.88805400  0.11853000  0.76099600  1
  C  C10  1  0.23047600  0.11194600  0.76099600  1
  C  C11  1  0.88147000  0.76952400  0.76099600  1
  C  C12  1  0.22237900  0.78555700  0.25748600  1
  C  C13  1  0.56317800  0.77762100  0.25748600  1
  C  C14  1  0.21444300  0.43682200  0.25748600  1
  C  C15  1  0.22237900  0.78555700  0.74251400  1
  C  C16  1  0.56317800  0.77762100  0.74251400  1
  C  C17  1  0.21444300  0.43682200  0.74251400  1
  Ni  Ni18  1  0.79920200  0.81798700  0.50000000  1
  Ni  Ni19  1  0.01878500  0.20079800  0.50000000  1
  Ni  Ni20  1  0.18201300  0.98121500  0.50000000  1
  Ni  Ni21  1  0.76477900  0.22699800  0.50000000  1
  Ni  Ni22  1  0.46221900  0.23522100  0.50000000  1
  Ni  Ni23  1  0.77300200  0.53778100  0.50000000  1
  Ni  Ni24  1  0.44914100  0.87147200  0.50000000  1
  Ni  Ni25  1  0.42233100  0.55085900  0.50000000  1
  Ni  Ni26  1  0.12852800  0.57766900  0.50000000  1
  Ni  Ni27  1  0.79659900  0.88721900  0.00000000  1
  Ni  Ni28  1  0.09062000  0.20340100  0.00000000  1
  Ni  Ni29  1  0.11278100  0.90938000  0.00000000  1
  Ni  Ni30  1  0.51121000  0.86092300  0.00000000  1
  Ni  Ni31  1  0.34971300  0.48879000  0.00000000  1
  Ni  Ni32  1  0.13907700  0.65028700  0.00000000  1
  Ni  Ni33  1  0.69426300  0.16191900  0.00000000  1
  Ni  Ni34  1  0.46765600  0.30573700  0.00000000  1
  Ni  Ni35  1  0.83808100  0.53234400  0.00000000  1
  Cu  Cu36  1  0.90536700  0.81591100  0.50000000  1
  Cu  Cu37  1  0.91054400  0.09463300  0.50000000  1
  Cu  Cu38  1  0.18408900  0.08945600  0.50000000  1
  Cu  Cu39  1  0.74827000  0.81776700  0.38329800  1
  Cu  Cu40  1  0.06949700  0.25173000  0.38329800  1
  Cu  Cu41  1  0.18223300  0.93050300  0.38329800  1
  Cu  Cu42  1  0.74827000  0.81776700  0.61670200  1
  Cu  Cu43  1  0.06949700  0.25173000  0.61670200  1
  Cu  Cu44  1  0.18223300  0.93050300  0.61670200  1
  Cu  Cu45  1  0.64128100  0.15942000  0.50000000  1
  Cu  Cu46  1  0.51814000  0.35871900  0.50000000  1
  Cu  Cu47  1  0.84058000  0.48186000  0.50000000  1
  Cu  Cu48  1  0.82488800  0.25973700  0.38324700  1
  Cu  Cu49  1  0.43484800  0.17511200  0.38324700  1
  Cu  Cu50  1  0.74026300  0.56515200  0.38324700  1
  Cu  Cu51  1  0.82488800  0.25973700  0.61675300  1
  Cu  Cu52  1  0.43484800  0.17511200  0.61675300  1
  Cu  Cu53  1  0.74026300  0.56515200  0.61675300  1
  Cu  Cu54  1  0.50484600  0.80388100  0.50000000  1
  Cu  Cu55  1  0.29903500  0.49515400  0.50000000  1
  Cu  Cu56  1  0.19611900  0.70096500  0.50000000  1
  Cu  Cu57  1  0.42183500  0.90501700  0.38384400  1
  Cu  Cu58  1  0.48318200  0.57816500  0.38384400  1
  Cu  Cu59  1  0.09498300  0.51681800  0.38384400  1
  Cu  Cu60  1  0.42183500  0.90501700  0.61615600  1
  Cu  Cu61  1  0.48318200  0.57816500  0.61615600  1
  Cu  Cu62  1  0.09498300  0.51681800  0.61615600  1
  Cu  Cu63  1  0.85921300  0.82618700  0.00000000  1
  Cu  Cu64  1  0.96697500  0.14078700  0.00000000  1
  Cu  Cu65  1  0.17381300  0.03302500  0.00000000  1
  Cu  Cu66  1  0.76639500  0.91672100  0.88305700  1
  Cu  Cu67  1  0.15032600  0.23360500  0.88305700  1
  Cu  Cu68  1  0.08327900  0.84967400  0.88305700  1
  Cu  Cu69  1  0.76639500  0.91672100  0.11694300  1
  Cu  Cu70  1  0.15032600  0.23360500  0.11694300  1
  Cu  Cu71  1  0.08327900  0.84967400  0.11694300  1
  Cu  Cu72  1  0.51639500  0.75594300  0.00000000  1
  Cu  Cu73  1  0.23954800  0.48360500  0.00000000  1
  Cu  Cu74  1  0.24405700  0.76045200  0.00000000  1
  Cu  Cu75  1  0.51050200  0.91049000  0.88237000  1
  Cu  Cu76  1  0.39998800  0.48949800  0.88237000  1
  Cu  Cu77  1  0.08951000  0.60001200  0.88237000  1
  Cu  Cu78  1  0.51050200  0.91049000  0.11763000  1
  Cu  Cu79  1  0.39998800  0.48949800  0.11763000  1
  Cu  Cu80  1  0.08951000  0.60001200  0.11763000  1
  Cu  Cu81  1  0.58459100  0.15648700  0.00000000  1
  Cu  Cu82  1  0.57189600  0.41540900  0.00000000  1
  Cu  Cu83  1  0.84351300  0.42810400  0.00000000  1
  Cu  Cu84  1  0.74504700  0.16212700  0.88319500  1
  Cu  Cu85  1  0.41708100  0.25495300  0.88319500  1
  Cu  Cu86  1  0.83787300  0.58291900  0.88319500  1
  Cu  Cu87  1  0.74504700  0.16212700  0.11680500  1
  Cu  Cu88  1  0.41708100  0.25495300  0.11680500  1
  Cu  Cu89  1  0.83787300  0.58291900  0.11680500  1
  Cu  Cu90  1  0.66666700  0.33333300  0.24392900  1
  Cu  Cu91  1  0.66666700  0.33333300  0.75607100  1
  Cu  Cu92  1  0.00000000  0.00000000  0.25601300  1
  Cu  Cu93  1  0.00000000  0.00000000  0.74398700  1
  Cu  Cu94  1  0.33333300  0.66666700  0.24811100  1
  Cu  Cu95  1  0.33333300  0.66666700  0.75188900  1
  Cu  Cu96  1  0.34322600  0.00174000  0.19257200  1
  Cu  Cu97  1  0.65851400  0.65677400  0.19257200  1
  Cu  Cu98  1  0.99826000  0.34148600  0.19257200  1
  Cu  Cu99  1  0.34322600  0.00174000  0.80742800  1
  Cu  Cu100  1  0.65851400  0.65677400  0.80742800  1
  Cu  Cu101  1  0.99826000  0.34148600  0.80742800  1
  Cu  Cu102  1  0.00276100  0.67827200  0.30954900  1
  Cu  Cu103  1  0.67551100  0.99723900  0.30954900  1
  Cu  Cu104  1  0.32172800  0.32448900  0.30954900  1
  Cu  Cu105  1  0.00276100  0.67827200  0.69045100  1
  Cu  Cu106  1  0.67551100  0.99723900  0.69045100  1
  Cu  Cu107  1  0.32172800  0.32448900  0.69045100  1
