# generated using pymatgen
data_CuNiC17
_symmetry_space_group_name_H-M   'P 1'
_cell_length_a   6.28925896
_cell_length_b   6.28925896
_cell_length_c   6.28925835
_cell_angle_alpha   83.09786160
_cell_angle_beta   83.09786160
_cell_angle_gamma   83.09785594
_symmetry_Int_Tables_number   1
_chemical_formula_structural   CuNiC17
_chemical_formula_sum   'Cu1 Ni1 C17'
_cell_volume   243.76254047
_cell_formula_units_Z   1
loop_
 _symmetry_equiv_pos_site_id
 _symmetry_equiv_pos_as_xyz
  1  'x, y, z'
loop_
 _atom_site_type_symbol
 _atom_site_label
 _atom_site_symmetry_multiplicity
 _atom_site_fract_x
 _atom_site_fract_y
 _atom_site_fract_z
 _atom_site_occupancy
  Ni  Ni0  1  0.34432800  0.34432800  0.34432800  1
  Cu  Cu1  1  0.65670600  0.65670600  0.65670600  1
  C  C2  1  0.34552100  0.34552100  0.84941200  1
  C  C3  1  0.84941200  0.34552100  0.34552100  1
  C  C4  1  0.34552100  0.84941200  0.34552100  1
  C  C5  1  0.65529800  0.65529800  0.15044600  1
  C  C6  1  0.15044600  0.65529800  0.65529800  1
  C  C7  1  0.65529800  0.15044600  0.65529800  1
  C  C8  1  0.71295800  0.28721500  0.99938300  1
  C  C9  1  0.99938300  0.71295800  0.28721500  1
  C  C10  1  0.28721500  0.99938300  0.71295800  1
  C  C11  1  0.99938300  0.28721500  0.71295800  1
  C  C12  1  0.71295800  0.99938300  0.28721500  1
  C  C13  1  0.28721500  0.71295800  0.99938300  1
  C  C14  1  0.99922700  0.99922700  0.50042100  1
  C  C15  1  0.50042100  0.99922700  0.99922700  1
  C  C16  1  0.99922700  0.50042100  0.99922700  1
  C  C17  1  0.90375800  0.90375800  0.90375800  1
  C  C18  1  0.09572700  0.09572700  0.09572700  1
