# generated using pymatgen
data_CuNi7C6
_symmetry_space_group_name_H-M   'P 1'
_cell_length_a   12.40048600
_cell_length_b   7.01955800
_cell_length_c   12.18963000
_cell_angle_alpha   90.00000000
_cell_angle_beta   90.00000000
_cell_angle_gamma   90.00000000
_symmetry_Int_Tables_number   1
_chemical_formula_structural   CuNi7C6
_chemical_formula_sum   'Cu4 Ni28 C24'
_cell_volume   1061.05768830
_cell_formula_units_Z   4
loop_
 _symmetry_equiv_pos_site_id
 _symmetry_equiv_pos_as_xyz
  1  'x, y, z'
loop_
 _atom_site_type_symbol
 _atom_site_label
 _atom_site_symmetry_multiplicity
 _atom_site_fract_x
 _atom_site_fract_y
 _atom_site_fract_z
 _atom_site_occupancy
  Ni  Ni0  1  0.00179000  0.76567400  0.03175900  1
  Ni  Ni1  1  0.49821000  0.73432600  0.53175900  1
  Ni  Ni2  1  0.50179000  0.73432600  0.96824100  1
  Ni  Ni3  1  0.99821000  0.76567400  0.46824100  1
  Ni  Ni4  1  0.99821000  0.23432600  0.96824100  1
  Ni  Ni5  1  0.50179000  0.26567400  0.46824100  1
  Ni  Ni6  1  0.49821000  0.26567400  0.03175900  1
  Ni  Ni7  1  0.00179000  0.23432600  0.53175900  1
  Ni  Ni8  1  0.21482300  0.80402600  0.62665600  1
  Ni  Ni9  1  0.28517700  0.69597400  0.12665600  1
  Ni  Ni10  1  0.71482300  0.69597400  0.37334400  1
  Ni  Ni11  1  0.78517700  0.80402600  0.87334400  1
  Ni  Ni12  1  0.78517700  0.19597400  0.37334400  1
  Ni  Ni13  1  0.71482300  0.30402600  0.87334400  1
  Ni  Ni14  1  0.28517700  0.30402600  0.62665600  1
  Ni  Ni15  1  0.21482300  0.19597400  0.12665600  1
  Ni  Ni16  1  0.25516200  0.53888800  0.85766600  1
  Ni  Ni17  1  0.24483800  0.96111200  0.35766600  1
  Ni  Ni18  1  0.75516200  0.96111200  0.14233400  1
  Ni  Ni19  1  0.74483800  0.53888800  0.64233400  1
  Ni  Ni20  1  0.74483800  0.46111200  0.14233400  1
  Ni  Ni21  1  0.75516200  0.03888800  0.64233400  1
  Ni  Ni22  1  0.24483800  0.03888800  0.85766600  1
  Ni  Ni23  1  0.25516200  0.46111200  0.35766600  1
  Ni  Ni24  1  0.00000000  0.42261100  0.75000000  1
  Ni  Ni25  1  0.50000000  0.07738900  0.25000000  1
  Ni  Ni26  1  0.00000000  0.57738900  0.25000000  1
  Ni  Ni27  1  0.50000000  0.92261100  0.75000000  1
  Cu  Cu28  1  0.00000000  0.84395800  0.75000000  1
  Cu  Cu29  1  0.50000000  0.65604200  0.25000000  1
  Cu  Cu30  1  0.00000000  0.15604200  0.25000000  1
  Cu  Cu31  1  0.50000000  0.34395800  0.75000000  1
  C  C32  1  0.11283600  0.65638100  0.75965200  1
  C  C33  1  0.38716400  0.84361900  0.25965200  1
  C  C34  1  0.61283600  0.84361900  0.24034800  1
  C  C35  1  0.88716400  0.65638100  0.74034800  1
  C  C36  1  0.88716400  0.34361900  0.24034800  1
  C  C37  1  0.61283600  0.15638100  0.74034800  1
  C  C38  1  0.38716400  0.15638100  0.75965200  1
  C  C39  1  0.11283600  0.34361900  0.25965200  1
  C  C40  1  0.17833500  0.71148800  0.45746600  1
  C  C41  1  0.32166500  0.78851200  0.95746600  1
  C  C42  1  0.67833500  0.78851200  0.54253400  1
  C  C43  1  0.82166500  0.71148800  0.04253400  1
  C  C44  1  0.82166500  0.28851200  0.54253400  1
  C  C45  1  0.67833500  0.21148800  0.04253400  1
  C  C46  1  0.32166500  0.21148800  0.45746600  1
  C  C47  1  0.17833500  0.28851200  0.95746600  1
  C  C48  1  0.46048300  0.45114000  0.61400400  1
  C  C49  1  0.03951700  0.04886000  0.11400300  1
  C  C50  1  0.96048300  0.04886000  0.38599700  1
  C  C51  1  0.53951700  0.45114000  0.88599600  1
  C  C52  1  0.53951700  0.54886000  0.38599700  1
  C  C53  1  0.96048300  0.95114000  0.88599600  1
  C  C54  1  0.03951700  0.95114000  0.61400400  1
  C  C55  1  0.46048300  0.54886000  0.11400300  1
