# generated using pymatgen
data_Cu5NiC12
_symmetry_space_group_name_H-M   'P 1'
_cell_length_a   6.20820700
_cell_length_b   7.91314862
_cell_length_c   8.18390474
_cell_angle_alpha   101.73297356
_cell_angle_beta   94.35070055
_cell_angle_gamma   103.15940160
_symmetry_Int_Tables_number   1
_chemical_formula_structural   Cu5NiC12
_chemical_formula_sum   'Cu10 Ni2 C24'
_cell_volume   380.14962294
_cell_formula_units_Z   2
loop_
 _symmetry_equiv_pos_site_id
 _symmetry_equiv_pos_as_xyz
  1  'x, y, z'
loop_
 _atom_site_type_symbol
 _atom_site_label
 _atom_site_symmetry_multiplicity
 _atom_site_fract_x
 _atom_site_fract_y
 _atom_site_fract_z
 _atom_site_occupancy
  C  C0  1  0.77784500  0.52476900  0.82524500  1
  C  C1  1  0.22215500  0.47523100  0.17475500  1
  C  C2  1  0.78123500  0.86679500  0.18920300  1
  C  C3  1  0.21876500  0.13320500  0.81079700  1
  C  C4  1  0.64094700  0.88832800  0.36231500  1
  C  C5  1  0.35905300  0.11167200  0.63768500  1
  C  C6  1  0.78721600  0.07296700  0.30719900  1
  C  C7  1  0.21278400  0.92703300  0.69280100  1
  C  C8  1  0.85015200  0.14767500  0.92878800  1
  C  C9  1  0.14984800  0.85232500  0.07121200  1
  C  C10  1  0.62755300  0.05528100  0.97188600  1
  C  C11  1  0.37244700  0.94471900  0.02811400  1
  C  C12  1  0.96218800  0.79765700  0.43453800  1
  C  C13  1  0.03781200  0.20234300  0.56546200  1
  C  C14  1  0.12846700  0.96402300  0.34727900  1
  C  C15  1  0.87153300  0.03597700  0.65272100  1
  C  C16  1  0.50884800  0.69882800  0.61268400  1
  C  C17  1  0.49115200  0.30117200  0.38731600  1
  C  C18  1  0.34710800  0.63755000  0.73915600  1
  C  C19  1  0.65289200  0.36245000  0.26084400  1
  C  C20  1  0.98532100  0.93388500  0.41629300  1
  C  C21  1  0.01467900  0.06611500  0.58370700  1
  Ni  Ni22  1  0.78291500  0.94117800  0.31107800  1
  Ni  Ni23  1  0.21708500  0.05882200  0.68892200  1
  Cu  Cu24  1  0.70023100  0.66148300  0.62626400  1
  Cu  Cu25  1  0.29976900  0.33851700  0.37373600  1
  Cu  Cu26  1  0.44537400  0.77590500  0.50638600  1
  Cu  Cu27  1  0.55462600  0.22409500  0.49361400  1
  Cu  Cu28  1  0.17039000  0.68948600  0.74308500  1
  Cu  Cu29  1  0.82961000  0.31051400  0.25691500  1
  Cu  Cu30  1  0.40859900  0.53833600  0.82996200  1
  Cu  Cu31  1  0.59140100  0.46166400  0.17003800  1
  Cu  Cu32  1  0.69092700  0.10039100  0.88032900  1
  Cu  Cu33  1  0.30907300  0.89960900  0.11967100  1
  C  C34  1  0.86447500  0.77127000  0.00719400  1
  C  C35  1  0.13552500  0.22873000  0.99280600  1
