# generated using pymatgen
data_Cu24Ni6C
_symmetry_space_group_name_H-M   'P 1'
_cell_length_a   13.11217702
_cell_length_b   13.11217702
_cell_length_c   15.41137864
_cell_angle_alpha   83.93780766
_cell_angle_beta   83.93780766
_cell_angle_gamma   125.43170641
_symmetry_Int_Tables_number   1
_chemical_formula_structural   Cu24Ni6C
_chemical_formula_sum   'Cu24 Ni6 C1'
_cell_volume   2100.89094006
_cell_formula_units_Z   1
loop_
 _symmetry_equiv_pos_site_id
 _symmetry_equiv_pos_as_xyz
  1  'x, y, z'
loop_
 _atom_site_type_symbol
 _atom_site_label
 _atom_site_symmetry_multiplicity
 _atom_site_fract_x
 _atom_site_fract_y
 _atom_site_fract_z
 _atom_site_occupancy
  C  C0  1  0.00000000  0.00000000  0.00000000  1
  Ni  Ni1  1  0.94458000  0.94458000  0.15152800  1
  Ni  Ni2  1  0.05542000  0.05542000  0.84847200  1
  Ni  Ni3  1  0.98738100  0.17424600  0.00306400  1
  Ni  Ni4  1  0.01261900  0.82575400  0.99693600  1
  Ni  Ni5  1  0.17424600  0.98738100  0.00306400  1
  Ni  Ni6  1  0.82575400  0.01261900  0.99693600  1
  Cu  Cu7  1  0.20173700  0.74478000  0.06802300  1
  Cu  Cu8  1  0.79826300  0.25522000  0.93197700  1
  Cu  Cu9  1  0.71163200  0.07680100  0.25436400  1
  Cu  Cu10  1  0.25522000  0.79826300  0.93197700  1
  Cu  Cu11  1  0.28836800  0.92319900  0.74563600  1
  Cu  Cu12  1  0.74478000  0.20173700  0.06802300  1
  Cu  Cu13  1  0.99621200  0.17730200  0.78528300  1
  Cu  Cu14  1  0.92319900  0.28836800  0.74563600  1
  Cu  Cu15  1  0.00378800  0.82269800  0.21471700  1
  Cu  Cu16  1  0.07680100  0.71163200  0.25436400  1
  Cu  Cu17  1  0.82269800  0.00378800  0.21471700  1
  Cu  Cu18  1  0.17730200  0.99621200  0.78528300  1
  Cu  Cu19  1  0.46146600  0.54714000  0.25760200  1
  Cu  Cu20  1  0.53853400  0.45286000  0.74239800  1
  Cu  Cu21  1  0.51113100  0.20831000  0.44790900  1
  Cu  Cu22  1  0.45286000  0.53853400  0.74239800  1
  Cu  Cu23  1  0.48886900  0.79169000  0.55209100  1
  Cu  Cu24  1  0.54714000  0.46146600  0.25760200  1
  Cu  Cu25  1  0.24127700  0.42841300  0.54532100  1
  Cu  Cu26  1  0.79169000  0.48886900  0.55209100  1
  Cu  Cu27  1  0.75872300  0.57158700  0.45467900  1
  Cu  Cu28  1  0.20831000  0.51113100  0.44790900  1
  Cu  Cu29  1  0.57158700  0.75872300  0.45467900  1
  Cu  Cu30  1  0.42841300  0.24127700  0.54532100  1
