# generated using pymatgen
data_Cu(NiC6)2
_symmetry_space_group_name_H-M   'P 1'
_cell_length_a   5.67729500
_cell_length_b   13.44850999
_cell_length_c   15.95108931
_cell_angle_alpha   67.32850125
_cell_angle_beta   90.00000000
_cell_angle_gamma   90.00000000
_symmetry_Int_Tables_number   1
_chemical_formula_structural   Cu(NiC6)2
_chemical_formula_sum   'Cu4 Ni8 C48'
_cell_volume   1123.77816800
_cell_formula_units_Z   4
loop_
 _symmetry_equiv_pos_site_id
 _symmetry_equiv_pos_as_xyz
  1  'x, y, z'
loop_
 _atom_site_type_symbol
 _atom_site_label
 _atom_site_symmetry_multiplicity
 _atom_site_fract_x
 _atom_site_fract_y
 _atom_site_fract_z
 _atom_site_occupancy
  C  C0  1  0.98222300  0.06215100  0.26909300  1
  C  C1  1  0.48033200  0.10311900  0.56177500  1
  C  C2  1  0.00260500  0.26042300  0.40536500  1
  C  C3  1  0.48222300  0.43784900  0.23090700  1
  C  C4  1  0.01777700  0.93784900  0.73090700  1
  C  C5  1  0.50260500  0.23957700  0.09463500  1
  C  C6  1  0.01966800  0.60311900  0.06177500  1
  C  C7  1  0.51966800  0.89688100  0.43822500  1
  C  C8  1  0.49739500  0.76042300  0.90536500  1
  C  C9  1  0.98033200  0.39688100  0.93822500  1
  C  C10  1  0.99739500  0.73957700  0.59463500  1
  C  C11  1  0.51777700  0.56215100  0.76909300  1
  Ni  Ni12  1  0.52685600  0.67656500  0.32990900  1
  Ni  Ni13  1  0.02685600  0.82343500  0.17009100  1
  Ni  Ni14  1  0.97314400  0.17656500  0.82990900  1
  Ni  Ni15  1  0.00777300  0.66328400  0.83547800  1
  Ni  Ni16  1  0.50777300  0.83671600  0.66452200  1
  Ni  Ni17  1  0.99222700  0.33671600  0.16452200  1
  Ni  Ni18  1  0.47314400  0.32343500  0.67009100  1
  Ni  Ni19  1  0.49222700  0.16328400  0.33547800  1
  Cu  Cu20  1  0.00000000  0.00000000  0.00000000  1
  Cu  Cu21  1  0.50000000  0.50000000  0.50000000  1
  Cu  Cu22  1  0.00000000  0.00000000  0.50000000  1
  Cu  Cu23  1  0.50000000  0.50000000  0.00000000  1
  C  C24  1  0.30894900  0.92524400  0.56224900  1
  C  C25  1  0.96973600  0.55759200  0.77354600  1
  C  C26  1  0.71885500  0.26233600  0.75770900  1
  C  C27  1  0.44875100  0.27706200  0.38523200  1
  C  C28  1  0.80638900  0.23821800  0.27628800  1
  C  C29  1  0.55124900  0.72293800  0.61476800  1
  C  C30  1  0.69105100  0.07475600  0.43775100  1
  C  C31  1  0.80293400  0.90356100  0.60662700  1
  C  C32  1  0.51446100  0.29252100  0.57045300  1
  C  C33  1  0.69706600  0.40356100  0.10662700  1
  C  C34  1  0.45187100  0.47314900  0.63009600  1
  C  C35  1  0.78114500  0.76233600  0.25770900  1
  C  C36  1  0.01446100  0.20747900  0.92954700  1
  C  C37  1  0.47022400  0.60297300  0.05909900  1
  C  C38  1  0.21885500  0.23766400  0.74229100  1
  C  C39  1  0.54812900  0.52685100  0.36990400  1
  C  C40  1  0.28114500  0.73766400  0.24229100  1
  C  C41  1  0.19706600  0.09643900  0.39337300  1
  C  C42  1  0.05124900  0.77706200  0.88523200  1
  C  C43  1  0.03026400  0.44240800  0.22645400  1
  C  C44  1  0.80894900  0.57475600  0.93775100  1
  C  C45  1  0.69361100  0.73821800  0.77628800  1
  C  C46  1  0.30293400  0.59643900  0.89337300  1
  C  C47  1  0.95187100  0.02685100  0.86990400  1
  C  C48  1  0.30638900  0.26178200  0.22371200  1
  C  C49  1  0.53026400  0.05759200  0.27354600  1
  C  C50  1  0.04812900  0.97314900  0.13009600  1
  C  C51  1  0.02977600  0.10297300  0.55909900  1
  C  C52  1  0.97022400  0.89702700  0.44090100  1
  C  C53  1  0.19105100  0.42524400  0.06224900  1
  C  C54  1  0.94875100  0.22293800  0.11476800  1
  C  C55  1  0.52977600  0.39702700  0.94090100  1
  C  C56  1  0.48553900  0.70747900  0.42954700  1
  C  C57  1  0.19361100  0.76178200  0.72371200  1
  C  C58  1  0.98553900  0.79252100  0.07045300  1
  C  C59  1  0.46973600  0.94240800  0.72645400  1
