# generated using pymatgen
data_CuNiC10
_symmetry_space_group_name_H-M   'P 1'
_cell_length_a   7.95617405
_cell_length_b   7.95617405
_cell_length_c   5.28786100
_cell_angle_alpha   90.00000000
_cell_angle_beta   90.00000000
_cell_angle_gamma   90.16907047
_symmetry_Int_Tables_number   1
_chemical_formula_structural   CuNiC10
_chemical_formula_sum   'Cu2 Ni2 C20'
_cell_volume   334.72387470
_cell_formula_units_Z   2
loop_
 _symmetry_equiv_pos_site_id
 _symmetry_equiv_pos_as_xyz
  1  'x, y, z'
loop_
 _atom_site_type_symbol
 _atom_site_label
 _atom_site_symmetry_multiplicity
 _atom_site_fract_x
 _atom_site_fract_y
 _atom_site_fract_z
 _atom_site_occupancy
  Ni  Ni0  1  0.66209700  0.66209700  0.48981400  1
  Ni  Ni1  1  0.33790300  0.33790300  0.48981400  1
  Cu  Cu2  1  0.83581000  0.16419000  0.51015600  1
  Cu  Cu3  1  0.16419000  0.83581000  0.51015600  1
  C  C4  1  0.85806100  0.85806100  0.03850900  1
  C  C5  1  0.64335200  0.35664800  0.96187600  1
  C  C6  1  0.14193900  0.14193900  0.03850900  1
  C  C7  1  0.35664800  0.64335200  0.96187600  1
  C  C8  1  0.50000000  0.00000000  0.99973300  1
  C  C9  1  0.00000000  0.50000000  0.99973300  1
  C  C10  1  0.66614300  0.91798700  0.18650300  1
  C  C11  1  0.83779800  0.40974200  0.80872200  1
  C  C12  1  0.33385700  0.08201300  0.18650300  1
  C  C13  1  0.16220200  0.59025800  0.80872200  1
  C  C14  1  0.40974200  0.83779800  0.80872200  1
  C  C15  1  0.08201300  0.33385700  0.18650300  1
  C  C16  1  0.59025800  0.16220200  0.80872200  1
  C  C17  1  0.91798700  0.66614300  0.18650300  1
  C  C18  1  0.86780600  0.86780600  0.70730600  1
  C  C19  1  0.65064400  0.34935600  0.29157600  1
  C  C20  1  0.13219400  0.13219400  0.70730600  1
  C  C21  1  0.34935600  0.65064400  0.29157600  1
  C  C22  1  0.50000000  0.50000000  0.83346400  1
  C  C23  1  0.00000000  0.00000000  0.18769700  1
