# generated using pymatgen
data_Cu(Ni2C15)2
_symmetry_space_group_name_H-M   'P 1'
_cell_length_a   8.68685012
_cell_length_b   8.68685012
_cell_length_c   8.68685075
_cell_angle_alpha   59.71699504
_cell_angle_beta   59.71699504
_cell_angle_gamma   59.71699021
_symmetry_Int_Tables_number   1
_chemical_formula_structural   Cu(Ni2C15)2
_chemical_formula_sum   'Cu1 Ni4 C30'
_cell_volume   460.54434498
_cell_formula_units_Z   1
loop_
 _symmetry_equiv_pos_site_id
 _symmetry_equiv_pos_as_xyz
  1  'x, y, z'
loop_
 _atom_site_type_symbol
 _atom_site_label
 _atom_site_symmetry_multiplicity
 _atom_site_fract_x
 _atom_site_fract_y
 _atom_site_fract_z
 _atom_site_occupancy
  Ni  Ni0  1  0.85238600  0.85238600  0.85238600  1
  Ni  Ni1  1  0.14761400  0.14761400  0.14761400  1
  Ni  Ni2  1  0.63437700  0.63437700  0.63437700  1
  Ni  Ni3  1  0.36562300  0.36562300  0.36562300  1
  Cu  Cu4  1  0.00000000  0.00000000  0.00000000  1
  C  C5  1  0.02880200  0.75440800  0.45601400  1
  C  C6  1  0.45601400  0.02880200  0.75440800  1
  C  C7  1  0.75440800  0.45601400  0.02880200  1
  C  C8  1  0.97119800  0.24559200  0.54398600  1
  C  C9  1  0.54398600  0.97119800  0.24559200  1
  C  C10  1  0.24559200  0.54398600  0.97119800  1
  C  C11  1  0.49217700  0.86022100  0.71369900  1
  C  C12  1  0.71369900  0.49217700  0.86022100  1
  C  C13  1  0.86022100  0.71369900  0.49217700  1
  C  C14  1  0.50782300  0.13977900  0.28630100  1
  C  C15  1  0.28630100  0.50782300  0.13977900  1
  C  C16  1  0.13977900  0.28630100  0.50782300  1
  C  C17  1  0.99065100  0.81194100  0.61872500  1
  C  C18  1  0.61872500  0.99065100  0.81194100  1
  C  C19  1  0.81194100  0.61872500  0.99065100  1
  C  C20  1  0.00934900  0.18805900  0.38127500  1
  C  C21  1  0.38127500  0.00934900  0.18805900  1
  C  C22  1  0.18805900  0.38127500  0.00934900  1
  C  C23  1  0.55455500  0.78738700  0.41598600  1
  C  C24  1  0.41598600  0.55455500  0.78738700  1
  C  C25  1  0.78738700  0.41598600  0.55455500  1
  C  C26  1  0.44544500  0.21261300  0.58401400  1
  C  C27  1  0.58401400  0.44544500  0.21261300  1
  C  C28  1  0.21261300  0.58401400  0.44544500  1
  C  C29  1  0.94344500  0.07978500  0.73552900  1
  C  C30  1  0.73552900  0.94344500  0.07978500  1
  C  C31  1  0.07978500  0.73552900  0.94344500  1
  C  C32  1  0.05655500  0.92021500  0.26447100  1
  C  C33  1  0.26447100  0.05655500  0.92021500  1
  C  C34  1  0.92021500  0.26447100  0.05655500  1
