# generated using pymatgen
data_Cu4Ni2C17
_symmetry_space_group_name_H-M   'P 1'
_cell_length_a   9.29269100
_cell_length_b   9.29269100
_cell_length_c   9.74199921
_cell_angle_alpha   58.77905996
_cell_angle_beta   58.77905996
_cell_angle_gamma   47.84507270
_symmetry_Int_Tables_number   1
_chemical_formula_structural   Cu4Ni2C17
_chemical_formula_sum   'Cu8 Ni4 C34'
_cell_volume   513.69304133
_cell_formula_units_Z   2
loop_
 _symmetry_equiv_pos_site_id
 _symmetry_equiv_pos_as_xyz
  1  'x, y, z'
loop_
 _atom_site_type_symbol
 _atom_site_label
 _atom_site_symmetry_multiplicity
 _atom_site_fract_x
 _atom_site_fract_y
 _atom_site_fract_z
 _atom_site_occupancy
  C  C0  1  0.08481000  0.25602900  0.10727900  1
  C  C1  1  0.74397100  0.91519000  0.39272100  1
  C  C2  1  0.25602900  0.08481000  0.60727900  1
  C  C3  1  0.38610300  0.61389700  0.75000000  1
  C  C4  1  0.91519000  0.74397100  0.89272100  1
  C  C5  1  0.61389700  0.38610300  0.25000000  1
  Ni  Ni6  1  0.78757900  0.21242100  0.75000000  1
  Ni  Ni7  1  0.21242100  0.78757900  0.25000000  1
  Ni  Ni8  1  0.00000000  0.00000000  0.00000000  1
  Ni  Ni9  1  0.00000000  0.00000000  0.50000000  1
  Cu  Cu10  1  0.54211100  0.08907100  0.70739900  1
  Cu  Cu11  1  0.08907100  0.54211100  0.20739900  1
  Cu  Cu12  1  0.52462600  0.23793000  0.10437800  1
  Cu  Cu13  1  0.23793000  0.52462600  0.60437800  1
  Cu  Cu14  1  0.91092900  0.45788900  0.79260100  1
  Cu  Cu15  1  0.47537400  0.76207000  0.89562200  1
  Cu  Cu16  1  0.76207000  0.47537400  0.39562200  1
  Cu  Cu17  1  0.45788900  0.91092900  0.29260100  1
  C  C18  1  0.83922900  0.30336800  0.32171200  1
  C  C19  1  0.97278600  0.89105100  0.41457300  1
  C  C20  1  0.45290800  0.63559100  0.09116800  1
  C  C21  1  0.89105100  0.97278600  0.91457300  1
  C  C22  1  0.23538600  0.98834100  0.30059100  1
  C  C23  1  0.06104300  0.51439200  0.61809400  1
  C  C24  1  0.63559100  0.45290800  0.59116800  1
  C  C25  1  0.01165900  0.76461400  0.19940900  1
  C  C26  1  0.93895700  0.48560800  0.38190600  1
  C  C27  1  0.62978500  0.68343800  0.26542900  1
  C  C28  1  0.02721400  0.10894900  0.58542700  1
  C  C29  1  0.76461400  0.01165900  0.69940900  1
  C  C30  1  0.48560800  0.93895700  0.88190600  1
  C  C31  1  0.30336800  0.83922900  0.82171200  1
  C  C32  1  0.68343800  0.62978500  0.76542900  1
  C  C33  1  0.98834100  0.23538600  0.80059100  1
  C  C34  1  0.91279600  0.48132400  0.94494300  1
  C  C35  1  0.37021500  0.31656200  0.73457100  1
  C  C36  1  0.51867600  0.08720400  0.55505700  1
  C  C37  1  0.31656200  0.37021500  0.23457100  1
  C  C38  1  0.51439200  0.06104300  0.11809400  1
  C  C39  1  0.10894900  0.02721400  0.08542700  1
  C  C40  1  0.48132400  0.91279600  0.44494300  1
  C  C41  1  0.54709200  0.36440900  0.90883200  1
  C  C42  1  0.08720400  0.51867600  0.05505700  1
  C  C43  1  0.36440900  0.54709200  0.40883200  1
  C  C44  1  0.69663200  0.16077100  0.17828800  1
  C  C45  1  0.16077100  0.69663200  0.67828800  1
