# generated using pymatgen
data_Cu2Ni8C13
_symmetry_space_group_name_H-M   'P 1'
_cell_length_a   7.63437144
_cell_length_b   7.63437144
_cell_length_c   9.61153312
_cell_angle_alpha   85.63616344
_cell_angle_beta   85.63616344
_cell_angle_gamma   63.89226882
_symmetry_Int_Tables_number   1
_chemical_formula_structural   Cu2Ni8C13
_chemical_formula_sum   'Cu4 Ni16 C26'
_cell_volume   501.01080930
_cell_formula_units_Z   2
loop_
 _symmetry_equiv_pos_site_id
 _symmetry_equiv_pos_as_xyz
  1  'x, y, z'
loop_
 _atom_site_type_symbol
 _atom_site_label
 _atom_site_symmetry_multiplicity
 _atom_site_fract_x
 _atom_site_fract_y
 _atom_site_fract_z
 _atom_site_occupancy
  C  C0  1  0.56533400  0.43466500  0.25000000  1
  C  C1  1  0.43466500  0.56533400  0.75000000  1
  Ni  Ni2  1  0.57391600  0.19237200  0.99591200  1
  Ni  Ni3  1  0.80762800  0.42608400  0.50408800  1
  Ni  Ni4  1  0.42608400  0.80762800  0.00408800  1
  Ni  Ni5  1  0.19237200  0.57391600  0.49591200  1
  Ni  Ni6  1  0.77090300  0.21719700  0.96232300  1
  Ni  Ni7  1  0.78280300  0.22909700  0.53767700  1
  Ni  Ni8  1  0.22909700  0.78280300  0.03767700  1
  Ni  Ni9  1  0.21719700  0.77090300  0.46232300  1
  Ni  Ni10  1  0.04871300  0.55109100  0.28097900  1
  Ni  Ni11  1  0.44890900  0.95128700  0.21902100  1
  Ni  Ni12  1  0.95128700  0.44890900  0.71902100  1
  Ni  Ni13  1  0.55109100  0.04871300  0.78097900  1
  Ni  Ni14  1  0.12495500  0.12712200  0.89528400  1
  Ni  Ni15  1  0.87287800  0.87504500  0.60471600  1
  Ni  Ni16  1  0.87504500  0.87287800  0.10471600  1
  Ni  Ni17  1  0.12712200  0.12495500  0.39528400  1
  Cu  Cu18  1  0.11058100  0.31656300  0.10243000  1
  Cu  Cu19  1  0.68343700  0.88941900  0.39757000  1
  Cu  Cu20  1  0.88941900  0.68343700  0.89757000  1
  Cu  Cu21  1  0.31656300  0.11058100  0.60243000  1
  C  C22  1  0.62760900  0.28789800  0.97260900  1
  C  C23  1  0.71210200  0.37239100  0.52739100  1
  C  C24  1  0.37239100  0.71210200  0.02739100  1
  C  C25  1  0.28789800  0.62760900  0.47260900  1
  C  C26  1  0.15794300  0.45960500  0.93102600  1
  C  C27  1  0.54039500  0.84205700  0.56897400  1
  C  C28  1  0.84205700  0.54039500  0.06897400  1
  C  C29  1  0.45960500  0.15794300  0.43102600  1
  C  C30  1  0.99543900  0.24140700  0.25235600  1
  C  C31  1  0.75859300  0.00456100  0.24764400  1
  C  C32  1  0.00456100  0.75859300  0.74764400  1
  C  C33  1  0.24140700  0.99543900  0.75235600  1
  C  C34  1  0.16432800  0.49229700  0.21195900  1
  C  C35  1  0.50770300  0.83567200  0.28804100  1
  C  C36  1  0.83567200  0.50770300  0.78804100  1
  C  C37  1  0.49229700  0.16432800  0.71195900  1
  C  C38  1  0.03972700  0.16496900  0.98403000  1
  C  C39  1  0.83503100  0.96027300  0.51597000  1
  C  C40  1  0.96027300  0.83503100  0.01597000  1
  C  C41  1  0.16496900  0.03972700  0.48403000  1
  C  C42  1  0.36615900  0.14111900  0.10195500  1
  C  C43  1  0.85888100  0.63384100  0.39804500  1
  C  C44  1  0.63384100  0.85888100  0.89804500  1
  C  C45  1  0.14111900  0.36615900  0.60195500  1
