# generated using pymatgen
data_CuNi2C7
_symmetry_space_group_name_H-M   'P 1'
_cell_length_a   6.25906932
_cell_length_b   6.25906932
_cell_length_c   6.31072258
_cell_angle_alpha   60.03861366
_cell_angle_beta   60.03861366
_cell_angle_gamma   60.12858220
_symmetry_Int_Tables_number   1
_chemical_formula_structural   CuNi2C7
_chemical_formula_sum   'Cu1 Ni2 C7'
_cell_volume   175.08848625
_cell_formula_units_Z   1
loop_
 _symmetry_equiv_pos_site_id
 _symmetry_equiv_pos_as_xyz
  1  'x, y, z'
loop_
 _atom_site_type_symbol
 _atom_site_label
 _atom_site_symmetry_multiplicity
 _atom_site_fract_x
 _atom_site_fract_y
 _atom_site_fract_z
 _atom_site_occupancy
  Ni  Ni0  1  0.75157600  0.75157600  0.74173700  1
  Ni  Ni1  1  0.24842400  0.24842400  0.25826300  1
  Cu  Cu2  1  0.00000000  0.00000000  0.00000000  1
  C  C3  1  0.50000000  0.50000000  0.50000000  1
  C  C4  1  0.73735600  0.73735600  0.19315800  1
  C  C5  1  0.26264400  0.26264400  0.80684200  1
  C  C6  1  0.70189300  0.22218600  0.30137100  1
  C  C7  1  0.29810700  0.77781400  0.69862900  1
  C  C8  1  0.77781400  0.29810700  0.69862900  1
  C  C9  1  0.22218600  0.70189300  0.30137100  1
