# generated using pymatgen
data_Cu2NiC7
_symmetry_space_group_name_H-M   'P 1'
_cell_length_a   5.42280700
_cell_length_b   9.71025400
_cell_length_c   19.04297600
_cell_angle_alpha   90.00000000
_cell_angle_beta   90.00000000
_cell_angle_gamma   90.00000000
_symmetry_Int_Tables_number   1
_chemical_formula_structural   Cu2NiC7
_chemical_formula_sum   'Cu16 Ni8 C56'
_cell_volume   1002.74281397
_cell_formula_units_Z   8
loop_
 _symmetry_equiv_pos_site_id
 _symmetry_equiv_pos_as_xyz
  1  'x, y, z'
loop_
 _atom_site_type_symbol
 _atom_site_label
 _atom_site_symmetry_multiplicity
 _atom_site_fract_x
 _atom_site_fract_y
 _atom_site_fract_z
 _atom_site_occupancy
  C  C0  1  0.60884500  0.14640500  0.37701400  1
  C  C1  1  0.39115500  0.85359500  0.62298600  1
  C  C2  1  0.60884500  0.64640500  0.12298600  1
  C  C3  1  0.10884500  0.85359500  0.12298600  1
  C  C4  1  0.89115500  0.14640500  0.87701400  1
  C  C5  1  0.39115500  0.35359500  0.87701400  1
  C  C6  1  0.10884500  0.35359500  0.37701400  1
  C  C7  1  0.89115500  0.64640500  0.62298600  1
  Ni  Ni8  1  0.38231400  0.98696000  0.87500100  1
  Ni  Ni9  1  0.61768600  0.01304000  0.12499900  1
  Ni  Ni10  1  0.88231400  0.01304000  0.62499900  1
  Ni  Ni11  1  0.11768600  0.98696000  0.37500100  1
  Ni  Ni12  1  0.38231400  0.48696000  0.62499900  1
  Ni  Ni13  1  0.61768600  0.51304000  0.37500100  1
  Ni  Ni14  1  0.88231400  0.51304000  0.87500100  1
  Ni  Ni15  1  0.11768600  0.48696000  0.12499900  1
  Cu  Cu16  1  0.57344900  0.66682600  0.77677100  1
  Cu  Cu17  1  0.75765300  0.83328800  0.47454400  1
  Cu  Cu18  1  0.74234700  0.83328800  0.97454400  1
  Cu  Cu19  1  0.92655100  0.16682600  0.22322900  1
  Cu  Cu20  1  0.07344900  0.33317400  0.72322900  1
  Cu  Cu21  1  0.42655100  0.83317400  0.27677100  1
  Cu  Cu22  1  0.25765300  0.66671200  0.47454400  1
  Cu  Cu23  1  0.75765300  0.33328800  0.02545600  1
  Cu  Cu24  1  0.74234700  0.33328800  0.52545600  1
  Cu  Cu25  1  0.92655100  0.66682600  0.27677100  1
  Cu  Cu26  1  0.42655100  0.33317400  0.22322900  1
  Cu  Cu27  1  0.57344900  0.16682600  0.72322900  1
  Cu  Cu28  1  0.24234700  0.16671200  0.52545600  1
  Cu  Cu29  1  0.07344900  0.83317400  0.77677100  1
  Cu  Cu30  1  0.24234700  0.66671200  0.97454400  1
  Cu  Cu31  1  0.25765300  0.16671200  0.02545600  1
  C  C32  1  0.90383900  0.51779900  0.31630300  1
  C  C33  1  0.32475200  0.03073200  0.07126200  1
  C  C34  1  0.09616100  0.48220100  0.68369700  1
  C  C35  1  0.75656600  0.35203000  0.93971700  1
  C  C36  1  0.25656600  0.14797000  0.93971700  1
  C  C37  1  0.96853200  0.21373000  0.04487500  1
  C  C38  1  0.94649400  0.66020100  0.19197800  1
  C  C39  1  0.05350600  0.83979900  0.69197800  1
  C  C40  1  0.75656600  0.85203000  0.56028300  1
  C  C41  1  0.94649400  0.16020100  0.30802200  1
  C  C42  1  0.40383900  0.48220100  0.18369700  1
  C  C43  1  0.74343400  0.35203000  0.43971700  1
  C  C44  1  0.67524800  0.96926800  0.92873800  1
  C  C45  1  0.44649400  0.83979900  0.19197800  1
  C  C46  1  0.59616100  0.01779900  0.68369700  1
  C  C47  1  0.32475200  0.53073200  0.42873800  1
  C  C48  1  0.40383900  0.98220100  0.31630300  1
  C  C49  1  0.16642400  0.75816200  0.30514900  1
  C  C50  1  0.33357600  0.75816200  0.80514900  1
  C  C51  1  0.53146800  0.71373000  0.95512500  1
  C  C52  1  0.74343400  0.85203000  0.06028300  1
  C  C53  1  0.55350600  0.66020100  0.69197800  1
  C  C54  1  0.82475200  0.46926800  0.07126200  1
  C  C55  1  0.16642400  0.25816200  0.19485100  1
  C  C56  1  0.24343400  0.14797000  0.43971700  1
  C  C57  1  0.55350600  0.16020100  0.80802200  1
  C  C58  1  0.67524800  0.46926800  0.57126200  1
  C  C59  1  0.25656600  0.64797000  0.56028300  1
  C  C60  1  0.17524800  0.53073200  0.92873800  1
  C  C61  1  0.66642400  0.74183800  0.30514900  1
  C  C62  1  0.09616100  0.98220100  0.81630300  1
  C  C63  1  0.83357600  0.74183800  0.80514900  1
  C  C64  1  0.83357600  0.24183800  0.69485100  1
  C  C65  1  0.82475200  0.96926800  0.42873800  1
  C  C66  1  0.24343400  0.64797000  0.06028300  1
  C  C67  1  0.17524800  0.03073200  0.57126200  1
  C  C68  1  0.33357600  0.25816200  0.69485100  1
  C  C69  1  0.03146800  0.78627000  0.95512500  1
  C  C70  1  0.46853200  0.78627000  0.45512500  1
  C  C71  1  0.66642400  0.24183800  0.19485100  1
  C  C72  1  0.46853200  0.28627000  0.04487500  1
  C  C73  1  0.53146800  0.21373000  0.54487500  1
  C  C74  1  0.03146800  0.28627000  0.54487500  1
  C  C75  1  0.44649400  0.33979900  0.30802200  1
  C  C76  1  0.59616100  0.51779900  0.81630300  1
  C  C77  1  0.96853200  0.71373000  0.45512500  1
  C  C78  1  0.05350600  0.33979900  0.80802200  1
  C  C79  1  0.90383900  0.01779900  0.18369700  1
