# generated using pymatgen
data_CuNi
_symmetry_space_group_name_H-M   'P 1'
_cell_length_a   2.86304000
_cell_length_b   4.87331100
_cell_length_c   13.89104500
_cell_angle_alpha   90.00000000
_cell_angle_beta   90.00000000
_cell_angle_gamma   90.00000000
_symmetry_Int_Tables_number   1
_chemical_formula_structural   CuNi
_chemical_formula_sum   'Cu6 Ni6'
_cell_volume   193.81458763
_cell_formula_units_Z   6
loop_
 _symmetry_equiv_pos_site_id
 _symmetry_equiv_pos_as_xyz
  1  'x, y, z'
loop_
 _atom_site_type_symbol
 _atom_site_label
 _atom_site_symmetry_multiplicity
 _atom_site_fract_x
 _atom_site_fract_y
 _atom_site_fract_z
 _atom_site_occupancy
  Ni  Ni0  1  0.00000000  0.04635800  0.25000000  1
  Ni  Ni1  1  0.00000000  0.95364200  0.75000000  1
  Ni  Ni2  1  0.00000000  0.32389300  0.58397300  1
  Ni  Ni3  1  0.00000000  0.67610700  0.41602700  1
  Ni  Ni4  1  0.00000000  0.32389300  0.91602700  1
  Ni  Ni5  1  0.00000000  0.67610700  0.08397300  1
  Cu  Cu6  1  0.50000000  0.53973600  0.25000000  1
  Cu  Cu7  1  0.50000000  0.46026400  0.75000000  1
  Cu  Cu8  1  0.50000000  0.82289100  0.58331400  1
  Cu  Cu9  1  0.50000000  0.17710900  0.41668600  1
  Cu  Cu10  1  0.50000000  0.82289100  0.91668600  1
  Cu  Cu11  1  0.50000000  0.17710900  0.08331400  1
