# generated using pymatgen
data_Cu2Ni4C3
_symmetry_space_group_name_H-M   'P 1'
_cell_length_a   5.78991231
_cell_length_b   7.21457690
_cell_length_c   7.21457690
_cell_angle_alpha   63.44591825
_cell_angle_beta   88.99315701
_cell_angle_gamma   88.99315701
_symmetry_Int_Tables_number   1
_chemical_formula_structural   Cu2Ni4C3
_chemical_formula_sum   'Cu2 Ni4 C3'
_cell_volume   269.51788384
_cell_formula_units_Z   1
loop_
 _symmetry_equiv_pos_site_id
 _symmetry_equiv_pos_as_xyz
  1  'x, y, z'
loop_
 _atom_site_type_symbol
 _atom_site_label
 _atom_site_symmetry_multiplicity
 _atom_site_fract_x
 _atom_site_fract_y
 _atom_site_fract_z
 _atom_site_occupancy
  C  C0  1  0.78045200  0.84311300  0.84311300  1
  C  C1  1  0.21954800  0.15688700  0.15688700  1
  C  C2  1  0.50000000  0.50000000  0.50000000  1
  Ni  Ni3  1  0.71762600  0.86178300  0.35645900  1
  Ni  Ni4  1  0.71762600  0.35645900  0.86178300  1
  Ni  Ni5  1  0.28237400  0.13821700  0.64354100  1
  Ni  Ni6  1  0.28237400  0.64354100  0.13821700  1
  Cu  Cu7  1  0.71251600  0.39339000  0.39339000  1
  Cu  Cu8  1  0.28748400  0.60661000  0.60661000  1
