# generated using pymatgen
data_CuNi4C41
_symmetry_space_group_name_H-M   'P 1'
_cell_length_a   11.22881846
_cell_length_b   11.22881846
_cell_length_c   11.22881809
_cell_angle_alpha   81.27725759
_cell_angle_beta   81.27725759
_cell_angle_gamma   81.27725868
_symmetry_Int_Tables_number   1
_chemical_formula_structural   CuNi4C41
_chemical_formula_sum   'Cu2 Ni8 C82'
_cell_volume   1371.19387092
_cell_formula_units_Z   2
loop_
 _symmetry_equiv_pos_site_id
 _symmetry_equiv_pos_as_xyz
  1  'x, y, z'
loop_
 _atom_site_type_symbol
 _atom_site_label
 _atom_site_symmetry_multiplicity
 _atom_site_fract_x
 _atom_site_fract_y
 _atom_site_fract_z
 _atom_site_occupancy
  C  C0  1  0.13592200  0.39432300  0.96843400  1
  C  C1  1  0.39432300  0.96843400  0.13592200  1
  C  C2  1  0.96843400  0.13592200  0.39432300  1
  C  C3  1  0.46843400  0.89432300  0.63592200  1
  C  C4  1  0.89432300  0.63592200  0.46843400  1
  C  C5  1  0.63592200  0.46843400  0.89432300  1
  C  C6  1  0.39219100  0.47533800  0.16277800  1
  C  C7  1  0.47533800  0.16277800  0.39219100  1
  C  C8  1  0.16277800  0.39219100  0.47533800  1
  C  C9  1  0.66277800  0.97533800  0.89219100  1
  C  C10  1  0.97533800  0.89219100  0.66277800  1
  C  C11  1  0.89219100  0.66277800  0.97533800  1
  Ni  Ni12  1  0.59715700  0.20581400  0.07456400  1
  Ni  Ni13  1  0.20581400  0.07456400  0.59715700  1
  Ni  Ni14  1  0.07456400  0.59715700  0.20581400  1
  Ni  Ni15  1  0.57456400  0.70581400  0.09715700  1
  Ni  Ni16  1  0.70581400  0.09715700  0.57456400  1
  Ni  Ni17  1  0.09715700  0.57456400  0.70581400  1
  Ni  Ni18  1  0.47076900  0.47076900  0.47076900  1
  Ni  Ni19  1  0.97076900  0.97076900  0.97076900  1
  Cu  Cu20  1  0.25210100  0.25210100  0.25210100  1
  Cu  Cu21  1  0.75210100  0.75210100  0.75210100  1
  C  C22  1  0.51325200  0.34449000  0.03218400  1
  C  C23  1  0.34449000  0.03218400  0.51325200  1
  C  C24  1  0.03218400  0.51325200  0.34449000  1
  C  C25  1  0.53218400  0.84449000  0.01325200  1
  C  C26  1  0.84449000  0.01325200  0.53218400  1
  C  C27  1  0.01325200  0.53218400  0.84449000  1
  C  C28  1  0.54156800  0.08708900  0.03341400  1
  C  C29  1  0.08708900  0.03341400  0.54156800  1
  C  C30  1  0.03341400  0.54156800  0.08708900  1
  C  C31  1  0.53341400  0.58708900  0.04156800  1
  C  C32  1  0.58708900  0.04156800  0.53341400  1
  C  C33  1  0.04156800  0.53341400  0.58708900  1
  C  C34  1  0.72878100  0.23814400  0.97549300  1
  C  C35  1  0.23814400  0.97549300  0.72878100  1
  C  C36  1  0.97549300  0.72878100  0.23814400  1
  C  C37  1  0.47549300  0.73814400  0.22878100  1
  C  C38  1  0.73814400  0.22878100  0.47549300  1
  C  C39  1  0.22878100  0.47549300  0.73814400  1
  C  C40  1  0.61326500  0.18901600  0.22422500  1
  C  C41  1  0.18901600  0.22422500  0.61326500  1
  C  C42  1  0.22422500  0.61326500  0.18901600  1
  C  C43  1  0.72422500  0.68901600  0.11326500  1
  C  C44  1  0.68901600  0.11326500  0.72422500  1
  C  C45  1  0.11326500  0.72422500  0.68901600  1
  C  C46  1  0.55101900  0.55101900  0.55101900  1
  C  C47  1  0.05101900  0.05101900  0.05101900  1
  C  C48  1  0.49259100  0.52399100  0.31783600  1
  C  C49  1  0.52399100  0.31783600  0.49259100  1
  C  C50  1  0.31783600  0.49259100  0.52399100  1
  C  C51  1  0.81783600  0.02399100  0.99259100  1
  C  C52  1  0.02399100  0.99259100  0.81783600  1
  C  C53  1  0.99259100  0.81783600  0.02399100  1
  C  C54  1  0.32366300  0.32366300  0.32366300  1
  C  C55  1  0.82366300  0.82366300  0.82366300  1
  C  C56  1  0.24336200  0.32888300  0.12598700  1
  C  C57  1  0.32888300  0.12598700  0.24336200  1
  C  C58  1  0.12598700  0.24336200  0.32888300  1
  C  C59  1  0.62598700  0.82888300  0.74336200  1
  C  C60  1  0.82888300  0.74336200  0.62598700  1
  C  C61  1  0.74336200  0.62598700  0.82888300  1
  C  C62  1  0.36714700  0.24709900  0.86836000  1
  C  C63  1  0.24709900  0.86836000  0.36714700  1
  C  C64  1  0.86836000  0.36714700  0.24709900  1
  C  C65  1  0.36836000  0.74709900  0.86714700  1
  C  C66  1  0.74709900  0.86714700  0.36836000  1
  C  C67  1  0.86714700  0.36836000  0.74709900  1
  C  C68  1  0.12076200  0.21458900  0.87417500  1
  C  C69  1  0.21458900  0.87417500  0.12076200  1
  C  C70  1  0.87417500  0.12076200  0.21458900  1
  C  C71  1  0.37417500  0.71458900  0.62076200  1
  C  C72  1  0.71458900  0.62076200  0.37417500  1
  C  C73  1  0.62076200  0.37417500  0.71458900  1
  C  C74  1  0.27822200  0.58662500  0.94162400  1
  C  C75  1  0.58662500  0.94162400  0.27822200  1
  C  C76  1  0.94162400  0.27822200  0.58662500  1
  C  C77  1  0.44162400  0.08662500  0.77822200  1
  C  C78  1  0.08662500  0.77822200  0.44162400  1
  C  C79  1  0.77822200  0.44162400  0.08662500  1
  C  C80  1  0.95600600  0.23174700  0.09056500  1
  C  C81  1  0.23174700  0.09056500  0.95600600  1
  C  C82  1  0.09056500  0.95600600  0.23174700  1
  C  C83  1  0.59056500  0.73174700  0.45600600  1
  C  C84  1  0.73174700  0.45600600  0.59056500  1
  C  C85  1  0.45600600  0.59056500  0.73174700  1
  C  C86  1  0.89559900  0.26825200  0.70062900  1
  C  C87  1  0.26825200  0.70062900  0.89559900  1
  C  C88  1  0.70062900  0.89559900  0.26825200  1
  C  C89  1  0.20062900  0.76825200  0.39559900  1
  C  C90  1  0.76825200  0.39559900  0.20062900  1
  C  C91  1  0.39559900  0.20062900  0.76825200  1
