# generated using pymatgen
data_CuNiC5
_symmetry_space_group_name_H-M   'P 1'
_cell_length_a   6.81076200
_cell_length_b   6.83868800
_cell_length_c   11.25231000
_cell_angle_alpha   90.00000000
_cell_angle_beta   90.00000000
_cell_angle_gamma   90.00000000
_symmetry_Int_Tables_number   1
_chemical_formula_structural   CuNiC5
_chemical_formula_sum   'Cu4 Ni4 C20'
_cell_volume   524.09520118
_cell_formula_units_Z   4
loop_
 _symmetry_equiv_pos_site_id
 _symmetry_equiv_pos_as_xyz
  1  'x, y, z'
loop_
 _atom_site_type_symbol
 _atom_site_label
 _atom_site_symmetry_multiplicity
 _atom_site_fract_x
 _atom_site_fract_y
 _atom_site_fract_z
 _atom_site_occupancy
  Ni  Ni0  1  0.88272200  0.00000000  0.42652500  1
  Ni  Ni1  1  0.38272200  0.00000000  0.57347500  1
  Ni  Ni2  1  0.01664900  0.00000000  0.76601900  1
  Ni  Ni3  1  0.51664900  0.00000000  0.23398100  1
  Cu  Cu4  1  0.11928800  0.50000000  0.08906200  1
  Cu  Cu5  1  0.61928800  0.50000000  0.91093800  1
  Cu  Cu6  1  0.98722400  0.50000000  0.75668900  1
  Cu  Cu7  1  0.48722400  0.50000000  0.24331100  1
  C  C8  1  0.15336300  0.00000000  0.10526400  1
  C  C9  1  0.84507500  0.50000000  0.36063900  1
  C  C10  1  0.34507500  0.50000000  0.63936100  1
  C  C11  1  0.65336300  0.00000000  0.89473600  1
  C  C12  1  0.11059500  0.25919900  0.59697500  1
  C  C13  1  0.88280300  0.25080300  0.90480900  1
  C  C14  1  0.38280300  0.25080300  0.09519100  1
  C  C15  1  0.61059500  0.25919900  0.40302500  1
  C  C16  1  0.61059500  0.74080100  0.40302500  1
  C  C17  1  0.38280300  0.74919700  0.09519100  1
  C  C18  1  0.88280300  0.74919700  0.90480900  1
  C  C19  1  0.11059500  0.74080100  0.59697500  1
  C  C20  1  0.86312300  0.00000000  0.19785400  1
  C  C21  1  0.15005600  0.50000000  0.29181700  1
  C  C22  1  0.65005600  0.50000000  0.70818300  1
  C  C23  1  0.36312300  0.00000000  0.80214600  1
  C  C24  1  0.26918400  0.50000000  0.87710400  1
  C  C25  1  0.72652000  0.00000000  0.62995400  1
  C  C26  1  0.22652000  0.00000000  0.37004600  1
  C  C27  1  0.76918400  0.50000000  0.12289600  1
