# generated using pymatgen
data_Cu(NiC9)2
_symmetry_space_group_name_H-M   'P 1'
_cell_length_a   12.63162300
_cell_length_b   12.63162300
_cell_length_c   7.57588100
_cell_angle_alpha   90.00000000
_cell_angle_beta   90.00000000
_cell_angle_gamma   90.00000000
_symmetry_Int_Tables_number   1
_chemical_formula_structural   Cu(NiC9)2
_chemical_formula_sum   'Cu4 Ni8 C72'
_cell_volume   1208.79166009
_cell_formula_units_Z   4
loop_
 _symmetry_equiv_pos_site_id
 _symmetry_equiv_pos_as_xyz
  1  'x, y, z'
loop_
 _atom_site_type_symbol
 _atom_site_label
 _atom_site_symmetry_multiplicity
 _atom_site_fract_x
 _atom_site_fract_y
 _atom_site_fract_z
 _atom_site_occupancy
  Ni  Ni0  1  0.52039400  0.18865800  0.50000000  1
  Ni  Ni1  1  0.47960600  0.81134200  0.50000000  1
  Ni  Ni2  1  0.02039400  0.31134200  0.00000000  1
  Ni  Ni3  1  0.97960600  0.68865800  0.00000000  1
  Ni  Ni4  1  0.18865800  0.52039400  0.50000000  1
  Ni  Ni5  1  0.81134200  0.47960600  0.50000000  1
  Ni  Ni6  1  0.31134200  0.02039400  0.00000000  1
  Ni  Ni7  1  0.68865800  0.97960600  0.00000000  1
  Cu  Cu8  1  0.50000000  0.50000000  0.25313500  1
  Cu  Cu9  1  0.00000000  0.00000000  0.75313500  1
  Cu  Cu10  1  0.50000000  0.50000000  0.74686500  1
  Cu  Cu11  1  0.00000000  0.00000000  0.24686500  1
  C  C12  1  0.79637900  0.20362100  0.25410900  1
  C  C13  1  0.20362100  0.79637900  0.25410900  1
  C  C14  1  0.29637900  0.29637900  0.75410900  1
  C  C15  1  0.70362100  0.70362100  0.75410900  1
  C  C16  1  0.20362100  0.79637900  0.74589100  1
  C  C17  1  0.79637900  0.20362100  0.74589100  1
  C  C18  1  0.70362100  0.70362100  0.24589100  1
  C  C19  1  0.29637900  0.29637900  0.24589100  1
  C  C20  1  0.74690900  0.95126600  0.50000000  1
  C  C21  1  0.25309100  0.04873400  0.50000000  1
  C  C22  1  0.24690900  0.54873400  0.00000000  1
  C  C23  1  0.75309100  0.45126600  0.00000000  1
  C  C24  1  0.95126600  0.74690900  0.50000000  1
  C  C25  1  0.04873400  0.25309100  0.50000000  1
  C  C26  1  0.54873400  0.24690900  0.00000000  1
  C  C27  1  0.45126600  0.75309100  0.00000000  1
  C  C28  1  0.64558400  0.19245500  0.18994600  1
  C  C29  1  0.35441600  0.80754500  0.18994600  1
  C  C30  1  0.14558400  0.30754500  0.68994600  1
  C  C31  1  0.85441600  0.69245500  0.68994600  1
  C  C32  1  0.35441600  0.80754500  0.81005400  1
  C  C33  1  0.64558400  0.19245500  0.81005400  1
  C  C34  1  0.85441600  0.69245500  0.31005400  1
  C  C35  1  0.14558400  0.30754500  0.31005400  1
  C  C36  1  0.19245500  0.64558400  0.18994600  1
  C  C37  1  0.80754500  0.35441600  0.18994600  1
  C  C38  1  0.30754500  0.14558400  0.68994600  1
  C  C39  1  0.69245500  0.85441600  0.68994600  1
  C  C40  1  0.80754500  0.35441600  0.81005400  1
  C  C41  1  0.19245500  0.64558400  0.81005400  1
  C  C42  1  0.69245500  0.85441600  0.31005400  1
  C  C43  1  0.30754500  0.14558400  0.31005400  1
  C  C44  1  0.80085800  0.04580900  0.30212100  1
  C  C45  1  0.19914200  0.95419100  0.30212100  1
  C  C46  1  0.30085800  0.45419100  0.80212100  1
  C  C47  1  0.69914200  0.54580900  0.80212100  1
  C  C48  1  0.19914200  0.95419100  0.69787900  1
  C  C49  1  0.80085800  0.04580900  0.69787900  1
  C  C50  1  0.69914200  0.54580900  0.19787900  1
  C  C51  1  0.30085800  0.45419100  0.19787900  1
  C  C52  1  0.04580900  0.80085800  0.30212100  1
  C  C53  1  0.95419100  0.19914200  0.30212100  1
  C  C54  1  0.45419100  0.30085800  0.80212100  1
  C  C55  1  0.54580900  0.69914200  0.80212100  1
  C  C56  1  0.95419100  0.19914200  0.69787900  1
  C  C57  1  0.04580900  0.80085800  0.69787900  1
  C  C58  1  0.54580900  0.69914200  0.19787900  1
  C  C59  1  0.45419100  0.30085800  0.19787900  1
  C  C60  1  0.60748900  0.01159400  0.50000000  1
  C  C61  1  0.39251100  0.98840600  0.50000000  1
  C  C62  1  0.10748900  0.48840600  0.00000000  1
  C  C63  1  0.89251100  0.51159400  0.00000000  1
  C  C64  1  0.01159400  0.60748900  0.50000000  1
  C  C65  1  0.98840600  0.39251100  0.50000000  1
  C  C66  1  0.48840600  0.10748900  0.00000000  1
  C  C67  1  0.51159400  0.89251100  0.00000000  1
  C  C68  1  0.66372100  0.66372100  0.50000000  1
  C  C69  1  0.33627900  0.33627900  0.50000000  1
  C  C70  1  0.16372100  0.83627900  0.00000000  1
  C  C71  1  0.83627900  0.16372100  0.00000000  1
  C  C72  1  0.90045900  0.90045900  0.50000000  1
  C  C73  1  0.09954100  0.09954100  0.50000000  1
  C  C74  1  0.40045900  0.59954100  0.00000000  1
  C  C75  1  0.59954100  0.40045900  0.00000000  1
  C  C76  1  0.75927000  0.24073000  0.50000000  1
  C  C77  1  0.24073000  0.75927000  0.50000000  1
  C  C78  1  0.25927000  0.25927000  0.00000000  1
  C  C79  1  0.74073000  0.74073000  0.00000000  1
  C  C80  1  0.58391400  0.41608600  0.50000000  1
  C  C81  1  0.41608600  0.58391400  0.50000000  1
  C  C82  1  0.08391400  0.08391400  0.00000000  1
  C  C83  1  0.91608600  0.91608600  0.00000000  1
