# generated using pymatgen
data_CuNiC62
_symmetry_space_group_name_H-M   'P 1'
_cell_length_a   8.51474100
_cell_length_b   8.51474100
_cell_length_c   8.51479000
_cell_angle_alpha   90.00000000
_cell_angle_beta   90.00000000
_cell_angle_gamma   90.00000000
_symmetry_Int_Tables_number   1
_chemical_formula_structural   CuNiC62
_chemical_formula_sum   'Cu1 Ni1 C62'
_cell_volume   617.32920857
_cell_formula_units_Z   1
loop_
 _symmetry_equiv_pos_site_id
 _symmetry_equiv_pos_as_xyz
  1  'x, y, z'
loop_
 _atom_site_type_symbol
 _atom_site_label
 _atom_site_symmetry_multiplicity
 _atom_site_fract_x
 _atom_site_fract_y
 _atom_site_fract_z
 _atom_site_occupancy
  C  C0  1  0.00000000  0.50000000  0.00000000  1
  C  C1  1  0.50000000  0.00000000  0.00000000  1
  C  C2  1  0.00000000  0.00000000  0.50000000  1
  C  C3  1  0.00000000  0.50000000  0.50000000  1
  C  C4  1  0.50000000  0.00000000  0.50000000  1
  C  C5  1  0.50000000  0.50000000  0.50000000  1
  C  C6  1  0.25044300  0.25044300  0.00000000  1
  C  C7  1  0.25044300  0.74955700  0.00000000  1
  C  C8  1  0.74955700  0.25044300  0.00000000  1
  C  C9  1  0.74955700  0.74955700  0.00000000  1
  C  C10  1  0.25003700  0.25003700  0.50000000  1
  C  C11  1  0.25003700  0.74996300  0.50000000  1
  C  C12  1  0.74996300  0.25003700  0.50000000  1
  C  C13  1  0.74996300  0.74996300  0.50000000  1
  C  C14  1  0.00000000  0.24999900  0.24979500  1
  C  C15  1  0.00000000  0.75000100  0.24979500  1
  C  C16  1  0.50000000  0.25046700  0.24941100  1
  C  C17  1  0.50000000  0.74953300  0.24941100  1
  C  C18  1  0.00000000  0.24999900  0.75020500  1
  C  C19  1  0.00000000  0.75000100  0.75020500  1
  C  C20  1  0.50000000  0.25046700  0.75058900  1
  C  C21  1  0.50000000  0.74953300  0.75058900  1
  C  C22  1  0.24999900  0.00000000  0.24979500  1
  C  C23  1  0.25046700  0.50000000  0.24941100  1
  C  C24  1  0.75000100  0.00000000  0.24979500  1
  C  C25  1  0.74953300  0.50000000  0.24941100  1
  C  C26  1  0.24999900  0.00000000  0.75020500  1
  C  C27  1  0.25046700  0.50000000  0.75058900  1
  C  C28  1  0.75000100  0.00000000  0.75020500  1
  C  C29  1  0.74953300  0.50000000  0.75058900  1
  Ni  Ni30  1  0.00000000  0.00000000  0.00000000  1
  Cu  Cu31  1  0.50000000  0.50000000  0.00000000  1
  C  C32  1  0.00000000  0.00000000  0.25324500  1
  C  C33  1  0.00000000  0.50000000  0.24990900  1
  C  C34  1  0.50000000  0.00000000  0.24990900  1
  C  C35  1  0.50000000  0.50000000  0.25095500  1
  C  C36  1  0.00000000  0.00000000  0.74675500  1
  C  C37  1  0.00000000  0.50000000  0.75009100  1
  C  C38  1  0.50000000  0.00000000  0.75009100  1
  C  C39  1  0.50000000  0.50000000  0.74904500  1
  C  C40  1  0.25000900  0.25000900  0.24961500  1
  C  C41  1  0.25000900  0.74999100  0.24961500  1
  C  C42  1  0.74999100  0.25000900  0.24961500  1
  C  C43  1  0.74999100  0.74999100  0.24961500  1
  C  C44  1  0.25000900  0.25000900  0.75038500  1
  C  C45  1  0.25000900  0.74999100  0.75038500  1
  C  C46  1  0.74999100  0.25000900  0.75038500  1
  C  C47  1  0.74999100  0.74999100  0.75038500  1
  C  C48  1  0.00000000  0.25341300  0.00000000  1
  C  C49  1  0.00000000  0.74658700  0.00000000  1
  C  C50  1  0.50000000  0.24920600  0.00000000  1
  C  C51  1  0.50000000  0.75079400  0.00000000  1
  C  C52  1  0.00000000  0.25010600  0.50000000  1
  C  C53  1  0.00000000  0.74989400  0.50000000  1
  C  C54  1  0.50000000  0.25024600  0.50000000  1
  C  C55  1  0.50000000  0.74975400  0.50000000  1
  C  C56  1  0.25341300  0.00000000  0.00000000  1
  C  C57  1  0.24920600  0.50000000  0.00000000  1
  C  C58  1  0.74658700  0.00000000  0.00000000  1
  C  C59  1  0.75079400  0.50000000  0.00000000  1
  C  C60  1  0.25010600  0.00000000  0.50000000  1
  C  C61  1  0.25024600  0.50000000  0.50000000  1
  C  C62  1  0.74989400  0.00000000  0.50000000  1
  C  C63  1  0.74975400  0.50000000  0.50000000  1
