# generated using pymatgen
data_CuNi7C8
_symmetry_space_group_name_H-M   'P 1'
_cell_length_a   12.95180000
_cell_length_b   12.95180000
_cell_length_c   12.95180000
_cell_angle_alpha   90.00000000
_cell_angle_beta   90.00000000
_cell_angle_gamma   90.00000000
_symmetry_Int_Tables_number   1
_chemical_formula_structural   CuNi7C8
_chemical_formula_sum   'Cu4 Ni28 C32'
_cell_volume   2172.65309438
_cell_formula_units_Z   4
loop_
 _symmetry_equiv_pos_site_id
 _symmetry_equiv_pos_as_xyz
  1  'x, y, z'
loop_
 _atom_site_type_symbol
 _atom_site_label
 _atom_site_symmetry_multiplicity
 _atom_site_fract_x
 _atom_site_fract_y
 _atom_site_fract_z
 _atom_site_occupancy
  Ni  Ni0  1  0.18535049  0.45744825  0.27361185  1
  Ni  Ni1  1  0.81464951  0.54255175  0.72638815  1
  Ni  Ni2  1  0.31464951  0.54255175  0.77361185  1
  Ni  Ni3  1  0.81464951  0.95744825  0.22638815  1
  Ni  Ni4  1  0.27361185  0.18535049  0.45744825  1
  Ni  Ni5  1  0.68535049  0.45744825  0.22638815  1
  Ni  Ni6  1  0.18535049  0.04255175  0.77361185  1
  Ni  Ni7  1  0.72638815  0.81464951  0.54255175  1
  Ni  Ni8  1  0.68535049  0.04255175  0.72638815  1
  Ni  Ni9  1  0.77361185  0.31464951  0.54255175  1
  Ni  Ni10  1  0.31464951  0.95744825  0.27361185  1
  Ni  Ni11  1  0.22638815  0.68535049  0.45744825  1
  Ni  Ni12  1  0.22638815  0.81464951  0.95744825  1
  Ni  Ni13  1  0.77361185  0.18535049  0.04255175  1
  Ni  Ni14  1  0.72638815  0.68535049  0.04255175  1
  Ni  Ni15  1  0.27361185  0.31464951  0.95744825  1
  Ni  Ni16  1  0.45744825  0.27361185  0.18535049  1
  Ni  Ni17  1  0.54255175  0.72638815  0.81464951  1
  Ni  Ni18  1  0.95744825  0.22638815  0.81464951  1
  Ni  Ni19  1  0.04255175  0.77361185  0.18535049  1
  Ni  Ni20  1  0.04255175  0.72638815  0.68535049  1
  Ni  Ni21  1  0.95744825  0.27361185  0.31464951  1
  Ni  Ni22  1  0.54255175  0.77361185  0.31464951  1
  Ni  Ni23  1  0.45744825  0.22638815  0.68535049  1
  Ni  Ni24  1  0.50000000  0.50000000  0.50000000  1
  Ni  Ni25  1  -0.00000000  0.50000000  0.00000000  1
  Ni  Ni26  1  0.50000000  -0.00000000  0.00000000  1
  Ni  Ni27  1  -0.00000000  -0.00000000  0.50000000  1
  Cu  Cu28  1  -0.00000000  -0.00000000  0.00000000  1
  Cu  Cu29  1  0.50000000  -0.00000000  0.50000000  1
  Cu  Cu30  1  -0.00000000  0.50000000  0.50000000  1
  Cu  Cu31  1  0.50000000  0.50000000  0.00000000  1
  C  C32  1  0.05517504  0.20878508  0.07356447  1
  C  C33  1  0.94482496  0.79121492  0.92643553  1
  C  C34  1  0.44482496  0.79121492  0.57356447  1
  C  C35  1  0.94482496  0.70878508  0.42643553  1
  C  C36  1  0.07356447  0.05517504  0.20878508  1
  C  C37  1  0.55517504  0.20878508  0.42643553  1
  C  C38  1  0.05517504  0.29121492  0.57356447  1
  C  C39  1  0.92643553  0.94482496  0.79121492  1
  C  C40  1  0.55517504  0.29121492  0.92643553  1
  C  C41  1  0.57356447  0.44482496  0.79121492  1
  C  C42  1  0.44482496  0.70878508  0.07356447  1
  C  C43  1  0.42643553  0.55517504  0.20878508  1
  C  C44  1  0.42643553  0.94482496  0.70878508  1
  C  C45  1  0.57356447  0.05517504  0.29121492  1
  C  C46  1  0.92643553  0.55517504  0.29121492  1
  C  C47  1  0.07356447  0.44482496  0.70878508  1
  C  C48  1  0.20878508  0.07356447  0.05517504  1
  C  C49  1  0.79121492  0.92643553  0.94482496  1
  C  C50  1  0.70878508  0.42643553  0.94482496  1
  C  C51  1  0.29121492  0.57356447  0.05517504  1
  C  C52  1  0.29121492  0.92643553  0.55517504  1
  C  C53  1  0.70878508  0.07356447  0.44482496  1
  C  C54  1  0.79121492  0.57356447  0.44482496  1
  C  C55  1  0.20878508  0.42643553  0.55517504  1
  C  C56  1  0.20434103  0.20434103  0.20434103  1
  C  C57  1  0.79565897  0.79565897  0.79565897  1
  C  C58  1  0.29565897  0.79565897  0.70434103  1
  C  C59  1  0.79565897  0.70434103  0.29565897  1
  C  C60  1  0.70434103  0.20434103  0.29565897  1
  C  C61  1  0.20434103  0.29565897  0.70434103  1
  C  C62  1  0.70434103  0.29565897  0.79565897  1
  C  C63  1  0.29565897  0.70434103  0.20434103  1
