# generated using pymatgen
data_CuNi3C23
_symmetry_space_group_name_H-M   'P 1'
_cell_length_a   9.08804178
_cell_length_b   9.08804178
_cell_length_c   9.08804285
_cell_angle_alpha   89.81956071
_cell_angle_beta   89.81956071
_cell_angle_gamma   89.81955906
_symmetry_Int_Tables_number   1
_chemical_formula_structural   CuNi3C23
_chemical_formula_sum   'Cu2 Ni6 C46'
_cell_volume   750.59306599
_cell_formula_units_Z   2
loop_
 _symmetry_equiv_pos_site_id
 _symmetry_equiv_pos_as_xyz
  1  'x, y, z'
loop_
 _atom_site_type_symbol
 _atom_site_label
 _atom_site_symmetry_multiplicity
 _atom_site_fract_x
 _atom_site_fract_y
 _atom_site_fract_z
 _atom_site_occupancy
  Ni  Ni0  1  0.79368500  0.20329600  0.20539900  1
  Ni  Ni1  1  0.20329600  0.20539900  0.79368500  1
  Ni  Ni2  1  0.70329600  0.29368500  0.70539900  1
  Ni  Ni3  1  0.70539900  0.70329600  0.29368500  1
  Ni  Ni4  1  0.29368500  0.70539900  0.70329600  1
  Ni  Ni5  1  0.20539900  0.79368500  0.20329600  1
  Cu  Cu6  1  0.32012600  0.32012600  0.32012600  1
  Cu  Cu7  1  0.82012600  0.82012600  0.82012600  1
  C  C8  1  0.99743100  0.25143700  0.50144100  1
  C  C9  1  0.75143700  0.49743100  0.00144100  1
  C  C10  1  0.25143700  0.50144100  0.99743100  1
  C  C11  1  0.00144100  0.75143700  0.49743100  1
  C  C12  1  0.50144100  0.99743100  0.25143700  1
  C  C13  1  0.49743100  0.00144100  0.75143700  1
  C  C14  1  0.24963300  0.00223300  0.50003600  1
  C  C15  1  0.50003600  0.24963300  0.00223300  1
  C  C16  1  0.00003600  0.50223300  0.74963300  1
  C  C17  1  0.00223300  0.50003600  0.24963300  1
  C  C18  1  0.50223300  0.74963300  0.00003600  1
  C  C19  1  0.74963300  0.00003600  0.50223300  1
  C  C20  1  0.99440800  0.99440800  0.99440800  1
  C  C21  1  0.49440800  0.49440800  0.49440800  1
  C  C22  1  0.35076300  0.05794000  0.35926700  1
  C  C23  1  0.65331800  0.04687000  0.64730500  1
  C  C24  1  0.08758300  0.08758300  0.08758300  1
  C  C25  1  0.89802600  0.08366500  0.89279000  1
  C  C26  1  0.84846000  0.14118700  0.45179200  1
  C  C27  1  0.15331800  0.14730500  0.54687000  1
  C  C28  1  0.54687000  0.15331800  0.14730500  1
  C  C29  1  0.44798400  0.15112900  0.86279600  1
  C  C30  1  0.35926700  0.35076300  0.05794000  1
  C  C31  1  0.64118700  0.34846000  0.95179200  1
  C  C32  1  0.05794000  0.35926700  0.35076300  1
  C  C33  1  0.94798400  0.36279600  0.65112900  1
  C  C34  1  0.58366500  0.39802600  0.39279000  1
  C  C35  1  0.39802600  0.39279000  0.58366500  1
  C  C36  1  0.86279600  0.44798400  0.15112900  1
  C  C37  1  0.14118700  0.45179200  0.84846000  1
  C  C38  1  0.14730500  0.54687000  0.15331800  1
  C  C39  1  0.85926700  0.55794000  0.85076300  1
  C  C40  1  0.39279000  0.58366500  0.39802600  1
  C  C41  1  0.58758300  0.58758300  0.58758300  1
  C  C42  1  0.95179200  0.64118700  0.34846000  1
  C  C43  1  0.04687000  0.64730500  0.65331800  1
  C  C44  1  0.64730500  0.65331800  0.04687000  1
  C  C45  1  0.36279600  0.65112900  0.94798400  1
  C  C46  1  0.45179200  0.84846000  0.14118700  1
  C  C47  1  0.55794000  0.85076300  0.85926700  1
  C  C48  1  0.85076300  0.85926700  0.55794000  1
  C  C49  1  0.15112900  0.86279600  0.44798400  1
  C  C50  1  0.89279000  0.89802600  0.08366500  1
  C  C51  1  0.08366500  0.89279000  0.89802600  1
  C  C52  1  0.65112900  0.94798400  0.36279600  1
  C  C53  1  0.34846000  0.95179200  0.64118700  1
