# generated using pymatgen
data_Cu10Ni7
_symmetry_space_group_name_H-M   'P 1'
_cell_length_a   10.49046583
_cell_length_b   10.49046583
_cell_length_c   10.49046599
_cell_angle_alpha   89.85394611
_cell_angle_beta   89.85394611
_cell_angle_gamma   89.85394665
_symmetry_Int_Tables_number   1
_chemical_formula_structural   Cu10Ni7
_chemical_formula_sum   'Cu20 Ni14'
_cell_volume   1154.46321991
_cell_formula_units_Z   2
loop_
 _symmetry_equiv_pos_site_id
 _symmetry_equiv_pos_as_xyz
  1  'x, y, z'
loop_
 _atom_site_type_symbol
 _atom_site_label
 _atom_site_symmetry_multiplicity
 _atom_site_fract_x
 _atom_site_fract_y
 _atom_site_fract_z
 _atom_site_occupancy
  Ni  Ni0  1  0.84589100  0.88968600  0.57908200  1
  Ni  Ni1  1  0.57908200  0.84589100  0.88968600  1
  Ni  Ni2  1  0.88968600  0.57908200  0.84589100  1
  Ni  Ni3  1  0.15410900  0.42091800  0.11031400  1
  Ni  Ni4  1  0.11031400  0.15410900  0.42091800  1
  Ni  Ni5  1  0.42091800  0.11031400  0.15410900  1
  Ni  Ni6  1  0.74184400  0.16324200  0.34681600  1
  Ni  Ni7  1  0.34681600  0.74184400  0.16324200  1
  Ni  Ni8  1  0.16324200  0.34681600  0.74184400  1
  Ni  Ni9  1  0.25815600  0.65318400  0.83675800  1
  Ni  Ni10  1  0.83675800  0.25815600  0.65318400  1
  Ni  Ni11  1  0.65318400  0.83675800  0.25815600  1
  Ni  Ni12  1  0.57184200  0.57184200  0.57184200  1
  Ni  Ni13  1  0.42815800  0.42815800  0.42815800  1
  Cu  Cu14  1  0.42206400  0.92295400  0.32882500  1
  Cu  Cu15  1  0.92295400  0.32882500  0.42206400  1
  Cu  Cu16  1  0.32882500  0.42206400  0.92295400  1
  Cu  Cu17  1  0.07704600  0.57793600  0.67117500  1
  Cu  Cu18  1  0.57793600  0.67117500  0.07704600  1
  Cu  Cu19  1  0.67117500  0.07704600  0.57793600  1
  Cu  Cu20  1  0.75818800  0.69220400  0.44030200  1
  Cu  Cu21  1  0.44030200  0.75818800  0.69220400  1
  Cu  Cu22  1  0.69220400  0.44030200  0.75818800  1
  Cu  Cu23  1  0.24181200  0.55969800  0.30779600  1
  Cu  Cu24  1  0.30779600  0.24181200  0.55969800  1
  Cu  Cu25  1  0.55969800  0.30779600  0.24181200  1
  Cu  Cu26  1  0.50000000  0.07935000  0.92065000  1
  Cu  Cu27  1  0.92065000  0.50000000  0.07935000  1
  Cu  Cu28  1  0.07935000  0.92065000  0.50000000  1
  Cu  Cu29  1  0.00000000  0.18073200  0.81926800  1
  Cu  Cu30  1  0.81926800  0.00000000  0.18073200  1
  Cu  Cu31  1  0.18073200  0.81926800  0.00000000  1
  Cu  Cu32  1  0.83041300  0.83041300  0.83041300  1
  Cu  Cu33  1  0.16958700  0.16958700  0.16958700  1
