# generated using pymatgen
data_Cu16Ni4C9
_symmetry_space_group_name_H-M   'P 1'
_cell_length_a   9.29458823
_cell_length_b   11.62647971
_cell_length_c   23.16018121
_cell_angle_alpha   89.94696109
_cell_angle_beta   90.01206697
_cell_angle_gamma   90.05850909
_symmetry_Int_Tables_number   1
_chemical_formula_structural   Cu16Ni4C9
_chemical_formula_sum   'Cu64 Ni16 C36'
_cell_volume   2502.76413979
_cell_formula_units_Z   4
loop_
 _symmetry_equiv_pos_site_id
 _symmetry_equiv_pos_as_xyz
  1  'x, y, z'
loop_
 _atom_site_type_symbol
 _atom_site_label
 _atom_site_symmetry_multiplicity
 _atom_site_fract_x
 _atom_site_fract_y
 _atom_site_fract_z
 _atom_site_occupancy
  C  C0  1  0.74543201  0.49430466  0.87412829  1
  C  C1  1  0.75000459  0.00542062  0.87261581  1
  C  C2  1  0.24840095  0.75922872  0.75099837  1
  C  C3  1  0.24830215  0.74990588  0.99983901  1
  C  C4  1  0.50381794  0.49846848  0.24926089  1
  C  C5  1  0.50163047  0.00232979  0.25062701  1
  C  C6  1  0.50141346  0.50032539  0.49925898  1
  C  C7  1  0.50582599  0.00318472  0.49815467  1
  C  C8  1  0.00349314  0.75038940  0.37444773  1
  C  C9  1  0.00621725  0.24798202  0.37580281  1
  C  C10  1  0.49248637  0.49683503  0.74835329  1
  C  C11  1  0.50020661  0.00336116  0.75016141  1
  C  C12  1  0.99769320  0.75169224  0.62190463  1
  C  C13  1  0.00385978  0.25061657  0.62390763  1
  C  C14  1  0.50057456  0.49503191  0.00034483  1
  C  C15  1  0.50405977  0.00143538  0.00420892  1
  C  C16  1  0.99093469  0.75110858  0.87558537  1
  C  C17  1  0.01745539  0.25101770  0.87278077  1
  C  C18  1  0.98684594  0.74836892  0.12865956  1
  C  C19  1  0.00481577  0.24667328  0.12634251  1
  C  C20  1  0.49925999  0.25209324  0.12496962  1
  C  C21  1  0.48229624  0.24910400  0.87582167  1
  C  C22  1  0.50301670  0.74942951  0.87454195  1
  C  C23  1  0.99894797  0.00031393  0.74736726  1
  C  C24  1  0.50340872  0.74949891  0.12776883  1
  C  C25  1  0.50055714  0.24902371  0.37406027  1
  C  C26  1  0.49725474  0.74984936  0.37494426  1
  C  C27  1  0.99891524  0.49867430  0.25160310  1
  C  C28  1  0.99738928  0.00019774  0.24974131  1
  C  C29  1  0.50031292  0.24828464  0.62580944  1
  C  C30  1  0.50700266  0.75121316  0.62232324  1
  C  C31  1  0.99863269  0.49881421  0.49894783  1
  C  C32  1  0.00014245  0.99971300  0.49922554  1
  C  C33  1  0.99914147  0.49917091  0.74889777  1
  C  C34  1  0.99905390  0.49954745  0.00265979  1
  C  C35  1  0.00140969  0.00309699  0.00015893  1
  Ni  Ni36  1  0.75170539  0.25388661  0.25119978  1
  Ni  Ni37  1  0.74904662  0.74943489  0.25120630  1
  Ni  Ni38  1  0.75008288  0.25083339  0.50030230  1
  Ni  Ni39  1  0.75104130  0.75004157  0.49927419  1
  Ni  Ni40  1  0.25108912  0.50024191  0.37526579  1
  Ni  Ni41  1  0.25020093  0.99996813  0.37489445  1
  Ni  Ni42  1  0.74952508  0.24729639  0.74801113  1
  Ni  Ni43  1  0.74860444  0.74318311  0.75186843  1
  Ni  Ni44  1  0.24796874  0.50102474  0.62514191  1
  Ni  Ni45  1  0.25464766  0.99453796  0.62362321  1
  Ni  Ni46  1  0.75185212  0.25063879  0.99844601  1
  Ni  Ni47  1  0.74791479  0.75515655  0.99992770  1
  Ni  Ni48  1  0.24860871  0.50647101  0.87558512  1
  Ni  Ni49  1  0.25100301  0.99747266  0.87545802  1
  Ni  Ni50  1  0.25143701  0.50350972  0.12343706  1
  Ni  Ni51  1  0.24647372  0.99619072  0.12692104  1
  Cu  Cu52  1  0.87275745  0.35633882  0.05147818  1
  Cu  Cu53  1  0.87122454  0.85907324  0.05166507  1
  Cu  Cu54  1  0.87264967  0.35915246  0.30476701  1
  Cu  Cu55  1  0.86446391  0.86035242  0.30290481  1
  Cu  Cu56  1  0.36285971  0.61371059  0.17735871  1
  Cu  Cu57  1  0.36573689  0.10221123  0.17577301  1
  Cu  Cu58  1  0.86463559  0.36236662  0.55241260  1
  Cu  Cu59  1  0.86198908  0.86286358  0.55164170  1
  Cu  Cu60  1  0.36387031  0.61193086  0.42787102  1
  Cu  Cu61  1  0.36336752  0.11208120  0.42707538  1
  Cu  Cu62  1  0.86973188  0.35995024  0.80185542  1
  Cu  Cu63  1  0.86676596  0.85483230  0.80187489  1
  Cu  Cu64  1  0.36831387  0.61422362  0.67632652  1
  Cu  Cu65  1  0.36441256  0.10753755  0.67663255  1
  Cu  Cu66  1  0.36774133  0.61209817  0.92828200  1
  Cu  Cu67  1  0.37197461  0.09636136  0.92813407  1
  Cu  Cu68  1  0.63212248  0.64613958  0.30630061  1
  Cu  Cu69  1  0.63961512  0.14622198  0.30712105  1
  Cu  Cu70  1  0.64041101  0.64354093  0.55548981  1
  Cu  Cu71  1  0.63611218  0.14666256  0.55626549  1
  Cu  Cu72  1  0.13603355  0.89544075  0.43077858  1
  Cu  Cu73  1  0.13797766  0.39567243  0.43148200  1
  Cu  Cu74  1  0.62703618  0.63748846  0.80365284  1
  Cu  Cu75  1  0.62981202  0.14936726  0.80428891  1
  Cu  Cu76  1  0.13317701  0.89193250  0.67704710  1
  Cu  Cu77  1  0.13905296  0.39598895  0.68182322  1
  Cu  Cu78  1  0.63159052  0.64931887  0.05379354  1
  Cu  Cu79  1  0.63995072  0.14904069  0.05235943  1
  Cu  Cu80  1  0.12597340  0.88976747  0.93044419  1
  Cu  Cu81  1  0.12355354  0.40405253  0.92819983  1
  Cu  Cu82  1  0.12684135  0.89087659  0.18010747  1
  Cu  Cu83  1  0.13106283  0.40226872  0.17837015  1
  Cu  Cu84  1  0.86522008  0.14023556  0.19902732  1
  Cu  Cu85  1  0.85954014  0.63538632  0.19964448  1
  Cu  Cu86  1  0.86451762  0.13946660  0.44834175  1
  Cu  Cu87  1  0.86674457  0.63974096  0.44736934  1
  Cu  Cu88  1  0.36546600  0.38971215  0.32312023  1
  Cu  Cu89  1  0.36475500  0.88889381  0.32296234  1
  Cu  Cu90  1  0.86966202  0.14643782  0.69691770  1
  Cu  Cu91  1  0.87070970  0.64118120  0.69769872  1
  Cu  Cu92  1  0.36700065  0.39190659  0.57440264  1
  Cu  Cu93  1  0.37406323  0.88901711  0.57044574  1
  Cu  Cu94  1  0.87778972  0.14342948  0.94468432  1
  Cu  Cu95  1  0.86580787  0.64011903  0.94834875  1
  Cu  Cu96  1  0.36175925  0.39997098  0.82429636  1
  Cu  Cu97  1  0.37002243  0.88936655  0.82279912  1
  Cu  Cu98  1  0.35970542  0.39560793  0.07155884  1
  Cu  Cu99  1  0.36668999  0.88414468  0.07355990  1
  Cu  Cu100  1  0.63865200  0.35472591  0.19687789  1
  Cu  Cu101  1  0.63871917  0.85548632  0.19484793  1
  Cu  Cu102  1  0.63452008  0.35365871  0.44467110  1
  Cu  Cu103  1  0.63521798  0.85293518  0.44388332  1
  Cu  Cu104  1  0.13726802  0.60441191  0.31954813  1
  Cu  Cu105  1  0.13570509  0.10282272  0.31902465  1
  Cu  Cu106  1  0.62911548  0.35472686  0.69592766  1
  Cu  Cu107  1  0.62980285  0.84811259  0.69768302  1
  Cu  Cu108  1  0.13346649  0.60371798  0.56952853  1
  Cu  Cu109  1  0.13759600  0.09964073  0.56932297  1
  Cu  Cu110  1  0.63376961  0.35329393  0.94357828  1
  Cu  Cu111  1  0.63058947  0.85766330  0.94588226  1
  Cu  Cu112  1  0.12370923  0.61113271  0.82029876  1
  Cu  Cu113  1  0.12648013  0.09550753  0.82350129  1
  Cu  Cu114  1  0.12436171  0.61190097  0.07045959  1
  Cu  Cu115  1  0.13733720  0.10119571  0.06942017  1
