# generated using pymatgen
data_Cu2NiC16
_symmetry_space_group_name_H-M   'P 1'
_cell_length_a   8.19053579
_cell_length_b   8.19053579
_cell_length_c   7.33985000
_cell_angle_alpha   90.00000000
_cell_angle_beta   90.00000000
_cell_angle_gamma   119.99999827
_symmetry_Int_Tables_number   1
_chemical_formula_structural   Cu2NiC16
_chemical_formula_sum   'Cu4 Ni2 C32'
_cell_volume   426.42479391
_cell_formula_units_Z   2
loop_
 _symmetry_equiv_pos_site_id
 _symmetry_equiv_pos_as_xyz
  1  'x, y, z'
loop_
 _atom_site_type_symbol
 _atom_site_label
 _atom_site_symmetry_multiplicity
 _atom_site_fract_x
 _atom_site_fract_y
 _atom_site_fract_z
 _atom_site_occupancy
  C  C0  1  0.74576400  0.00000000  0.00000000  1
  C  C1  1  0.00000000  0.74576400  0.00000000  1
  C  C2  1  0.74576400  0.00000000  0.50000000  1
  C  C3  1  0.25423600  0.25423600  0.00000000  1
  C  C4  1  0.00000000  0.74576400  0.50000000  1
  C  C5  1  0.25423600  0.25423600  0.50000000  1
  C  C6  1  0.42101300  0.04663600  0.25000000  1
  C  C7  1  0.95336400  0.37437800  0.25000000  1
  C  C8  1  0.04663600  0.42101300  0.75000000  1
  C  C9  1  0.62562200  0.57898700  0.25000000  1
  C  C10  1  0.37437800  0.95336400  0.75000000  1
  C  C11  1  0.57898700  0.62562200  0.75000000  1
  Ni  Ni12  1  0.00000000  0.00000000  0.25000000  1
  Ni  Ni13  1  0.00000000  0.00000000  0.75000000  1
  Cu  Cu14  1  0.33333300  0.66666700  0.04292800  1
  Cu  Cu15  1  0.33333300  0.66666700  0.45707200  1
  Cu  Cu16  1  0.66666700  0.33333300  0.95707200  1
  Cu  Cu17  1  0.66666700  0.33333300  0.54292800  1
  C  C18  1  0.27915300  0.00000000  0.00000000  1
  C  C19  1  0.00000000  0.27915300  0.00000000  1
  C  C20  1  0.27915300  0.00000000  0.50000000  1
  C  C21  1  0.72084700  0.72084700  0.00000000  1
  C  C22  1  0.00000000  0.27915300  0.50000000  1
  C  C23  1  0.72084700  0.72084700  0.50000000  1
  C  C24  1  0.40347700  0.29158400  0.25000000  1
  C  C25  1  0.70841600  0.11189300  0.25000000  1
  C  C26  1  0.29158400  0.40347700  0.75000000  1
  C  C27  1  0.88810700  0.59652300  0.25000000  1
  C  C28  1  0.11189300  0.70841600  0.75000000  1
  C  C29  1  0.59652300  0.88810700  0.75000000  1
  C  C30  1  0.11837200  0.23703100  0.25000000  1
  C  C31  1  0.76296900  0.88134100  0.25000000  1
  C  C32  1  0.23703100  0.11837200  0.75000000  1
  C  C33  1  0.11865900  0.88162800  0.25000000  1
  C  C34  1  0.88134100  0.76296900  0.75000000  1
  C  C35  1  0.88162800  0.11865900  0.75000000  1
  C  C36  1  0.00000000  0.00000000  0.00000000  1
  C  C37  1  0.00000000  0.00000000  0.50000000  1
