# generated using pymatgen
data_CuNi3C2
_symmetry_space_group_name_H-M   'P 1'
_cell_length_a   8.11140300
_cell_length_b   8.41119200
_cell_length_c   15.30661149
_cell_angle_alpha   88.78622751
_cell_angle_beta   90.00000000
_cell_angle_gamma   90.00000000
_symmetry_Int_Tables_number   1
_chemical_formula_structural   CuNi3C2
_chemical_formula_sum   'Cu4 Ni12 C8'
_cell_volume   1044.08324655
_cell_formula_units_Z   4
loop_
 _symmetry_equiv_pos_site_id
 _symmetry_equiv_pos_as_xyz
  1  'x, y, z'
loop_
 _atom_site_type_symbol
 _atom_site_label
 _atom_site_symmetry_multiplicity
 _atom_site_fract_x
 _atom_site_fract_y
 _atom_site_fract_z
 _atom_site_occupancy
  C  C0  1  0.72601500  0.92061800  0.26340100  1
  C  C1  1  0.27398500  0.92061800  0.76340100  1
  C  C2  1  0.48019800  0.38450900  0.13847400  1
  C  C3  1  0.51980200  0.38450900  0.63847400  1
  C  C4  1  0.21867400  0.95888800  0.42543900  1
  C  C5  1  0.78132600  0.95888800  0.92543900  1
  C  C6  1  0.11859000  0.46446800  0.39609800  1
  C  C7  1  0.88141000  0.46446800  0.89609800  1
  Ni  Ni8  1  0.23817500  0.94546800  0.24118900  1
  Ni  Ni9  1  0.76182500  0.94546800  0.74118900  1
  Ni  Ni10  1  0.52092900  0.95431000  0.51445400  1
  Ni  Ni11  1  0.47907100  0.95431000  0.01445400  1
  Ni  Ni12  1  0.02237700  0.20503800  0.50538500  1
  Ni  Ni13  1  0.97762300  0.20503800  0.00538500  1
  Ni  Ni14  1  0.97755000  0.72626500  0.48444200  1
  Ni  Ni15  1  0.02245000  0.72626500  0.98444200  1
  Ni  Ni16  1  0.94444500  0.43237900  0.23090800  1
  Ni  Ni17  1  0.05555500  0.43237900  0.73090800  1
  Ni  Ni18  1  0.45806000  0.48819500  0.38153000  1
  Ni  Ni19  1  0.54194000  0.48819500  0.88153000  1
  Cu  Cu20  1  0.78591400  0.26218500  0.23902100  1
  Cu  Cu21  1  0.21408600  0.26218500  0.73902100  1
  Cu  Cu22  1  0.44564700  0.76457700  0.15095800  1
  Cu  Cu23  1  0.55435300  0.76457700  0.65095800  1
