# generated using pymatgen
data_Cu4NiC4
_symmetry_space_group_name_H-M   'P 1'
_cell_length_a   10.93595400
_cell_length_b   3.58103200
_cell_length_c   18.53614700
_cell_angle_alpha   90.00000000
_cell_angle_beta   90.00000000
_cell_angle_gamma   90.00000000
_symmetry_Int_Tables_number   1
_chemical_formula_structural   Cu4NiC4
_chemical_formula_sum   'Cu16 Ni4 C16'
_cell_volume   725.91261151
_cell_formula_units_Z   4
loop_
 _symmetry_equiv_pos_site_id
 _symmetry_equiv_pos_as_xyz
  1  'x, y, z'
loop_
 _atom_site_type_symbol
 _atom_site_label
 _atom_site_symmetry_multiplicity
 _atom_site_fract_x
 _atom_site_fract_y
 _atom_site_fract_z
 _atom_site_occupancy
  C  C0  1  0.13717100  0.25000000  0.20788100  1
  C  C1  1  0.63717100  0.25000000  0.29211900  1
  C  C2  1  0.86282900  0.75000000  0.79211900  1
  C  C3  1  0.36282900  0.75000000  0.70788100  1
  C  C4  1  0.88120500  0.25000000  0.95270700  1
  C  C5  1  0.38120500  0.25000000  0.54729300  1
  C  C6  1  0.11879500  0.75000000  0.04729300  1
  C  C7  1  0.61879500  0.75000000  0.45270700  1
  C  C8  1  0.37600300  0.25000000  0.91706400  1
  C  C9  1  0.87600300  0.25000000  0.58293600  1
  C  C10  1  0.62399700  0.75000000  0.08293600  1
  C  C11  1  0.12399700  0.75000000  0.41706400  1
  C  C12  1  0.14121100  0.25000000  0.80778100  1
  C  C13  1  0.64121100  0.25000000  0.69221900  1
  C  C14  1  0.85878900  0.75000000  0.19221900  1
  C  C15  1  0.35878900  0.75000000  0.30778100  1
  Ni  Ni16  1  0.36885000  0.25000000  0.10674200  1
  Ni  Ni17  1  0.86885000  0.25000000  0.39325800  1
  Ni  Ni18  1  0.63115000  0.75000000  0.89325800  1
  Ni  Ni19  1  0.13115000  0.75000000  0.60674200  1
  Cu  Cu20  1  0.75694300  0.25000000  0.20235300  1
  Cu  Cu21  1  0.25694300  0.25000000  0.29764700  1
  Cu  Cu22  1  0.24305700  0.75000000  0.79764700  1
  Cu  Cu23  1  0.74305700  0.75000000  0.70235300  1
  Cu  Cu24  1  0.95257500  0.25000000  0.83044000  1
  Cu  Cu25  1  0.45257500  0.25000000  0.66956000  1
  Cu  Cu26  1  0.04742500  0.75000000  0.16956000  1
  Cu  Cu27  1  0.54742500  0.75000000  0.33044000  1
  Cu  Cu28  1  0.25520800  0.25000000  0.10546700  1
  Cu  Cu29  1  0.75520800  0.25000000  0.39453300  1
  Cu  Cu30  1  0.74479200  0.75000000  0.89453300  1
  Cu  Cu31  1  0.24479200  0.75000000  0.60546700  1
  Cu  Cu32  1  0.48141300  0.25000000  0.10800000  1
  Cu  Cu33  1  0.98141300  0.25000000  0.39200000  1
  Cu  Cu34  1  0.51858700  0.75000000  0.89200000  1
  Cu  Cu35  1  0.01858700  0.75000000  0.60800000  1
