# generated using pymatgen
data_Cu9Ni3C
_symmetry_space_group_name_H-M   'P 1'
_cell_length_a   6.47787100
_cell_length_b   6.52864500
_cell_length_c   8.58839200
_cell_angle_alpha   90.00000000
_cell_angle_beta   90.00000000
_cell_angle_gamma   90.00000000
_symmetry_Int_Tables_number   1
_chemical_formula_structural   Cu9Ni3C
_chemical_formula_sum   'Cu18 Ni6 C2'
_cell_volume   363.21787070
_cell_formula_units_Z   2
loop_
 _symmetry_equiv_pos_site_id
 _symmetry_equiv_pos_as_xyz
  1  'x, y, z'
loop_
 _atom_site_type_symbol
 _atom_site_label
 _atom_site_symmetry_multiplicity
 _atom_site_fract_x
 _atom_site_fract_y
 _atom_site_fract_z
 _atom_site_occupancy
  C  C0  1  0.00000000  0.63165700  0.50000000  1
  C  C1  1  0.50000000  0.36834300  0.00000000  1
  Ni  Ni2  1  0.50000000  0.86101700  0.69697200  1
  Ni  Ni3  1  0.50000000  0.86101700  0.30302800  1
  Ni  Ni4  1  0.00000000  0.13898300  0.80302800  1
  Ni  Ni5  1  0.00000000  0.13898300  0.19697200  1
  Ni  Ni6  1  0.00000000  0.59141800  0.00000000  1
  Ni  Ni7  1  0.50000000  0.40858200  0.50000000  1
  Cu  Cu8  1  0.69057100  0.54623500  0.63827200  1
  Cu  Cu9  1  0.69057100  0.54623500  0.36172800  1
  Cu  Cu10  1  0.30942900  0.54623500  0.63827200  1
  Cu  Cu11  1  0.30942900  0.54623500  0.36172800  1
  Cu  Cu12  1  0.80942900  0.45376500  0.86172800  1
  Cu  Cu13  1  0.80942900  0.45376500  0.13827200  1
  Cu  Cu14  1  0.19057100  0.45376500  0.86172800  1
  Cu  Cu15  1  0.19057100  0.45376500  0.13827200  1
  Cu  Cu16  1  0.00000000  0.29568200  0.50000000  1
  Cu  Cu17  1  0.50000000  0.70431800  0.00000000  1
  Cu  Cu18  1  0.31071600  0.91618500  0.50000000  1
  Cu  Cu19  1  0.68928400  0.91618500  0.50000000  1
  Cu  Cu20  1  0.18928400  0.08381500  0.00000000  1
  Cu  Cu21  1  0.81071600  0.08381500  0.00000000  1
  Cu  Cu22  1  0.00000000  0.86080300  0.73910900  1
  Cu  Cu23  1  0.00000000  0.86080300  0.26089100  1
  Cu  Cu24  1  0.50000000  0.13919700  0.76089100  1
  Cu  Cu25  1  0.50000000  0.13919700  0.23910900  1
