# generated using pymatgen
data_Cu9NiC
_symmetry_space_group_name_H-M   'P 1'
_cell_length_a   10.76668300
_cell_length_b   7.16754700
_cell_length_c   11.40864893
_cell_angle_alpha   51.61307148
_cell_angle_beta   90.00000000
_cell_angle_gamma   90.00000000
_symmetry_Int_Tables_number   1
_chemical_formula_structural   Cu9NiC
_chemical_formula_sum   'Cu36 Ni4 C4'
_cell_volume   690.09904231
_cell_formula_units_Z   4
loop_
 _symmetry_equiv_pos_site_id
 _symmetry_equiv_pos_as_xyz
  1  'x, y, z'
loop_
 _atom_site_type_symbol
 _atom_site_label
 _atom_site_symmetry_multiplicity
 _atom_site_fract_x
 _atom_site_fract_y
 _atom_site_fract_z
 _atom_site_occupancy
  C  C0  1  0.40525600  0.75295200  0.99641400  1
  C  C1  1  0.59474400  0.24704800  0.00358600  1
  C  C2  1  0.90525600  0.24704800  0.50358600  1
  C  C3  1  0.09474400  0.75295200  0.49641400  1
  Ni  Ni4  1  0.18029300  0.03981800  0.70724200  1
  Ni  Ni5  1  0.81970700  0.96018200  0.29275800  1
  Ni  Ni6  1  0.68029300  0.96018200  0.79275800  1
  Ni  Ni7  1  0.31970700  0.03981800  0.20724200  1
  Cu  Cu8  1  0.07575200  0.95093500  0.61345600  1
  Cu  Cu9  1  0.92424800  0.04906500  0.38654400  1
  Cu  Cu10  1  0.57575200  0.04906500  0.88654400  1
  Cu  Cu11  1  0.42424800  0.95093500  0.11345600  1
  Cu  Cu12  1  0.77198100  0.88940000  0.68213300  1
  Cu  Cu13  1  0.22801900  0.11060000  0.31786700  1
  Cu  Cu14  1  0.27198100  0.11060000  0.81786700  1
  Cu  Cu15  1  0.72801900  0.88940000  0.18213300  1
  Cu  Cu16  1  0.22618200  0.52415800  0.21664700  1
  Cu  Cu17  1  0.77381800  0.47584200  0.78335300  1
  Cu  Cu18  1  0.72618200  0.47584200  0.28335300  1
  Cu  Cu19  1  0.27381800  0.52415800  0.71664700  1
  Cu  Cu20  1  0.26930800  0.74949000  0.82237700  1
  Cu  Cu21  1  0.73069200  0.25051000  0.17762300  1
  Cu  Cu22  1  0.76930800  0.25051000  0.67762300  1
  Cu  Cu23  1  0.23069200  0.74949000  0.32237700  1
  Cu  Cu24  1  0.52393800  0.47425100  0.25710200  1
  Cu  Cu25  1  0.47606200  0.52574900  0.74289800  1
  Cu  Cu26  1  0.02393800  0.52574900  0.24289800  1
  Cu  Cu27  1  0.97606200  0.47425100  0.75710200  1
  Cu  Cu28  1  0.61761900  0.40179700  0.34567000  1
  Cu  Cu29  1  0.38238100  0.59820300  0.65433000  1
  Cu  Cu30  1  0.11761900  0.59820300  0.15433000  1
  Cu  Cu31  1  0.88238100  0.40179700  0.84567000  1
  Cu  Cu32  1  0.80286500  0.83581700  0.93729400  1
  Cu  Cu33  1  0.19713500  0.16418300  0.06270600  1
  Cu  Cu34  1  0.30286500  0.16418300  0.56270600  1
  Cu  Cu35  1  0.69713500  0.83581700  0.43729400  1
  Cu  Cu36  1  0.58875500  0.66755300  0.90679800  1
  Cu  Cu37  1  0.41124500  0.33244700  0.09320200  1
  Cu  Cu38  1  0.08875500  0.33244700  0.59320200  1
  Cu  Cu39  1  0.91124500  0.66755300  0.40679800  1
  Cu  Cu40  1  0.06517300  0.91065400  0.86178800  1
  Cu  Cu41  1  0.93482700  0.08934600  0.13821200  1
  Cu  Cu42  1  0.56517300  0.08934600  0.63821200  1
  Cu  Cu43  1  0.43482700  0.91065400  0.36178800  1
