# generated using pymatgen
data_Cu26Ni10C9
_symmetry_space_group_name_H-M   'P 1'
_cell_length_a   6.76550500
_cell_length_b   7.34826677
_cell_length_c   18.55453478
_cell_angle_alpha   80.32976299
_cell_angle_beta   79.49542542
_cell_angle_gamma   62.59050390
_symmetry_Int_Tables_number   1
_chemical_formula_structural   Cu26Ni10C9
_chemical_formula_sum   'Cu52 Ni20 C18'
_cell_volume   801.41492891
_cell_formula_units_Z   2
loop_
 _symmetry_equiv_pos_site_id
 _symmetry_equiv_pos_as_xyz
  1  'x, y, z'
loop_
 _atom_site_type_symbol
 _atom_site_label
 _atom_site_symmetry_multiplicity
 _atom_site_fract_x
 _atom_site_fract_y
 _atom_site_fract_z
 _atom_site_occupancy
  C  C0  1  0.00000000  0.00000000  0.50000000  1
  C  C1  1  0.50000000  0.50000000  0.00000000  1
  Ni  Ni2  1  0.30790900  0.38265300  0.65539300  1
  Ni  Ni3  1  0.34595500  0.11734700  0.84460700  1
  Ni  Ni4  1  0.69209100  0.61734700  0.34460700  1
  Ni  Ni5  1  0.65404500  0.88265300  0.15539300  1
  Ni  Ni6  1  0.10328000  0.37136600  0.72186400  1
  Ni  Ni7  1  0.19651100  0.12863400  0.77813600  1
  Ni  Ni8  1  0.89672000  0.62863400  0.27813600  1
  Ni  Ni9  1  0.80348900  0.87136600  0.22186400  1
  Ni  Ni10  1  0.29935900  0.46736900  0.73635900  1
  Ni  Ni11  1  0.50308700  0.03263100  0.76364100  1
  Ni  Ni12  1  0.70064200  0.53263100  0.26364100  1
  Ni  Ni13  1  0.49691300  0.96736900  0.23635900  1
  Ni  Ni14  1  0.53456800  0.23624900  0.70142000  1
  Ni  Ni15  1  0.47223700  0.26375100  0.79858000  1
  Ni  Ni16  1  0.46543200  0.76375100  0.29858000  1
  Ni  Ni17  1  0.52776300  0.73624900  0.20142000  1
  Ni  Ni18  1  0.16679200  0.35890200  0.81300800  1
  Ni  Ni19  1  0.33870100  0.14109800  0.68699200  1
  Ni  Ni20  1  0.83320800  0.64109800  0.18699200  1
  Ni  Ni21  1  0.66129900  0.85890200  0.31300800  1
  Cu  Cu22  1  0.33417100  0.28039800  0.94444100  1
  Cu  Cu23  1  0.55901000  0.21960200  0.55555900  1
  Cu  Cu24  1  0.66582900  0.71960200  0.05555900  1
  Cu  Cu25  1  0.44099000  0.78039800  0.44444100  1
  Cu  Cu26  1  0.26192500  0.24740400  0.02927400  1
  Cu  Cu27  1  0.53860200  0.25259600  0.47072600  1
  Cu  Cu28  1  0.73807500  0.75259600  0.97072600  1
  Cu  Cu29  1  0.46139800  0.74740400  0.52927400  1
  Cu  Cu30  1  0.12964800  0.19862600  0.58321100  1
  Cu  Cu31  1  0.91148500  0.30137400  0.91678900  1
  Cu  Cu32  1  0.87035200  0.80137400  0.41678900  1
  Cu  Cu33  1  0.08851500  0.69862600  0.08321100  1
  Cu  Cu34  1  0.89654000  0.36626000  0.55862000  1
  Cu  Cu35  1  0.82142000  0.13374000  0.94138000  1
  Cu  Cu36  1  0.10346000  0.63374000  0.44138000  1
  Cu  Cu37  1  0.17858000  0.86626000  0.05862000  1
  Cu  Cu38  1  0.05869500  0.72345100  0.63089600  1
  Cu  Cu39  1  0.41304200  0.77654900  0.86910400  1
  Cu  Cu40  1  0.94130500  0.27654900  0.36910400  1
  Cu  Cu41  1  0.58695800  0.22345100  0.13089600  1
  Cu  Cu42  1  0.85710400  0.93965500  0.64786100  1
  Cu  Cu43  1  0.44461900  0.56034500  0.85213900  1
  Cu  Cu44  1  0.14289600  0.06034500  0.35213900  1
  Cu  Cu45  1  0.55538100  0.43965500  0.14786100  1
  Cu  Cu46  1  0.02524700  0.80967500  0.90915700  1
  Cu  Cu47  1  0.74407900  0.69032500  0.59084300  1
  Cu  Cu48  1  0.97475300  0.19032500  0.09084300  1
  Cu  Cu49  1  0.25592100  0.30967500  0.40915700  1
  Cu  Cu50  1  0.81403100  0.92934200  0.86664200  1
  Cu  Cu51  1  0.61001500  0.57065800  0.63335800  1
  Cu  Cu52  1  0.18596900  0.07065800  0.13335800  1
  Cu  Cu53  1  0.38998500  0.42934200  0.36664200  1
  Cu  Cu54  1  0.29657100  0.46720900  0.59399300  1
  Cu  Cu55  1  0.35777300  0.03279100  0.90600700  1
  Cu  Cu56  1  0.70342900  0.53279100  0.40600700  1
  Cu  Cu57  1  0.64222700  0.96720900  0.09399300  1
  Cu  Cu58  1  0.91044600  0.45921300  0.71099700  1
  Cu  Cu59  1  0.08065600  0.04078700  0.78900300  1
  Cu  Cu60  1  0.08955400  0.54078700  0.28900300  1
  Cu  Cu61  1  0.91934400  0.95921300  0.21099700  1
  Cu  Cu62  1  0.27868500  0.63862600  0.73744800  1
  Cu  Cu63  1  0.65475800  0.86137400  0.76255200  1
  Cu  Cu64  1  0.72131500  0.36137400  0.26255200  1
  Cu  Cu65  1  0.34524200  0.13862600  0.23744800  1
  Cu  Cu66  1  0.72053400  0.20598100  0.67276800  1
  Cu  Cu67  1  0.59928400  0.29401900  0.82723200  1
  Cu  Cu68  1  0.27946600  0.79401900  0.32723200  1
  Cu  Cu69  1  0.40071600  0.70598100  0.17276800  1
  Cu  Cu70  1  0.02447900  0.47515400  0.85499700  1
  Cu  Cu71  1  0.35463000  0.02484600  0.64500300  1
  Cu  Cu72  1  0.97552100  0.52484600  0.14500300  1
  Cu  Cu73  1  0.64537000  0.97515400  0.35499700  1
  C  C74  1  0.32991800  0.32361100  0.99201400  1
  C  C75  1  0.64554400  0.17638900  0.50798600  1
  C  C76  1  0.67008200  0.67638900  0.00798600  1
  C  C77  1  0.35445600  0.82361100  0.49201400  1
  C  C78  1  0.02911300  0.23610700  0.54544900  1
  C  C79  1  0.81067000  0.26389300  0.95455100  1
  C  C80  1  0.97088700  0.76389300  0.45455100  1
  C  C81  1  0.18933000  0.73610700  0.04544900  1
  C  C82  1  0.93824400  0.84663800  0.60888200  1
  C  C83  1  0.39376300  0.65336200  0.89111800  1
  C  C84  1  0.06175600  0.15336200  0.39111800  1
  C  C85  1  0.60623700  0.34663800  0.10888200  1
  C  C86  1  0.86181900  0.89462000  0.91586200  1
  C  C87  1  0.67230000  0.60538000  0.58413800  1
  C  C88  1  0.13818100  0.10538000  0.08413800  1
  C  C89  1  0.32770000  0.39462000  0.41586200  1
