# generated using pymatgen
data_CuNiC3
_symmetry_space_group_name_H-M   'P 1'
_cell_length_a   4.93884000
_cell_length_b   8.84556900
_cell_length_c   9.67173900
_cell_angle_alpha   90.00000000
_cell_angle_beta   90.00000000
_cell_angle_gamma   90.00000000
_symmetry_Int_Tables_number   1
_chemical_formula_structural   CuNiC3
_chemical_formula_sum   'Cu8 Ni8 C24'
_cell_volume   422.52781093
_cell_formula_units_Z   8
loop_
 _symmetry_equiv_pos_site_id
 _symmetry_equiv_pos_as_xyz
  1  'x, y, z'
loop_
 _atom_site_type_symbol
 _atom_site_label
 _atom_site_symmetry_multiplicity
 _atom_site_fract_x
 _atom_site_fract_y
 _atom_site_fract_z
 _atom_site_occupancy
  Ni  Ni0  1  0.69766400  0.66492000  0.75344400  1
  Ni  Ni1  1  0.69691300  0.66462700  0.49677100  1
  Ni  Ni2  1  0.30233600  0.33508000  0.25344400  1
  Ni  Ni3  1  0.80233600  0.16492000  0.25344400  1
  Ni  Ni4  1  0.30308700  0.33537300  0.99677100  1
  Ni  Ni5  1  0.80308700  0.16462700  0.99677100  1
  Ni  Ni6  1  0.19766400  0.83508000  0.75344400  1
  Ni  Ni7  1  0.19691300  0.83537300  0.49677100  1
  Cu  Cu8  1  0.91685000  0.35947300  0.75756500  1
  Cu  Cu9  1  0.58315000  0.85947300  0.25756500  1
  Cu  Cu10  1  0.41685000  0.14052700  0.75756500  1
  Cu  Cu11  1  0.08315000  0.64052700  0.25756500  1
  Cu  Cu12  1  0.91450800  0.35920800  0.49259100  1
  Cu  Cu13  1  0.58549200  0.85920800  0.99259100  1
  Cu  Cu14  1  0.41450800  0.14079200  0.49259100  1
  Cu  Cu15  1  0.08549200  0.64079200  0.99259100  1
  C  C16  1  0.51986500  0.22374100  0.12500900  1
  C  C17  1  0.99856000  0.49989700  0.37491600  1
  C  C18  1  0.00144000  0.50010300  0.87491600  1
  C  C19  1  0.98013500  0.72374100  0.62500900  1
  C  C20  1  0.87607700  0.78815800  0.33993000  1
  C  C21  1  0.48013500  0.77625900  0.62500900  1
  C  C22  1  0.49856000  0.00010300  0.37491600  1
  C  C23  1  0.37607700  0.71184200  0.33993000  1
  C  C24  1  0.62068900  0.28858100  0.40999600  1
  C  C25  1  0.85628200  0.65292900  0.12458100  1
  C  C26  1  0.87931100  0.78858100  0.90999600  1
  C  C27  1  0.12392300  0.21184200  0.83993000  1
  C  C28  1  0.12068900  0.21141900  0.40999600  1
  C  C29  1  0.37931100  0.71141900  0.90999600  1
  C  C30  1  0.22400000  0.04513000  0.62519500  1
  C  C31  1  0.35628200  0.84707100  0.12458100  1
  C  C32  1  0.01986500  0.27625900  0.12500900  1
  C  C33  1  0.50144000  0.99989700  0.87491600  1
  C  C34  1  0.77600000  0.95487000  0.12519500  1
  C  C35  1  0.64371800  0.15292900  0.62458100  1
  C  C36  1  0.62392300  0.28815800  0.83993000  1
  C  C37  1  0.27600000  0.54513000  0.12519500  1
  C  C38  1  0.14371800  0.34707100  0.62458100  1
  C  C39  1  0.72400000  0.45487000  0.62519500  1
