# generated using pymatgen
data_Cu(NiC5)2
_symmetry_space_group_name_H-M   'P 1'
_cell_length_a   11.52258438
_cell_length_b   11.52258438
_cell_length_c   11.52258438
_cell_angle_alpha   144.99071879
_cell_angle_beta   115.87793461
_cell_angle_gamma   75.19592942
_symmetry_Int_Tables_number   1
_chemical_formula_structural   Cu(NiC5)2
_chemical_formula_sum   'Cu4 Ni8 C40'
_cell_volume   774.11960986
_cell_formula_units_Z   4
loop_
 _symmetry_equiv_pos_site_id
 _symmetry_equiv_pos_as_xyz
  1  'x, y, z'
loop_
 _atom_site_type_symbol
 _atom_site_label
 _atom_site_symmetry_multiplicity
 _atom_site_fract_x
 _atom_site_fract_y
 _atom_site_fract_z
 _atom_site_occupancy
  Ni  Ni0  1  0.28724000  0.33631000  0.92962500  1
  Ni  Ni1  1  0.90668500  0.35761500  0.57037500  1
  Ni  Ni2  1  0.59331500  0.16369000  0.45093000  1
  Ni  Ni3  1  0.21276000  0.14238500  0.04907000  1
  Ni  Ni4  1  0.71276000  0.66369000  0.07037500  1
  Ni  Ni5  1  0.09331500  0.64238500  0.42962500  1
  Ni  Ni6  1  0.40668500  0.83631000  0.54907000  1
  Ni  Ni7  1  0.78724000  0.85761500  0.95093000  1
  Cu  Cu8  1  0.32267700  0.75000000  0.07267700  1
  Cu  Cu9  1  0.17732300  0.25000000  0.42732300  1
  Cu  Cu10  1  0.67732300  0.25000000  0.92732300  1
  Cu  Cu11  1  0.82267700  0.75000000  0.57267700  1
  C  C12  1  0.93040500  0.25000000  0.18040500  1
  C  C13  1  0.56959500  0.75000000  0.31959500  1
  C  C14  1  0.06959500  0.75000000  0.81959500  1
  C  C15  1  0.43040500  0.25000000  0.68040500  1
  C  C16  1  0.92764200  0.17764200  0.75000000  1
  C  C17  1  0.57235800  0.32235800  0.25000000  1
  C  C18  1  0.07235800  0.82235800  0.25000000  1
  C  C19  1  0.42764200  0.67764200  0.75000000  1
  C  C20  1  0.93850600  0.19733700  0.27131600  1
  C  C21  1  0.42602100  0.66719000  0.22868400  1
  C  C22  1  0.07397900  0.30266300  0.24116900  1
  C  C23  1  0.56149400  0.83281000  0.25883100  1
  C  C24  1  0.06149400  0.80266300  0.72868400  1
  C  C25  1  0.57397900  0.33281000  0.77131600  1
  C  C26  1  0.92602100  0.69733700  0.75883100  1
  C  C27  1  0.43850600  0.16719000  0.74116900  1
  C  C28  1  0.84274200  0.06708200  0.92627800  1
  C  C29  1  0.64080400  0.91646400  0.57372200  1
  C  C30  1  0.85919600  0.43291800  0.27566000  1
  C  C31  1  0.65725800  0.58353600  0.22434000  1
  C  C32  1  0.15725800  0.93291800  0.07372200  1
  C  C33  1  0.35919600  0.08353600  0.42627800  1
  C  C34  1  0.14080400  0.56708200  0.72434000  1
  C  C35  1  0.34274200  0.41646400  0.77566000  1
  C  C36  1  0.84404100  0.33167900  0.93547200  1
  C  C37  1  0.89620800  0.90856900  0.56452800  1
  C  C38  1  0.60379200  0.16832100  0.01236100  1
  C  C39  1  0.65595900  0.59143100  0.48763900  1
  C  C40  1  0.15595900  0.66832100  0.06452800  1
  C  C41  1  0.10379200  0.09143100  0.43547200  1
  C  C42  1  0.39620800  0.83167900  0.98763900  1
  C  C43  1  0.34404100  0.40856900  0.51236100  1
  C  C44  1  0.86294100  0.18828600  0.58558100  1
  C  C45  1  0.10270500  0.27736100  0.91441900  1
  C  C46  1  0.39729500  0.31171400  0.17465600  1
  C  C47  1  0.63705900  0.22263900  0.32534400  1
  C  C48  1  0.13705900  0.81171400  0.41441900  1
  C  C49  1  0.89729500  0.72263900  0.08558100  1
  C  C50  1  0.60270500  0.68828600  0.82534400  1
  C  C51  1  0.36294100  0.77736100  0.67465600  1
