# generated using pymatgen
data_CuNiC9
_symmetry_space_group_name_H-M   'P 1'
_cell_length_a   7.37778442
_cell_length_b   7.37778442
_cell_length_c   7.37778442
_cell_angle_alpha   120.96101928
_cell_angle_beta   118.83058053
_cell_angle_gamma   90.19044543
_symmetry_Int_Tables_number   1
_chemical_formula_structural   CuNiC9
_chemical_formula_sum   'Cu2 Ni2 C18'
_cell_volume   284.28688528
_cell_formula_units_Z   2
loop_
 _symmetry_equiv_pos_site_id
 _symmetry_equiv_pos_as_xyz
  1  'x, y, z'
loop_
 _atom_site_type_symbol
 _atom_site_label
 _atom_site_symmetry_multiplicity
 _atom_site_fract_x
 _atom_site_fract_y
 _atom_site_fract_z
 _atom_site_occupancy
  C  C0  1  0.00000000  0.00000000  0.00000000  1
  C  C1  1  0.50000000  0.50000000  0.00000000  1
  C  C2  1  0.50000000  0.00000000  0.00000000  1
  C  C3  1  0.50000000  0.50000000  0.50000000  1
  Ni  Ni4  1  0.00000000  0.00000000  0.50000000  1
  Ni  Ni5  1  0.00000000  0.50000000  0.00000000  1
  Cu  Cu6  1  0.50000000  0.00000000  0.50000000  1
  Cu  Cu7  1  0.00000000  0.50000000  0.50000000  1
  C  C8  1  0.36223800  0.09167300  0.27056500  1
  C  C9  1  0.67889200  0.40832700  0.27056500  1
  C  C10  1  0.68316300  0.31228300  0.76366700  1
  C  C11  1  0.95138400  0.18771700  0.37087900  1
  C  C12  1  0.95138400  0.58050400  0.76366700  1
  C  C13  1  0.68316300  0.91949600  0.37087900  1
  C  C14  1  0.31683700  0.08050400  0.62912100  1
  C  C15  1  0.04861600  0.41949600  0.23633300  1
  C  C16  1  0.04861600  0.81228300  0.62912100  1
  C  C17  1  0.31683700  0.68771700  0.23633300  1
  C  C18  1  0.89844100  0.75000000  0.14844100  1
  C  C19  1  0.63776200  0.90832700  0.72943500  1
  C  C20  1  0.32110800  0.59167300  0.72943500  1
  C  C21  1  0.10155900  0.25000000  0.85155900  1
