# generated using pymatgen
data_CuNiC16
_symmetry_space_group_name_H-M   'P 1'
_cell_length_a   8.95208483
_cell_length_b   8.95208483
_cell_length_c   8.95208483
_cell_angle_alpha   143.40772671
_cell_angle_beta   143.40772671
_cell_angle_gamma   52.71387512
_symmetry_Int_Tables_number   1
_chemical_formula_structural   CuNiC16
_chemical_formula_sum   'Cu1 Ni1 C16'
_cell_volume   253.41016268
_cell_formula_units_Z   1
loop_
 _symmetry_equiv_pos_site_id
 _symmetry_equiv_pos_as_xyz
  1  'x, y, z'
loop_
 _atom_site_type_symbol
 _atom_site_label
 _atom_site_symmetry_multiplicity
 _atom_site_fract_x
 _atom_site_fract_y
 _atom_site_fract_z
 _atom_site_occupancy
  Ni  Ni0  1  0.00000000  0.00000000  0.00000000  1
  Cu  Cu1  1  0.50000000  0.50000000  0.00000000  1
  C  C2  1  0.62897200  0.12897200  0.50000000  1
  C  C3  1  0.12897200  0.62897200  0.50000000  1
  C  C4  1  0.87102800  0.37102800  0.50000000  1
  C  C5  1  0.37102800  0.87102800  0.50000000  1
  C  C6  1  0.85575700  0.85575700  0.48353400  1
  C  C7  1  0.37222300  0.37222300  0.51646600  1
  C  C8  1  0.14424300  0.14424300  0.51646600  1
  C  C9  1  0.62777700  0.62777700  0.48353400  1
  C  C10  1  0.37222300  0.85575700  0.00000000  1
  C  C11  1  0.85575700  0.37222300  0.00000000  1
  C  C12  1  0.62777700  0.14424300  0.00000000  1
  C  C13  1  0.14424300  0.62777700  0.00000000  1
  C  C14  1  0.75000000  0.25000000  0.50000000  1
  C  C15  1  0.25000000  0.75000000  0.50000000  1
  C  C16  1  0.50000000  0.00000000  0.50000000  1
  C  C17  1  0.00000000  0.50000000  0.50000000  1
