# generated using pymatgen
data_CuNi2C
_symmetry_space_group_name_H-M   'P 1'
_cell_length_a   4.31073900
_cell_length_b   8.83723600
_cell_length_c   9.60942485
_cell_angle_alpha   117.37557540
_cell_angle_beta   102.96156615
_cell_angle_gamma   90.00000000
_symmetry_Int_Tables_number   1
_chemical_formula_structural   CuNi2C
_chemical_formula_sum   'Cu4 Ni8 C4'
_cell_volume   314.53486747
_cell_formula_units_Z   4
loop_
 _symmetry_equiv_pos_site_id
 _symmetry_equiv_pos_as_xyz
  1  'x, y, z'
loop_
 _atom_site_type_symbol
 _atom_site_label
 _atom_site_symmetry_multiplicity
 _atom_site_fract_x
 _atom_site_fract_y
 _atom_site_fract_z
 _atom_site_occupancy
  C  C0  1  0.20300000  0.20300000  0.40599900  1
  C  C1  1  0.79700000  0.79700000  0.59400100  1
  C  C2  1  0.00000000  0.76319100  0.00000000  1
  C  C3  1  0.00000000  0.23680900  0.00000000  1
  Ni  Ni4  1  0.57452900  0.07452900  0.14905800  1
  Ni  Ni5  1  0.42547100  0.92547100  0.85094200  1
  Ni  Ni6  1  0.19900400  0.84990600  0.39800800  1
  Ni  Ni7  1  0.80099600  0.15009400  0.60199200  1
  Ni  Ni8  1  0.19900400  0.54810200  0.39800800  1
  Ni  Ni9  1  0.80099600  0.45189800  0.60199200  1
  Ni  Ni10  1  0.42475000  0.42475000  0.84950100  1
  Ni  Ni11  1  0.57525000  0.57525000  0.15049900  1
  Cu  Cu12  1  0.35319200  0.10283200  0.70638500  1
  Cu  Cu13  1  0.64680800  0.89716800  0.29361500  1
  Cu  Cu14  1  0.35319200  0.60355300  0.70638500  1
  Cu  Cu15  1  0.64680800  0.39644700  0.29361500  1
