# generated using pymatgen
data_CuNiC7
_symmetry_space_group_name_H-M   'P 1'
_cell_length_a   8.99878492
_cell_length_b   8.99878492
_cell_length_c   8.99878492
_cell_angle_alpha   140.96455228
_cell_angle_beta   139.63031402
_cell_angle_gamma   57.40905938
_symmetry_Int_Tables_number   1
_chemical_formula_structural   CuNiC7
_chemical_formula_sum   'Cu2 Ni2 C14'
_cell_volume   294.72783353
_cell_formula_units_Z   2
loop_
 _symmetry_equiv_pos_site_id
 _symmetry_equiv_pos_as_xyz
  1  'x, y, z'
loop_
 _atom_site_type_symbol
 _atom_site_label
 _atom_site_symmetry_multiplicity
 _atom_site_fract_x
 _atom_site_fract_y
 _atom_site_fract_z
 _atom_site_occupancy
  C  C0  1  0.38753000  0.89973800  0.52488600  1
  C  C1  1  0.61247000  0.13735600  0.51220900  1
  C  C2  1  0.12514800  0.63735600  0.52488600  1
  C  C3  1  0.87485200  0.39973800  0.51220900  1
  Ni  Ni4  1  0.50000000  0.51644300  0.01644300  1
  Ni  Ni5  1  0.00000000  0.01644300  0.01644300  1
  Cu  Cu6  1  0.18476900  0.26185000  0.94661900  1
  Cu  Cu7  1  0.81523100  0.76185000  0.07708100  1
  C  C8  1  0.76052900  0.27645900  0.01567800  1
  C  C9  1  0.23947100  0.25514800  0.51593000  1
  C  C10  1  0.23921800  0.75514800  0.01567800  1
  C  C11  1  0.76078200  0.77645900  0.51593000  1
  C  C12  1  0.42384600  0.36495600  0.08128800  1
  C  C13  1  0.57615400  0.65744100  0.94110900  1
  C  C14  1  0.21633200  0.15744100  0.08128800  1
  C  C15  1  0.78366800  0.86495600  0.94110900  1
  C  C16  1  0.99019500  0.50320700  0.99340200  1
  C  C17  1  0.00980500  0.00320700  0.51301200  1
