# generated using pymatgen
data_Cu4Ni2C
_symmetry_space_group_name_H-M   'P 1'
_cell_length_a   5.71694400
_cell_length_b   5.94490000
_cell_length_c   7.95023757
_cell_angle_alpha   70.25947315
_cell_angle_beta   90.00000000
_cell_angle_gamma   90.00000000
_symmetry_Int_Tables_number   1
_chemical_formula_structural   Cu4Ni2C
_chemical_formula_sum   'Cu8 Ni4 C2'
_cell_volume   254.32275744
_cell_formula_units_Z   2
loop_
 _symmetry_equiv_pos_site_id
 _symmetry_equiv_pos_as_xyz
  1  'x, y, z'
loop_
 _atom_site_type_symbol
 _atom_site_label
 _atom_site_symmetry_multiplicity
 _atom_site_fract_x
 _atom_site_fract_y
 _atom_site_fract_z
 _atom_site_occupancy
  C  C0  1  0.00000000  0.97805300  0.00956300  1
  C  C1  1  0.50000000  0.35829100  0.36767600  1
  Ni  Ni2  1  0.00000000  0.37046500  0.37981400  1
  Ni  Ni3  1  0.00000000  0.74477800  0.74333800  1
  Ni  Ni4  1  0.50000000  0.11593900  0.96022300  1
  Ni  Ni5  1  0.50000000  0.08159600  0.42394100  1
  Cu  Cu6  1  0.24211900  0.94638900  0.13260200  1
  Cu  Cu7  1  0.75788100  0.94638900  0.13260200  1
  Cu  Cu8  1  0.00000000  0.73628300  0.89881200  1
  Cu  Cu9  1  0.00000000  0.22310700  0.84278000  1
  Cu  Cu10  1  0.18553500  0.41769800  0.45144800  1
  Cu  Cu11  1  0.81446500  0.41769800  0.45144800  1
  Cu  Cu12  1  0.50000000  0.46369800  0.15228500  1
  Cu  Cu13  1  0.50000000  0.05261600  0.83946600  1
