# generated using pymatgen
data_Cu3NiC11
_symmetry_space_group_name_H-M   'P 1'
_cell_length_a   13.05399000
_cell_length_b   9.24739100
_cell_length_c   9.34421060
_cell_angle_alpha   64.49531481
_cell_angle_beta   90.00000000
_cell_angle_gamma   90.00000000
_symmetry_Int_Tables_number   1
_chemical_formula_structural   Cu3NiC11
_chemical_formula_sum   'Cu12 Ni4 C44'
_cell_volume   1018.06714560
_cell_formula_units_Z   4
loop_
 _symmetry_equiv_pos_site_id
 _symmetry_equiv_pos_as_xyz
  1  'x, y, z'
loop_
 _atom_site_type_symbol
 _atom_site_label
 _atom_site_symmetry_multiplicity
 _atom_site_fract_x
 _atom_site_fract_y
 _atom_site_fract_z
 _atom_site_occupancy
  C  C0  1  0.12767400  0.84642900  0.09895800  1
  C  C1  1  0.62767400  0.15357100  0.40104200  1
  C  C2  1  0.87232600  0.15357100  0.90104200  1
  C  C3  1  0.37232600  0.84642900  0.59895800  1
  C  C4  1  0.80983700  0.61102900  0.31743800  1
  C  C5  1  0.30983700  0.38897100  0.18256200  1
  C  C6  1  0.19016300  0.38897100  0.68256200  1
  C  C7  1  0.69016300  0.61102900  0.81743800  1
  Ni  Ni8  1  0.00003700  0.61227700  0.88164200  1
  Ni  Ni9  1  0.50003700  0.38772300  0.61835800  1
  Ni  Ni10  1  0.99996300  0.38772300  0.11835800  1
  Ni  Ni11  1  0.49996300  0.61227700  0.38164200  1
  C  C12  1  0.04905400  0.70705200  0.52491200  1
  C  C13  1  0.54905400  0.29294800  0.97508800  1
  C  C14  1  0.95094600  0.29294800  0.47508800  1
  C  C15  1  0.45094600  0.70705200  0.02491200  1
  C  C16  1  0.12654500  0.85366200  0.44767000  1
  C  C17  1  0.62654500  0.14633800  0.05233000  1
  C  C18  1  0.87345500  0.14633800  0.55233000  1
  C  C19  1  0.37345500  0.85366200  0.94767000  1
  C  C20  1  0.34339500  0.05710900  0.01558300  1
  C  C21  1  0.84339500  0.94289100  0.48441700  1
  C  C22  1  0.65660500  0.94289100  0.98441700  1
  C  C23  1  0.15660500  0.05710900  0.51558300  1
  C  C24  1  0.34150400  0.09971600  0.83187200  1
  C  C25  1  0.84150400  0.90028400  0.66812800  1
  C  C26  1  0.65849600  0.90028400  0.16812800  1
  C  C27  1  0.15849600  0.09971600  0.33187200  1
  C  C28  1  0.03035600  0.10757800  0.65895600  1
  C  C29  1  0.53035600  0.89242200  0.84104400  1
  C  C30  1  0.96964400  0.89242200  0.34104400  1
  C  C31  1  0.46964400  0.10757800  0.15895600  1
  C  C32  1  0.09991400  0.95226800  0.74610600  1
  C  C33  1  0.59991400  0.04773200  0.75389400  1
  C  C34  1  0.90008600  0.04773200  0.25389400  1
  C  C35  1  0.40008600  0.95226800  0.24610600  1
  Cu  Cu36  1  0.90588200  0.77047500  0.91724000  1
  Cu  Cu37  1  0.40588200  0.22952500  0.58276000  1
  Cu  Cu38  1  0.09411800  0.22952500  0.08276000  1
  Cu  Cu39  1  0.59411800  0.77047500  0.41724000  1
  Cu  Cu40  1  0.14851300  0.68488700  0.84216200  1
  Cu  Cu41  1  0.64851300  0.31511300  0.65783800  1
  Cu  Cu42  1  0.85148700  0.31511300  0.15783800  1
  Cu  Cu43  1  0.35148700  0.68488700  0.34216200  1
  Cu  Cu44  1  0.94418300  0.54428500  0.71662400  1
  Cu  Cu45  1  0.44418300  0.45571500  0.78337600  1
  Cu  Cu46  1  0.05581700  0.45571500  0.28337600  1
  Cu  Cu47  1  0.55581700  0.54428500  0.21662400  1
  C  C48  1  0.08340200  0.77768600  0.42385500  1
  C  C49  1  0.58340200  0.22231400  0.07614500  1
  C  C50  1  0.91659800  0.22231400  0.57614500  1
  C  C51  1  0.41659800  0.77768600  0.92385500  1
  C  C52  1  0.19033300  0.02920300  0.43576700  1
  C  C53  1  0.69033300  0.97079700  0.06423300  1
  C  C54  1  0.80966700  0.97079700  0.56423300  1
  C  C55  1  0.30966700  0.02920300  0.93576700  1
  C  C56  1  0.10176200  0.07108400  0.69399600  1
  C  C57  1  0.60176200  0.92891600  0.80600400  1
  C  C58  1  0.89823800  0.92891600  0.30600400  1
  C  C59  1  0.39823800  0.07108400  0.19399600  1
