# generated using pymatgen
data_Cu4NiC5
_symmetry_space_group_name_H-M   'P 1'
_cell_length_a   2.94493100
_cell_length_b   9.15272000
_cell_length_c   9.24212643
_cell_angle_alpha   89.80156252
_cell_angle_beta   90.00000000
_cell_angle_gamma   90.00000000
_symmetry_Int_Tables_number   1
_chemical_formula_structural   Cu4NiC5
_chemical_formula_sum   'Cu8 Ni2 C10'
_cell_volume   249.11197269
_cell_formula_units_Z   2
loop_
 _symmetry_equiv_pos_site_id
 _symmetry_equiv_pos_as_xyz
  1  'x, y, z'
loop_
 _atom_site_type_symbol
 _atom_site_label
 _atom_site_symmetry_multiplicity
 _atom_site_fract_x
 _atom_site_fract_y
 _atom_site_fract_z
 _atom_site_occupancy
  C  C0  1  0.00000000  0.82481300  0.68032300  1
  C  C1  1  0.00000000  0.17518700  0.31967700  1
  C  C2  1  0.00000000  0.67526500  0.17136300  1
  C  C3  1  0.00000000  0.32473500  0.82863700  1
  Ni  Ni4  1  0.00000000  0.50000000  0.50000000  1
  Ni  Ni5  1  0.00000000  0.00000000  0.00000000  1
  C  C6  1  0.00000000  0.37506800  0.12537100  1
  C  C7  1  0.00000000  0.62493200  0.87462900  1
  C  C8  1  0.00000000  0.12230000  0.62657600  1
  C  C9  1  0.00000000  0.87770000  0.37342400  1
  Cu  Cu10  1  0.50000000  0.21133500  0.07404700  1
  Cu  Cu11  1  0.50000000  0.78866500  0.92595300  1
  Cu  Cu12  1  0.50000000  0.42675100  0.28968500  1
  Cu  Cu13  1  0.50000000  0.57324900  0.71031500  1
  Cu  Cu14  1  0.50000000  0.92520400  0.21257900  1
  Cu  Cu15  1  0.50000000  0.07479600  0.78742100  1
  Cu  Cu16  1  0.50000000  0.00000000  0.50000000  1
  Cu  Cu17  1  0.50000000  0.50000000  0.00000000  1
  C  C18  1  0.50000000  0.28672700  0.57308500  1
  C  C19  1  0.50000000  0.71327300  0.42691500  1
