# generated using pymatgen
data_Cu3NiC13
_symmetry_space_group_name_H-M   'P 1'
_cell_length_a   7.02619357
_cell_length_b   7.02619357
_cell_length_c   13.49756900
_cell_angle_alpha   90.00000000
_cell_angle_beta   90.00000000
_cell_angle_gamma   119.99999596
_symmetry_Int_Tables_number   1
_chemical_formula_structural   Cu3NiC13
_chemical_formula_sum   'Cu12 Ni4 C52'
_cell_volume   577.06724825
_cell_formula_units_Z   4
loop_
 _symmetry_equiv_pos_site_id
 _symmetry_equiv_pos_as_xyz
  1  'x, y, z'
loop_
 _atom_site_type_symbol
 _atom_site_label
 _atom_site_symmetry_multiplicity
 _atom_site_fract_x
 _atom_site_fract_y
 _atom_site_fract_z
 _atom_site_occupancy
  C  C0  1  0.00000000  0.00000000  0.50000000  1
  C  C1  1  0.00000000  0.00000000  0.00000000  1
  C  C2  1  0.66666700  0.33333300  0.90310400  1
  C  C3  1  0.33333300  0.66666700  0.59689600  1
  C  C4  1  0.33333300  0.66666700  0.09689600  1
  C  C5  1  0.66666700  0.33333300  0.40310400  1
  C  C6  1  0.51816300  0.31287100  0.79826600  1
  C  C7  1  0.31287100  0.51816300  0.70173400  1
  C  C8  1  0.48183700  0.68712900  0.20173400  1
  C  C9  1  0.68712900  0.48183700  0.29826600  1
  C  C10  1  0.68712900  0.20529300  0.79826600  1
  C  C11  1  0.20529300  0.68712900  0.70173400  1
  C  C12  1  0.31287100  0.79470700  0.20173400  1
  C  C13  1  0.79470700  0.31287100  0.29826600  1
  C  C14  1  0.79470700  0.48183700  0.79826600  1
  C  C15  1  0.48183700  0.79470700  0.70173400  1
  C  C16  1  0.20529300  0.51816300  0.20173400  1
  C  C17  1  0.51816300  0.20529300  0.29826600  1
  C  C18  1  0.76825700  0.58210800  0.55996400  1
  C  C19  1  0.58210800  0.76825700  0.94003600  1
  C  C20  1  0.23174300  0.41789200  0.44003600  1
  C  C21  1  0.41789200  0.23174300  0.05996400  1
  C  C22  1  0.90027900  0.73875500  0.65418500  1
  C  C23  1  0.73875500  0.90027900  0.84581500  1
  C  C24  1  0.09972100  0.26124500  0.34581500  1
  C  C25  1  0.26124500  0.09972100  0.15418500  1
  C  C26  1  0.81385100  0.23174300  0.55996400  1
  C  C27  1  0.23174300  0.81385100  0.94003600  1
  C  C28  1  0.18614900  0.76825700  0.44003600  1
  C  C29  1  0.76825700  0.18614900  0.05996400  1
  C  C30  1  0.83847600  0.09972100  0.65418500  1
  C  C31  1  0.09972100  0.83847600  0.84581500  1
  C  C32  1  0.16152400  0.90027900  0.34581500  1
  C  C33  1  0.90027900  0.16152400  0.15418500  1
  C  C34  1  0.26124500  0.16152400  0.65418500  1
  C  C35  1  0.16152400  0.26124500  0.84581500  1
  C  C36  1  0.73875500  0.83847600  0.34581500  1
  C  C37  1  0.83847600  0.73875500  0.15418500  1
  C  C38  1  0.41789200  0.18614900  0.55996400  1
  C  C39  1  0.18614900  0.41789200  0.94003600  1
  C  C40  1  0.58210800  0.81385100  0.44003600  1
  C  C41  1  0.81385100  0.58210800  0.05996400  1
  Ni  Ni42  1  0.66666700  0.33333300  0.82564100  1
  Ni  Ni43  1  0.33333300  0.66666700  0.67435900  1
  Ni  Ni44  1  0.33333300  0.66666700  0.17435900  1
  Ni  Ni45  1  0.66666700  0.33333300  0.32564100  1
  Cu  Cu46  1  0.82830300  0.73460600  0.58770800  1
  Cu  Cu47  1  0.73460600  0.82830300  0.91229200  1
  Cu  Cu48  1  0.17169700  0.26539400  0.41229200  1
  Cu  Cu49  1  0.26539400  0.17169700  0.08770800  1
  Cu  Cu50  1  0.90630300  0.17169700  0.58770800  1
  Cu  Cu51  1  0.17169700  0.90630300  0.91229200  1
  Cu  Cu52  1  0.09369700  0.82830300  0.41229200  1
  Cu  Cu53  1  0.82830300  0.09369700  0.08770800  1
  Cu  Cu54  1  0.26539400  0.09369700  0.58770800  1
  Cu  Cu55  1  0.09369700  0.26539400  0.91229200  1
  Cu  Cu56  1  0.73460600  0.90630300  0.41229200  1
  Cu  Cu57  1  0.90630300  0.73460600  0.08770800  1
  C  C58  1  0.66666700  0.33333300  0.52738800  1
  C  C59  1  0.33333300  0.66666700  0.97261200  1
  C  C60  1  0.33333300  0.66666700  0.47261200  1
  C  C61  1  0.66666700  0.33333300  0.02738800  1
  C  C62  1  0.00000000  0.72092700  0.75000000  1
  C  C63  1  0.72092700  0.00000000  0.75000000  1
  C  C64  1  0.00000000  0.27907300  0.25000000  1
  C  C65  1  0.27907300  0.00000000  0.25000000  1
  C  C66  1  0.27907300  0.27907300  0.75000000  1
  C  C67  1  0.72092700  0.72092700  0.25000000  1
