# generated using pymatgen
data_Cu3NiC16
_symmetry_space_group_name_H-M   'P 1'
_cell_length_a   6.45655000
_cell_length_b   7.96275600
_cell_length_c   10.62444887
_cell_angle_alpha   82.06675213
_cell_angle_beta   90.00000000
_cell_angle_gamma   90.00000000
_symmetry_Int_Tables_number   1
_chemical_formula_structural   Cu3NiC16
_chemical_formula_sum   'Cu6 Ni2 C32'
_cell_volume   540.99583552
_cell_formula_units_Z   2
loop_
 _symmetry_equiv_pos_site_id
 _symmetry_equiv_pos_as_xyz
  1  'x, y, z'
loop_
 _atom_site_type_symbol
 _atom_site_label
 _atom_site_symmetry_multiplicity
 _atom_site_fract_x
 _atom_site_fract_y
 _atom_site_fract_z
 _atom_site_occupancy
  Ni  Ni0  1  0.75000000  0.38495200  0.15922100  1
  Ni  Ni1  1  0.25000000  0.61504800  0.84077900  1
  Cu  Cu2  1  0.25000000  0.66441400  0.21357200  1
  Cu  Cu3  1  0.75000000  0.33558600  0.78642800  1
  Cu  Cu4  1  0.25000000  0.25805400  0.43135500  1
  Cu  Cu5  1  0.50000000  0.00000000  0.00000000  1
  Cu  Cu6  1  0.75000000  0.74194600  0.56864500  1
  Cu  Cu7  1  0.00000000  0.00000000  0.00000000  1
  C  C8  1  0.25000000  0.77340800  0.50277400  1
  C  C9  1  0.75000000  0.22659200  0.49722600  1
  C  C10  1  0.25000000  0.26309700  0.75678900  1
  C  C11  1  0.75000000  0.73690300  0.24321100  1
  C  C12  1  0.75000000  0.67048500  0.88734100  1
  C  C13  1  0.25000000  0.32951500  0.11265900  1
  C  C14  1  0.75000000  0.60913500  0.75140500  1
  C  C15  1  0.56924600  0.25430300  0.39748700  1
  C  C16  1  0.25000000  0.19498200  0.63019200  1
  C  C17  1  0.54131200  0.76721100  0.89120900  1
  C  C18  1  0.75000000  0.37603400  0.57745100  1
  C  C19  1  0.75000000  0.11021400  0.90597000  1
  C  C20  1  0.25000000  0.62396600  0.42254900  1
  C  C21  1  0.04131200  0.23278900  0.10879100  1
  C  C22  1  0.25000000  0.93966600  0.41437400  1
  C  C23  1  0.75000000  0.06033400  0.58562600  1
  C  C24  1  0.07207300  0.38888600  0.78123500  1
  C  C25  1  0.25000000  0.88978600  0.09403000  1
  C  C26  1  0.57207300  0.61111400  0.21876500  1
  C  C27  1  0.75000000  0.50576500  0.98098100  1
  C  C28  1  0.75000000  0.80501800  0.36980800  1
  C  C29  1  0.45868800  0.23278900  0.10879100  1
  C  C30  1  0.93075400  0.25430300  0.39748700  1
  C  C31  1  0.43075400  0.74569700  0.60251300  1
  C  C32  1  0.42792700  0.38888600  0.78123500  1
  C  C33  1  0.25000000  0.39086500  0.24859500  1
  C  C34  1  0.75000000  0.89444100  0.14024800  1
  C  C35  1  0.25000000  0.10555900  0.85975200  1
  C  C36  1  0.92792700  0.61111400  0.21876500  1
  C  C37  1  0.95868800  0.76721100  0.89120900  1
  C  C38  1  0.06924600  0.74569700  0.60251300  1
  C  C39  1  0.25000000  0.49423500  0.01901900  1
