# generated using pymatgen
data_Cu24Ni17C3
_symmetry_space_group_name_H-M   'P 1'
_cell_length_a   10.25773665
_cell_length_b   10.25773665
_cell_length_c   10.25773665
_cell_angle_alpha   90.00000000
_cell_angle_beta   90.00000000
_cell_angle_gamma   90.00000000
_symmetry_Int_Tables_number   1
_chemical_formula_structural   Cu24Ni17C3
_chemical_formula_sum   'Cu48 Ni34 C6'
_cell_volume   1079.33096140
_cell_formula_units_Z   2
loop_
 _symmetry_equiv_pos_site_id
 _symmetry_equiv_pos_as_xyz
  1  'x, y, z'
loop_
 _atom_site_type_symbol
 _atom_site_label
 _atom_site_symmetry_multiplicity
 _atom_site_fract_x
 _atom_site_fract_y
 _atom_site_fract_z
 _atom_site_occupancy
  C  C0  1  0.50000000  0.50000000  0.50000000  1
  C  C1  1  -0.00000000  0.00000000  -0.00000000  1
  C  C2  1  0.25000000  0.75000000  0.75000000  1
  C  C3  1  0.75000000  0.75000000  0.25000000  1
  C  C4  1  0.75000000  0.25000000  0.75000000  1
  C  C5  1  0.25000000  0.25000000  0.25000000  1
  Ni  Ni6  1  0.25727431  0.54891638  0.74809751  1
  Ni  Ni7  1  0.74272569  0.54891638  0.25190249  1
  Ni  Ni8  1  0.74272569  0.45108362  0.74809751  1
  Ni  Ni9  1  0.25727431  0.45108362  0.25190249  1
  Ni  Ni10  1  0.74809751  0.25727431  0.54891638  1
  Ni  Ni11  1  0.25190249  0.74272569  0.54891638  1
  Ni  Ni12  1  0.74809751  0.74272569  0.45108362  1
  Ni  Ni13  1  0.25190249  0.25727431  0.45108362  1
  Ni  Ni14  1  0.54891638  0.74809751  0.25727431  1
  Ni  Ni15  1  0.54891638  0.25190249  0.74272569  1
  Ni  Ni16  1  0.45108362  0.74809751  0.74272569  1
  Ni  Ni17  1  0.45108362  0.25190249  0.25727431  1
  Ni  Ni18  1  0.24272569  0.95108362  0.75190249  1
  Ni  Ni19  1  0.75727431  0.95108362  0.24809751  1
  Ni  Ni20  1  0.75727431  0.04891638  0.75190249  1
  Ni  Ni21  1  0.24272569  0.04891638  0.24809751  1
  Ni  Ni22  1  0.75190249  0.24272569  0.95108362  1
  Ni  Ni23  1  0.24809751  0.75727431  0.95108362  1
  Ni  Ni24  1  0.75190249  0.75727431  0.04891638  1
  Ni  Ni25  1  0.24809751  0.24272569  0.04891638  1
  Ni  Ni26  1  0.95108362  0.75190249  0.24272569  1
  Ni  Ni27  1  0.95108362  0.24809751  0.75727431  1
  Ni  Ni28  1  0.04891638  0.75190249  0.75727431  1
  Ni  Ni29  1  0.04891638  0.24809751  0.24272569  1
  Ni  Ni30  1  0.75000000  0.25000000  0.25000000  1
  Ni  Ni31  1  0.25000000  0.25000000  0.75000000  1
  Ni  Ni32  1  0.25000000  0.75000000  0.25000000  1
  Ni  Ni33  1  0.75000000  0.75000000  0.75000000  1
  Ni  Ni34  1  -0.00000000  0.50000000  -0.00000000  1
  Ni  Ni35  1  -0.00000000  0.00000000  0.50000000  1
  Ni  Ni36  1  0.50000000  0.00000000  -0.00000000  1
  Ni  Ni37  1  0.50000000  0.00000000  0.50000000  1
  Ni  Ni38  1  0.50000000  0.50000000  -0.00000000  1
  Ni  Ni39  1  -0.00000000  0.50000000  0.50000000  1
  Cu  Cu40  1  0.27945782  0.49369361  0.64022286  1
  Cu  Cu41  1  0.72054218  0.49369361  0.35977714  1
  Cu  Cu42  1  0.72054218  0.50630639  0.64022286  1
  Cu  Cu43  1  0.27945782  0.50630639  0.35977714  1
  Cu  Cu44  1  0.64022286  0.27945782  0.49369361  1
  Cu  Cu45  1  0.35977714  0.72054218  0.49369361  1
  Cu  Cu46  1  0.64022286  0.72054218  0.50630639  1
  Cu  Cu47  1  0.35977714  0.27945782  0.50630639  1
  Cu  Cu48  1  0.49369361  0.64022286  0.27945782  1
  Cu  Cu49  1  0.49369361  0.35977714  0.72054218  1
  Cu  Cu50  1  0.50630639  0.64022286  0.72054218  1
  Cu  Cu51  1  0.50630639  0.35977714  0.27945782  1
  Cu  Cu52  1  0.22054218  0.00630639  0.85977714  1
  Cu  Cu53  1  0.77945782  0.00630639  0.14022286  1
  Cu  Cu54  1  0.77945782  0.99369361  0.85977714  1
  Cu  Cu55  1  0.22054218  0.99369361  0.14022286  1
  Cu  Cu56  1  0.85977714  0.22054218  0.00630639  1
  Cu  Cu57  1  0.14022286  0.77945782  0.00630639  1
  Cu  Cu58  1  0.85977714  0.77945782  0.99369361  1
  Cu  Cu59  1  0.14022286  0.22054218  0.99369361  1
  Cu  Cu60  1  0.00630639  0.85977714  0.22054218  1
  Cu  Cu61  1  0.00630639  0.14022286  0.77945782  1
  Cu  Cu62  1  0.99369361  0.85977714  0.77945782  1
  Cu  Cu63  1  0.99369361  0.14022286  0.22054218  1
  Cu  Cu64  1  0.24123960  0.48799129  0.84881143  1
  Cu  Cu65  1  0.75876040  0.48799129  0.15118857  1
  Cu  Cu66  1  0.75876040  0.51200871  0.84881143  1
  Cu  Cu67  1  0.24123960  0.51200871  0.15118857  1
  Cu  Cu68  1  0.84881143  0.24123960  0.48799129  1
  Cu  Cu69  1  0.15118857  0.75876040  0.48799129  1
  Cu  Cu70  1  0.84881143  0.75876040  0.51200871  1
  Cu  Cu71  1  0.15118857  0.24123960  0.51200871  1
  Cu  Cu72  1  0.48799129  0.84881143  0.24123960  1
  Cu  Cu73  1  0.48799129  0.15118857  0.75876040  1
  Cu  Cu74  1  0.51200871  0.84881143  0.75876040  1
  Cu  Cu75  1  0.51200871  0.15118857  0.24123960  1
  Cu  Cu76  1  0.25876040  0.01200871  0.65118857  1
  Cu  Cu77  1  0.74123960  0.01200871  0.34881143  1
  Cu  Cu78  1  0.74123960  0.98799129  0.65118857  1
  Cu  Cu79  1  0.25876040  0.98799129  0.34881143  1
  Cu  Cu80  1  0.65118857  0.25876040  0.01200871  1
  Cu  Cu81  1  0.34881143  0.74123960  0.01200871  1
  Cu  Cu82  1  0.65118857  0.74123960  0.98799129  1
  Cu  Cu83  1  0.34881143  0.25876040  0.98799129  1
  Cu  Cu84  1  0.01200871  0.65118857  0.25876040  1
  Cu  Cu85  1  0.01200871  0.34881143  0.74123960  1
  Cu  Cu86  1  0.98799129  0.65118857  0.74123960  1
  Cu  Cu87  1  0.98799129  0.34881143  0.25876040  1
