# generated using pymatgen
data_Cu12Ni4C21
_symmetry_space_group_name_H-M   'P 1'
_cell_length_a   8.50937700
_cell_length_b   9.53131300
_cell_length_c   9.58505354
_cell_angle_alpha   80.26576958
_cell_angle_beta   90.00000000
_cell_angle_gamma   90.00000000
_symmetry_Int_Tables_number   1
_chemical_formula_structural   Cu12Ni4C21
_chemical_formula_sum   'Cu24 Ni8 C42'
_cell_volume   766.20837472
_cell_formula_units_Z   2
loop_
 _symmetry_equiv_pos_site_id
 _symmetry_equiv_pos_as_xyz
  1  'x, y, z'
loop_
 _atom_site_type_symbol
 _atom_site_label
 _atom_site_symmetry_multiplicity
 _atom_site_fract_x
 _atom_site_fract_y
 _atom_site_fract_z
 _atom_site_occupancy
  C  C0  1  0.13828100  0.86259300  0.00302600  1
  C  C1  1  0.63828100  0.13740700  0.49697400  1
  C  C2  1  0.86171900  0.13740700  0.99697400  1
  C  C3  1  0.36171900  0.86259300  0.50302600  1
  C  C4  1  0.50000000  0.00000000  0.00000000  1
  C  C5  1  0.00000000  0.00000000  0.50000000  1
  Ni  Ni6  1  0.05462200  0.70110400  0.73600600  1
  Ni  Ni7  1  0.55462200  0.29889600  0.76399400  1
  Ni  Ni8  1  0.94537800  0.29889600  0.26399400  1
  Ni  Ni9  1  0.44537800  0.70110400  0.23600600  1
  Ni  Ni10  1  0.80279300  0.90272900  0.78885700  1
  Ni  Ni11  1  0.30279300  0.09727100  0.71114300  1
  Ni  Ni12  1  0.19720700  0.09727100  0.21114300  1
  Ni  Ni13  1  0.69720700  0.90272900  0.28885700  1
  Cu  Cu14  1  0.33139900  0.46774800  0.07905100  1
  Cu  Cu15  1  0.83139900  0.53225200  0.42094900  1
  Cu  Cu16  1  0.66860100  0.53225200  0.92094900  1
  Cu  Cu17  1  0.16860100  0.46774800  0.57905100  1
  Cu  Cu18  1  0.20903600  0.53296700  0.94530700  1
  Cu  Cu19  1  0.70903600  0.46703300  0.55469300  1
  Cu  Cu20  1  0.79096400  0.46703300  0.05469300  1
  Cu  Cu21  1  0.29096400  0.53296700  0.44530700  1
  Cu  Cu22  1  0.37224800  0.44029200  0.91370200  1
  Cu  Cu23  1  0.87224800  0.55970800  0.58629800  1
  Cu  Cu24  1  0.62775200  0.55970800  0.08629800  1
  Cu  Cu25  1  0.12775200  0.44029200  0.41370200  1
  Cu  Cu26  1  0.22097200  0.35177600  0.00401900  1
  Cu  Cu27  1  0.72097200  0.64822400  0.49598100  1
  Cu  Cu28  1  0.77902800  0.64822400  0.99598100  1
  Cu  Cu29  1  0.27902800  0.35177600  0.50401900  1
  Cu  Cu30  1  0.00258800  0.62304300  0.20858400  1
  Cu  Cu31  1  0.50258800  0.37695700  0.29141600  1
  Cu  Cu32  1  0.99741200  0.37695700  0.79141600  1
  Cu  Cu33  1  0.49741200  0.62304300  0.70858400  1
  Cu  Cu34  1  0.96341400  0.77793600  0.24389100  1
  Cu  Cu35  1  0.46341400  0.22206400  0.25610900  1
  Cu  Cu36  1  0.03658600  0.22206400  0.75610900  1
  Cu  Cu37  1  0.53658600  0.77793600  0.74389100  1
  C  C38  1  0.28117100  0.44605100  0.98624200  1
  C  C39  1  0.78117100  0.55394900  0.51375800  1
  C  C40  1  0.71882900  0.55394900  0.01375800  1
  C  C41  1  0.21882900  0.44605100  0.48624200  1
  C  C42  1  0.35809600  0.13169300  0.14427700  1
  C  C43  1  0.85809600  0.86830700  0.35572300  1
  C  C44  1  0.64190400  0.86830700  0.85572300  1
  C  C45  1  0.14190400  0.13169300  0.64427700  1
  C  C46  1  0.37839500  0.81280900  0.11567100  1
  C  C47  1  0.87839500  0.18719100  0.38432900  1
  C  C48  1  0.62160500  0.18719100  0.88432900  1
  C  C49  1  0.12160500  0.81280900  0.61567100  1
  C  C50  1  0.29951000  0.00416200  0.85879300  1
  C  C51  1  0.79951000  0.99583800  0.64120700  1
  C  C52  1  0.70049000  0.99583800  0.14120700  1
  C  C53  1  0.20049000  0.00416200  0.35879300  1
  C  C54  1  0.91969200  0.95819600  0.88894400  1
  C  C55  1  0.41969200  0.04180400  0.61105600  1
  C  C56  1  0.08030800  0.04180400  0.11105600  1
  C  C57  1  0.58030800  0.95819600  0.38894400  1
  C  C58  1  0.00807000  0.72611900  0.17068300  1
  C  C59  1  0.50807000  0.27388100  0.32931700  1
  C  C60  1  0.99193000  0.27388100  0.82931700  1
  C  C61  1  0.49193000  0.72611900  0.67068300  1
  C  C62  1  0.13925700  0.69715900  0.87741900  1
  C  C63  1  0.63925700  0.30284100  0.62258100  1
  C  C64  1  0.86074300  0.30284100  0.12258100  1
  C  C65  1  0.36074300  0.69715900  0.37741900  1
  C  C66  1  0.87229800  0.74825500  0.76177100  1
  C  C67  1  0.37229800  0.25174500  0.73822900  1
  C  C68  1  0.12770200  0.25174500  0.23822900  1
  C  C69  1  0.62770200  0.74825500  0.26177100  1
  C  C70  1  0.03721200  0.55286200  0.69685800  1
  C  C71  1  0.53721200  0.44713800  0.80314200  1
  C  C72  1  0.96278800  0.44713800  0.30314200  1
  C  C73  1  0.46278800  0.55286200  0.19685800  1
