# generated using pymatgen
data_CuNi3C2
_symmetry_space_group_name_H-M   'P 1'
_cell_length_a   15.03531249
_cell_length_b   15.03531249
_cell_length_c   15.03531249
_cell_angle_alpha   118.30937249
_cell_angle_beta   118.30937249
_cell_angle_gamma   92.95407733
_symmetry_Int_Tables_number   1
_chemical_formula_structural   CuNi3C2
_chemical_formula_sum   'Cu14 Ni42 C28'
_cell_volume   2461.25643430
_cell_formula_units_Z   14
loop_
 _symmetry_equiv_pos_site_id
 _symmetry_equiv_pos_as_xyz
  1  'x, y, z'
loop_
 _atom_site_type_symbol
 _atom_site_label
 _atom_site_symmetry_multiplicity
 _atom_site_fract_x
 _atom_site_fract_y
 _atom_site_fract_z
 _atom_site_occupancy
  C  C0  1  0.50000000  0.50000000  0.00000000  1
  C  C1  1  0.19889000  0.19889000  0.39778000  1
  C  C2  1  0.80111000  0.80111000  0.60222000  1
  C  C3  1  0.19889000  0.80111000  0.00000000  1
  C  C4  1  0.80111000  0.19889000  0.00000000  1
  C  C5  1  0.86173900  0.14625200  0.28451400  1
  C  C6  1  0.86173900  0.57722500  0.71548600  1
  C  C7  1  0.14625200  0.86173900  0.28451400  1
  C  C8  1  0.57722500  0.86173900  0.71548600  1
  C  C9  1  0.13826100  0.85374800  0.71548600  1
  C  C10  1  0.13826100  0.42277500  0.28451400  1
  C  C11  1  0.85374800  0.13826100  0.71548600  1
  C  C12  1  0.42277500  0.13826100  0.28451400  1
  C  C13  1  0.62231100  0.90302800  0.28071700  1
  C  C14  1  0.62231100  0.34159400  0.71928300  1
  C  C15  1  0.90302800  0.62231100  0.28071700  1
  C  C16  1  0.34159400  0.62231100  0.71928300  1
  C  C17  1  0.37768900  0.09697200  0.71928300  1
  C  C18  1  0.37768900  0.65840600  0.28071700  1
  C  C19  1  0.09697200  0.37768900  0.71928300  1
  C  C20  1  0.65840600  0.37768900  0.28071700  1
  C  C21  1  0.00000000  0.00000000  0.00000000  1
  C  C22  1  0.00000000  0.50000000  0.50000000  1
  C  C23  1  0.50000000  0.00000000  0.50000000  1
  C  C24  1  0.00000000  0.00000000  0.50000000  1
  C  C25  1  0.50000000  0.50000000  0.50000000  1
  C  C26  1  0.00000000  0.50000000  0.00000000  1
  C  C27  1  0.50000000  0.00000000  0.00000000  1
  Ni  Ni28  1  0.88429600  0.88429600  0.00000000  1
  Ni  Ni29  1  0.11570400  0.11570400  0.00000000  1
  Ni  Ni30  1  0.18120900  0.00000000  0.18120900  1
  Ni  Ni31  1  0.81879100  0.00000000  0.81879100  1
  Ni  Ni32  1  0.00000000  0.81879100  0.81879100  1
  Ni  Ni33  1  0.00000000  0.18120900  0.18120900  1
  Ni  Ni34  1  0.87700300  0.37700300  0.50000000  1
  Ni  Ni35  1  0.37700300  0.87700300  0.50000000  1
  Ni  Ni36  1  0.12299700  0.62299700  0.50000000  1
  Ni  Ni37  1  0.62299700  0.12299700  0.50000000  1
  Ni  Ni38  1  0.38515800  0.12993100  0.51508900  1
  Ni  Ni39  1  0.61484200  0.87006900  0.48491100  1
  Ni  Ni40  1  0.38515800  0.87006900  0.25522700  1
  Ni  Ni41  1  0.61484200  0.12993100  0.74477300  1
  Ni  Ni42  1  0.12993100  0.61484200  0.74477300  1
  Ni  Ni43  1  0.87006900  0.38515800  0.25522700  1
  Ni  Ni44  1  0.12993100  0.38515800  0.51508900  1
  Ni  Ni45  1  0.87006900  0.61484200  0.48491100  1
  Ni  Ni46  1  0.81870300  0.49547200  0.00000000  1
  Ni  Ni47  1  0.49547200  0.81870300  0.00000000  1
  Ni  Ni48  1  0.81870300  0.81870300  0.32323100  1
  Ni  Ni49  1  0.49547200  0.49547200  0.67676900  1
  Ni  Ni50  1  0.18129700  0.50452800  0.00000000  1
  Ni  Ni51  1  0.50452800  0.18129700  0.00000000  1
  Ni  Ni52  1  0.18129700  0.18129700  0.67676900  1
  Ni  Ni53  1  0.50452800  0.50452800  0.32323100  1
  Ni  Ni54  1  0.00741800  0.67464600  0.00000000  1
  Ni  Ni55  1  0.67464600  0.00741800  0.00000000  1
  Ni  Ni56  1  0.00741800  0.00741800  0.33277200  1
  Ni  Ni57  1  0.67464600  0.67464600  0.66722800  1
  Ni  Ni58  1  0.99258200  0.32535400  0.00000000  1
  Ni  Ni59  1  0.32535400  0.99258200  0.00000000  1
  Ni  Ni60  1  0.99258200  0.99258200  0.66722800  1
  Ni  Ni61  1  0.32535400  0.32535400  0.33277200  1
  Ni  Ni62  1  0.11925200  0.61925200  0.23850400  1
  Ni  Ni63  1  0.38074800  0.88074800  0.76149600  1
  Ni  Ni64  1  0.11925200  0.88074800  0.50000000  1
  Ni  Ni65  1  0.38074800  0.61925200  0.50000000  1
  Ni  Ni66  1  0.61925200  0.38074800  0.50000000  1
  Ni  Ni67  1  0.88074800  0.11925200  0.50000000  1
  Ni  Ni68  1  0.61925200  0.11925200  0.23850400  1
  Ni  Ni69  1  0.88074800  0.38074800  0.76149600  1
  Cu  Cu70  1  0.62309800  0.62309800  0.00000000  1
  Cu  Cu71  1  0.37690200  0.37690200  0.00000000  1
  Cu  Cu72  1  0.68824300  0.50000000  0.18824300  1
  Cu  Cu73  1  0.31175700  0.50000000  0.81175700  1
  Cu  Cu74  1  0.50000000  0.31175700  0.81175700  1
  Cu  Cu75  1  0.50000000  0.68824300  0.18824300  1
  Cu  Cu76  1  0.74114400  0.80856100  0.06741700  1
  Cu  Cu77  1  0.74114400  0.67372700  0.93258300  1
  Cu  Cu78  1  0.80856100  0.74114400  0.06741700  1
  Cu  Cu79  1  0.67372700  0.74114400  0.93258300  1
  Cu  Cu80  1  0.25885600  0.19143900  0.93258300  1
  Cu  Cu81  1  0.25885600  0.32627300  0.06741700  1
  Cu  Cu82  1  0.19143900  0.25885600  0.93258300  1
  Cu  Cu83  1  0.32627300  0.25885600  0.06741700  1
