# generated using pymatgen
data_CuNiC
_symmetry_space_group_name_H-M   'P 1'
_cell_length_a   7.82896282
_cell_length_b   7.82896282
_cell_length_c   4.69152562
_cell_angle_alpha   89.94689573
_cell_angle_beta   89.94689573
_cell_angle_gamma   106.39997227
_symmetry_Int_Tables_number   1
_chemical_formula_structural   CuNiC
_chemical_formula_sum   'Cu8 Ni8 C8'
_cell_volume   275.85627437
_cell_formula_units_Z   8
loop_
 _symmetry_equiv_pos_site_id
 _symmetry_equiv_pos_as_xyz
  1  'x, y, z'
loop_
 _atom_site_type_symbol
 _atom_site_label
 _atom_site_symmetry_multiplicity
 _atom_site_fract_x
 _atom_site_fract_y
 _atom_site_fract_z
 _atom_site_occupancy
  C  C0  1  0.13167000  0.13167000  0.43999700  1
  C  C1  1  0.38469700  0.88654200  0.52218500  1
  C  C2  1  0.88654200  0.38469700  0.52218500  1
  C  C3  1  0.61196000  0.61196000  0.55106000  1
  C  C4  1  0.75165600  0.98595500  0.98930300  1
  C  C5  1  0.50499100  0.23872400  0.99285300  1
  C  C6  1  0.23872400  0.50499100  0.99285300  1
  C  C7  1  0.98595500  0.75165600  0.98930300  1
  Ni  Ni8  1  0.76832400  0.76832400  0.79540400  1
  Ni  Ni9  1  0.54118800  0.02649900  0.81384300  1
  Ni  Ni10  1  0.02649900  0.54118800  0.81384300  1
  Ni  Ni11  1  0.65688600  0.39373600  0.70303300  1
  Ni  Ni12  1  0.39373600  0.65688600  0.70303300  1
  Ni  Ni13  1  0.35572300  0.10068700  0.30109400  1
  Ni  Ni14  1  0.10068700  0.35572300  0.30109400  1
  Ni  Ni15  1  0.96352000  0.96352000  0.17011700  1
  Cu  Cu16  1  0.27533400  0.27533400  0.79782300  1
  Cu  Cu17  1  0.91729200  0.14309400  0.68300800  1
  Cu  Cu18  1  0.14309400  0.91729200  0.68300800  1
  Cu  Cu19  1  0.83272800  0.59880300  0.30496700  1
  Cu  Cu20  1  0.59880300  0.83272800  0.30496700  1
  Cu  Cu21  1  0.21687100  0.74174700  0.21297400  1
  Cu  Cu22  1  0.74174700  0.21687100  0.21297400  1
  Cu  Cu23  1  0.47137700  0.47137700  0.19907800  1
