# generated using pymatgen
data_Cu16Ni4C9
_symmetry_space_group_name_H-M   'P 1'
_cell_length_a   9.32777907
_cell_length_b   11.59993643
_cell_length_c   23.15356960
_cell_angle_alpha   89.92955871
_cell_angle_beta   89.99981657
_cell_angle_gamma   89.99987923
_symmetry_Int_Tables_number   1
_chemical_formula_structural   Cu16Ni4C9
_chemical_formula_sum   'Cu64 Ni16 C36'
_cell_volume   2505.25240881
_cell_formula_units_Z   4
loop_
 _symmetry_equiv_pos_site_id
 _symmetry_equiv_pos_as_xyz
  1  'x, y, z'
loop_
 _atom_site_type_symbol
 _atom_site_label
 _atom_site_symmetry_multiplicity
 _atom_site_fract_x
 _atom_site_fract_y
 _atom_site_fract_z
 _atom_site_occupancy
  C  C0  1  0.74910388  0.00517707  0.62588934  1
  C  C1  1  0.74876641  0.99712166  0.87480106  1
  C  C2  1  0.24877637  0.75286986  0.75019789  1
  C  C3  1  0.24910769  0.74483033  0.99910067  1
  C  C4  1  0.50167035  0.49924215  0.25037067  1
  C  C5  1  0.50053976  0.99989365  0.25023783  1
  C  C6  1  0.49802182  0.49879612  0.50033885  1
  C  C7  1  0.49922792  0.00133703  0.49909079  1
  C  C8  1  0.00053034  0.75009950  0.37476410  1
  C  C9  1  0.00167726  0.25076235  0.37462665  1
  C  C10  1  0.50586996  0.49789439  0.74964671  1
  C  C11  1  0.49395101  0.00288756  0.75011662  1
  C  C12  1  0.00087728  0.74854105  0.62396476  1
  C  C13  1  0.00262087  0.25161669  0.62560382  1
  C  C14  1  0.50260498  0.49838524  0.99939111  1
  C  C15  1  0.50087543  0.00146224  0.00103922  1
  C  C16  1  0.99396018  0.74713457  0.87488255  1
  C  C17  1  0.00585041  0.25209290  0.87535407  1
  C  C18  1  0.99921995  0.74865628  0.12591068  1
  C  C19  1  0.99800749  0.25120330  0.12467037  1
  C  C20  1  0.49632075  0.25153436  0.62536143  1
  C  C21  1  0.50484328  0.74824459  0.87545567  1
  C  C22  1  0.00482293  0.00177359  0.74954697  1
  C  C23  1  0.99633361  0.49846261  0.99963327  1
  C  C24  1  0.50046355  0.25097618  0.12416375  1
  C  C25  1  0.50511938  0.74741541  0.12598924  1
  C  C26  1  0.50029373  0.25019116  0.37517696  1
  C  C27  1  0.49884956  0.74959549  0.37479724  1
  C  C28  1  0.00026683  0.49981696  0.24983367  1
  C  C29  1  0.99888972  0.00039920  0.25019800  1
  C  C30  1  0.49792784  0.75000423  0.62370993  1
  C  C31  1  0.00046554  0.49902995  0.50082957  1
  C  C32  1  0.00510284  0.00258889  0.49899382  1
  C  C33  1  0.49538748  0.25239473  0.87510430  1
  C  C34  1  0.99540643  0.49759892  0.74989569  1
  C  C35  1  0.99792723  0.00000423  0.00129948  1
  Ni  Ni36  1  0.74999852  0.24980815  0.24995541  1
  Ni  Ni37  1  0.75018863  0.75005350  0.25017395  1
  Ni  Ni38  1  0.75299533  0.24589455  0.49977730  1
  Ni  Ni39  1  0.74721754  0.74977990  0.50007312  1
  Ni  Ni40  1  0.25000386  0.50018406  0.37504193  1
  Ni  Ni41  1  0.25018641  0.99994566  0.37482490  1
  Ni  Ni42  1  0.74989611  0.25326360  0.74819712  1
  Ni  Ni43  1  0.75013122  0.74697695  0.75143941  1
  Ni  Ni44  1  0.24675103  0.50099443  0.62345567  1
  Ni  Ni45  1  0.25285070  0.99468614  0.62645240  1
  Ni  Ni46  1  0.74677638  0.24900816  0.00155371  1
  Ni  Ni47  1  0.75288196  0.75530249  0.99854549  1
  Ni  Ni48  1  0.24987363  0.49669430  0.87679955  1
  Ni  Ni49  1  0.25011560  0.00306948  0.87356707  1
  Ni  Ni50  1  0.25295641  0.50412222  0.12523340  1
  Ni  Ni51  1  0.24721842  0.00020196  0.12491880  1
  Cu  Cu52  1  0.86383773  0.35513230  0.05171758  1
  Cu  Cu53  1  0.86908053  0.86147328  0.05347617  1
  Cu  Cu54  1  0.86456563  0.36128359  0.30192568  1
  Cu  Cu55  1  0.86478931  0.86133646  0.30219935  1
  Cu  Cu56  1  0.36957142  0.61163346  0.17850807  1
  Cu  Cu57  1  0.36563259  0.10938575  0.17609215  1
  Cu  Cu58  1  0.86506308  0.35892948  0.55195121  1
  Cu  Cu59  1  0.86853413  0.86170749  0.55153289  1
  Cu  Cu60  1  0.36465425  0.61142557  0.42707845  1
  Cu  Cu61  1  0.36370577  0.11151106  0.42686512  1
  Cu  Cu62  1  0.86880112  0.35716473  0.80249473  1
  Cu  Cu63  1  0.86951932  0.85814183  0.80143041  1
  Cu  Cu64  1  0.36744965  0.61193548  0.67700862  1
  Cu  Cu65  1  0.36564752  0.10447524  0.67677721  1
  Cu  Cu66  1  0.36834336  0.60793711  0.92707335  1
  Cu  Cu67  1  0.37087680  0.10713274  0.92708043  1
  Cu  Cu68  1  0.63581262  0.64618656  0.30606199  1
  Cu  Cu69  1  0.63517149  0.14596025  0.30574459  1
  Cu  Cu70  1  0.63629700  0.64519114  0.55616427  1
  Cu  Cu71  1  0.63224235  0.14461303  0.55392773  1
  Cu  Cu72  1  0.13628915  0.89521497  0.43046491  1
  Cu  Cu73  1  0.13511689  0.39654536  0.43077967  1
  Cu  Cu74  1  0.62844172  0.64575957  0.80231975  1
  Cu  Cu75  1  0.63183054  0.14677733  0.80541237  1
  Cu  Cu76  1  0.12747675  0.89057373  0.67813551  1
  Cu  Cu77  1  0.13540101  0.39806884  0.68073262  1
  Cu  Cu78  1  0.63360173  0.65039019  0.05354028  1
  Cu  Cu79  1  0.63030348  0.14254759  0.05544264  1
  Cu  Cu80  1  0.13074883  0.89593172  0.93013103  1
  Cu  Cu81  1  0.13120108  0.39559681  0.92871714  1
  Cu  Cu82  1  0.13451187  0.89562271  0.18057518  1
  Cu  Cu83  1  0.13571167  0.39897618  0.17986583  1
  Cu  Cu84  1  0.86463472  0.13856264  0.19790263  1
  Cu  Cu85  1  0.86371423  0.63849155  0.19812688  1
  Cu  Cu86  1  0.86957252  0.13836862  0.44646809  1
  Cu  Cu87  1  0.86560247  0.64056987  0.44889136  1
  Cu  Cu88  1  0.36460031  0.38871529  0.32308823  1
  Cu  Cu89  1  0.36480995  0.88868315  0.32281479  1
  Cu  Cu90  1  0.86834646  0.14203391  0.69790560  1
  Cu  Cu91  1  0.87086263  0.64285246  0.69791354  1
  Cu  Cu92  1  0.36381177  0.39487478  0.57329136  1
  Cu  Cu93  1  0.36908033  0.88852024  0.57153830  1
  Cu  Cu94  1  0.86743021  0.13805258  0.94799213  1
  Cu  Cu95  1  0.86569407  0.64553244  0.94820661  1
  Cu  Cu96  1  0.36880902  0.39283728  0.82250115  1
  Cu  Cu97  1  0.36950286  0.89188021  0.82357084  1
  Cu  Cu98  1  0.36507459  0.39110197  0.07305931  1
  Cu  Cu99  1  0.36852290  0.88828895  0.07345096  1
  Cu  Cu100  1  0.63509243  0.35342502  0.19422016  1
  Cu  Cu101  1  0.63629836  0.85475875  0.19454311  1
  Cu  Cu102  1  0.63570557  0.35101019  0.44515186  1
  Cu  Cu103  1  0.63447168  0.85432046  0.44443133  1
  Cu  Cu104  1  0.13519535  0.60406989  0.31925610  1
  Cu  Cu105  1  0.13581065  0.10383374  0.31894281  1
  Cu  Cu106  1  0.63119349  0.35436705  0.69629023  1
  Cu  Cu107  1  0.63076907  0.85411515  0.69486570  1
  Cu  Cu108  1  0.13029643  0.60749281  0.56955577  1
  Cu  Cu109  1  0.13355399  0.09960299  0.57144901  1
  Cu  Cu110  1  0.63538427  0.35191172  0.94427491  1
  Cu  Cu111  1  0.62750720  0.85941753  0.94687436  1
  Cu  Cu112  1  0.13180430  0.60322309  0.81958904  1
  Cu  Cu113  1  0.12843604  0.10429195  0.82268148  1
  Cu  Cu114  1  0.13220509  0.60539383  0.07106981  1
  Cu  Cu115  1  0.13625476  0.10482234  0.06885767  1
