# generated using pymatgen
data_Cu2Ni2C9
_symmetry_space_group_name_H-M   'P 1'
_cell_length_a   10.05183326
_cell_length_b   10.05183326
_cell_length_c   5.17926714
_cell_angle_alpha   87.54151332
_cell_angle_beta   87.54151332
_cell_angle_gamma   35.09664865
_symmetry_Int_Tables_number   1
_chemical_formula_structural   Cu2Ni2C9
_chemical_formula_sum   'Cu4 Ni4 C18'
_cell_volume   300.57618731
_cell_formula_units_Z   2
loop_
 _symmetry_equiv_pos_site_id
 _symmetry_equiv_pos_as_xyz
  1  'x, y, z'
loop_
 _atom_site_type_symbol
 _atom_site_label
 _atom_site_symmetry_multiplicity
 _atom_site_fract_x
 _atom_site_fract_y
 _atom_site_fract_z
 _atom_site_occupancy
  Ni  Ni0  1  0.41678900  0.12883400  0.74658500  1
  Ni  Ni1  1  0.87116600  0.58321100  0.75341500  1
  Ni  Ni2  1  0.58321100  0.87116600  0.25341500  1
  Ni  Ni3  1  0.12883400  0.41678900  0.24658500  1
  Cu  Cu4  1  0.27779900  0.95492100  0.77236000  1
  Cu  Cu5  1  0.04507900  0.72220100  0.72764000  1
  Cu  Cu6  1  0.72220100  0.04507900  0.22764000  1
  Cu  Cu7  1  0.95492100  0.27779900  0.27236000  1
  C  C8  1  0.64656600  0.35343400  0.75000000  1
  C  C9  1  0.35343400  0.64656600  0.25000000  1
  C  C10  1  0.18126800  0.96571200  0.44297900  1
  C  C11  1  0.03428800  0.81873200  0.05702100  1
  C  C12  1  0.81873200  0.03428800  0.55702100  1
  C  C13  1  0.96571200  0.18126800  0.94297900  1
  C  C14  1  0.42038900  0.69405200  0.94061400  1
  C  C15  1  0.30594800  0.57961100  0.55938600  1
  C  C16  1  0.57961100  0.30594800  0.05938600  1
  C  C17  1  0.69405200  0.42038900  0.44061400  1
  C  C18  1  0.28954100  0.08347100  0.05395000  1
  C  C19  1  0.91652900  0.71045900  0.44605000  1
  C  C20  1  0.83723000  0.54547500  0.12988600  1
  C  C21  1  0.45452500  0.16277000  0.37011400  1
  C  C22  1  0.16277000  0.45452500  0.87011400  1
  C  C23  1  0.54547500  0.83723000  0.62988600  1
  C  C24  1  0.08347100  0.28954100  0.55395000  1
  C  C25  1  0.71045900  0.91652900  0.94605000  1
