# generated using pymatgen
data_Cu5Ni2C9
_symmetry_space_group_name_H-M   'P 1'
_cell_length_a   8.66063800
_cell_length_b   8.66063800
_cell_length_c   14.41411300
_cell_angle_alpha   90.00000000
_cell_angle_beta   90.00000000
_cell_angle_gamma   90.00000000
_symmetry_Int_Tables_number   1
_chemical_formula_structural   Cu5Ni2C9
_chemical_formula_sum   'Cu20 Ni8 C36'
_cell_volume   1081.15433702
_cell_formula_units_Z   4
loop_
 _symmetry_equiv_pos_site_id
 _symmetry_equiv_pos_as_xyz
  1  'x, y, z'
loop_
 _atom_site_type_symbol
 _atom_site_label
 _atom_site_symmetry_multiplicity
 _atom_site_fract_x
 _atom_site_fract_y
 _atom_site_fract_z
 _atom_site_occupancy
  C  C0  1  0.38138300  0.15750900  0.13555000  1
  C  C1  1  0.61861700  0.84249100  0.63555000  1
  C  C2  1  0.34249100  0.88138300  0.38555000  1
  C  C3  1  0.11861700  0.65750900  0.11445000  1
  C  C4  1  0.65750900  0.11861700  0.88555000  1
  C  C5  1  0.88138300  0.34249100  0.61445000  1
  C  C6  1  0.15750900  0.38138300  0.86445000  1
  C  C7  1  0.84249100  0.61861700  0.36445000  1
  C  C8  1  0.04740100  0.04740100  0.00000000  1
  C  C9  1  0.95259900  0.95259900  0.50000000  1
  C  C10  1  0.45259900  0.54740100  0.25000000  1
  C  C11  1  0.54740100  0.45259900  0.75000000  1
  Ni  Ni12  1  0.15729000  0.31334100  0.37096000  1
  Ni  Ni13  1  0.84271000  0.68665900  0.87096000  1
  Ni  Ni14  1  0.18665900  0.65729000  0.62096000  1
  Ni  Ni15  1  0.34271000  0.81334100  0.87904000  1
  Ni  Ni16  1  0.81334100  0.34271000  0.12096000  1
  Ni  Ni17  1  0.65729000  0.18665900  0.37904000  1
  Ni  Ni18  1  0.31334100  0.15729000  0.62904000  1
  Ni  Ni19  1  0.68665900  0.84271000  0.12904000  1
  Cu  Cu20  1  0.56574500  0.56574500  0.00000000  1
  Cu  Cu21  1  0.43425500  0.43425500  0.50000000  1
  Cu  Cu22  1  0.93425500  0.06574500  0.25000000  1
  Cu  Cu23  1  0.06574500  0.93425500  0.75000000  1
  Cu  Cu24  1  0.10443200  0.13104000  0.08459300  1
  Cu  Cu25  1  0.89556800  0.86896000  0.58459300  1
  Cu  Cu26  1  0.36896000  0.60443200  0.33459300  1
  Cu  Cu27  1  0.39556800  0.63104000  0.16540700  1
  Cu  Cu28  1  0.63104000  0.39556800  0.83459300  1
  Cu  Cu29  1  0.60443200  0.36896000  0.66540700  1
  Cu  Cu30  1  0.13104000  0.10443200  0.91540700  1
  Cu  Cu31  1  0.86896000  0.89556800  0.41540700  1
  Cu  Cu32  1  0.42293200  0.37858000  0.24468100  1
  Cu  Cu33  1  0.57706800  0.62142000  0.74468100  1
  Cu  Cu34  1  0.12142000  0.92293200  0.49468100  1
  Cu  Cu35  1  0.07706800  0.87858000  0.00531900  1
  Cu  Cu36  1  0.87858000  0.07706800  0.99468100  1
  Cu  Cu37  1  0.92293200  0.12142000  0.50531900  1
  Cu  Cu38  1  0.37858000  0.42293200  0.75531900  1
  Cu  Cu39  1  0.62142000  0.57706800  0.25531900  1
  C  C40  1  0.11484000  0.46007400  0.17607800  1
  C  C41  1  0.88516000  0.53992600  0.67607800  1
  C  C42  1  0.03992600  0.61484000  0.42607800  1
  C  C43  1  0.38516000  0.96007400  0.07392200  1
  C  C44  1  0.96007400  0.38516000  0.92607800  1
  C  C45  1  0.61484000  0.03992600  0.57392200  1
  C  C46  1  0.46007400  0.11484000  0.82392200  1
  C  C47  1  0.53992600  0.88516000  0.32392200  1
  C  C48  1  0.28727000  0.05690900  0.24525500  1
  C  C49  1  0.71273000  0.94309100  0.74525500  1
  C  C50  1  0.44309100  0.78727000  0.49525500  1
  C  C51  1  0.21273000  0.55690900  0.00474500  1
  C  C52  1  0.55690900  0.21273000  0.99525500  1
  C  C53  1  0.78727000  0.44309100  0.50474500  1
  C  C54  1  0.05690900  0.28727000  0.75474500  1
  C  C55  1  0.94309100  0.71273000  0.25474500  1
  C  C56  1  0.37772900  0.08601300  0.43182500  1
  C  C57  1  0.62227100  0.91398700  0.93182500  1
  C  C58  1  0.41398700  0.87772900  0.68182500  1
  C  C59  1  0.12227100  0.58601300  0.81817500  1
  C  C60  1  0.58601300  0.12227100  0.18182500  1
  C  C61  1  0.87772900  0.41398700  0.31817500  1
  C  C62  1  0.08601300  0.37772900  0.56817500  1
  C  C63  1  0.91398700  0.62227100  0.06817500  1
