# generated using pymatgen
data_Cu4NiC
_symmetry_space_group_name_H-M   'P 1'
_cell_length_a   6.57806557
_cell_length_b   6.57806557
_cell_length_c   6.69015269
_cell_angle_alpha   59.54310424
_cell_angle_beta   59.54310424
_cell_angle_gamma   34.08452833
_symmetry_Int_Tables_number   1
_chemical_formula_structural   Cu4NiC
_chemical_formula_sum   'Cu4 Ni1 C1'
_cell_volume   137.55695308
_cell_formula_units_Z   1
loop_
 _symmetry_equiv_pos_site_id
 _symmetry_equiv_pos_as_xyz
  1  'x, y, z'
loop_
 _atom_site_type_symbol
 _atom_site_label
 _atom_site_symmetry_multiplicity
 _atom_site_fract_x
 _atom_site_fract_y
 _atom_site_fract_z
 _atom_site_occupancy
  C  C0  1  0.00000000  0.00000000  0.00000000  1
  Ni  Ni1  1  0.50000000  0.50000000  0.50000000  1
  Cu  Cu2  1  0.12085400  0.12085400  0.55180000  1
  Cu  Cu3  1  0.62014400  0.62014400  0.04197700  1
  Cu  Cu4  1  0.87914600  0.87914600  0.44820000  1
  Cu  Cu5  1  0.37985600  0.37985600  0.95802300  1
