# generated using pymatgen
data_Cu5NiC6
_symmetry_space_group_name_H-M   'P 1'
_cell_length_a   6.81432400
_cell_length_b   7.49196600
_cell_length_c   18.42855500
_cell_angle_alpha   90.00000000
_cell_angle_beta   90.00000000
_cell_angle_gamma   90.00000000
_symmetry_Int_Tables_number   1
_chemical_formula_structural   Cu5NiC6
_chemical_formula_sum   'Cu40 Ni8 C48'
_cell_volume   940.82718985
_cell_formula_units_Z   8
loop_
 _symmetry_equiv_pos_site_id
 _symmetry_equiv_pos_as_xyz
  1  'x, y, z'
loop_
 _atom_site_type_symbol
 _atom_site_label
 _atom_site_symmetry_multiplicity
 _atom_site_fract_x
 _atom_site_fract_y
 _atom_site_fract_z
 _atom_site_occupancy
  C  C0  1  0.91216600  0.74754000  0.76231400  1
  C  C1  1  0.08783400  0.75246000  0.26231400  1
  C  C2  1  0.58783400  0.24754000  0.23768600  1
  C  C3  1  0.41216600  0.25246000  0.73768600  1
  C  C4  1  0.08783400  0.25246000  0.23768600  1
  C  C5  1  0.91216600  0.24754000  0.73768600  1
  C  C6  1  0.41216600  0.75246000  0.76231400  1
  C  C7  1  0.58783400  0.74754000  0.26231400  1
  C  C8  1  0.82535400  0.97573300  0.90393300  1
  C  C9  1  0.17464600  0.52426700  0.40393300  1
  C  C10  1  0.67464600  0.47573300  0.09606700  1
  C  C11  1  0.32535400  0.02426700  0.59606700  1
  C  C12  1  0.17464600  0.02426700  0.09606700  1
  C  C13  1  0.82535400  0.47573300  0.59606700  1
  C  C14  1  0.32535400  0.52426700  0.90393300  1
  C  C15  1  0.67464600  0.97573300  0.40393300  1
  C  C16  1  0.65857900  0.12951400  0.93359400  1
  C  C17  1  0.34142100  0.37048600  0.43359400  1
  C  C18  1  0.84142100  0.62951400  0.06640600  1
  C  C19  1  0.15857900  0.87048600  0.56640600  1
  C  C20  1  0.34142100  0.87048600  0.06640600  1
  C  C21  1  0.65857900  0.62951400  0.56640600  1
  C  C22  1  0.15857900  0.37048600  0.93359400  1
  C  C23  1  0.84142100  0.12951400  0.43359400  1
  C  C24  1  0.77286900  0.99489800  0.99520200  1
  C  C25  1  0.22713100  0.50510200  0.49520200  1
  C  C26  1  0.72713100  0.49489800  0.00479800  1
  C  C27  1  0.27286900  0.00510200  0.50479800  1
  C  C28  1  0.22713100  0.00510200  0.00479800  1
  C  C29  1  0.77286900  0.49489800  0.50479800  1
  C  C30  1  0.27286900  0.50510200  0.99520200  1
  C  C31  1  0.72713100  0.99489800  0.49520200  1
  C  C32  1  0.48113600  0.89640100  0.89836100  1
  C  C33  1  0.51886400  0.60359900  0.39836100  1
  C  C34  1  0.01886400  0.39640100  0.10163900  1
  C  C35  1  0.98113600  0.10359900  0.60163900  1
  C  C36  1  0.51886400  0.10359900  0.10163900  1
  C  C37  1  0.48113600  0.39640100  0.60163900  1
  C  C38  1  0.98113600  0.60359900  0.89836100  1
  C  C39  1  0.01886400  0.89640100  0.39836100  1
  C  C40  1  0.65832000  0.94976800  0.65563200  1
  C  C41  1  0.34168000  0.55023200  0.15563200  1
  C  C42  1  0.84168000  0.44976800  0.34436800  1
  C  C43  1  0.15832000  0.05023200  0.84436800  1
  C  C44  1  0.34168000  0.05023200  0.34436800  1
  C  C45  1  0.65832000  0.44976800  0.84436800  1
  C  C46  1  0.15832000  0.55023200  0.65563200  1
  C  C47  1  0.84168000  0.94976800  0.15563200  1
  Ni  Ni48  1  0.71568500  0.00209200  0.94286100  1
  Ni  Ni49  1  0.28431500  0.49790800  0.44286100  1
  Ni  Ni50  1  0.78431500  0.50209200  0.05713900  1
  Ni  Ni51  1  0.21568500  0.99790800  0.55713900  1
  Ni  Ni52  1  0.28431500  0.99790800  0.05713900  1
  Ni  Ni53  1  0.71568500  0.50209200  0.55713900  1
  Ni  Ni54  1  0.21568500  0.49790800  0.94286100  1
  Ni  Ni55  1  0.78431500  0.00209200  0.44286100  1
  Cu  Cu56  1  0.83872900  0.56110100  0.83453800  1
  Cu  Cu57  1  0.16127100  0.93889900  0.33453800  1
  Cu  Cu58  1  0.66127100  0.06110100  0.16546200  1
  Cu  Cu59  1  0.33872900  0.43889900  0.66546200  1
  Cu  Cu60  1  0.16127100  0.43889900  0.16546200  1
  Cu  Cu61  1  0.83872900  0.06110100  0.66546200  1
  Cu  Cu62  1  0.33872900  0.93889900  0.83453800  1
  Cu  Cu63  1  0.66127100  0.56110100  0.33453800  1
  Cu  Cu64  1  0.97921400  0.94153000  0.83053000  1
  Cu  Cu65  1  0.02078600  0.55847000  0.33053000  1
  Cu  Cu66  1  0.52078600  0.44153000  0.16947000  1
  Cu  Cu67  1  0.47921400  0.05847000  0.66947000  1
  Cu  Cu68  1  0.02078600  0.05847000  0.16947000  1
  Cu  Cu69  1  0.97921400  0.44153000  0.66947000  1
  Cu  Cu70  1  0.47921400  0.55847000  0.83053000  1
  Cu  Cu71  1  0.52078600  0.94153000  0.33053000  1
  Cu  Cu72  1  0.66478700  0.80000300  0.70927700  1
  Cu  Cu73  1  0.33521300  0.69999700  0.20927700  1
  Cu  Cu74  1  0.83521300  0.30000300  0.29072300  1
  Cu  Cu75  1  0.16478700  0.19999700  0.79072300  1
  Cu  Cu76  1  0.33521300  0.19999700  0.29072300  1
  Cu  Cu77  1  0.66478700  0.30000300  0.79072300  1
  Cu  Cu78  1  0.16478700  0.69999700  0.70927700  1
  Cu  Cu79  1  0.83521300  0.80000300  0.20927700  1
  Cu  Cu80  1  0.65057100  0.87791400  0.58036600  1
  Cu  Cu81  1  0.34942900  0.62208600  0.08036600  1
  Cu  Cu82  1  0.84942900  0.37791400  0.41963400  1
  Cu  Cu83  1  0.15057100  0.12208600  0.91963400  1
  Cu  Cu84  1  0.34942900  0.12208600  0.41963400  1
  Cu  Cu85  1  0.65057100  0.37791400  0.91963400  1
  Cu  Cu86  1  0.15057100  0.62208600  0.58036600  1
  Cu  Cu87  1  0.84942900  0.87791400  0.08036600  1
  Cu  Cu88  1  0.57140100  0.86572400  0.94062800  1
  Cu  Cu89  1  0.42859900  0.63427600  0.44062800  1
  Cu  Cu90  1  0.92859900  0.36572400  0.05937200  1
  Cu  Cu91  1  0.07140100  0.13427600  0.55937200  1
  Cu  Cu92  1  0.42859900  0.13427600  0.05937200  1
  Cu  Cu93  1  0.57140100  0.36572400  0.55937200  1
  Cu  Cu94  1  0.07140100  0.63427600  0.94062800  1
  Cu  Cu95  1  0.92859900  0.86572400  0.44062800  1
