# generated using pymatgen
data_Cu14NiC6
_symmetry_space_group_name_H-M   'P 1'
_cell_length_a   9.54613908
_cell_length_b   9.54613908
_cell_length_c   11.54281100
_cell_angle_alpha   90.00000000
_cell_angle_beta   90.00000000
_cell_angle_gamma   95.26226548
_symmetry_Int_Tables_number   1
_chemical_formula_structural   Cu14NiC6
_chemical_formula_sum   'Cu28 Ni2 C12'
_cell_volume   1047.44883351
_cell_formula_units_Z   2
loop_
 _symmetry_equiv_pos_site_id
 _symmetry_equiv_pos_as_xyz
  1  'x, y, z'
loop_
 _atom_site_type_symbol
 _atom_site_label
 _atom_site_symmetry_multiplicity
 _atom_site_fract_x
 _atom_site_fract_y
 _atom_site_fract_z
 _atom_site_occupancy
  C  C0  1  0.95330700  0.18245300  0.11629700  1
  C  C1  1  0.04669300  0.81754700  0.88370300  1
  C  C2  1  0.54669300  0.31754700  0.61629700  1
  C  C3  1  0.68245300  0.45330700  0.38370300  1
  C  C4  1  0.45330700  0.68245300  0.38370300  1
  C  C5  1  0.31754700  0.54669300  0.61629700  1
  C  C6  1  0.81754700  0.04669300  0.88370300  1
  C  C7  1  0.18245300  0.95330700  0.11629700  1
  C  C8  1  0.35687700  0.35687700  0.39645600  1
  C  C9  1  0.64312300  0.64312300  0.60354400  1
  C  C10  1  0.14312300  0.14312300  0.89645600  1
  C  C11  1  0.85687700  0.85687700  0.10354400  1
  Ni  Ni12  1  0.00000000  0.00000000  0.00000000  1
  Ni  Ni13  1  0.50000000  0.50000000  0.50000000  1
  Cu  Cu14  1  0.28719000  0.53465200  0.25442700  1
  Cu  Cu15  1  0.71281000  0.46534800  0.74557300  1
  Cu  Cu16  1  0.21281000  0.96534800  0.75442700  1
  Cu  Cu17  1  0.03465200  0.78719000  0.24557300  1
  Cu  Cu18  1  0.78719000  0.03465200  0.24557300  1
  Cu  Cu19  1  0.96534800  0.21281000  0.75442700  1
  Cu  Cu20  1  0.46534800  0.71281000  0.74557300  1
  Cu  Cu21  1  0.53465200  0.28719000  0.25442700  1
  Cu  Cu22  1  0.11501200  0.36176100  0.01012200  1
  Cu  Cu23  1  0.88498800  0.63823900  0.98987800  1
  Cu  Cu24  1  0.38498800  0.13823900  0.51012200  1
  Cu  Cu25  1  0.86176100  0.61501200  0.48987800  1
  Cu  Cu26  1  0.61501200  0.86176100  0.48987800  1
  Cu  Cu27  1  0.13823900  0.38498800  0.51012200  1
  Cu  Cu28  1  0.63823900  0.88498800  0.98987800  1
  Cu  Cu29  1  0.36176100  0.11501200  0.01012200  1
  Cu  Cu30  1  0.89735400  0.39735400  0.25000000  1
  Cu  Cu31  1  0.10264600  0.60264600  0.75000000  1
  Cu  Cu32  1  0.60264600  0.10264600  0.75000000  1
  Cu  Cu33  1  0.39735400  0.89735400  0.25000000  1
  Cu  Cu34  1  0.75001500  0.24998500  0.00000000  1
  Cu  Cu35  1  0.24998500  0.75001500  0.00000000  1
  Cu  Cu36  1  0.74998500  0.25001500  0.50000000  1
  Cu  Cu37  1  0.25001500  0.74998500  0.50000000  1
  Cu  Cu38  1  0.15291000  0.15291000  0.26270600  1
  Cu  Cu39  1  0.84709000  0.84709000  0.73729400  1
  Cu  Cu40  1  0.34709000  0.34709000  0.76270600  1
  Cu  Cu41  1  0.65291000  0.65291000  0.23729400  1
