# generated using pymatgen
data_CuNiC8
_symmetry_space_group_name_H-M   'P 1'
_cell_length_a   8.39167866
_cell_length_b   8.40261826
_cell_length_c   8.43338663
_cell_angle_alpha   90.00000000
_cell_angle_beta   90.00000000
_cell_angle_gamma   90.00000000
_symmetry_Int_Tables_number   1
_chemical_formula_structural   CuNiC8
_chemical_formula_sum   'Cu4 Ni4 C32'
_cell_volume   594.65556813
_cell_formula_units_Z   4
loop_
 _symmetry_equiv_pos_site_id
 _symmetry_equiv_pos_as_xyz
  1  'x, y, z'
loop_
 _atom_site_type_symbol
 _atom_site_label
 _atom_site_symmetry_multiplicity
 _atom_site_fract_x
 _atom_site_fract_y
 _atom_site_fract_z
 _atom_site_occupancy
  Ni  Ni0  1  0.00000000  0.50000000  0.50000000  1
  Ni  Ni1  1  0.50000000  0.00000000  0.50000000  1
  Ni  Ni2  1  0.50000000  0.00000000  -0.00000000  1
  Ni  Ni3  1  0.00000000  0.50000000  -0.00000000  1
  C  C4  1  0.75000000  0.75000000  0.75000000  1
  C  C5  1  0.25000000  0.25000000  0.75000000  1
  C  C6  1  0.25000000  0.75000000  0.25000000  1
  C  C7  1  0.75000000  0.25000000  0.25000000  1
  Cu  Cu8  1  0.50000000  0.50000000  -0.00000000  1
  Cu  Cu9  1  0.00000000  0.00000000  0.50000000  1
  Cu  Cu10  1  0.00000000  0.00000000  0.00000000  1
  Cu  Cu11  1  0.50000000  0.50000000  0.50000000  1
  C  C12  1  0.25000000  0.25000000  0.25000000  1
  C  C13  1  0.75000000  0.75000000  0.25000000  1
  C  C14  1  0.75000000  0.25000000  0.75000000  1
  C  C15  1  0.25000000  0.75000000  0.75000000  1
  C  C16  1  0.02360061  0.19573741  0.28746712  1
  C  C17  1  0.97639939  0.80426259  0.28746712  1
  C  C18  1  0.97639939  0.19573741  0.71253288  1
  C  C19  1  0.02360061  0.80426259  0.71253288  1
  C  C20  1  0.28556955  0.02565341  0.19758156  1
  C  C21  1  0.28556955  0.97434659  0.80241844  1
  C  C22  1  0.71443045  0.97434659  0.19758156  1
  C  C23  1  0.71443045  0.02565341  0.80241844  1
  C  C24  1  0.20111979  0.29096261  0.02492819  1
  C  C25  1  0.79888021  0.29096261  0.97507181  1
  C  C26  1  0.20111979  0.70903739  0.97507181  1
  C  C27  1  0.79888021  0.70903739  0.02492819  1
  C  C28  1  0.47639939  0.30426259  0.21253288  1
  C  C29  1  0.52360061  0.69573741  0.21253288  1
  C  C30  1  0.52360061  0.30426259  0.78746712  1
  C  C31  1  0.47639939  0.69573741  0.78746712  1
  C  C32  1  0.21443045  0.47434659  0.30241844  1
  C  C33  1  0.21443045  0.52565341  0.69758156  1
  C  C34  1  0.78556955  0.52565341  0.30241844  1
  C  C35  1  0.78556955  0.47434659  0.69758156  1
  C  C36  1  0.29888021  0.20903739  0.47507181  1
  C  C37  1  0.70111979  0.20903739  0.52492819  1
  C  C38  1  0.29888021  0.79096261  0.52492819  1
  C  C39  1  0.70111979  0.79096261  0.47507181  1
