# generated using pymatgen
data_Cu2NiC7
_symmetry_space_group_name_H-M   'P 1'
_cell_length_a   6.14354486
_cell_length_b   6.14354486
_cell_length_c   6.14354583
_cell_angle_alpha   47.20608608
_cell_angle_beta   47.20608608
_cell_angle_gamma   47.20608126
_symmetry_Int_Tables_number   1
_chemical_formula_structural   Cu2NiC7
_chemical_formula_sum   'Cu2 Ni1 C7'
_cell_volume   114.18501297
_cell_formula_units_Z   1
loop_
 _symmetry_equiv_pos_site_id
 _symmetry_equiv_pos_as_xyz
  1  'x, y, z'
loop_
 _atom_site_type_symbol
 _atom_site_label
 _atom_site_symmetry_multiplicity
 _atom_site_fract_x
 _atom_site_fract_y
 _atom_site_fract_z
 _atom_site_occupancy
  C  C0  1  0.00000000  0.00000000  0.00000000  1
  Ni  Ni1  1  0.50000000  0.50000000  0.50000000  1
  Cu  Cu2  1  0.76069100  0.76069100  0.76069100  1
  Cu  Cu3  1  0.23930900  0.23930900  0.23930900  1
  C  C4  1  0.49121000  0.73012100  0.05265200  1
  C  C5  1  0.73012100  0.05265200  0.49121000  1
  C  C6  1  0.94734800  0.50879000  0.26987900  1
  C  C7  1  0.50879000  0.26987900  0.94734800  1
  C  C8  1  0.26987900  0.94734800  0.50879000  1
  C  C9  1  0.05265200  0.49121000  0.73012100  1
