# generated using pymatgen
data_Cu3NiC8
_symmetry_space_group_name_H-M   'P 1'
_cell_length_a   3.30867200
_cell_length_b   3.30867200
_cell_length_c   40.36190100
_cell_angle_alpha   90.00000000
_cell_angle_beta   90.00000000
_cell_angle_gamma   119.99999992
_symmetry_Int_Tables_number   1
_chemical_formula_structural   Cu3NiC8
_chemical_formula_sum   'Cu3 Ni1 C8'
_cell_volume   382.65701219
_cell_formula_units_Z   1
loop_
 _symmetry_equiv_pos_site_id
 _symmetry_equiv_pos_as_xyz
  1  'x, y, z'
loop_
 _atom_site_type_symbol
 _atom_site_label
 _atom_site_symmetry_multiplicity
 _atom_site_fract_x
 _atom_site_fract_y
 _atom_site_fract_z
 _atom_site_occupancy
  C  C0  1  0.66666700  0.33333300  0.42307100  1
  C  C1  1  0.66666700  0.33333300  0.51838700  1
  Ni  Ni2  1  0.33333300  0.66666700  0.09372600  1
  Cu  Cu3  1  0.33333300  0.66666700  0.47071400  1
  Cu  Cu4  1  0.66666700  0.33333300  0.28001300  1
  Cu  Cu5  1  0.66666700  0.33333300  0.65846200  1
  C  C6  1  0.33333300  0.66666700  0.32178800  1
  C  C7  1  0.33333300  0.66666700  0.23821800  1
  C  C8  1  0.33333300  0.66666700  0.69642100  1
  C  C9  1  0.66666700  0.33333300  0.05589100  1
  C  C10  1  0.66666700  0.33333300  0.13158100  1
  C  C11  1  0.33333300  0.66666700  0.62047500  1
