# generated using pymatgen
data_Cu3NiC
_symmetry_space_group_name_H-M   'P 1'
_cell_length_a   8.32209700
_cell_length_b   8.33164637
_cell_length_c   8.33326364
_cell_angle_alpha   113.37103355
_cell_angle_beta   85.94849940
_cell_angle_gamma   119.64380228
_symmetry_Int_Tables_number   1
_chemical_formula_structural   Cu3NiC
_chemical_formula_sum   'Cu18 Ni6 C6'
_cell_volume   455.23252923
_cell_formula_units_Z   6
loop_
 _symmetry_equiv_pos_site_id
 _symmetry_equiv_pos_as_xyz
  1  'x, y, z'
loop_
 _atom_site_type_symbol
 _atom_site_label
 _atom_site_symmetry_multiplicity
 _atom_site_fract_x
 _atom_site_fract_y
 _atom_site_fract_z
 _atom_site_occupancy
  C  C0  1  0.27682400  0.51621100  0.72150800  1
  C  C1  1  0.72325200  0.48496000  0.27981700  1
  C  C2  1  0.63795000  0.27345600  0.52832900  1
  C  C3  1  0.36176300  0.72730700  0.47430700  1
  C  C4  1  0.96876600  0.49040800  0.98145200  1
  C  C5  1  0.02219300  0.98712500  0.48191600  1
  Ni  Ni6  1  0.69819800  0.91180500  0.19861600  1
  Ni  Ni7  1  0.30659900  0.08839700  0.80413800  1
  Ni  Ni8  1  0.18416800  0.43743500  0.18382000  1
  Ni  Ni9  1  0.80969600  0.57512300  0.81232700  1
  Ni  Ni10  1  0.76306900  0.97940800  0.72797800  1
  Ni  Ni11  1  0.24146000  0.02124600  0.25964300  1
  Cu  Cu12  1  0.87755800  0.04810400  0.54862800  1
  Cu  Cu13  1  0.12046200  0.94117800  0.44418000  1
  Cu  Cu14  1  0.93737000  0.27937900  0.18646600  1
  Cu  Cu15  1  0.05859000  0.72198500  0.81468000  1
  Cu  Cu16  1  0.52497100  0.90847600  0.65714400  1
  Cu  Cu17  1  0.47127900  0.08506100  0.34355900  1
  Cu  Cu18  1  0.88330500  0.84299600  0.13026800  1
  Cu  Cu19  1  0.12195100  0.15476000  0.86643600  1
  Cu  Cu20  1  0.73679900  0.72466000  0.64335700  1
  Cu  Cu21  1  0.26387100  0.27035100  0.35868800  1
  Cu  Cu22  1  0.53664600  0.68134000  0.22970800  1
  Cu  Cu23  1  0.47005900  0.31971400  0.77378600  1
  Cu  Cu24  1  0.22478800  0.62273800  0.42771600  1
  Cu  Cu25  1  0.77412500  0.38026400  0.57502700  1
  Cu  Cu26  1  0.15936300  0.58452700  0.07948500  1
  Cu  Cu27  1  0.83061700  0.41716200  0.91992800  1
  Cu  Cu28  1  0.59538200  0.84173500  0.97852700  1
  Cu  Cu29  1  0.40493000  0.15569100  0.02656500  1
