# generated using pymatgen
data_Cu2Ni2C45
_symmetry_space_group_name_H-M   'P 1'
_cell_length_a   12.33348020
_cell_length_b   12.33348020
_cell_length_c   9.26509894
_cell_angle_alpha   85.77846404
_cell_angle_beta   85.77846404
_cell_angle_gamma   152.38121598
_symmetry_Int_Tables_number   1
_chemical_formula_structural   Cu2Ni2C45
_chemical_formula_sum   'Cu2 Ni2 C45'
_cell_volume   621.51236708
_cell_formula_units_Z   1
loop_
 _symmetry_equiv_pos_site_id
 _symmetry_equiv_pos_as_xyz
  1  'x, y, z'
loop_
 _atom_site_type_symbol
 _atom_site_label
 _atom_site_symmetry_multiplicity
 _atom_site_fract_x
 _atom_site_fract_y
 _atom_site_fract_z
 _atom_site_occupancy
  C  C0  1  0.05211100  0.45461300  0.16173300  1
  C  C1  1  0.54538700  0.94788900  0.83826700  1
  C  C2  1  0.94788900  0.54538700  0.83826700  1
  C  C3  1  0.45461300  0.05211100  0.16173300  1
  C  C4  1  0.88081200  0.61153500  0.13908200  1
  C  C5  1  0.62508100  0.74728400  0.85752700  1
  C  C6  1  0.38846500  0.11918800  0.86091800  1
  C  C7  1  0.11918800  0.38846500  0.86091800  1
  C  C8  1  0.37491900  0.25271600  0.14247300  1
  C  C9  1  0.29213800  0.70786200  0.50000000  1
  C  C10  1  0.25271600  0.37491900  0.14247300  1
  C  C11  1  0.00000000  0.00000000  0.50000000  1
  C  C12  1  0.42615500  0.57384500  0.50000000  1
  C  C13  1  0.74728400  0.62508100  0.85752700  1
  C  C14  1  0.61153500  0.88081200  0.13908200  1
  C  C15  1  0.57384500  0.42615500  0.50000000  1
  C  C16  1  0.70786200  0.29213800  0.50000000  1
  Ni  Ni17  1  0.22034300  0.22034300  0.80563100  1
  Ni  Ni18  1  0.77965700  0.77965700  0.19436900  1
  Cu  Cu19  1  0.85195800  0.14804200  0.50000000  1
  Cu  Cu20  1  0.14804200  0.85195800  0.50000000  1
  C  C21  1  0.78944100  0.03787500  0.88373400  1
  C  C22  1  0.12818200  0.54736700  0.89561600  1
  C  C23  1  0.93043900  0.93043900  0.85725100  1
  C  C24  1  0.30018300  0.30018300  0.61858600  1
  C  C25  1  0.87181800  0.45263300  0.10438400  1
  C  C26  1  0.21055900  0.96212500  0.11626600  1
  C  C27  1  0.99046900  0.54080000  0.60672000  1
  C  C28  1  0.00953100  0.45920000  0.39328000  1
  C  C29  1  0.69981700  0.69981700  0.38141400  1
  C  C30  1  0.18643800  0.30348200  0.37490100  1
  C  C31  1  0.27404900  0.38250500  0.87250000  1
  C  C32  1  0.96212500  0.21055900  0.11626600  1
  C  C33  1  0.45920000  0.00953100  0.39328000  1
  C  C34  1  0.69651800  0.81356200  0.62509900  1
  C  C35  1  0.61749500  0.72595100  0.12750000  1
  C  C36  1  0.06956100  0.06956100  0.14274900  1
  C  C37  1  0.30348200  0.18643800  0.37490100  1
  C  C38  1  0.81356200  0.69651800  0.62509900  1
  C  C39  1  0.54080000  0.99046900  0.60672000  1
  C  C40  1  0.27281700  0.55104100  0.65193900  1
  C  C41  1  0.72718300  0.44895900  0.34806100  1
  C  C42  1  0.38250500  0.27404900  0.87250000  1
  C  C43  1  0.55104100  0.27281700  0.65193900  1
  C  C44  1  0.54736700  0.12818200  0.89561600  1
  C  C45  1  0.72595100  0.61749500  0.12750000  1
  C  C46  1  0.44895900  0.72718300  0.34806100  1
  C  C47  1  0.03787500  0.78944100  0.88373400  1
  C  C48  1  0.45263300  0.87181800  0.10438400  1
