# generated using pymatgen
data_Cu(NiC5)2
_symmetry_space_group_name_H-M   'P 1'
_cell_length_a   9.53367200
_cell_length_b   5.03203700
_cell_length_c   7.23496088
_cell_angle_alpha   86.72028689
_cell_angle_beta   90.00000000
_cell_angle_gamma   90.00000000
_symmetry_Int_Tables_number   1
_chemical_formula_structural   Cu(NiC5)2
_chemical_formula_sum   'Cu2 Ni4 C20'
_cell_volume   346.52001207
_cell_formula_units_Z   2
loop_
 _symmetry_equiv_pos_site_id
 _symmetry_equiv_pos_as_xyz
  1  'x, y, z'
loop_
 _atom_site_type_symbol
 _atom_site_label
 _atom_site_symmetry_multiplicity
 _atom_site_fract_x
 _atom_site_fract_y
 _atom_site_fract_z
 _atom_site_occupancy
  Ni  Ni0  1  0.92682700  0.75400700  0.06402700  1
  Ni  Ni1  1  0.42682700  0.24599300  0.93597300  1
  Ni  Ni2  1  0.07317300  0.24599300  0.93597300  1
  Ni  Ni3  1  0.57317300  0.75400700  0.06402700  1
  Cu  Cu4  1  0.25000000  0.65496200  0.16042100  1
  Cu  Cu5  1  0.75000000  0.34503800  0.83957900  1
  C  C6  1  0.25000000  0.04243300  0.60451200  1
  C  C7  1  0.75000000  0.95756700  0.39548800  1
  C  C8  1  0.25000000  0.41078300  0.95847300  1
  C  C9  1  0.75000000  0.58921700  0.04152700  1
  C  C10  1  0.11027600  0.91546100  0.05983200  1
  C  C11  1  0.61027600  0.08453900  0.94016800  1
  C  C12  1  0.88972400  0.08453900  0.94016800  1
  C  C13  1  0.38972400  0.91546100  0.05983200  1
  C  C14  1  0.03252900  0.45225400  0.14814200  1
  C  C15  1  0.53252900  0.54774600  0.85185800  1
  C  C16  1  0.96747100  0.54774600  0.85185800  1
  C  C17  1  0.46747100  0.45225400  0.14814200  1
  C  C18  1  0.25000000  0.13607000  0.40793100  1
  C  C19  1  0.75000000  0.86393000  0.59206900  1
  C  C20  1  0.25000000  0.75025300  0.60999400  1
  C  C21  1  0.75000000  0.24974700  0.39000600  1
  C  C22  1  0.12159000  0.14336200  0.69777600  1
  C  C23  1  0.62159000  0.85663800  0.30222400  1
  C  C24  1  0.87841000  0.85663800  0.30222400  1
  C  C25  1  0.37841000  0.14336200  0.69777600  1
