# generated using pymatgen
data_CuNi2C5
_symmetry_space_group_name_H-M   'P 1'
_cell_length_a   6.45555700
_cell_length_b   8.32149100
_cell_length_c   14.03038100
_cell_angle_alpha   90.00000000
_cell_angle_beta   90.00000000
_cell_angle_gamma   90.00000000
_symmetry_Int_Tables_number   1
_chemical_formula_structural   CuNi2C5
_chemical_formula_sum   'Cu8 Ni16 C40'
_cell_volume   753.71009571
_cell_formula_units_Z   8
loop_
 _symmetry_equiv_pos_site_id
 _symmetry_equiv_pos_as_xyz
  1  'x, y, z'
loop_
 _atom_site_type_symbol
 _atom_site_label
 _atom_site_symmetry_multiplicity
 _atom_site_fract_x
 _atom_site_fract_y
 _atom_site_fract_z
 _atom_site_occupancy
  Ni  Ni0  1  0.29294800  0.37580600  0.76525400  1
  Ni  Ni1  1  0.79294800  0.62419400  0.73474600  1
  Ni  Ni2  1  0.70705200  0.12419400  0.26525400  1
  Ni  Ni3  1  0.20705200  0.87580600  0.23474600  1
  Ni  Ni4  1  0.70705200  0.62419400  0.23474600  1
  Ni  Ni5  1  0.20705200  0.37580600  0.26525400  1
  Ni  Ni6  1  0.29294800  0.87580600  0.73474600  1
  Ni  Ni7  1  0.79294800  0.12419400  0.76525400  1
  Ni  Ni8  1  0.84443000  0.58426100  0.57771600  1
  Ni  Ni9  1  0.34443000  0.41573900  0.92228400  1
  Ni  Ni10  1  0.15557000  0.91573900  0.07771600  1
  Ni  Ni11  1  0.65557000  0.08426100  0.42228400  1
  Ni  Ni12  1  0.15557000  0.41573900  0.42228400  1
  Ni  Ni13  1  0.65557000  0.58426100  0.07771600  1
  Ni  Ni14  1  0.84443000  0.08426100  0.92228400  1
  Ni  Ni15  1  0.34443000  0.91573900  0.57771600  1
  Cu  Cu16  1  0.26439600  0.44416000  0.61824300  1
  Cu  Cu17  1  0.76439600  0.55584000  0.88175700  1
  Cu  Cu18  1  0.73560400  0.05584000  0.11824300  1
  Cu  Cu19  1  0.23560400  0.94416000  0.38175700  1
  Cu  Cu20  1  0.73560400  0.55584000  0.38175700  1
  Cu  Cu21  1  0.23560400  0.44416000  0.11824300  1
  Cu  Cu22  1  0.26439600  0.94416000  0.88175700  1
  Cu  Cu23  1  0.76439600  0.05584000  0.61824300  1
  C  C24  1  0.22498300  0.33222100  0.70393200  1
  C  C25  1  0.72498300  0.66777900  0.79606800  1
  C  C26  1  0.77501700  0.16777900  0.20393200  1
  C  C27  1  0.27501700  0.83222100  0.29606800  1
  C  C28  1  0.77501700  0.66777900  0.29606800  1
  C  C29  1  0.27501700  0.33222100  0.20393200  1
  C  C30  1  0.22498300  0.83222100  0.79606800  1
  C  C31  1  0.72498300  0.16777900  0.70393200  1
  C  C32  1  0.19385200  0.35824100  0.53546600  1
  C  C33  1  0.69385200  0.64175900  0.96453400  1
  C  C34  1  0.80614800  0.14175900  0.03546600  1
  C  C35  1  0.30614800  0.85824100  0.46453400  1
  C  C36  1  0.80614800  0.64175900  0.46453400  1
  C  C37  1  0.30614800  0.35824100  0.03546600  1
  C  C38  1  0.19385200  0.85824100  0.96453400  1
  C  C39  1  0.69385200  0.14175900  0.53546600  1
  C  C40  1  0.46291300  0.52080100  0.62149800  1
  C  C41  1  0.96291300  0.47919900  0.87850200  1
  C  C42  1  0.53708700  0.97919900  0.12149800  1
  C  C43  1  0.03708700  0.02080100  0.37850200  1
  C  C44  1  0.53708700  0.47919900  0.37850200  1
  C  C45  1  0.03708700  0.52080100  0.12149800  1
  C  C46  1  0.46291300  0.02080100  0.87850200  1
  C  C47  1  0.96291300  0.97919900  0.62149800  1
  C  C48  1  0.11326400  0.60085300  0.63744100  1
  C  C49  1  0.61326400  0.39914700  0.86255900  1
  C  C50  1  0.88673600  0.89914700  0.13744100  1
  C  C51  1  0.38673600  0.10085300  0.36255900  1
  C  C52  1  0.88673600  0.39914700  0.36255900  1
  C  C53  1  0.38673600  0.60085300  0.13744100  1
  C  C54  1  0.11326400  0.10085300  0.86255900  1
  C  C55  1  0.61326400  0.89914700  0.63744100  1
  C  C56  1  0.89556100  0.54911600  0.64236200  1
  C  C57  1  0.39556100  0.45088400  0.85763800  1
  C  C58  1  0.10443900  0.95088400  0.14236200  1
  C  C59  1  0.60443900  0.04911600  0.35763800  1
  C  C60  1  0.10443900  0.45088400  0.35763800  1
  C  C61  1  0.60443900  0.54911600  0.14236200  1
  C  C62  1  0.89556100  0.04911600  0.85763800  1
  C  C63  1  0.39556100  0.95088400  0.64236200  1
