# generated using pymatgen
data_Cu3NiC2
_symmetry_space_group_name_H-M   'P 1'
_cell_length_a   6.89591100
_cell_length_b   7.62231330
_cell_length_c   8.37682296
_cell_angle_alpha   75.57520424
_cell_angle_beta   72.62059746
_cell_angle_gamma   66.58775178
_symmetry_Int_Tables_number   1
_chemical_formula_structural   Cu3NiC2
_chemical_formula_sum   'Cu6 Ni2 C4'
_cell_volume   381.31221845
_cell_formula_units_Z   2
loop_
 _symmetry_equiv_pos_site_id
 _symmetry_equiv_pos_as_xyz
  1  'x, y, z'
loop_
 _atom_site_type_symbol
 _atom_site_label
 _atom_site_symmetry_multiplicity
 _atom_site_fract_x
 _atom_site_fract_y
 _atom_site_fract_z
 _atom_site_occupancy
  C  C0  1  0.15014100  0.46053900  0.19324600  1
  C  C1  1  0.84985900  0.53946100  0.80675400  1
  C  C2  1  0.58664100  0.20893800  0.62625100  1
  C  C3  1  0.41335900  0.79106200  0.37374900  1
  Ni  Ni4  1  0.85542100  0.06405500  0.19295600  1
  Ni  Ni5  1  0.14457900  0.93594500  0.80704400  1
  Cu  Cu6  1  0.13414100  0.18066000  0.56919200  1
  Cu  Cu7  1  0.86585900  0.81934000  0.43080800  1
  Cu  Cu8  1  0.65646100  0.39313800  0.21978900  1
  Cu  Cu9  1  0.34353900  0.60686200  0.78021100  1
  Cu  Cu10  1  0.22656500  0.04513900  0.03011000  1
  Cu  Cu11  1  0.77343500  0.95486100  0.96989000  1
