# generated using pymatgen
data_Cu(NiC3)2
_symmetry_space_group_name_H-M   'P 1'
_cell_length_a   6.79552278
_cell_length_b   6.79552278
_cell_length_c   6.79552278
_cell_angle_alpha   146.47468139
_cell_angle_beta   131.74054590
_cell_angle_gamma   60.03966149
_symmetry_Int_Tables_number   1
_chemical_formula_structural   Cu(NiC3)2
_chemical_formula_sum   'Cu1 Ni2 C6'
_cell_volume   128.14292315
_cell_formula_units_Z   1
loop_
 _symmetry_equiv_pos_site_id
 _symmetry_equiv_pos_as_xyz
  1  'x, y, z'
loop_
 _atom_site_type_symbol
 _atom_site_label
 _atom_site_symmetry_multiplicity
 _atom_site_fract_x
 _atom_site_fract_y
 _atom_site_fract_z
 _atom_site_occupancy
  Ni  Ni0  1  0.66772800  0.66772800  0.00000000  1
  Ni  Ni1  1  0.33227200  0.33227200  0.00000000  1
  Cu  Cu2  1  0.00000000  0.00000000  0.00000000  1
  C  C3  1  0.57136300  0.82860400  0.74275900  1
  C  C4  1  0.26488200  0.50000000  0.76488200  1
  C  C5  1  0.91415500  0.17139600  0.74275900  1
  C  C6  1  0.08584500  0.82860400  0.25724100  1
  C  C7  1  0.73511800  0.50000000  0.23511800  1
  C  C8  1  0.42863700  0.17139600  0.25724100  1
