# generated using pymatgen
data_CuNiC10
_symmetry_space_group_name_H-M   'P 1'
_cell_length_a   7.53517200
_cell_length_b   7.53517200
_cell_length_c   5.84280800
_cell_angle_alpha   90.00000000
_cell_angle_beta   90.00000000
_cell_angle_gamma   90.00000000
_symmetry_Int_Tables_number   1
_chemical_formula_structural   CuNiC10
_chemical_formula_sum   'Cu2 Ni2 C20'
_cell_volume   331.74772660
_cell_formula_units_Z   2
loop_
 _symmetry_equiv_pos_site_id
 _symmetry_equiv_pos_as_xyz
  1  'x, y, z'
loop_
 _atom_site_type_symbol
 _atom_site_label
 _atom_site_symmetry_multiplicity
 _atom_site_fract_x
 _atom_site_fract_y
 _atom_site_fract_z
 _atom_site_occupancy
  Ni  Ni0  1  0.00000000  0.50000000  0.75000000  1
  Ni  Ni1  1  0.50000000  0.00000000  0.25000000  1
  Cu  Cu2  1  0.00000000  0.50000000  0.25000000  1
  Cu  Cu3  1  0.50000000  0.00000000  0.75000000  1
  C  C4  1  0.77689700  0.72310300  0.75000000  1
  C  C5  1  0.22310300  0.27689700  0.75000000  1
  C  C6  1  0.72310300  0.22310300  0.25000000  1
  C  C7  1  0.27689700  0.77689700  0.25000000  1
  C  C8  1  0.91317300  0.68354300  0.56551300  1
  C  C9  1  0.08682700  0.31645700  0.56551300  1
  C  C10  1  0.58682700  0.18354300  0.06551300  1
  C  C11  1  0.41317300  0.81645700  0.06551300  1
  C  C12  1  0.68354300  0.08682700  0.43448700  1
  C  C13  1  0.31645700  0.91317300  0.43448700  1
  C  C14  1  0.81645700  0.58682700  0.93448700  1
  C  C15  1  0.18354300  0.41317300  0.93448700  1
  C  C16  1  0.59572900  0.70890000  0.65458000  1
  C  C17  1  0.40427100  0.29110000  0.65458000  1
  C  C18  1  0.90427100  0.20890000  0.15458000  1
  C  C19  1  0.09572900  0.79110000  0.15458000  1
  C  C20  1  0.29110000  0.59572900  0.34542000  1
  C  C21  1  0.70890000  0.40427100  0.34542000  1
  C  C22  1  0.20890000  0.09572900  0.84542000  1
  C  C23  1  0.79110000  0.90427100  0.84542000  1
