# generated using pymatgen
data_Cu8Ni4C
_symmetry_space_group_name_H-M   'P 1'
_cell_length_a   4.94866200
_cell_length_b   6.49106786
_cell_length_c   6.49106786
_cell_angle_alpha   81.64500555
_cell_angle_beta   67.59257846
_cell_angle_gamma   67.59257846
_symmetry_Int_Tables_number   1
_chemical_formula_structural   Cu8Ni4C
_chemical_formula_sum   'Cu8 Ni4 C1'
_cell_volume   178.20947430
_cell_formula_units_Z   1
loop_
 _symmetry_equiv_pos_site_id
 _symmetry_equiv_pos_as_xyz
  1  'x, y, z'
loop_
 _atom_site_type_symbol
 _atom_site_label
 _atom_site_symmetry_multiplicity
 _atom_site_fract_x
 _atom_site_fract_y
 _atom_site_fract_z
 _atom_site_occupancy
  C  C0  1  0.00000000  0.00000000  0.00000000  1
  Ni  Ni1  1  0.34454300  0.65545700  0.65545700  1
  Ni  Ni2  1  0.65545700  0.34454300  0.34454300  1
  Ni  Ni3  1  0.00000000  0.34454300  0.65545700  1
  Ni  Ni4  1  0.00000000  0.65545700  0.34454300  1
  Cu  Cu5  1  0.50000000  0.00000000  0.50000000  1
  Cu  Cu6  1  0.00000000  0.00000000  0.50000000  1
  Cu  Cu7  1  0.00000000  0.50000000  0.00000000  1
  Cu  Cu8  1  0.50000000  0.50000000  0.00000000  1
  Cu  Cu9  1  0.27031700  0.22968300  0.22968300  1
  Cu  Cu10  1  0.72968300  0.77031700  0.77031700  1
  Cu  Cu11  1  0.50000000  0.77031700  0.22968300  1
  Cu  Cu12  1  0.50000000  0.22968300  0.77031700  1
