# generated using pymatgen
data_CuNiC4
_symmetry_space_group_name_H-M   'P 1'
_cell_length_a   5.14503367
_cell_length_b   5.73080872
_cell_length_c   5.74990180
_cell_angle_alpha   119.89011327
_cell_angle_beta   90.13482673
_cell_angle_gamma   90.13841001
_symmetry_Int_Tables_number   1
_chemical_formula_structural   CuNiC4
_chemical_formula_sum   'Cu2 Ni2 C8'
_cell_volume   146.98401223
_cell_formula_units_Z   2
loop_
 _symmetry_equiv_pos_site_id
 _symmetry_equiv_pos_as_xyz
  1  'x, y, z'
loop_
 _atom_site_type_symbol
 _atom_site_label
 _atom_site_symmetry_multiplicity
 _atom_site_fract_x
 _atom_site_fract_y
 _atom_site_fract_z
 _atom_site_occupancy
  C  C0  1  0.99811000  0.67878000  0.68264200  1
  C  C1  1  0.49493800  0.30355100  0.30022100  1
  Ni  Ni2  1  0.52424500  0.02217400  0.67140700  1
  Ni  Ni3  1  0.02213200  0.98215400  0.32995000  1
  Cu  Cu4  1  0.51966100  0.66916200  0.02434300  1
  Cu  Cu5  1  0.01692900  0.33332200  0.98086900  1
  C  C6  1  0.49712900  0.75515600  0.77278000  1
  C  C7  1  0.98899900  0.23274900  0.21655600  1
  C  C8  1  0.87753800  0.11306300  0.67020600  1
  C  C9  1  0.85362400  0.64492700  0.10040500  1
  C  C10  1  0.38048900  0.90696700  0.33027500  1
  C  C11  1  0.35620700  0.35799500  0.92034600  1
