# generated using pymatgen
data_Cu2NiC4
_symmetry_space_group_name_H-M   'P 1'
_cell_length_a   3.46456600
_cell_length_b   10.47774600
_cell_length_c   12.16223700
_cell_angle_alpha   90.00000000
_cell_angle_beta   90.00000000
_cell_angle_gamma   90.00000000
_symmetry_Int_Tables_number   1
_chemical_formula_structural   Cu2NiC4
_chemical_formula_sum   'Cu8 Ni4 C16'
_cell_volume   441.49945037
_cell_formula_units_Z   4
loop_
 _symmetry_equiv_pos_site_id
 _symmetry_equiv_pos_as_xyz
  1  'x, y, z'
loop_
 _atom_site_type_symbol
 _atom_site_label
 _atom_site_symmetry_multiplicity
 _atom_site_fract_x
 _atom_site_fract_y
 _atom_site_fract_z
 _atom_site_occupancy
  Ni  Ni0  1  0.75000000  0.74675800  0.85094500  1
  Ni  Ni1  1  0.25000000  0.25324200  0.14905500  1
  Ni  Ni2  1  0.75000000  0.24675800  0.64905500  1
  Ni  Ni3  1  0.25000000  0.75324200  0.35094500  1
  Cu  Cu4  1  0.25000000  0.42244900  0.89112900  1
  Cu  Cu5  1  0.75000000  0.57755100  0.10887100  1
  Cu  Cu6  1  0.25000000  0.92244900  0.60887100  1
  Cu  Cu7  1  0.75000000  0.07755100  0.39112900  1
  Cu  Cu8  1  0.75000000  0.07334700  0.88925100  1
  Cu  Cu9  1  0.25000000  0.92665300  0.11074900  1
  Cu  Cu10  1  0.75000000  0.57334700  0.61074900  1
  Cu  Cu11  1  0.25000000  0.42665300  0.38925100  1
  C  C12  1  0.25000000  0.43012900  0.57394100  1
  C  C13  1  0.75000000  0.56987100  0.42605900  1
  C  C14  1  0.25000000  0.93012900  0.92605900  1
  C  C15  1  0.75000000  0.06987100  0.07394100  1
  C  C16  1  0.25000000  0.51892700  0.21722700  1
  C  C17  1  0.75000000  0.48107300  0.78277300  1
  C  C18  1  0.25000000  0.01892700  0.28277300  1
  C  C19  1  0.75000000  0.98107300  0.71722700  1
  C  C20  1  0.25000000  0.11445100  0.51806800  1
  C  C21  1  0.75000000  0.88554900  0.48193200  1
  C  C22  1  0.25000000  0.61445100  0.98193200  1
  C  C23  1  0.75000000  0.38554900  0.01806800  1
  C  C24  1  0.75000000  0.29059600  0.34267500  1
  C  C25  1  0.25000000  0.70940400  0.65732500  1
  C  C26  1  0.75000000  0.79059600  0.15732500  1
  C  C27  1  0.25000000  0.20940400  0.84267500  1
