# generated using pymatgen
data_Cu3NiC16
_symmetry_space_group_name_H-M   'P 1'
_cell_length_a   7.51766600
_cell_length_b   5.28561300
_cell_length_c   5.36894476
_cell_angle_alpha   89.89648443
_cell_angle_beta   90.00000000
_cell_angle_gamma   90.00000000
_symmetry_Int_Tables_number   1
_chemical_formula_structural   Cu3NiC16
_chemical_formula_sum   'Cu3 Ni1 C16'
_cell_volume   213.33721221
_cell_formula_units_Z   1
loop_
 _symmetry_equiv_pos_site_id
 _symmetry_equiv_pos_as_xyz
  1  'x, y, z'
loop_
 _atom_site_type_symbol
 _atom_site_label
 _atom_site_symmetry_multiplicity
 _atom_site_fract_x
 _atom_site_fract_y
 _atom_site_fract_z
 _atom_site_occupancy
  Ni  Ni0  1  0.50000000  0.49071100  0.54107000  1
  Cu  Cu1  1  0.50000000  0.00903200  0.04341100  1
  Cu  Cu2  1  0.00000000  0.50887400  0.45626500  1
  Cu  Cu3  1  0.00000000  0.99130400  0.95713800  1
  C  C4  1  0.24948900  0.49974400  0.99993500  1
  C  C5  1  0.75054600  0.00017100  0.50001600  1
  C  C6  1  0.75051100  0.49974400  0.99993500  1
  C  C7  1  0.24945400  0.00017100  0.50001600  1
  C  C8  1  0.50000000  0.57402700  0.98613500  1
  C  C9  1  0.50000000  0.92998700  0.48265800  1
  C  C10  1  0.00000000  0.42618800  0.01639700  1
  C  C11  1  0.00000000  0.07420200  0.51845500  1
  C  C12  1  0.28927300  0.21151400  0.78911100  1
  C  C13  1  0.71313000  0.28712000  0.28753800  1
  C  C14  1  0.78946700  0.78785900  0.21155300  1
  C  C15  1  0.21067600  0.71142900  0.71108300  1
  C  C16  1  0.21053300  0.78785900  0.21155300  1
  C  C17  1  0.78932400  0.71142900  0.71108300  1
  C  C18  1  0.71072700  0.21151400  0.78911100  1
  C  C19  1  0.28687000  0.28712000  0.28753800  1
