# generated using pymatgen
data_Cu15NiC8
_symmetry_space_group_name_H-M   'P 1'
_cell_length_a   10.90359366
_cell_length_b   10.90359366
_cell_length_c   7.82034600
_cell_angle_alpha   90.00000000
_cell_angle_beta   90.00000000
_cell_angle_gamma   119.99999792
_symmetry_Int_Tables_number   1
_chemical_formula_structural   Cu15NiC8
_chemical_formula_sum   'Cu30 Ni2 C16'
_cell_volume   805.18546340
_cell_formula_units_Z   2
loop_
 _symmetry_equiv_pos_site_id
 _symmetry_equiv_pos_as_xyz
  1  'x, y, z'
loop_
 _atom_site_type_symbol
 _atom_site_label
 _atom_site_symmetry_multiplicity
 _atom_site_fract_x
 _atom_site_fract_y
 _atom_site_fract_z
 _atom_site_occupancy
  C  C0  1  0.73682600  0.00000000  0.22672600  1
  C  C1  1  0.00000000  0.73682600  0.22672600  1
  C  C2  1  0.26317400  0.00000000  0.72672600  1
  C  C3  1  0.00000000  0.26317400  0.72672600  1
  C  C4  1  0.26317400  0.26317400  0.22672600  1
  C  C5  1  0.73682600  0.73682600  0.72672600  1
  C  C6  1  0.33333300  0.66666700  0.47171600  1
  C  C7  1  0.66666700  0.33333300  0.97171600  1
  C  C8  1  0.33333300  0.66666700  0.97171600  1
  C  C9  1  0.66666700  0.33333300  0.47171600  1
  C  C10  1  0.39175400  0.00000000  0.17022000  1
  C  C11  1  0.00000000  0.39175400  0.17022000  1
  C  C12  1  0.60824600  0.00000000  0.67022000  1
  C  C13  1  0.00000000  0.60824600  0.67022000  1
  C  C14  1  0.60824600  0.60824600  0.17022000  1
  C  C15  1  0.39175400  0.39175400  0.67022000  1
  Ni  Ni16  1  0.00000000  0.00000000  0.00187300  1
  Ni  Ni17  1  0.00000000  0.00000000  0.50187300  1
  Cu  Cu18  1  0.13553400  0.57998500  0.21384100  1
  Cu  Cu19  1  0.42001500  0.55554900  0.21384100  1
  Cu  Cu20  1  0.86446600  0.42001500  0.71384100  1
  Cu  Cu21  1  0.42001500  0.86446600  0.71384100  1
  Cu  Cu22  1  0.44445100  0.86446600  0.21384100  1
  Cu  Cu23  1  0.57998500  0.44445100  0.71384100  1
  Cu  Cu24  1  0.44445100  0.57998500  0.71384100  1
  Cu  Cu25  1  0.57998500  0.13553400  0.21384100  1
  Cu  Cu26  1  0.55554900  0.13553400  0.71384100  1
  Cu  Cu27  1  0.55554900  0.42001500  0.21384100  1
  Cu  Cu28  1  0.13553400  0.55554900  0.71384100  1
  Cu  Cu29  1  0.86446600  0.44445100  0.21384100  1
  Cu  Cu30  1  0.13474700  0.39231400  0.02613400  1
  Cu  Cu31  1  0.60768600  0.74243300  0.02613400  1
  Cu  Cu32  1  0.86525300  0.60768600  0.52613400  1
  Cu  Cu33  1  0.60768600  0.86525300  0.52613400  1
  Cu  Cu34  1  0.25756700  0.86525300  0.02613400  1
  Cu  Cu35  1  0.39231400  0.25756700  0.52613400  1
  Cu  Cu36  1  0.25756700  0.39231400  0.52613400  1
  Cu  Cu37  1  0.39231400  0.13474700  0.02613400  1
  Cu  Cu38  1  0.74243300  0.13474700  0.52613400  1
  Cu  Cu39  1  0.74243300  0.60768600  0.02613400  1
  Cu  Cu40  1  0.13474700  0.74243300  0.52613400  1
  Cu  Cu41  1  0.86525300  0.25756700  0.02613400  1
  Cu  Cu42  1  0.29195500  0.00000000  0.34753600  1
  Cu  Cu43  1  0.00000000  0.29195500  0.34753600  1
  Cu  Cu44  1  0.70804500  0.00000000  0.84753600  1
  Cu  Cu45  1  0.00000000  0.70804500  0.84753600  1
  Cu  Cu46  1  0.70804500  0.70804500  0.34753600  1
  Cu  Cu47  1  0.29195500  0.29195500  0.84753600  1
