# generated using pymatgen
data_CuNiC8
_symmetry_space_group_name_H-M   'P 1'
_cell_length_a   5.18656701
_cell_length_b   10.75252814
_cell_length_c   7.59444200
_cell_angle_alpha   89.99946118
_cell_angle_beta   90.00023634
_cell_angle_gamma   89.61568476
_symmetry_Int_Tables_number   1
_chemical_formula_structural   CuNiC8
_chemical_formula_sum   'Cu4 Ni4 C32'
_cell_volume   423.52268875
_cell_formula_units_Z   4
loop_
 _symmetry_equiv_pos_site_id
 _symmetry_equiv_pos_as_xyz
  1  'x, y, z'
loop_
 _atom_site_type_symbol
 _atom_site_label
 _atom_site_symmetry_multiplicity
 _atom_site_fract_x
 _atom_site_fract_y
 _atom_site_fract_z
 _atom_site_occupancy
  C  C0  1  0.99905700  0.48094600  0.24991400  1
  C  C1  1  0.99889900  0.98098100  0.25001100  1
  C  C2  1  0.00106000  0.01903200  0.74995500  1
  C  C3  1  0.00106100  0.51901700  0.74995800  1
  C  C4  1  0.48983100  0.21784200  0.25004700  1
  C  C5  1  0.48981900  0.71781900  0.24992600  1
  C  C6  1  0.51009100  0.28213200  0.74989500  1
  C  C7  1  0.51006200  0.78217700  0.75000200  1
  Ni  Ni8  1  0.99998300  0.25000700  0.00002600  1
  Ni  Ni9  1  0.99999700  0.75004700  0.99993200  1
  Ni  Ni10  1  0.99998000  0.24998500  0.50002700  1
  Ni  Ni11  1  0.99994500  0.74999900  0.49994400  1
  Cu  Cu12  1  0.49998400  0.50007100  0.00017900  1
  Cu  Cu13  1  0.50000300  0.49997600  0.49986700  1
  Cu  Cu14  1  0.49999300  0.99991700  0.99997000  1
  Cu  Cu15  1  0.50006800  0.99985400  0.50016400  1
  C  C16  1  0.12981600  0.21881200  0.75004700  1
  C  C17  1  0.12980500  0.71884000  0.74992500  1
  C  C18  1  0.87021800  0.28121700  0.25008300  1
  C  C19  1  0.87014800  0.78121300  0.24998200  1
  C  C20  1  0.62587200  0.03565100  0.24999400  1
  C  C21  1  0.62592400  0.53569600  0.25000500  1
  C  C22  1  0.37410600  0.46433000  0.75000800  1
  C  C23  1  0.37407300  0.96428700  0.75000300  1
  C  C24  1  0.82500500  0.40649900  0.56652200  1
  C  C25  1  0.82519500  0.90651100  0.56652100  1
  C  C26  1  0.17499900  0.09349000  0.43347800  1
  C  C27  1  0.17481200  0.59349500  0.43344200  1
  C  C28  1  0.82518900  0.40656700  0.93351600  1
  C  C29  1  0.82512700  0.90652200  0.93343800  1
  C  C30  1  0.17483900  0.09346000  0.06652000  1
  C  C31  1  0.17495300  0.59356000  0.06655100  1
  C  C32  1  0.31720300  0.33982700  0.43349100  1
  C  C33  1  0.31720500  0.83979100  0.43334000  1
  C  C34  1  0.68283100  0.16018900  0.93337500  1
  C  C35  1  0.68284900  0.66021800  0.93338100  1
  C  C36  1  0.68284100  0.16015500  0.56663500  1
  C  C37  1  0.68279600  0.66021500  0.56659200  1
  C  C38  1  0.31714100  0.33984200  0.06670200  1
  C  C39  1  0.31722000  0.83981200  0.06663000  1
