# generated using pymatgen
data_Cu4Ni28C33
_symmetry_space_group_name_H-M   'P 1'
_cell_length_a   6.42312500
_cell_length_b   6.54052509
_cell_length_c   15.66112486
_cell_angle_alpha   94.72852231
_cell_angle_beta   89.72835015
_cell_angle_gamma   100.23748177
_symmetry_Int_Tables_number   1
_chemical_formula_structural   Cu4Ni28C33
_chemical_formula_sum   'Cu4 Ni28 C33'
_cell_volume   645.22223272
_cell_formula_units_Z   1
loop_
 _symmetry_equiv_pos_site_id
 _symmetry_equiv_pos_as_xyz
  1  'x, y, z'
loop_
 _atom_site_type_symbol
 _atom_site_label
 _atom_site_symmetry_multiplicity
 _atom_site_fract_x
 _atom_site_fract_y
 _atom_site_fract_z
 _atom_site_occupancy
  C  C0  1  0.00000000  0.00000000  0.00000000  1
  C  C1  1  0.59415500  0.33922700  0.67969500  1
  C  C2  1  0.40584500  0.66077300  0.32030500  1
  Ni  Ni3  1  0.79947600  0.34055100  0.98896200  1
  Ni  Ni4  1  0.20052400  0.65944900  0.01103800  1
  Ni  Ni5  1  0.85365100  0.26594500  0.89223500  1
  Ni  Ni6  1  0.14634900  0.73405500  0.10776500  1
  Ni  Ni7  1  0.33102400  0.26535600  0.93612500  1
  Ni  Ni8  1  0.66897600  0.73464400  0.06387500  1
  Ni  Ni9  1  0.37212800  0.03503100  0.90624600  1
  Ni  Ni10  1  0.62787200  0.96496900  0.09375400  1
  Ni  Ni11  1  0.23725000  0.18476800  0.14099000  1
  Ni  Ni12  1  0.76275000  0.81523200  0.85901000  1
  Ni  Ni13  1  0.00918300  0.24975700  0.15744600  1
  Ni  Ni14  1  0.99081700  0.75024300  0.84255400  1
  Ni  Ni15  1  0.96508900  0.37673200  0.75856600  1
  Ni  Ni16  1  0.03491100  0.62326800  0.24143400  1
  Ni  Ni17  1  0.89970900  0.13723600  0.71902200  1
  Ni  Ni18  1  0.10029100  0.86276400  0.28097800  1
  Ni  Ni19  1  0.46473200  0.95716100  0.74469200  1
  Ni  Ni20  1  0.53526800  0.04283900  0.25530800  1
  Ni  Ni21  1  0.28231500  0.00737100  0.68483900  1
  Ni  Ni22  1  0.71768500  0.99262900  0.31516100  1
  Ni  Ni23  1  0.79250300  0.28301400  0.52367600  1
  Ni  Ni24  1  0.20749700  0.71698600  0.47632400  1
  Ni  Ni25  1  0.71940800  0.06211400  0.56183900  1
  Ni  Ni26  1  0.28059200  0.93788600  0.43816100  1
  Ni  Ni27  1  0.30714700  0.30702300  0.55067800  1
  Ni  Ni28  1  0.69285300  0.69297700  0.44932200  1
  Ni  Ni29  1  0.24688600  0.48461900  0.61793200  1
  Ni  Ni30  1  0.75311400  0.51538100  0.38206800  1
  Cu  Cu31  1  0.35984900  0.59553500  0.83330400  1
  Cu  Cu32  1  0.64015100  0.40446500  0.16669600  1
  Cu  Cu33  1  0.90844000  0.76144900  0.61353000  1
  Cu  Cu34  1  0.09156000  0.23855100  0.38647000  1
  C  C35  1  0.48024700  0.43872900  0.78870900  1
  C  C36  1  0.51975300  0.56127100  0.21129100  1
  C  C37  1  0.15514500  0.58249900  0.78732500  1
  C  C38  1  0.84485500  0.41750100  0.21267500  1
  C  C39  1  0.48631700  0.81026200  0.82915400  1
  C  C40  1  0.51368300  0.18973800  0.17084600  1
  C  C41  1  0.33261200  0.54115700  0.92215300  1
  C  C42  1  0.66738800  0.45884300  0.07784700  1
  C  C43  1  0.76172000  0.61857300  0.66758500  1
  C  C44  1  0.23828000  0.38142700  0.33241500  1
  C  C45  1  0.07258000  0.65057500  0.57581900  1
  C  C46  1  0.92742000  0.34942500  0.42418100  1
  C  C47  1  0.77886300  0.82686500  0.54554800  1
  C  C48  1  0.22113700  0.17313500  0.45445200  1
  C  C49  1  0.00564100  0.94615300  0.67074000  1
  C  C50  1  0.99435900  0.05384700  0.32926000  1
  C  C51  1  0.88144400  0.25383600  0.95237400  1
  C  C52  1  0.11855600  0.74616400  0.04762600  1
  C  C53  1  0.30319700  0.11756400  0.94893100  1
  C  C54  1  0.69680300  0.88243600  0.05106900  1
  C  C55  1  0.09375100  0.17399500  0.11745100  1
  C  C56  1  0.90624900  0.82600500  0.88254900  1
  C  C57  1  0.84214900  0.25873700  0.74774200  1
  C  C58  1  0.15785100  0.74126300  0.25225800  1
  C  C59  1  0.43797100  0.03893300  0.69589900  1
  C  C60  1  0.56202900  0.96106700  0.30410100  1
  C  C61  1  0.70028400  0.21212300  0.56731100  1
  C  C62  1  0.29971600  0.78787700  0.43268900  1
  C  C63  1  0.33750100  0.37718000  0.60959200  1
  C  C64  1  0.66249900  0.62282000  0.39040800  1
