# generated using pymatgen
data_CuNiC24
_symmetry_space_group_name_H-M   'P 1'
_cell_length_a   6.50969498
_cell_length_b   6.50969462
_cell_length_c   6.50969490
_cell_angle_alpha   96.78709749
_cell_angle_beta   96.78709877
_cell_angle_gamma   96.78709597
_symmetry_Int_Tables_number   1
_chemical_formula_structural   CuNiC24
_chemical_formula_sum   'Cu1 Ni1 C24'
_cell_volume   269.54909632
_cell_formula_units_Z   1
loop_
 _symmetry_equiv_pos_site_id
 _symmetry_equiv_pos_as_xyz
  1  'x, y, z'
loop_
 _atom_site_type_symbol
 _atom_site_label
 _atom_site_symmetry_multiplicity
 _atom_site_fract_x
 _atom_site_fract_y
 _atom_site_fract_z
 _atom_site_occupancy
  Ni  Ni0  1  0.00000000  0.00000000  0.00000000  1
  Cu  Cu1  1  0.50000000  0.50000000  0.50000000  1
  C  C2  1  0.05602100  0.20056700  0.39262900  1
  C  C3  1  0.18334300  0.81269300  0.69771100  1
  C  C4  1  0.18730700  0.30228900  0.81665700  1
  C  C5  1  0.20056700  0.39262900  0.05602100  1
  C  C6  1  0.30228900  0.81665700  0.18730700  1
  C  C7  1  0.39262900  0.05602100  0.20056700  1
  C  C8  1  0.60737100  0.94397900  0.79943300  1
  C  C9  1  0.69771100  0.18334300  0.81269300  1
  C  C10  1  0.79943300  0.60737100  0.94397900  1
  C  C11  1  0.81269300  0.69771100  0.18334300  1
  C  C12  1  0.81665700  0.18730700  0.30228900  1
  C  C13  1  0.94397900  0.79943300  0.60737100  1
  C  C14  1  0.05808100  0.88197800  0.70638400  1
  C  C15  1  0.11802200  0.29361600  0.94191900  1
  C  C16  1  0.29361600  0.94191900  0.11802200  1
  C  C17  1  0.70638400  0.05808100  0.88197800  1
  C  C18  1  0.88197800  0.70638400  0.05808100  1
  C  C19  1  0.94191900  0.11802200  0.29361600  1
  C  C20  1  0.26498200  0.34914500  0.56353000  1
  C  C21  1  0.34914500  0.56353000  0.26498200  1
  C  C22  1  0.43647000  0.73501800  0.65085500  1
  C  C23  1  0.56353000  0.26498200  0.34914500  1
  C  C24  1  0.65085500  0.43647000  0.73501800  1
  C  C25  1  0.73501800  0.65085500  0.43647000  1
