# generated using pymatgen
data_Cu8Ni2C
_symmetry_space_group_name_H-M   'P 1'
_cell_length_a   8.25306410
_cell_length_b   8.25306410
_cell_length_c   8.25306410
_cell_angle_alpha   124.12521509
_cell_angle_beta   124.12521509
_cell_angle_gamma   82.99206992
_symmetry_Int_Tables_number   1
_chemical_formula_structural   Cu8Ni2C
_chemical_formula_sum   'Cu32 Ni8 C4'
_cell_volume   369.67457134
_cell_formula_units_Z   4
loop_
 _symmetry_equiv_pos_site_id
 _symmetry_equiv_pos_as_xyz
  1  'x, y, z'
loop_
 _atom_site_type_symbol
 _atom_site_label
 _atom_site_symmetry_multiplicity
 _atom_site_fract_x
 _atom_site_fract_y
 _atom_site_fract_z
 _atom_site_occupancy
  C  C0  1  0.25000000  0.25000000  0.00000000  1
  C  C1  1  0.75000000  0.75000000  0.00000000  1
  C  C2  1  0.50000000  0.00000000  0.50000000  1
  C  C3  1  0.00000000  0.50000000  0.50000000  1
  Ni  Ni4  1  0.59206800  0.37500000  0.71706800  1
  Ni  Ni5  1  0.09206800  0.37500000  0.21706800  1
  Ni  Ni6  1  0.65793200  0.87500000  0.28293200  1
  Ni  Ni7  1  0.15793200  0.87500000  0.78293200  1
  Ni  Ni8  1  0.62500000  0.34206800  0.21706800  1
  Ni  Ni9  1  0.62500000  0.84206800  0.71706800  1
  Ni  Ni10  1  0.12500000  0.40793200  0.78293200  1
  Ni  Ni11  1  0.12500000  0.90793200  0.28293200  1
  Cu  Cu12  1  0.60624700  0.29698600  0.81346000  1
  Cu  Cu13  1  0.10624700  0.29278700  0.30926100  1
  Cu  Cu14  1  0.26647400  0.45721300  0.31346000  1
  Cu  Cu15  1  0.76647400  0.45301400  0.80926100  1
  Cu  Cu16  1  0.48352600  0.79278700  0.18654000  1
  Cu  Cu17  1  0.98352600  0.79698600  0.69073900  1
  Cu  Cu18  1  0.14375300  0.95301400  0.68654000  1
  Cu  Cu19  1  0.64375300  0.95721300  0.19073900  1
  Cu  Cu20  1  0.70301400  0.51647400  0.30926100  1
  Cu  Cu21  1  0.70721300  0.01647400  0.81346000  1
  Cu  Cu22  1  0.54278700  0.85624700  0.80926100  1
  Cu  Cu23  1  0.54698600  0.35624700  0.31346000  1
  Cu  Cu24  1  0.20721300  0.39375300  0.69073900  1
  Cu  Cu25  1  0.20301400  0.89375300  0.18654000  1
  Cu  Cu26  1  0.04698600  0.73352600  0.19073900  1
  Cu  Cu27  1  0.04278700  0.23352600  0.68654000  1
  Cu  Cu28  1  0.49250400  0.49575500  0.75015600  1
  Cu  Cu29  1  0.99250400  0.24234800  0.99674900  1
  Cu  Cu30  1  0.00440000  0.50765200  0.25015600  1
  Cu  Cu31  1  0.50440000  0.25424500  0.49674900  1
  Cu  Cu32  1  0.74560000  0.74234800  0.24984400  1
  Cu  Cu33  1  0.24560000  0.99575500  0.00325100  1
  Cu  Cu34  1  0.25749600  0.75424500  0.74984400  1
  Cu  Cu35  1  0.75749600  0.00765200  0.50325100  1
  Cu  Cu36  1  0.50424500  0.25440000  0.99674900  1
  Cu  Cu37  1  0.75765200  0.75440000  0.75015600  1
  Cu  Cu38  1  0.49234800  0.74250400  0.49674900  1
  Cu  Cu39  1  0.74575500  0.24250400  0.25015600  1
  Cu  Cu40  1  0.25765200  0.50749600  0.00325100  1
  Cu  Cu41  1  0.00424500  0.00749600  0.24984400  1
  Cu  Cu42  1  0.24575500  0.99560000  0.50325100  1
  Cu  Cu43  1  0.99234800  0.49560000  0.74984400  1
