# generated using pymatgen
data_Cu(NiC)3
_symmetry_space_group_name_H-M   'P 1'
_cell_length_a   7.59946838
_cell_length_b   7.59946838
_cell_length_c   7.59946838
_cell_angle_alpha   120.19743985
_cell_angle_beta   119.81470950
_cell_angle_gamma   89.98979831
_symmetry_Int_Tables_number   1
_chemical_formula_structural   Cu(NiC)3
_chemical_formula_sum   'Cu2 Ni6 C6'
_cell_volume   310.30494479
_cell_formula_units_Z   2
loop_
 _symmetry_equiv_pos_site_id
 _symmetry_equiv_pos_as_xyz
  1  'x, y, z'
loop_
 _atom_site_type_symbol
 _atom_site_label
 _atom_site_symmetry_multiplicity
 _atom_site_fract_x
 _atom_site_fract_y
 _atom_site_fract_z
 _atom_site_occupancy
  C  C0  1  0.62971600  0.37922300  0.74950700  1
  C  C1  1  0.62971600  0.88020800  0.25049300  1
  C  C2  1  0.63374500  0.37501800  0.25872700  1
  C  C3  1  0.11629000  0.37501800  0.74127300  1
  C  C4  1  0.25199100  0.75199100  0.50000000  1
  C  C5  1  0.98902000  0.98902000  0.00000000  1
  Ni  Ni6  1  0.86077000  0.13882800  0.72194200  1
  Ni  Ni7  1  0.41688600  0.13882800  0.27805800  1
  Ni  Ni8  1  0.39273800  0.60932800  0.21659000  1
  Ni  Ni9  1  0.39273800  0.17614800  0.78341000  1
  Ni  Ni10  1  0.39041100  0.61125200  0.77915900  1
  Ni  Ni11  1  0.83209300  0.61125200  0.22084100  1
  Cu  Cu12  1  0.85694300  0.14253900  0.28559600  1
  Cu  Cu13  1  0.85694300  0.57134700  0.71440400  1
