# generated using pymatgen
data_Cu6Ni3C11
_symmetry_space_group_name_H-M   'P 1'
_cell_length_a   10.24005600
_cell_length_b   10.24005600
_cell_length_c   5.15506200
_cell_angle_alpha   90.00000000
_cell_angle_beta   90.00000000
_cell_angle_gamma   90.00000000
_symmetry_Int_Tables_number   1
_chemical_formula_structural   Cu6Ni3C11
_chemical_formula_sum   'Cu12 Ni6 C22'
_cell_volume   540.55334142
_cell_formula_units_Z   2
loop_
 _symmetry_equiv_pos_site_id
 _symmetry_equiv_pos_as_xyz
  1  'x, y, z'
loop_
 _atom_site_type_symbol
 _atom_site_label
 _atom_site_symmetry_multiplicity
 _atom_site_fract_x
 _atom_site_fract_y
 _atom_site_fract_z
 _atom_site_occupancy
  Ni  Ni0  1  0.31430300  0.81430300  0.95226900  1
  Ni  Ni1  1  0.68569700  0.18569700  0.95226900  1
  Ni  Ni2  1  0.18569700  0.31430300  0.95226900  1
  Ni  Ni3  1  0.81430300  0.68569700  0.95226900  1
  Ni  Ni4  1  0.50000000  0.50000000  0.96554300  1
  Ni  Ni5  1  0.00000000  0.00000000  0.96554300  1
  Cu  Cu6  1  0.41961800  0.29139000  0.52778700  1
  Cu  Cu7  1  0.58038200  0.70861000  0.52778700  1
  Cu  Cu8  1  0.08038200  0.79139000  0.52778700  1
  Cu  Cu9  1  0.91961800  0.20861000  0.52778700  1
  Cu  Cu10  1  0.29139000  0.58038200  0.52778700  1
  Cu  Cu11  1  0.70861000  0.41961800  0.52778700  1
  Cu  Cu12  1  0.79139000  0.91961800  0.52778700  1
  Cu  Cu13  1  0.20861000  0.08038200  0.52778700  1
  Cu  Cu14  1  0.87894000  0.37894000  0.04071000  1
  Cu  Cu15  1  0.12106000  0.62106000  0.04071000  1
  Cu  Cu16  1  0.62106000  0.87894000  0.04071000  1
  Cu  Cu17  1  0.37894000  0.12106000  0.04071000  1
  C  C18  1  0.31848800  0.42109100  0.68346700  1
  C  C19  1  0.68151200  0.57890900  0.68346700  1
  C  C20  1  0.18151200  0.92109100  0.68346700  1
  C  C21  1  0.81848800  0.07890900  0.68346700  1
  C  C22  1  0.42109100  0.68151200  0.68346700  1
  C  C23  1  0.57890900  0.31848800  0.68346700  1
  C  C24  1  0.92109100  0.81848800  0.68346700  1
  C  C25  1  0.07890900  0.18151200  0.68346700  1
  C  C26  1  0.40140300  0.29503000  0.16904700  1
  C  C27  1  0.59859700  0.70497000  0.16904700  1
  C  C28  1  0.09859700  0.79503000  0.16904700  1
  C  C29  1  0.90140300  0.20497000  0.16904700  1
  C  C30  1  0.29503000  0.59859700  0.16904700  1
  C  C31  1  0.70497000  0.40140300  0.16904700  1
  C  C32  1  0.79503000  0.90140300  0.16904700  1
  C  C33  1  0.20497000  0.09859700  0.16904700  1
  C  C34  1  0.85950500  0.35950500  0.68217800  1
  C  C35  1  0.14049500  0.64049500  0.68217800  1
  C  C36  1  0.64049500  0.85950500  0.68217800  1
  C  C37  1  0.35950500  0.14049500  0.68217800  1
  C  C38  1  0.50000000  0.00000000  0.13148300  1
  C  C39  1  0.00000000  0.50000000  0.13148300  1
