# generated using pymatgen
data_Cu(Ni3C4)4
_symmetry_space_group_name_H-M   'P 1'
_cell_length_a   9.17364775
_cell_length_b   9.17364775
_cell_length_c   9.17364775
_cell_angle_alpha   109.47122063
_cell_angle_beta   109.47122063
_cell_angle_gamma   109.47122063
_symmetry_Int_Tables_number   1
_chemical_formula_structural   Cu(Ni3C4)4
_chemical_formula_sum   'Cu1 Ni12 C16'
_cell_volume   594.29802905
_cell_formula_units_Z   1
loop_
 _symmetry_equiv_pos_site_id
 _symmetry_equiv_pos_as_xyz
  1  'x, y, z'
loop_
 _atom_site_type_symbol
 _atom_site_label
 _atom_site_symmetry_multiplicity
 _atom_site_fract_x
 _atom_site_fract_y
 _atom_site_fract_z
 _atom_site_occupancy
  C  C0  1  0.31521200  0.60008200  0.00000000  1
  C  C1  1  0.60008200  0.31521200  0.00000000  1
  C  C2  1  0.00000000  0.35031900  0.00000000  1
  C  C3  1  0.35031900  0.00000000  0.00000000  1
  C  C4  1  0.39991800  0.39991800  0.71513000  1
  C  C5  1  0.28487000  0.68478800  0.68478800  1
  C  C6  1  0.68478800  0.28487000  0.68478800  1
  C  C7  1  0.64968100  0.64968100  0.64968100  1
  C  C8  1  0.31521200  0.00000000  0.60008200  1
  C  C9  1  0.00000000  0.31521200  0.60008200  1
  C  C10  1  0.71513000  0.39991800  0.39991800  1
  C  C11  1  0.39991800  0.71513000  0.39991800  1
  C  C12  1  0.00000000  0.00000000  0.35031900  1
  C  C13  1  0.00000000  0.60008200  0.31521200  1
  C  C14  1  0.60008200  0.00000000  0.31521200  1
  C  C15  1  0.68478800  0.68478800  0.28487000  1
  Ni  Ni16  1  0.62743300  0.81191900  0.00000000  1
  Ni  Ni17  1  0.81191900  0.62743300  0.00000000  1
  Ni  Ni18  1  0.18808100  0.18808100  0.81551400  1
  Ni  Ni19  1  0.00000000  0.62743300  0.81191900  1
  Ni  Ni20  1  0.62743300  0.00000000  0.81191900  1
  Ni  Ni21  1  0.00000000  0.81191900  0.62743300  1
  Ni  Ni22  1  0.81191900  0.00000000  0.62743300  1
  Ni  Ni23  1  0.37256700  0.18448600  0.37256700  1
  Ni  Ni24  1  0.18448600  0.37256700  0.37256700  1
  Ni  Ni25  1  0.81551400  0.18808100  0.18808100  1
  Ni  Ni26  1  0.18808100  0.81551400  0.18808100  1
  Ni  Ni27  1  0.37256700  0.37256700  0.18448600  1
  Cu  Cu28  1  0.00000000  0.00000000  0.00000000  1
