# generated using pymatgen
data_Cu3Ni5C52
_symmetry_space_group_name_H-M   'P 1'
_cell_length_a   14.18770600
_cell_length_b   4.98616800
_cell_length_c   24.10953098
_cell_angle_alpha   90.00000000
_cell_angle_beta   90.31353274
_cell_angle_gamma   90.00000000
_symmetry_Int_Tables_number   1
_chemical_formula_structural   Cu3Ni5C52
_chemical_formula_sum   'Cu6 Ni10 C104'
_cell_volume   1705.53779094
_cell_formula_units_Z   2
loop_
 _symmetry_equiv_pos_site_id
 _symmetry_equiv_pos_as_xyz
  1  'x, y, z'
loop_
 _atom_site_type_symbol
 _atom_site_label
 _atom_site_symmetry_multiplicity
 _atom_site_fract_x
 _atom_site_fract_y
 _atom_site_fract_z
 _atom_site_occupancy
  Ni  Ni0  1  0.50000000  0.20787300  0.25000000  1
  Ni  Ni1  1  0.50000000  0.79212700  0.75000000  1
  Ni  Ni2  1  0.38780500  0.74210400  0.54607600  1
  Ni  Ni3  1  0.61219500  0.74210400  0.95392400  1
  Ni  Ni4  1  0.61219500  0.25789600  0.45392400  1
  Ni  Ni5  1  0.38780500  0.25789600  0.04607600  1
  Ni  Ni6  1  0.92528200  0.21311600  0.43547200  1
  Ni  Ni7  1  0.07471800  0.21311600  0.06452800  1
  Ni  Ni8  1  0.07471800  0.78688400  0.56452800  1
  Ni  Ni9  1  0.92528200  0.78688400  0.93547200  1
  Cu  Cu10  1  0.74475700  0.25640300  0.85097200  1
  Cu  Cu11  1  0.25524300  0.25640300  0.64902800  1
  Cu  Cu12  1  0.25524300  0.74359700  0.14902800  1
  Cu  Cu13  1  0.74475700  0.74359700  0.35097200  1
  Cu  Cu14  1  0.00000000  0.14463300  0.25000000  1
  Cu  Cu15  1  0.00000000  0.85536700  0.75000000  1
  C  C16  1  0.21338000  0.77152400  0.41931700  1
  C  C17  1  0.78662000  0.77152400  0.08068300  1
  C  C18  1  0.78662000  0.22847600  0.58068300  1
  C  C19  1  0.21338000  0.22847600  0.91931700  1
  C  C20  1  0.28236500  0.72739400  0.30394400  1
  C  C21  1  0.71763500  0.72739400  0.19605600  1
  C  C22  1  0.71763500  0.27260600  0.69605600  1
  C  C23  1  0.28236500  0.27260600  0.80394400  1
  C  C24  1  0.35184300  0.27424500  0.38632700  1
  C  C25  1  0.64815700  0.27424500  0.11367300  1
  C  C26  1  0.64815700  0.72575500  0.61367300  1
  C  C27  1  0.35184300  0.72575500  0.88632700  1
  C  C28  1  0.15242600  0.21785100  0.34478200  1
  C  C29  1  0.84757400  0.21785100  0.15521800  1
  C  C30  1  0.84757400  0.78214900  0.65521800  1
  C  C31  1  0.15242600  0.78214900  0.84478200  1
  C  C32  1  0.25267100  0.23312500  0.22430200  1
  C  C33  1  0.74732900  0.23312500  0.27569800  1
  C  C34  1  0.74732900  0.76687500  0.77569800  1
  C  C35  1  0.25267100  0.76687500  0.72430200  1
  C  C36  1  0.22846600  0.25544600  0.49832100  1
  C  C37  1  0.77153400  0.25544600  0.00167900  1
  C  C38  1  0.77153400  0.74455400  0.50167900  1
  C  C39  1  0.22846600  0.74455400  0.99832100  1
  C  C40  1  0.48508800  0.76442800  0.37639600  1
  C  C41  1  0.51491200  0.76442800  0.12360400  1
  C  C42  1  0.51491200  0.23557200  0.62360400  1
  C  C43  1  0.48508800  0.23557200  0.87639600  1
  C  C44  1  0.01399300  0.70257200  0.35486700  1
  C  C45  1  0.98600700  0.70257200  0.14513300  1
  C  C46  1  0.98600700  0.29742800  0.64513300  1
  C  C47  1  0.01399300  0.29742800  0.85486700  1
  C  C48  1  0.25147600  0.26499800  0.16317300  1
  C  C49  1  0.74852400  0.26499800  0.33682700  1
  C  C50  1  0.74852400  0.73500200  0.83682700  1
  C  C51  1  0.25147600  0.73500200  0.66317300  1
  C  C52  1  0.29467900  0.95955800  0.23613600  1
  C  C53  1  0.70532100  0.95955800  0.26386400  1
  C  C54  1  0.70532100  0.04044200  0.76386400  1
  C  C55  1  0.29467900  0.04044200  0.73613600  1
  C  C56  1  0.31823300  0.43657900  0.24998500  1
  C  C57  1  0.68176700  0.43657900  0.25001500  1
  C  C58  1  0.68176700  0.56342100  0.75001500  1
  C  C59  1  0.31823300  0.56342100  0.74998500  1
  C  C60  1  0.15847300  0.25994900  0.24867200  1
  C  C61  1  0.84152700  0.25994900  0.25132800  1
  C  C62  1  0.84152700  0.74005100  0.75132800  1
  C  C63  1  0.15847300  0.74005100  0.74867200  1
  C  C64  1  0.16209400  0.09559000  0.46197400  1
  C  C65  1  0.83790600  0.09559000  0.03802600  1
  C  C66  1  0.83790600  0.90441000  0.53802600  1
  C  C67  1  0.16209400  0.90441000  0.96197400  1
  C  C68  1  0.32722600  0.19562600  0.48309500  1
  C  C69  1  0.67277400  0.19562600  0.01690500  1
  C  C70  1  0.67277400  0.80437400  0.51690500  1
  C  C71  1  0.32722600  0.80437400  0.98309500  1
  C  C72  1  0.21022200  0.19115200  0.55705400  1
  C  C73  1  0.78977800  0.19115200  0.94294600  1
  C  C74  1  0.78977800  0.80884800  0.44294600  1
  C  C75  1  0.21022200  0.80884800  0.05705400  1
  C  C76  1  0.20798000  0.55120900  0.49021200  1
  C  C77  1  0.79202000  0.55120900  0.00978800  1
  C  C78  1  0.79202000  0.44879100  0.50978800  1
  C  C79  1  0.20798000  0.44879100  0.99021200  1
  C  C80  1  0.45700600  0.71089300  0.31831000  1
  C  C81  1  0.54299400  0.71089300  0.18169000  1
  C  C82  1  0.54299400  0.28910700  0.68169000  1
  C  C83  1  0.45700600  0.28910700  0.81831000  1
  C  C84  1  0.03405700  0.72744400  0.41527300  1
  C  C85  1  0.96594300  0.72744400  0.08472700  1
  C  C86  1  0.96594300  0.27255600  0.58472700  1
  C  C87  1  0.03405700  0.27255600  0.91527300  1
  C  C88  1  0.91631300  0.76915900  0.34105400  1
  C  C89  1  0.08368700  0.76915900  0.15894600  1
  C  C90  1  0.08368700  0.23084100  0.65894600  1
  C  C91  1  0.91631300  0.23084100  0.84105400  1
  C  C92  1  0.58617200  0.71845000  0.38696500  1
  C  C93  1  0.41382800  0.71845000  0.11303500  1
  C  C94  1  0.41382800  0.28155000  0.61303500  1
  C  C95  1  0.58617200  0.28155000  0.88696500  1
  C  C96  1  0.42784300  0.59228400  0.41559400  1
  C  C97  1  0.57215700  0.59228400  0.08440600  1
  C  C98  1  0.57215700  0.40771600  0.58440600  1
  C  C99  1  0.42784300  0.40771600  0.91559400  1
  C  C100  1  0.26485000  0.00161300  0.36025400  1
  C  C101  1  0.73515000  0.00161300  0.13974600  1
  C  C102  1  0.73515000  0.99838700  0.63974600  1
  C  C103  1  0.26485000  0.99838700  0.86025400  1
  C  C104  1  0.24576300  0.49461900  0.36607000  1
  C  C105  1  0.75423700  0.49461900  0.13393000  1
  C  C106  1  0.75423700  0.50538100  0.63393000  1
  C  C107  1  0.24576300  0.50538100  0.86607000  1
  C  C108  1  0.46675700  0.05686500  0.39069400  1
  C  C109  1  0.53324300  0.05686500  0.10930600  1
  C  C110  1  0.53324300  0.94313500  0.60930600  1
  C  C111  1  0.46675700  0.94313500  0.89069400  1
  C  C112  1  0.03242200  0.41410200  0.33757600  1
  C  C113  1  0.96757800  0.41410200  0.16242400  1
  C  C114  1  0.96757800  0.58589800  0.66242400  1
  C  C115  1  0.03242200  0.58589800  0.83757600  1
  C  C116  1  0.08013900  0.87890200  0.32216000  1
  C  C117  1  0.91986100  0.87890200  0.17784000  1
  C  C118  1  0.91986100  0.12109800  0.67784000  1
  C  C119  1  0.08013900  0.12109800  0.82216000  1
