# generated using pymatgen
data_CuNi3C2
_symmetry_space_group_name_H-M   'P 1'
_cell_length_a   3.45610635
_cell_length_b   3.45610635
_cell_length_c   39.33774400
_cell_angle_alpha   90.00000000
_cell_angle_beta   90.00000000
_cell_angle_gamma   120.00000673
_symmetry_Int_Tables_number   1
_chemical_formula_structural   CuNi3C2
_chemical_formula_sum   'Cu2 Ni6 C4'
_cell_volume   406.92488391
_cell_formula_units_Z   2
loop_
 _symmetry_equiv_pos_site_id
 _symmetry_equiv_pos_as_xyz
  1  'x, y, z'
loop_
 _atom_site_type_symbol
 _atom_site_label
 _atom_site_symmetry_multiplicity
 _atom_site_fract_x
 _atom_site_fract_y
 _atom_site_fract_z
 _atom_site_occupancy
  Ni  Ni0  1  0.00000000  0.00000000  0.32894100  1
  Ni  Ni1  1  0.00000000  0.00000000  0.70456300  1
  Ni  Ni2  1  0.33333300  0.66666700  0.42244800  1
  Ni  Ni3  1  0.33333300  0.66666700  0.51685500  1
  Ni  Ni4  1  0.00000000  0.00000000  0.23448400  1
  Ni  Ni5  1  0.00000000  0.00000000  0.61060800  1
  C  C6  1  0.00000000  0.00000000  0.09396000  1
  C  C7  1  0.33333300  0.66666700  0.65760300  1
  C  C8  1  0.00000000  0.00000000  0.46965600  1
  C  C9  1  0.33333300  0.66666700  0.28171800  1
  Cu  Cu10  1  0.33333300  0.66666700  0.05611100  1
  Cu  Cu11  1  0.33333300  0.66666700  0.13180100  1
