# generated using pymatgen
data_Cu18Ni3C7
_symmetry_space_group_name_H-M   'P 1'
_cell_length_a   16.40249444
_cell_length_b   16.40249444
_cell_length_c   4.25098300
_cell_angle_alpha   90.00000000
_cell_angle_beta   90.00000000
_cell_angle_gamma   120.00000178
_symmetry_Int_Tables_number   1
_chemical_formula_structural   Cu18Ni3C7
_chemical_formula_sum   'Cu36 Ni6 C14'
_cell_volume   990.46649865
_cell_formula_units_Z   2
loop_
 _symmetry_equiv_pos_site_id
 _symmetry_equiv_pos_as_xyz
  1  'x, y, z'
loop_
 _atom_site_type_symbol
 _atom_site_label
 _atom_site_symmetry_multiplicity
 _atom_site_fract_x
 _atom_site_fract_y
 _atom_site_fract_z
 _atom_site_occupancy
  C  C0  1  0.14915400  0.91404400  0.75000000  1
  C  C1  1  0.08595600  0.23511000  0.75000000  1
  C  C2  1  0.76489000  0.85084600  0.75000000  1
  C  C3  1  0.85084600  0.08595600  0.25000000  1
  C  C4  1  0.91404400  0.76489000  0.25000000  1
  C  C5  1  0.23511000  0.14915400  0.25000000  1
  C  C6  1  0.45637200  0.31539300  0.75000000  1
  C  C7  1  0.68460700  0.14097900  0.75000000  1
  C  C8  1  0.85902100  0.54362800  0.75000000  1
  C  C9  1  0.54362800  0.68460700  0.25000000  1
  C  C10  1  0.31539300  0.85902100  0.25000000  1
  C  C11  1  0.14097900  0.45637200  0.25000000  1
  C  C12  1  0.33333300  0.66666700  0.75000000  1
  C  C13  1  0.66666700  0.33333300  0.25000000  1
  Ni  Ni14  1  0.45164800  0.10606600  0.75000000  1
  Ni  Ni15  1  0.89393400  0.34558300  0.75000000  1
  Ni  Ni16  1  0.65441700  0.54835200  0.75000000  1
  Ni  Ni17  1  0.54835200  0.89393400  0.25000000  1
  Ni  Ni18  1  0.10606600  0.65441700  0.25000000  1
  Ni  Ni19  1  0.34558300  0.45164800  0.25000000  1
  Cu  Cu20  1  0.55682300  0.23754800  0.75000000  1
  Cu  Cu21  1  0.76245200  0.31927500  0.75000000  1
  Cu  Cu22  1  0.68072500  0.44317700  0.75000000  1
  Cu  Cu23  1  0.44317700  0.76245200  0.25000000  1
  Cu  Cu24  1  0.23754800  0.68072500  0.25000000  1
  Cu  Cu25  1  0.31927500  0.55682300  0.25000000  1
  Cu  Cu26  1  0.29441500  0.25977300  0.75000000  1
  Cu  Cu27  1  0.74022700  0.03464200  0.75000000  1
  Cu  Cu28  1  0.96535800  0.70558500  0.75000000  1
  Cu  Cu29  1  0.70558500  0.74022700  0.25000000  1
  Cu  Cu30  1  0.25977300  0.96535800  0.25000000  1
  Cu  Cu31  1  0.03464200  0.29441500  0.25000000  1
  Cu  Cu32  1  0.15059500  0.13186200  0.75000000  1
  Cu  Cu33  1  0.86813800  0.01873300  0.75000000  1
  Cu  Cu34  1  0.98126700  0.84940500  0.75000000  1
  Cu  Cu35  1  0.84940500  0.86813800  0.25000000  1
  Cu  Cu36  1  0.13186200  0.98126700  0.25000000  1
  Cu  Cu37  1  0.01873300  0.15059500  0.25000000  1
  Cu  Cu38  1  0.27203700  0.09204000  0.75000000  1
  Cu  Cu39  1  0.90796000  0.17999700  0.75000000  1
  Cu  Cu40  1  0.82000300  0.72796300  0.75000000  1
  Cu  Cu41  1  0.72796300  0.90796000  0.25000000  1
  Cu  Cu42  1  0.09204000  0.82000300  0.25000000  1
  Cu  Cu43  1  0.17999700  0.27203700  0.25000000  1
  Cu  Cu44  1  0.36719400  0.82789400  0.75000000  1
  Cu  Cu45  1  0.17210600  0.53929900  0.75000000  1
  Cu  Cu46  1  0.46070100  0.63280600  0.75000000  1
  Cu  Cu47  1  0.63280600  0.17210600  0.25000000  1
  Cu  Cu48  1  0.82789400  0.46070100  0.25000000  1
  Cu  Cu49  1  0.53929900  0.36719400  0.25000000  1
  Cu  Cu50  1  0.23255500  0.82560600  0.75000000  1
  Cu  Cu51  1  0.17439400  0.40694900  0.75000000  1
  Cu  Cu52  1  0.59305100  0.76744500  0.75000000  1
  Cu  Cu53  1  0.76744500  0.17439400  0.25000000  1
  Cu  Cu54  1  0.82560600  0.59305100  0.25000000  1
  Cu  Cu55  1  0.40694900  0.23255500  0.25000000  1
