# generated using pymatgen
data_Cu4NiC18
_symmetry_space_group_name_H-M   'P 1'
_cell_length_a   8.45215346
_cell_length_b   8.45215346
_cell_length_c   7.57164500
_cell_angle_alpha   90.00000000
_cell_angle_beta   90.00000000
_cell_angle_gamma   93.06055184
_symmetry_Int_Tables_number   1
_chemical_formula_structural   Cu4NiC18
_chemical_formula_sum   'Cu8 Ni2 C36'
_cell_volume   540.13845783
_cell_formula_units_Z   2
loop_
 _symmetry_equiv_pos_site_id
 _symmetry_equiv_pos_as_xyz
  1  'x, y, z'
loop_
 _atom_site_type_symbol
 _atom_site_label
 _atom_site_symmetry_multiplicity
 _atom_site_fract_x
 _atom_site_fract_y
 _atom_site_fract_z
 _atom_site_occupancy
  C  C0  1  0.00903100  0.09325800  0.31187200  1
  C  C1  1  0.09325800  0.00903100  0.68812800  1
  C  C2  1  0.50903100  0.59325800  0.68812800  1
  C  C3  1  0.59325800  0.50903100  0.31187200  1
  C  C4  1  0.92674400  0.17509100  0.50941000  1
  C  C5  1  0.17509100  0.92674400  0.49059000  1
  C  C6  1  0.42674400  0.67509100  0.49059000  1
  C  C7  1  0.67509100  0.42674400  0.50941000  1
  C  C8  1  0.79862200  0.08222400  0.34458100  1
  C  C9  1  0.08222400  0.79862200  0.65541900  1
  C  C10  1  0.29862200  0.58222400  0.65541900  1
  C  C11  1  0.58222400  0.29862200  0.34458100  1
  C  C12  1  0.00239100  0.80575300  0.27084400  1
  C  C13  1  0.80575300  0.00239100  0.72915600  1
  C  C14  1  0.50239100  0.30575300  0.72915600  1
  C  C15  1  0.30575300  0.50239100  0.27084400  1
  C  C16  1  0.79206300  0.79983100  0.30022500  1
  C  C17  1  0.79983100  0.79206300  0.69977500  1
  C  C18  1  0.29206300  0.29983100  0.69977500  1
  C  C19  1  0.29983100  0.29206300  0.30022500  1
  C  C20  1  0.91299800  0.67864100  0.43771700  1
  C  C21  1  0.67864100  0.91299800  0.56228300  1
  C  C22  1  0.41299800  0.17864100  0.56228300  1
  C  C23  1  0.17864100  0.41299800  0.43771700  1
  C  C24  1  0.94802900  0.44802900  0.94219200  1
  C  C25  1  0.44802900  0.94802900  0.05780800  1
  C  C26  1  0.91408100  0.08067700  0.41000100  1
  C  C27  1  0.08067700  0.91408100  0.58999900  1
  C  C28  1  0.41408100  0.58067700  0.58999900  1
  C  C29  1  0.58067700  0.41408100  0.41000100  1
  C  C30  1  0.90601400  0.79139400  0.36732100  1
  C  C31  1  0.79139400  0.90601400  0.63267900  1
  C  C32  1  0.40601400  0.29139400  0.63267900  1
  C  C33  1  0.29139400  0.40601400  0.36732100  1
  Ni  Ni34  1  0.92344700  0.92344700  0.50000000  1
  Ni  Ni35  1  0.42344700  0.42344700  0.50000000  1
  Cu  Cu36  1  0.96019600  0.46019600  0.17232100  1
  Cu  Cu37  1  0.46019600  0.96019600  0.82767900  1
  Cu  Cu38  1  0.79945900  0.29945900  0.91721100  1
  Cu  Cu39  1  0.29945900  0.79945900  0.08278900  1
  Cu  Cu40  1  0.89413600  0.64050700  0.89916300  1
  Cu  Cu41  1  0.64050700  0.89413600  0.10083700  1
  Cu  Cu42  1  0.39413600  0.14050700  0.10083700  1
  Cu  Cu43  1  0.14050700  0.39413600  0.89916300  1
  C  C44  1  0.94374400  0.44374400  0.65915400  1
  C  C45  1  0.44374400  0.94374400  0.34084600  1
