# generated using pymatgen
data_Cu3Ni2C3
_symmetry_space_group_name_H-M   'P 1'
_cell_length_a   5.51782054
_cell_length_b   5.51782054
_cell_length_c   13.32083800
_cell_angle_alpha   90.00000000
_cell_angle_beta   90.00000000
_cell_angle_gamma   137.16035209
_symmetry_Int_Tables_number   1
_chemical_formula_structural   Cu3Ni2C3
_chemical_formula_sum   'Cu6 Ni4 C6'
_cell_volume   275.76741478
_cell_formula_units_Z   2
loop_
 _symmetry_equiv_pos_site_id
 _symmetry_equiv_pos_as_xyz
  1  'x, y, z'
loop_
 _atom_site_type_symbol
 _atom_site_label
 _atom_site_symmetry_multiplicity
 _atom_site_fract_x
 _atom_site_fract_y
 _atom_site_fract_z
 _atom_site_occupancy
  C  C0  1  0.63850800  0.36149200  0.25000000  1
  C  C1  1  0.36149200  0.63850800  0.75000000  1
  C  C2  1  0.92206500  0.07793500  0.11322100  1
  C  C3  1  0.07793500  0.92206500  0.88677900  1
  C  C4  1  0.07793500  0.92206500  0.61322100  1
  C  C5  1  0.92206500  0.07793500  0.38677900  1
  Ni  Ni6  1  0.78592800  0.21407200  0.58142300  1
  Ni  Ni7  1  0.21407200  0.78592800  0.41857700  1
  Ni  Ni8  1  0.21407200  0.78592800  0.08142300  1
  Ni  Ni9  1  0.78592800  0.21407200  0.91857700  1
  Cu  Cu10  1  0.32920700  0.67079300  0.25000000  1
  Cu  Cu11  1  0.67079300  0.32920700  0.75000000  1
  Cu  Cu12  1  0.62113000  0.37887000  0.03891700  1
  Cu  Cu13  1  0.37887000  0.62113000  0.96108300  1
  Cu  Cu14  1  0.37887000  0.62113000  0.53891700  1
  Cu  Cu15  1  0.62113000  0.37887000  0.46108300  1
