# generated using pymatgen
data_CuNi28C29
_symmetry_space_group_name_H-M   'P 1'
_cell_length_a   9.06671700
_cell_length_b   9.06671700
_cell_length_c   16.01284500
_cell_angle_alpha   90.00000000
_cell_angle_beta   90.00000000
_cell_angle_gamma   90.00000000
_symmetry_Int_Tables_number   1
_chemical_formula_structural   CuNi28C29
_chemical_formula_sum   'Cu2 Ni56 C58'
_cell_volume   1316.34164234
_cell_formula_units_Z   2
loop_
 _symmetry_equiv_pos_site_id
 _symmetry_equiv_pos_as_xyz
  1  'x, y, z'
loop_
 _atom_site_type_symbol
 _atom_site_label
 _atom_site_symmetry_multiplicity
 _atom_site_fract_x
 _atom_site_fract_y
 _atom_site_fract_z
 _atom_site_occupancy
  C  C0  1  0.50000000  0.50000000  0.00000000  1
  C  C1  1  0.00000000  0.00000000  0.50000000  1
  C  C2  1  0.74574300  0.61003500  0.50000000  1
  C  C3  1  0.25425700  0.38996500  0.50000000  1
  C  C4  1  0.75425700  0.11003500  0.00000000  1
  C  C5  1  0.24574300  0.88996500  0.00000000  1
  C  C6  1  0.61003500  0.25425700  0.50000000  1
  C  C7  1  0.38996500  0.74574300  0.50000000  1
  C  C8  1  0.11003500  0.24574300  0.00000000  1
  C  C9  1  0.88996500  0.75425700  0.00000000  1
  C  C10  1  0.58667500  0.72580500  0.31025700  1
  C  C11  1  0.41332500  0.27419500  0.31025700  1
  C  C12  1  0.91332500  0.22580500  0.81025700  1
  C  C13  1  0.08667500  0.77419500  0.81025700  1
  C  C14  1  0.72580500  0.41332500  0.31025700  1
  C  C15  1  0.27419500  0.58667500  0.31025700  1
  C  C16  1  0.22580500  0.08667500  0.81025700  1
  C  C17  1  0.77419500  0.91332500  0.81025700  1
  C  C18  1  0.41332500  0.27419500  0.68974300  1
  C  C19  1  0.58667500  0.72580500  0.68974300  1
  C  C20  1  0.08667500  0.77419500  0.18974300  1
  C  C21  1  0.91332500  0.22580500  0.18974300  1
  C  C22  1  0.27419500  0.58667500  0.68974300  1
  C  C23  1  0.72580500  0.41332500  0.68974300  1
  C  C24  1  0.77419500  0.91332500  0.18974300  1
  C  C25  1  0.22580500  0.08667500  0.18974300  1
  C  C26  1  0.67122500  0.94852300  0.41129500  1
  C  C27  1  0.32877500  0.05147700  0.41129500  1
  C  C28  1  0.82877500  0.44852300  0.91129500  1
  C  C29  1  0.17122500  0.55147700  0.91129500  1
  C  C30  1  0.94852300  0.32877500  0.41129500  1
  C  C31  1  0.05147700  0.67122500  0.41129500  1
  C  C32  1  0.44852300  0.17122500  0.91129500  1
  C  C33  1  0.55147700  0.82877500  0.91129500  1
  C  C34  1  0.32877500  0.05147700  0.58870500  1
  C  C35  1  0.67122500  0.94852300  0.58870500  1
  C  C36  1  0.17122500  0.55147700  0.08870500  1
  C  C37  1  0.82877500  0.44852300  0.08870500  1
  C  C38  1  0.05147700  0.67122500  0.58870500  1
  C  C39  1  0.94852300  0.32877500  0.58870500  1
  C  C40  1  0.55147700  0.82877500  0.08870500  1
  C  C41  1  0.44852300  0.17122500  0.08870500  1
  C  C42  1  0.92583100  0.72187500  0.35120900  1
  C  C43  1  0.07416900  0.27812500  0.35120900  1
  C  C44  1  0.57416900  0.22187500  0.85120900  1
  C  C45  1  0.42583100  0.77812500  0.85120900  1
  C  C46  1  0.72187500  0.07416900  0.35120900  1
  C  C47  1  0.27812500  0.92583100  0.35120900  1
  C  C48  1  0.22187500  0.42583100  0.85120900  1
  C  C49  1  0.77812500  0.57416900  0.85120900  1
  C  C50  1  0.07416900  0.27812500  0.64879100  1
  C  C51  1  0.92583100  0.72187500  0.64879100  1
  C  C52  1  0.42583100  0.77812500  0.14879100  1
  C  C53  1  0.57416900  0.22187500  0.14879100  1
  C  C54  1  0.27812500  0.92583100  0.64879100  1
  C  C55  1  0.72187500  0.07416900  0.64879100  1
  C  C56  1  0.77812500  0.57416900  0.14879100  1
  C  C57  1  0.22187500  0.42583100  0.14879100  1
  Ni  Ni58  1  0.63724500  0.86275500  0.25000000  1
  Ni  Ni59  1  0.36275500  0.13724500  0.25000000  1
  Ni  Ni60  1  0.86275500  0.36275500  0.75000000  1
  Ni  Ni61  1  0.13724500  0.63724500  0.75000000  1
  Ni  Ni62  1  0.86275500  0.36275500  0.25000000  1
  Ni  Ni63  1  0.13724500  0.63724500  0.25000000  1
  Ni  Ni64  1  0.36275500  0.13724500  0.75000000  1
  Ni  Ni65  1  0.63724500  0.86275500  0.75000000  1
  Ni  Ni66  1  0.68990600  0.58416800  0.28218800  1
  Ni  Ni67  1  0.31009400  0.41583200  0.28218800  1
  Ni  Ni68  1  0.81009400  0.08416800  0.78218800  1
  Ni  Ni69  1  0.18990600  0.91583200  0.78218800  1
  Ni  Ni70  1  0.58416800  0.31009400  0.28218800  1
  Ni  Ni71  1  0.41583200  0.68990600  0.28218800  1
  Ni  Ni72  1  0.08416800  0.18990600  0.78218800  1
  Ni  Ni73  1  0.91583200  0.81009400  0.78218800  1
  Ni  Ni74  1  0.31009400  0.41583200  0.71781200  1
  Ni  Ni75  1  0.68990600  0.58416800  0.71781200  1
  Ni  Ni76  1  0.18990600  0.91583200  0.21781200  1
  Ni  Ni77  1  0.81009400  0.08416800  0.21781200  1
  Ni  Ni78  1  0.41583200  0.68990600  0.71781200  1
  Ni  Ni79  1  0.58416800  0.31009400  0.71781200  1
  Ni  Ni80  1  0.91583200  0.81009400  0.21781200  1
  Ni  Ni81  1  0.08416800  0.18990600  0.21781200  1
  Ni  Ni82  1  0.60170600  0.76512300  0.40807700  1
  Ni  Ni83  1  0.39829400  0.23487700  0.40807700  1
  Ni  Ni84  1  0.89829400  0.26512300  0.90807700  1
  Ni  Ni85  1  0.10170600  0.73487700  0.90807700  1
  Ni  Ni86  1  0.76512300  0.39829400  0.40807700  1
  Ni  Ni87  1  0.23487700  0.60170600  0.40807700  1
  Ni  Ni88  1  0.26512300  0.10170600  0.90807700  1
  Ni  Ni89  1  0.73487700  0.89829400  0.90807700  1
  Ni  Ni90  1  0.39829400  0.23487700  0.59192300  1
  Ni  Ni91  1  0.60170600  0.76512300  0.59192300  1
  Ni  Ni92  1  0.10170600  0.73487700  0.09192300  1
  Ni  Ni93  1  0.89829400  0.26512300  0.09192300  1
  Ni  Ni94  1  0.23487700  0.60170600  0.59192300  1
  Ni  Ni95  1  0.76512300  0.39829400  0.59192300  1
  Ni  Ni96  1  0.73487700  0.89829400  0.09192300  1
  Ni  Ni97  1  0.26512300  0.10170600  0.09192300  1
  Ni  Ni98  1  0.94963700  0.71385200  0.41079500  1
  Ni  Ni99  1  0.05036300  0.28614800  0.41079500  1
  Ni  Ni100  1  0.55036300  0.21385200  0.91079500  1
  Ni  Ni101  1  0.44963700  0.78614800  0.91079500  1
  Ni  Ni102  1  0.71385200  0.05036300  0.41079500  1
  Ni  Ni103  1  0.28614800  0.94963700  0.41079500  1
  Ni  Ni104  1  0.21385200  0.44963700  0.91079500  1
  Ni  Ni105  1  0.78614800  0.55036300  0.91079500  1
  Ni  Ni106  1  0.05036300  0.28614800  0.58920500  1
  Ni  Ni107  1  0.94963700  0.71385200  0.58920500  1
  Ni  Ni108  1  0.44963700  0.78614800  0.08920500  1
  Ni  Ni109  1  0.55036300  0.21385200  0.08920500  1
  Ni  Ni110  1  0.28614800  0.94963700  0.58920500  1
  Ni  Ni111  1  0.71385200  0.05036300  0.58920500  1
  Ni  Ni112  1  0.78614800  0.55036300  0.08920500  1
  Ni  Ni113  1  0.21385200  0.44963700  0.08920500  1
  Cu  Cu114  1  0.50000000  0.50000000  0.50000000  1
  Cu  Cu115  1  0.00000000  0.00000000  0.00000000  1
