# generated using pymatgen
data_Cu3(NiC8)2
_symmetry_space_group_name_H-M   'P 1'
_cell_length_a   6.95682400
_cell_length_b   9.51670450
_cell_length_c   9.51670450
_cell_angle_alpha   120.00000347
_cell_angle_beta   90.00000000
_cell_angle_gamma   90.00000000
_symmetry_Int_Tables_number   1
_chemical_formula_structural   Cu3(NiC8)2
_chemical_formula_sum   'Cu6 Ni4 C32'
_cell_volume   545.65080656
_cell_formula_units_Z   2
loop_
 _symmetry_equiv_pos_site_id
 _symmetry_equiv_pos_as_xyz
  1  'x, y, z'
loop_
 _atom_site_type_symbol
 _atom_site_label
 _atom_site_symmetry_multiplicity
 _atom_site_fract_x
 _atom_site_fract_y
 _atom_site_fract_z
 _atom_site_occupancy
  Ni  Ni0  1  0.00375600  0.66666700  0.33333300  1
  Ni  Ni1  1  0.99624400  0.33333300  0.66666700  1
  Ni  Ni2  1  0.50375600  0.33333300  0.66666700  1
  Ni  Ni3  1  0.49624400  0.66666700  0.33333300  1
  Cu  Cu4  1  0.75000000  0.75192400  0.99319300  1
  Cu  Cu5  1  0.25000000  0.24807600  0.00680700  1
  Cu  Cu6  1  0.75000000  0.24126900  0.24807600  1
  Cu  Cu7  1  0.25000000  0.75873100  0.75192400  1
  Cu  Cu8  1  0.75000000  0.00680700  0.75873100  1
  Cu  Cu9  1  0.25000000  0.99319300  0.24126900  1
  C  C10  1  0.75000000  0.97417400  0.36934700  1
  C  C11  1  0.25000000  0.02582600  0.63065300  1
  C  C12  1  0.75000000  0.39517400  0.02582600  1
  C  C13  1  0.25000000  0.60482600  0.97417400  1
  C  C14  1  0.75000000  0.63065300  0.60482600  1
  C  C15  1  0.25000000  0.36934700  0.39517400  1
  C  C16  1  0.75000000  0.87997600  0.47355800  1
  C  C17  1  0.25000000  0.12002400  0.52644200  1
  C  C18  1  0.75000000  0.59358200  0.12002400  1
  C  C19  1  0.25000000  0.40641800  0.87997600  1
  C  C20  1  0.75000000  0.52644200  0.40641800  1
  C  C21  1  0.25000000  0.47355800  0.59358200  1
  C  C22  1  0.93494400  0.90979500  0.24366200  1
  C  C23  1  0.06505600  0.09020500  0.75633800  1
  C  C24  1  0.93494400  0.33386700  0.09020500  1
  C  C25  1  0.43494400  0.09020500  0.75633800  1
  C  C26  1  0.06505600  0.66613300  0.90979500  1
  C  C27  1  0.56505600  0.90979500  0.24366200  1
  C  C28  1  0.93494400  0.75633800  0.66613300  1
  C  C29  1  0.43494400  0.66613300  0.90979500  1
  C  C30  1  0.06505600  0.24366200  0.33386700  1
  C  C31  1  0.56505600  0.33386700  0.09020500  1
  C  C32  1  0.43494400  0.24366200  0.33386700  1
  C  C33  1  0.56505600  0.75633800  0.66613300  1
  C  C34  1  0.75000000  0.52069200  0.69139400  1
  C  C35  1  0.25000000  0.47930800  0.30860600  1
  C  C36  1  0.75000000  0.17070200  0.47930800  1
  C  C37  1  0.25000000  0.82929800  0.52069200  1
  C  C38  1  0.75000000  0.30860600  0.82929800  1
  C  C39  1  0.25000000  0.69139400  0.17070200  1
  C  C40  1  0.75000000  0.00000000  0.00000000  1
  C  C41  1  0.25000000  0.00000000  0.00000000  1
