# generated using pymatgen
data_Cu2Ni
_symmetry_space_group_name_H-M   'P 1'
_cell_length_a   4.66146242
_cell_length_b   4.66146242
_cell_length_c   86.88354500
_cell_angle_alpha   90.00000000
_cell_angle_beta   90.00000000
_cell_angle_gamma   120.00000601
_symmetry_Int_Tables_number   1
_chemical_formula_structural   Cu2Ni
_chemical_formula_sum   'Cu24 Ni12'
_cell_volume   1634.98025924
_cell_formula_units_Z   12
loop_
 _symmetry_equiv_pos_site_id
 _symmetry_equiv_pos_as_xyz
  1  'x, y, z'
loop_
 _atom_site_type_symbol
 _atom_site_label
 _atom_site_symmetry_multiplicity
 _atom_site_fract_x
 _atom_site_fract_y
 _atom_site_fract_z
 _atom_site_occupancy
  Ni  Ni0  1  0.66666700  0.33333300  0.97916500  1
  Ni  Ni1  1  0.66666700  0.33333300  0.89584600  1
  Ni  Ni2  1  0.66666700  0.33333300  0.81252100  1
  Ni  Ni3  1  0.66666700  0.33333300  0.72915500  1
  Ni  Ni4  1  0.66666700  0.33333300  0.64582300  1
  Ni  Ni5  1  0.66666700  0.33333300  0.56253600  1
  Ni  Ni6  1  0.33333300  0.66666700  0.47917500  1
  Ni  Ni7  1  0.33333300  0.66666700  0.39582500  1
  Ni  Ni8  1  0.66666700  0.33333300  0.31249500  1
  Ni  Ni9  1  0.66666700  0.33333300  0.22914800  1
  Ni  Ni10  1  0.33333300  0.66666700  0.14584600  1
  Ni  Ni11  1  0.33333300  0.66666700  0.06251600  1
  Cu  Cu12  1  0.33333300  0.66666700  0.00086600  1
  Cu  Cu13  1  0.00000000  0.00000000  0.95746000  1
  Cu  Cu14  1  0.33333300  0.66666700  0.91755200  1
  Cu  Cu15  1  0.00000000  0.00000000  0.87411300  1
  Cu  Cu16  1  0.33333300  0.66666700  0.83419600  1
  Cu  Cu17  1  0.00000000  0.00000000  0.79077700  1
  Cu  Cu18  1  0.33333300  0.66666700  0.75089500  1
  Cu  Cu19  1  0.00000000  0.00000000  0.70744400  1
  Cu  Cu20  1  0.33333300  0.66666700  0.66751700  1
  Cu  Cu21  1  0.00000000  0.00000000  0.62416200  1
  Cu  Cu22  1  0.33333300  0.66666700  0.58421100  1
  Cu  Cu23  1  0.00000000  0.00000000  0.54078900  1
  Cu  Cu24  1  0.66666700  0.33333300  0.50085100  1
  Cu  Cu25  1  0.00000000  0.00000000  0.45747100  1
  Cu  Cu26  1  0.66666700  0.33333300  0.41753800  1
  Cu  Cu27  1  0.00000000  0.00000000  0.37413600  1
  Cu  Cu28  1  0.33333300  0.66666700  0.33419400  1
  Cu  Cu29  1  0.00000000  0.00000000  0.29079600  1
  Cu  Cu30  1  0.33333300  0.66666700  0.25088400  1
  Cu  Cu31  1  0.00000000  0.00000000  0.20745300  1
  Cu  Cu32  1  0.66666700  0.33333300  0.16751200  1
  Cu  Cu33  1  0.00000000  0.00000000  0.12413500  1
  Cu  Cu34  1  0.66666700  0.33333300  0.08417000  1
  Cu  Cu35  1  0.00000000  0.00000000  0.04082500  1
