# generated using pymatgen
data_Cu4NiC13
_symmetry_space_group_name_H-M   'P 1'
_cell_length_a   5.82460863
_cell_length_b   5.82460863
_cell_length_c   8.19711393
_cell_angle_alpha   90.00000000
_cell_angle_beta   90.00000000
_cell_angle_gamma   90.37331242
_symmetry_Int_Tables_number   1
_chemical_formula_structural   Cu4NiC13
_chemical_formula_sum   'Cu4 Ni1 C13'
_cell_volume   278.08992288
_cell_formula_units_Z   1
loop_
 _symmetry_equiv_pos_site_id
 _symmetry_equiv_pos_as_xyz
  1  'x, y, z'
loop_
 _atom_site_type_symbol
 _atom_site_label
 _atom_site_symmetry_multiplicity
 _atom_site_fract_x
 _atom_site_fract_y
 _atom_site_fract_z
 _atom_site_occupancy
  C  C0  1  0.48095153  0.51904847  -0.00000000  1
  Ni  Ni1  1  0.02746306  0.97253694  0.50000000  1
  Cu  Cu2  1  0.50980685  0.00746943  0.25310321  1
  Cu  Cu3  1  0.50980685  0.00746943  0.74689679  1
  Cu  Cu4  1  0.99253057  0.49019315  0.74689679  1
  Cu  Cu5  1  0.99253057  0.49019315  0.25310321  1
  C  C6  1  0.26964838  0.27006999  0.25677065  1
  C  C7  1  0.72993001  0.73035162  0.25677065  1
  C  C8  1  0.72993001  0.73035162  0.74322935  1
  C  C9  1  0.26964838  0.27006999  0.74322935  1
  C  C10  1  0.22772671  0.77227329  0.24329331  1
  C  C11  1  0.79231520  0.20768480  0.30496084  1
  C  C12  1  0.79231520  0.20768480  0.69503916  1
  C  C13  1  0.22772671  0.77227329  0.75670669  1
  C  C14  1  0.51815740  0.02464715  -0.00000000  1
  C  C15  1  0.43409490  0.98283517  0.50000000  1
  C  C16  1  0.97535285  0.48184260  0.00000000  1
  C  C17  1  0.01716483  0.56590510  0.50000000  1
