# generated using pymatgen
data_Cu8NiC28
_symmetry_space_group_name_H-M   'P 1'
_cell_length_a   17.99310000
_cell_length_b   17.99310000
_cell_length_c   2.89900100
_cell_angle_alpha   90.00000000
_cell_angle_beta   90.00000000
_cell_angle_gamma   90.00000000
_symmetry_Int_Tables_number   1
_chemical_formula_structural   Cu8NiC28
_chemical_formula_sum   'Cu16 Ni2 C56'
_cell_volume   938.55635017
_cell_formula_units_Z   2
loop_
 _symmetry_equiv_pos_site_id
 _symmetry_equiv_pos_as_xyz
  1  'x, y, z'
loop_
 _atom_site_type_symbol
 _atom_site_label
 _atom_site_symmetry_multiplicity
 _atom_site_fract_x
 _atom_site_fract_y
 _atom_site_fract_z
 _atom_site_occupancy
  C  C0  1  0.55020400  0.05020400  0.00000000  1
  C  C1  1  0.44979600  0.94979600  0.00000000  1
  C  C2  1  0.05020400  0.44979600  0.00000000  1
  C  C3  1  0.94979600  0.55020400  0.00000000  1
  C  C4  1  0.03278200  0.19204400  0.00000000  1
  C  C5  1  0.96721800  0.80795600  0.00000000  1
  C  C6  1  0.19204400  0.96721800  0.00000000  1
  C  C7  1  0.53278200  0.30795600  0.00000000  1
  C  C8  1  0.80795600  0.03278200  0.00000000  1
  C  C9  1  0.46721800  0.69204400  0.00000000  1
  C  C10  1  0.69204400  0.53278200  0.00000000  1
  C  C11  1  0.30795600  0.46721800  0.00000000  1
  C  C12  1  0.21010100  0.71010100  0.00000000  1
  C  C13  1  0.78989900  0.28989900  0.00000000  1
  C  C14  1  0.71010100  0.78989900  0.00000000  1
  C  C15  1  0.28989900  0.21010100  0.00000000  1
  C  C16  1  0.66741500  0.16741500  0.00000000  1
  C  C17  1  0.33258500  0.83258500  0.00000000  1
  C  C18  1  0.16741500  0.33258500  0.00000000  1
  C  C19  1  0.83258500  0.66741500  0.00000000  1
  Ni  Ni20  1  0.00000000  0.00000000  0.00000000  1
  Ni  Ni21  1  0.50000000  0.50000000  0.00000000  1
  Cu  Cu22  1  0.33554700  0.03912400  0.00000000  1
  Cu  Cu23  1  0.66445300  0.96087600  0.00000000  1
  Cu  Cu24  1  0.03912400  0.66445300  0.00000000  1
  Cu  Cu25  1  0.83554700  0.46087600  0.00000000  1
  Cu  Cu26  1  0.96087600  0.33554700  0.00000000  1
  Cu  Cu27  1  0.16445300  0.53912400  0.00000000  1
  Cu  Cu28  1  0.53912400  0.83554700  0.00000000  1
  Cu  Cu29  1  0.46087600  0.16445300  0.00000000  1
  Cu  Cu30  1  0.17187900  0.12722400  0.00000000  1
  Cu  Cu31  1  0.82812100  0.87277600  0.00000000  1
  Cu  Cu32  1  0.12722400  0.82812100  0.00000000  1
  Cu  Cu33  1  0.67187900  0.37277600  0.00000000  1
  Cu  Cu34  1  0.87277600  0.17187900  0.00000000  1
  Cu  Cu35  1  0.32812100  0.62722400  0.00000000  1
  Cu  Cu36  1  0.62722400  0.67187900  0.00000000  1
  Cu  Cu37  1  0.37277600  0.32812100  0.00000000  1
  C  C38  1  0.25820100  0.08959300  0.50000000  1
  C  C39  1  0.74179900  0.91040700  0.50000000  1
  C  C40  1  0.08959300  0.74179900  0.50000000  1
  C  C41  1  0.75820100  0.41040700  0.50000000  1
  C  C42  1  0.91040700  0.25820100  0.50000000  1
  C  C43  1  0.24179900  0.58959300  0.50000000  1
  C  C44  1  0.58959300  0.75820100  0.50000000  1
  C  C45  1  0.41040700  0.24179900  0.50000000  1
  C  C46  1  0.04681500  0.32591300  0.50000000  1
  C  C47  1  0.95318500  0.67408700  0.50000000  1
  C  C48  1  0.32591300  0.95318500  0.50000000  1
  C  C49  1  0.54681500  0.17408700  0.50000000  1
  C  C50  1  0.67408700  0.04681500  0.50000000  1
  C  C51  1  0.45318500  0.82591300  0.50000000  1
  C  C52  1  0.82591300  0.54681500  0.50000000  1
  C  C53  1  0.17408700  0.45318500  0.50000000  1
  C  C54  1  0.16067400  0.21257200  0.50000000  1
  C  C55  1  0.83932600  0.78742800  0.50000000  1
  C  C56  1  0.21257200  0.83932600  0.50000000  1
  C  C57  1  0.66067400  0.28742800  0.50000000  1
  C  C58  1  0.78742800  0.16067400  0.50000000  1
  C  C59  1  0.33932600  0.71257200  0.50000000  1
  C  C60  1  0.71257200  0.66067400  0.50000000  1
  C  C61  1  0.28742800  0.33932600  0.50000000  1
  C  C62  1  0.10437300  0.06873600  0.50000000  1
  C  C63  1  0.89562700  0.93126400  0.50000000  1
  C  C64  1  0.06873600  0.89562700  0.50000000  1
  C  C65  1  0.60437300  0.43126400  0.50000000  1
  C  C66  1  0.93126400  0.10437300  0.50000000  1
  C  C67  1  0.39562700  0.56873600  0.50000000  1
  C  C68  1  0.56873600  0.60437300  0.50000000  1
  C  C69  1  0.43126400  0.39562700  0.50000000  1
  C  C70  1  0.08115900  0.58115900  0.50000000  1
  C  C71  1  0.91884100  0.41884100  0.50000000  1
  C  C72  1  0.58115900  0.91884100  0.50000000  1
  C  C73  1  0.41884100  0.08115900  0.50000000  1
