# generated using pymatgen
data_CuNi2C7
_symmetry_space_group_name_H-M   'P 1'
_cell_length_a   7.40607500
_cell_length_b   5.63893000
_cell_length_c   5.73935743
_cell_angle_alpha   76.91713553
_cell_angle_beta   90.00000000
_cell_angle_gamma   90.00000000
_symmetry_Int_Tables_number   1
_chemical_formula_structural   CuNi2C7
_chemical_formula_sum   'Cu2 Ni4 C14'
_cell_volume   233.46755071
_cell_formula_units_Z   2
loop_
 _symmetry_equiv_pos_site_id
 _symmetry_equiv_pos_as_xyz
  1  'x, y, z'
loop_
 _atom_site_type_symbol
 _atom_site_label
 _atom_site_symmetry_multiplicity
 _atom_site_fract_x
 _atom_site_fract_y
 _atom_site_fract_z
 _atom_site_occupancy
  Ni  Ni0  1  0.75000000  0.96092600  0.06991800  1
  Ni  Ni1  1  0.75000000  0.46962000  0.54316000  1
  Ni  Ni2  1  0.25000000  0.53038000  0.45684000  1
  Ni  Ni3  1  0.25000000  0.03907400  0.93008200  1
  Cu  Cu4  1  0.00000000  0.00000000  0.50000000  1
  Cu  Cu5  1  0.50000000  0.00000000  0.50000000  1
  C  C6  1  0.00000000  0.50000000  0.00000000  1
  C  C7  1  0.50000000  0.50000000  0.00000000  1
  C  C8  1  0.43897600  0.15122600  0.15570500  1
  C  C9  1  0.57325000  0.72108200  0.37335600  1
  C  C10  1  0.56102400  0.84877400  0.84429500  1
  C  C11  1  0.07325000  0.27891800  0.62664400  1
  C  C12  1  0.25000000  0.85296600  0.56114600  1
  C  C13  1  0.42675000  0.27891800  0.62664400  1
  C  C14  1  0.92675000  0.72108200  0.37335600  1
  C  C15  1  0.06102400  0.15122600  0.15570500  1
  C  C16  1  0.75000000  0.36239300  0.90868400  1
  C  C17  1  0.93897600  0.84877400  0.84429500  1
  C  C18  1  0.25000000  0.63760700  0.09131600  1
  C  C19  1  0.75000000  0.14703400  0.43885400  1
