# generated using pymatgen
data_CuNiC8
_symmetry_space_group_name_H-M   'P 1'
_cell_length_a   5.64192003
_cell_length_b   5.64192003
_cell_length_c   8.34211327
_cell_angle_alpha   90.00000000
_cell_angle_beta   90.00000000
_cell_angle_gamma   90.00000000
_symmetry_Int_Tables_number   1
_chemical_formula_structural   CuNiC8
_chemical_formula_sum   'Cu2 Ni2 C16'
_cell_volume   265.53999000
_cell_formula_units_Z   2
loop_
 _symmetry_equiv_pos_site_id
 _symmetry_equiv_pos_as_xyz
  1  'x, y, z'
loop_
 _atom_site_type_symbol
 _atom_site_label
 _atom_site_symmetry_multiplicity
 _atom_site_fract_x
 _atom_site_fract_y
 _atom_site_fract_z
 _atom_site_occupancy
  Ni  Ni0  1  0.50000000  -0.00000000  0.25000000  1
  Ni  Ni1  1  0.00000000  0.50000000  0.75000000  1
  Cu  Cu2  1  0.00000000  0.50000000  0.25000000  1
  Cu  Cu3  1  0.50000000  -0.00000000  0.75000000  1
  C  C4  1  0.00000000  -0.00000000  0.50000000  1
  C  C5  1  0.50000000  0.50000000  0.00000000  1
  C  C6  1  0.00000000  -0.00000000  0.00000000  1
  C  C7  1  0.50000000  0.50000000  0.50000000  1
  C  C8  1  0.00000000  -0.00000000  0.25578148  1
  C  C9  1  0.50000000  0.50000000  0.24421852  1
  C  C10  1  0.00000000  -0.00000000  0.74421852  1
  C  C11  1  0.50000000  0.50000000  0.75578148  1
  C  C12  1  0.32653299  0.18805652  0.98906319  1
  C  C13  1  0.67346701  0.81194348  0.98906319  1
  C  C14  1  0.81194348  0.32653299  0.01093681  1
  C  C15  1  0.18805652  0.67346701  0.01093681  1
  C  C16  1  0.82653299  0.31194348  0.48906319  1
  C  C17  1  0.17346701  0.68805652  0.48906319  1
  C  C18  1  0.31194348  0.17346701  0.51093681  1
  C  C19  1  0.68805652  0.82653299  0.51093681  1
