# generated using pymatgen
data_CuNiC16
_symmetry_space_group_name_H-M   'P 1'
_cell_length_a   8.38961198
_cell_length_b   8.38961220
_cell_length_c   8.38961202
_cell_angle_alpha   63.98503850
_cell_angle_beta   63.98503989
_cell_angle_gamma   63.98504327
_symmetry_Int_Tables_number   1
_chemical_formula_structural   CuNiC16
_chemical_formula_sum   'Cu2 Ni2 C32'
_cell_volume   454.20318509
_cell_formula_units_Z   2
loop_
 _symmetry_equiv_pos_site_id
 _symmetry_equiv_pos_as_xyz
  1  'x, y, z'
loop_
 _atom_site_type_symbol
 _atom_site_label
 _atom_site_symmetry_multiplicity
 _atom_site_fract_x
 _atom_site_fract_y
 _atom_site_fract_z
 _atom_site_occupancy
  Ni  Ni0  1  0.99597200  0.99597200  0.99597200  1
  Ni  Ni1  1  0.49597200  0.49597200  0.49597200  1
  Cu  Cu2  1  0.15041700  0.15041700  0.15041700  1
  Cu  Cu3  1  0.65041700  0.65041700  0.65041700  1
  C  C4  1  0.33640400  0.33640400  0.33640400  1
  C  C5  1  0.83640400  0.83640400  0.83640400  1
  C  C6  1  0.06666800  0.43161300  0.75483300  1
  C  C7  1  0.43161300  0.75483300  0.06666800  1
  C  C8  1  0.75483300  0.06666800  0.43161300  1
  C  C9  1  0.25483300  0.93161300  0.56666800  1
  C  C10  1  0.56666800  0.25483300  0.93161300  1
  C  C11  1  0.93161300  0.56666800  0.25483300  1
  C  C12  1  0.06661800  0.56759500  0.32862300  1
  C  C13  1  0.32862300  0.06661800  0.56759500  1
  C  C14  1  0.07028000  0.23873600  0.90668400  1
  C  C15  1  0.56759500  0.32862300  0.06661800  1
  C  C16  1  0.06759500  0.56661800  0.82862300  1
  C  C17  1  0.24636600  0.41711400  0.58473100  1
  C  C18  1  0.23873600  0.90668400  0.07028000  1
  C  C19  1  0.41711400  0.58473100  0.24636600  1
  C  C20  1  0.20206300  0.00355000  0.38172900  1
  C  C21  1  0.58473100  0.24636600  0.41711400  1
  C  C22  1  0.08473100  0.91711400  0.74636600  1
  C  C23  1  0.38172900  0.20206300  0.00355000  1
  C  C24  1  0.56661800  0.82862300  0.06759500  1
  C  C25  1  0.90668400  0.07028000  0.23873600  1
  C  C26  1  0.40668400  0.73873600  0.57028000  1
  C  C27  1  0.82862300  0.06759500  0.56661800  1
  C  C28  1  0.57028000  0.40668400  0.73873600  1
  C  C29  1  0.74636600  0.08473100  0.91711400  1
  C  C30  1  0.73873600  0.57028000  0.40668400  1
  C  C31  1  0.00355000  0.38172900  0.20206300  1
  C  C32  1  0.50355000  0.70206300  0.88172900  1
  C  C33  1  0.91711400  0.74636600  0.08473100  1
  C  C34  1  0.70206300  0.88172900  0.50355000  1
  C  C35  1  0.88172900  0.50355000  0.70206300  1
