# generated using pymatgen
data_Cu4Ni2C9
_symmetry_space_group_name_H-M   'P 1'
_cell_length_a   6.20689014
_cell_length_b   6.20689095
_cell_length_c   6.14025600
_cell_angle_alpha   60.35450121
_cell_angle_beta   60.35449697
_cell_angle_gamma   59.12823160
_symmetry_Int_Tables_number   1
_chemical_formula_structural   Cu4Ni2C9
_chemical_formula_sum   'Cu4 Ni2 C9'
_cell_volume   167.01409450
_cell_formula_units_Z   1
loop_
 _symmetry_equiv_pos_site_id
 _symmetry_equiv_pos_as_xyz
  1  'x, y, z'
loop_
 _atom_site_type_symbol
 _atom_site_label
 _atom_site_symmetry_multiplicity
 _atom_site_fract_x
 _atom_site_fract_y
 _atom_site_fract_z
 _atom_site_occupancy
  C  C0  1  0.46691700  0.46691700  0.03308300  1
  Ni  Ni1  1  0.13929000  0.61206300  0.62432300  1
  Ni  Ni2  1  0.61206300  0.13929000  0.62432300  1
  Cu  Cu3  1  0.99986500  0.99986400  0.00013600  1
  Cu  Cu4  1  0.22017800  0.22017900  0.27982100  1
  Cu  Cu5  1  0.64561600  0.64561600  0.12027000  1
  Cu  Cu6  1  0.64561600  0.64561600  0.58849800  1
  C  C7  1  0.38371400  0.38371400  0.37802900  1
  C  C8  1  0.38371400  0.38371400  0.85454400  1
  C  C9  1  0.40418500  0.83629000  0.37976200  1
  C  C10  1  0.83628900  0.40418800  0.37976100  1
  C  C11  1  0.39580800  0.84613000  0.87903200  1
  C  C12  1  0.84613300  0.39580700  0.87903100  1
  C  C13  1  0.87141700  0.87141700  0.38524700  1
  C  C14  1  0.87141700  0.87141700  0.87192000  1
