# generated using pymatgen
data_Cu8(NiC5)5
_symmetry_space_group_name_H-M   'P 1'
_cell_length_a   10.34835057
_cell_length_b   10.34835057
_cell_length_c   10.34835057
_cell_angle_alpha   94.52592065
_cell_angle_beta   94.52592065
_cell_angle_gamma   147.37102336
_symmetry_Int_Tables_number   1
_chemical_formula_structural   Cu8(NiC5)5
_chemical_formula_sum   'Cu8 Ni5 C25'
_cell_volume   573.47131182
_cell_formula_units_Z   1
loop_
 _symmetry_equiv_pos_site_id
 _symmetry_equiv_pos_as_xyz
  1  'x, y, z'
loop_
 _atom_site_type_symbol
 _atom_site_label
 _atom_site_symmetry_multiplicity
 _atom_site_fract_x
 _atom_site_fract_y
 _atom_site_fract_z
 _atom_site_occupancy
  Ni  Ni0  1  0.00000000  0.00000000  0.00000000  1
  Ni  Ni1  1  0.13923200  0.53371300  0.67294500  1
  Ni  Ni2  1  0.86076800  0.46628700  0.32705500  1
  Ni  Ni3  1  0.46628700  0.13923200  0.60551900  1
  Ni  Ni4  1  0.53371300  0.86076800  0.39448100  1
  Cu  Cu5  1  0.16984900  0.24874600  0.41859500  1
  Cu  Cu6  1  0.83015100  0.75125400  0.58140500  1
  Cu  Cu7  1  0.75125400  0.16984900  0.92110200  1
  Cu  Cu8  1  0.24874600  0.83015100  0.07889800  1
  Cu  Cu9  1  0.35930000  0.41032600  0.76962600  1
  Cu  Cu10  1  0.64070000  0.58967400  0.23037400  1
  Cu  Cu11  1  0.58967400  0.35930000  0.94897400  1
  Cu  Cu12  1  0.41032600  0.64070000  0.05102600  1
  C  C13  1  0.24813100  0.04026100  0.28839300  1
  C  C14  1  0.75186900  0.95973900  0.71160700  1
  C  C15  1  0.95973900  0.24813100  0.20787000  1
  C  C16  1  0.04026100  0.75186900  0.79213000  1
  C  C17  1  0.50000000  0.50000000  0.00000000  1
  C  C18  1  0.96158500  0.62728000  0.58886500  1
  C  C19  1  0.03841500  0.37272000  0.41113500  1
  C  C20  1  0.37272000  0.96158500  0.33430600  1
  C  C21  1  0.62728000  0.03841500  0.66569400  1
  C  C22  1  0.29908600  0.42843700  0.22536100  1
  C  C23  1  0.20307600  0.07372400  0.77463900  1
  C  C24  1  0.07372400  0.29908600  0.87064900  1
  C  C25  1  0.42843700  0.20307600  0.12935100  1
  C  C26  1  0.70091400  0.57156300  0.77463900  1
  C  C27  1  0.79692400  0.92627600  0.22536100  1
  C  C28  1  0.92627600  0.70091400  0.12935100  1
  C  C29  1  0.57156300  0.79692400  0.87064900  1
  C  C30  1  0.49300300  0.59963500  0.59436400  1
  C  C31  1  0.00527100  0.89863900  0.40563600  1
  C  C32  1  0.89863900  0.49300300  0.89336800  1
  C  C33  1  0.59963500  0.00527100  0.10663200  1
  C  C34  1  0.50699700  0.40036500  0.40563600  1
  C  C35  1  0.99472900  0.10136100  0.59436400  1
  C  C36  1  0.10136100  0.50699700  0.10663200  1
  C  C37  1  0.40036500  0.99472900  0.89336800  1
