# generated using pymatgen
data_Cu2Ni2C13
_symmetry_space_group_name_H-M   'P 1'
_cell_length_a   15.19820412
_cell_length_b   15.19483684
_cell_length_c   3.90434391
_cell_angle_alpha   82.66829464
_cell_angle_beta   82.57028466
_cell_angle_gamma   14.76142070
_symmetry_Int_Tables_number   1
_chemical_formula_structural   Cu2Ni2C13
_chemical_formula_sum   'Cu2 Ni2 C13'
_cell_volume   227.79419466
_cell_formula_units_Z   1
loop_
 _symmetry_equiv_pos_site_id
 _symmetry_equiv_pos_as_xyz
  1  'x, y, z'
loop_
 _atom_site_type_symbol
 _atom_site_label
 _atom_site_symmetry_multiplicity
 _atom_site_fract_x
 _atom_site_fract_y
 _atom_site_fract_z
 _atom_site_occupancy
  Ni  Ni0  1  0.70678400  0.70887700  0.29112300  1
  Ni  Ni1  1  0.29112300  0.29321600  0.70678400  1
  Cu  Cu2  1  0.55231900  0.59140700  0.40859300  1
  Cu  Cu3  1  0.40859300  0.44768100  0.55231900  1
  C  C4  1  0.13665500  0.14186100  0.85813900  1
  C  C5  1  0.85813900  0.86334500  0.13665500  1
  C  C6  1  0.01072100  0.98927900  0.01072100  1
  C  C7  1  0.09057800  0.03789900  0.96210100  1
  C  C8  1  0.96210100  0.90942200  0.09057800  1
  C  C9  1  0.19842500  0.19849200  0.80150800  1
  C  C10  1  0.80150800  0.80157500  0.19842500  1
  C  C11  1  0.12609300  0.12513700  0.37845100  1
  C  C12  1  0.62968100  0.62154900  0.87486300  1
  C  C13  1  0.87486300  0.87390700  0.62968100  1
  C  C14  1  0.37845100  0.37031900  0.12609300  1
  C  C15  1  0.52964800  0.47035200  0.05531700  1
  C  C16  1  0.05531700  0.94468300  0.52964800  1
