# generated using pymatgen
data_CuNi3C4
_symmetry_space_group_name_H-M   'P 1'
_cell_length_a   6.24650679
_cell_length_b   6.24650679
_cell_length_c   6.24650651
_cell_angle_alpha   90.04294004
_cell_angle_beta   90.04294004
_cell_angle_gamma   90.04293668
_symmetry_Int_Tables_number   1
_chemical_formula_structural   CuNi3C4
_chemical_formula_sum   'Cu2 Ni6 C8'
_cell_volume   243.73127690
_cell_formula_units_Z   2
loop_
 _symmetry_equiv_pos_site_id
 _symmetry_equiv_pos_as_xyz
  1  'x, y, z'
loop_
 _atom_site_type_symbol
 _atom_site_label
 _atom_site_symmetry_multiplicity
 _atom_site_fract_x
 _atom_site_fract_y
 _atom_site_fract_z
 _atom_site_occupancy
  Ni  Ni0  1  0.73113500  0.99989000  0.50013300  1
  Ni  Ni1  1  0.99989000  0.50013300  0.73113500  1
  Ni  Ni2  1  0.50013300  0.73113500  0.99989000  1
  Ni  Ni3  1  0.23113500  0.00013300  0.49989000  1
  Ni  Ni4  1  0.49989000  0.23113500  0.00013300  1
  Ni  Ni5  1  0.00013300  0.49989000  0.23113500  1
  Cu  Cu6  1  0.49962700  0.49962700  0.49962700  1
  Cu  Cu7  1  0.99962700  0.99962700  0.99962700  1
  C  C8  1  0.66118300  0.33952400  0.66049200  1
  C  C9  1  0.66049200  0.66118300  0.33952400  1
  C  C10  1  0.33911700  0.33911700  0.33911700  1
  C  C11  1  0.33952400  0.66049200  0.66118300  1
  C  C12  1  0.83911700  0.83911700  0.83911700  1
  C  C13  1  0.16118300  0.16049200  0.83952400  1
  C  C14  1  0.16049200  0.83952400  0.16118300  1
  C  C15  1  0.83952400  0.16118300  0.16049200  1
