# generated using pymatgen
data_Cu2NiC6
_symmetry_space_group_name_H-M   'P 1'
_cell_length_a   3.05901200
_cell_length_b   9.67284900
_cell_length_c   12.41177800
_cell_angle_alpha   90.00000000
_cell_angle_beta   90.00000000
_cell_angle_gamma   90.00000000
_symmetry_Int_Tables_number   1
_chemical_formula_structural   Cu2NiC6
_chemical_formula_sum   'Cu8 Ni4 C24'
_cell_volume   367.25658194
_cell_formula_units_Z   4
loop_
 _symmetry_equiv_pos_site_id
 _symmetry_equiv_pos_as_xyz
  1  'x, y, z'
loop_
 _atom_site_type_symbol
 _atom_site_label
 _atom_site_symmetry_multiplicity
 _atom_site_fract_x
 _atom_site_fract_y
 _atom_site_fract_z
 _atom_site_occupancy
  Ni  Ni0  1  0.00000000  0.74229300  0.38267500  1
  Ni  Ni1  1  0.00000000  0.25770700  0.61732500  1
  Ni  Ni2  1  0.00000000  0.24229300  0.11732500  1
  Ni  Ni3  1  0.00000000  0.75770700  0.88267500  1
  Cu  Cu4  1  0.50000000  0.50086600  0.22201700  1
  Cu  Cu5  1  0.50000000  0.49913400  0.77798300  1
  Cu  Cu6  1  0.50000000  0.00086600  0.27798300  1
  Cu  Cu7  1  0.50000000  0.99913400  0.72201700  1
  Cu  Cu8  1  0.50000000  0.50000000  0.50000000  1
  Cu  Cu9  1  0.50000000  0.00000000  0.00000000  1
  Cu  Cu10  1  0.00000000  0.00000000  0.50000000  1
  Cu  Cu11  1  0.00000000  0.50000000  0.00000000  1
  C  C12  1  0.00000000  0.76943500  0.13704200  1
  C  C13  1  0.00000000  0.23056500  0.86295800  1
  C  C14  1  0.00000000  0.26943500  0.36295800  1
  C  C15  1  0.00000000  0.73056500  0.63704200  1
  C  C16  1  0.00000000  0.84387100  0.04065100  1
  C  C17  1  0.00000000  0.15612900  0.95934900  1
  C  C18  1  0.00000000  0.34387100  0.45934900  1
  C  C19  1  0.00000000  0.65612900  0.54065100  1
  C  C20  1  0.50000000  0.61569500  0.35766900  1
  C  C21  1  0.50000000  0.38430500  0.64233100  1
  C  C22  1  0.50000000  0.11569500  0.14233100  1
  C  C23  1  0.50000000  0.88430500  0.85766900  1
  C  C24  1  0.00000000  0.62614900  0.13745600  1
  C  C25  1  0.00000000  0.37385100  0.86254400  1
  C  C26  1  0.00000000  0.12614900  0.36254400  1
  C  C27  1  0.00000000  0.87385100  0.63745600  1
  C  C28  1  0.50000000  0.87735200  0.41738000  1
  C  C29  1  0.50000000  0.12264800  0.58262000  1
  C  C30  1  0.50000000  0.37735200  0.08262000  1
  C  C31  1  0.50000000  0.62264800  0.91738000  1
  C  C32  1  0.00000000  0.84102700  0.23457400  1
  C  C33  1  0.00000000  0.15897300  0.76542600  1
  C  C34  1  0.00000000  0.34102700  0.26542600  1
  C  C35  1  0.00000000  0.65897300  0.73457400  1
