# generated using pymatgen
data_CuNi3C32
_symmetry_space_group_name_H-M   'P 1'
_cell_length_a   6.70829800
_cell_length_b   9.28317078
_cell_length_c   21.00425533
_cell_angle_alpha   86.10271600
_cell_angle_beta   89.77793326
_cell_angle_gamma   89.92584334
_symmetry_Int_Tables_number   1
_chemical_formula_structural   CuNi3C32
_chemical_formula_sum   'Cu3 Ni9 C96'
_cell_volume   1304.98948933
_cell_formula_units_Z   3
loop_
 _symmetry_equiv_pos_site_id
 _symmetry_equiv_pos_as_xyz
  1  'x, y, z'
loop_
 _atom_site_type_symbol
 _atom_site_label
 _atom_site_symmetry_multiplicity
 _atom_site_fract_x
 _atom_site_fract_y
 _atom_site_fract_z
 _atom_site_occupancy
  Ni  Ni0  1  0.30502800  0.77746500  0.53463600  1
  Ni  Ni1  1  0.80493700  0.22263100  0.96543100  1
  Ni  Ni2  1  0.69518100  0.22254600  0.46554000  1
  Ni  Ni3  1  0.19494100  0.77744600  0.03444300  1
  Ni  Ni4  1  0.31510700  0.59023800  0.38155400  1
  Ni  Ni5  1  0.81509500  0.40960300  0.11828100  1
  Ni  Ni6  1  0.68491100  0.40945200  0.61849200  1
  Ni  Ni7  1  0.18488400  0.59044800  0.88156100  1
  Ni  Ni8  1  0.98105600  0.93040600  0.25735800  1
  Cu  Cu9  1  0.49145300  0.06777900  0.24577100  1
  Cu  Cu10  1  0.00752500  0.06682800  0.74586300  1
  Cu  Cu11  1  0.50758800  0.93306900  0.75414900  1
  C  C12  1  0.70114700  0.99205200  0.62264500  1
  C  C13  1  0.20126500  0.00799200  0.87741300  1
  C  C14  1  0.30092800  0.01039900  0.37797600  1
  C  C15  1  0.79621300  0.99268200  0.12084800  1
  C  C16  1  0.99522600  0.85018100  0.41427500  1
  C  C17  1  0.49409300  0.15131400  0.08600700  1
  C  C18  1  0.00515700  0.15054200  0.58636300  1
  C  C19  1  0.50506100  0.84937000  0.91367900  1
  C  C20  1  0.96778300  0.58172300  0.27841000  1
  C  C21  1  0.46842900  0.41264100  0.22151500  1
  C  C22  1  0.03359900  0.41438700  0.72189800  1
  C  C23  1  0.53334900  0.58571400  0.77816900  1
  C  C24  1  0.75833200  0.75302100  0.57613600  1
  C  C25  1  0.25810700  0.24701900  0.92395000  1
  C  C26  1  0.24200100  0.24774900  0.42474200  1
  C  C27  1  0.74115400  0.75234200  0.07569200  1
  C  C28  1  0.78241100  0.34948500  0.28436500  1
  C  C29  1  0.28604000  0.64701500  0.21588300  1
  C  C30  1  0.21675300  0.64971900  0.71582600  1
  C  C31  1  0.71671400  0.35012700  0.78421500  1
  C  C32  1  0.64205900  0.88986900  0.39284100  1
  C  C33  1  0.14134500  0.11075300  0.10674600  1
  C  C34  1  0.35790300  0.11020900  0.60795800  1
  C  C35  1  0.85798300  0.88982500  0.89206800  1
  C  C36  1  0.75027500  0.67489300  0.46531300  1
  C  C37  1  0.25051700  0.32546300  0.03458800  1
  C  C38  1  0.25009100  0.32500900  0.53501700  1
  C  C39  1  0.74969200  0.67517000  0.96503900  1
  C  C40  1  0.92769000  0.80397400  0.67444300  1
  C  C41  1  0.42780600  0.19591700  0.82546100  1
  C  C42  1  0.07515400  0.19966600  0.32646100  1
  C  C43  1  0.56899800  0.80416600  0.17348000  1
  C  C44  1  0.78350100  0.51065300  0.37499300  1
  C  C45  1  0.28506100  0.48874200  0.12492000  1
  C  C46  1  0.21595700  0.48934000  0.62509400  1
  C  C47  1  0.71556700  0.51089600  0.87483900  1
  C  C48  1  0.59608000  0.77360900  0.43338300  1
  C  C49  1  0.09654800  0.22717600  0.06633100  1
  C  C50  1  0.40376700  0.22576600  0.56687600  1
  C  C51  1  0.90359600  0.77428400  0.93307100  1
  C  C52  1  0.73254400  0.53432800  0.43670400  1
  C  C53  1  0.23314100  0.46605200  0.06337100  1
  C  C54  1  0.26755700  0.46579100  0.56344800  1
  C  C55  1  0.76740200  0.53452700  0.93632700  1
  C  C56  1  0.19118500  0.87984700  0.40174400  1
  C  C57  1  0.69110300  0.12313000  0.09660100  1
  C  C58  1  0.80841400  0.12163600  0.59765200  1
  C  C59  1  0.30839600  0.87823300  0.90231500  1
  C  C60  1  0.91527700  0.21976600  0.28763800  1
  C  C61  1  0.41135400  0.78027900  0.21320100  1
  C  C62  1  0.08707200  0.78110800  0.71318300  1
  C  C63  1  0.58777900  0.21875400  0.78664200  1
  C  C64  1  0.68518900  0.89061800  0.57096200  1
  C  C65  1  0.18471500  0.10943300  0.92912500  1
  C  C66  1  0.31540200  0.11000900  0.43021000  1
  C  C67  1  0.81317500  0.89005400  0.06986200  1
  C  C68  1  0.71986100  0.38784300  0.34879800  1
  C  C69  1  0.22283300  0.61159700  0.15129300  1
  C  C70  1  0.27915100  0.61208600  0.65128500  1
  C  C71  1  0.77839100  0.38776100  0.84863500  1
  C  C72  1  0.95276600  0.73809200  0.45776900  1
  C  C73  1  0.45195600  0.26199800  0.04187300  1
  C  C74  1  0.04808000  0.26154100  0.54228500  1
  C  C75  1  0.54764200  0.73869300  0.95786400  1
  C  C76  1  0.88229300  0.70888400  0.62720000  1
  C  C77  1  0.38206900  0.29105400  0.87263800  1
  C  C78  1  0.11654900  0.29361100  0.37428500  1
  C  C79  1  0.61805200  0.70758900  0.12714100  1
  C  C80  1  0.80516700  0.92351600  0.68060100  1
  C  C81  1  0.30562100  0.07651100  0.81934700  1
  C  C82  1  0.20441400  0.08430800  0.32063900  1
  C  C83  1  0.68599800  0.92592800  0.17801600  1
  C  C84  1  0.89644200  0.61320100  0.33897100  1
  C  C85  1  0.39758000  0.38501000  0.16067700  1
  C  C86  1  0.10307000  0.38615200  0.66082200  1
  C  C87  1  0.60258800  0.61406600  0.83911400  1
  C  C88  1  0.84259700  0.93238400  0.38402600  1
  C  C89  1  0.34215800  0.06975200  0.11732800  1
  C  C90  1  0.15684300  0.06905200  0.61763900  1
  C  C91  1  0.65705100  0.93089100  0.88233100  1
  C  C92  1  0.89509000  0.46762400  0.24866700  1
  C  C93  1  0.40299300  0.52960500  0.25065300  1
  C  C94  1  0.10243000  0.53068100  0.75109100  1
  C  C95  1  0.60263400  0.46920300  0.74897800  1
  C  C96  1  0.60682700  0.31399000  0.24581600  1
  C  C97  1  0.11191500  0.67485700  0.25539700  1
  C  C98  1  0.39348000  0.68344200  0.75422300  1
  C  C99  1  0.89401200  0.31638400  0.74578300  1
  C  C100  1  0.50451500  0.97127600  0.35815800  1
  C  C101  1  0.00103700  0.02830700  0.13945400  1
  C  C102  1  0.49645100  0.02870600  0.64230100  1
  C  C103  1  0.99706600  0.97154900  0.85779100  1
  C  C104  1  0.70942600  0.65176200  0.53406400  1
  C  C105  1  0.20981300  0.34868700  0.96591200  1
  C  C106  1  0.29180300  0.34905200  0.46648000  1
  C  C107  1  0.79057200  0.65102400  0.03366700  1
