# generated using pymatgen
data_Cu2NiC4
_symmetry_space_group_name_H-M   'P 1'
_cell_length_a   5.11398900
_cell_length_b   5.92920600
_cell_length_c   10.26801700
_cell_angle_alpha   90.00000000
_cell_angle_beta   90.00000000
_cell_angle_gamma   90.00000000
_symmetry_Int_Tables_number   1
_chemical_formula_structural   Cu2NiC4
_chemical_formula_sum   'Cu8 Ni4 C16'
_cell_volume   311.34572576
_cell_formula_units_Z   4
loop_
 _symmetry_equiv_pos_site_id
 _symmetry_equiv_pos_as_xyz
  1  'x, y, z'
loop_
 _atom_site_type_symbol
 _atom_site_label
 _atom_site_symmetry_multiplicity
 _atom_site_fract_x
 _atom_site_fract_y
 _atom_site_fract_z
 _atom_site_occupancy
  Ni  Ni0  1  0.36541400  0.00000000  0.50000000  1
  Ni  Ni1  1  0.63458600  0.50000000  0.00000000  1
  Ni  Ni2  1  0.04185700  0.00000000  0.00000000  1
  Ni  Ni3  1  0.95814300  0.50000000  0.50000000  1
  Cu  Cu4  1  0.00961600  0.50000000  0.23719100  1
  Cu  Cu5  1  0.00961600  0.50000000  0.76280900  1
  Cu  Cu6  1  0.99038400  0.00000000  0.26280900  1
  Cu  Cu7  1  0.99038400  0.00000000  0.73719100  1
  Cu  Cu8  1  0.50000000  0.25000000  0.25000000  1
  Cu  Cu9  1  0.50000000  0.75000000  0.75000000  1
  Cu  Cu10  1  0.50000000  0.75000000  0.25000000  1
  Cu  Cu11  1  0.50000000  0.25000000  0.75000000  1
  C  C12  1  0.35623300  0.50000000  0.14432900  1
  C  C13  1  0.35623300  0.50000000  0.85567100  1
  C  C14  1  0.64376700  0.00000000  0.35567100  1
  C  C15  1  0.64376700  0.00000000  0.64432900  1
  C  C16  1  0.68994900  0.50000000  0.34802600  1
  C  C17  1  0.68994900  0.50000000  0.65197400  1
  C  C18  1  0.31005100  0.00000000  0.15197400  1
  C  C19  1  0.31005100  0.00000000  0.84802600  1
  C  C20  1  0.16588600  0.25182600  0.35914400  1
  C  C21  1  0.16588600  0.74817400  0.64085600  1
  C  C22  1  0.83411400  0.75182600  0.14085600  1
  C  C23  1  0.83411400  0.24817400  0.85914400  1
  C  C24  1  0.83411400  0.24817400  0.14085600  1
  C  C25  1  0.83411400  0.75182600  0.85914400  1
  C  C26  1  0.16588600  0.74817400  0.35914400  1
  C  C27  1  0.16588600  0.25182600  0.64085600  1
