# generated using pymatgen
data_Cu3Ni5C22
_symmetry_space_group_name_H-M   'P 1'
_cell_length_a   9.41435621
_cell_length_b   9.41435621
_cell_length_c   11.85769685
_cell_angle_alpha   87.80794698
_cell_angle_beta   87.80794698
_cell_angle_gamma   67.62745073
_symmetry_Int_Tables_number   1
_chemical_formula_structural   Cu3Ni5C22
_chemical_formula_sum   'Cu6 Ni10 C44'
_cell_volume   970.81201968
_cell_formula_units_Z   2
loop_
 _symmetry_equiv_pos_site_id
 _symmetry_equiv_pos_as_xyz
  1  'x, y, z'
loop_
 _atom_site_type_symbol
 _atom_site_label
 _atom_site_symmetry_multiplicity
 _atom_site_fract_x
 _atom_site_fract_y
 _atom_site_fract_z
 _atom_site_occupancy
  C  C0  1  0.38143400  0.06948500  0.12478500  1
  C  C1  1  0.35903800  0.69460300  0.97359600  1
  C  C2  1  0.93051500  0.61856600  0.37521500  1
  C  C3  1  0.30539700  0.64096200  0.52640400  1
  C  C4  1  0.69460300  0.35903800  0.47359600  1
  C  C5  1  0.06948500  0.38143400  0.62478500  1
  C  C6  1  0.61856600  0.93051500  0.87521500  1
  C  C7  1  0.64096200  0.30539700  0.02640400  1
  Ni  Ni8  1  0.26844700  0.97979100  0.73968900  1
  Ni  Ni9  1  0.97979100  0.26844700  0.23968900  1
  Ni  Ni10  1  0.09942800  0.53851500  0.08837800  1
  Ni  Ni11  1  0.53851500  0.09942800  0.58837800  1
  Ni  Ni12  1  0.46148500  0.90057200  0.41162200  1
  Ni  Ni13  1  0.84012400  0.15987600  0.75000000  1
  Ni  Ni14  1  0.15987600  0.84012400  0.25000000  1
  Ni  Ni15  1  0.90057200  0.46148500  0.91162200  1
  Ni  Ni16  1  0.73155300  0.02020900  0.26031100  1
  Ni  Ni17  1  0.02020900  0.73155300  0.76031100  1
  Cu  Cu18  1  0.67173600  0.64959700  0.66942600  1
  Cu  Cu19  1  0.00000000  0.00000000  0.00000000  1
  Cu  Cu20  1  0.00000000  0.00000000  0.50000000  1
  Cu  Cu21  1  0.64959700  0.67173600  0.16942600  1
  Cu  Cu22  1  0.32826400  0.35040300  0.33057400  1
  Cu  Cu23  1  0.35040300  0.32826400  0.83057400  1
  C  C24  1  0.85028700  0.60269900  0.57235200  1
  C  C25  1  0.21778100  0.89598700  0.59893000  1
  C  C26  1  0.37794500  0.82534600  0.27189200  1
  C  C27  1  0.93395500  0.91829000  0.17484000  1
  C  C28  1  0.10401300  0.78221900  0.90107000  1
  C  C29  1  0.08171000  0.06604500  0.32516000  1
  C  C30  1  0.59811800  0.55732100  0.05730900  1
  C  C31  1  0.91319400  0.21358200  0.58816200  1
  C  C32  1  0.08680600  0.78641800  0.41183800  1
  C  C33  1  0.16393700  0.30613600  0.17216900  1
  C  C34  1  0.41549300  0.83709900  0.84236200  1
  C  C35  1  0.83606300  0.69386400  0.82783100  1
  C  C36  1  0.78221900  0.10401300  0.40107000  1
  C  C37  1  0.59211100  0.87521500  0.66628000  1
  C  C38  1  0.16290100  0.58450700  0.65763800  1
  C  C39  1  0.40188200  0.44267900  0.94269100  1
  C  C40  1  0.58450700  0.16290100  0.15763800  1
  C  C41  1  0.12478500  0.40788900  0.83372000  1
  C  C42  1  0.17465400  0.62205500  0.22810800  1
  C  C43  1  0.83709900  0.41549300  0.34236200  1
  C  C44  1  0.60269900  0.85028700  0.07235200  1
  C  C45  1  0.40788900  0.12478500  0.33372000  1
  C  C46  1  0.78641800  0.08680600  0.91183800  1
  C  C47  1  0.55732100  0.59811800  0.55730900  1
  C  C48  1  0.62205500  0.17465400  0.72810800  1
  C  C49  1  0.91829000  0.93395500  0.67484000  1
  C  C50  1  0.30613600  0.16393700  0.67216900  1
  C  C51  1  0.44267900  0.40188200  0.44269100  1
  C  C52  1  0.89598700  0.21778100  0.09893000  1
  C  C53  1  0.87521500  0.59211100  0.16628000  1
  C  C54  1  0.14971300  0.39730100  0.42764800  1
  C  C55  1  0.06604500  0.08171000  0.82516000  1
  C  C56  1  0.21358200  0.91319400  0.08816200  1
  C  C57  1  0.69386400  0.83606300  0.32783100  1
  C  C58  1  0.82534600  0.37794500  0.77189200  1
  C  C59  1  0.39730100  0.14971300  0.92764800  1
