# generated using pymatgen
data_Cu33(Ni2C5)2
_symmetry_space_group_name_H-M   'P 1'
_cell_length_a   15.16765600
_cell_length_b   15.16765600
_cell_length_c   7.10300400
_cell_angle_alpha   90.00000000
_cell_angle_beta   90.00000000
_cell_angle_gamma   90.00000000
_symmetry_Int_Tables_number   1
_chemical_formula_structural   Cu33(Ni2C5)2
_chemical_formula_sum   'Cu66 Ni8 C20'
_cell_volume   1634.10139219
_cell_formula_units_Z   2
loop_
 _symmetry_equiv_pos_site_id
 _symmetry_equiv_pos_as_xyz
  1  'x, y, z'
loop_
 _atom_site_type_symbol
 _atom_site_label
 _atom_site_symmetry_multiplicity
 _atom_site_fract_x
 _atom_site_fract_y
 _atom_site_fract_z
 _atom_site_occupancy
  C  C0  1  0.37865400  0.80288300  0.37718600  1
  C  C1  1  0.62134600  0.19711700  0.37718600  1
  C  C2  1  0.87865400  0.30288300  0.62281400  1
  C  C3  1  0.12134600  0.69711700  0.62281400  1
  C  C4  1  0.19711700  0.37865400  0.62281400  1
  C  C5  1  0.80288300  0.62134600  0.62281400  1
  C  C6  1  0.69711700  0.87865400  0.37718600  1
  C  C7  1  0.30288300  0.12134600  0.37718600  1
  C  C8  1  0.50000000  0.50000000  0.00000000  1
  C  C9  1  0.00000000  0.00000000  0.00000000  1
  C  C10  1  0.19059500  0.56719600  0.12571800  1
  C  C11  1  0.80940500  0.43280400  0.12571800  1
  C  C12  1  0.69059500  0.06719600  0.87428200  1
  C  C13  1  0.30940500  0.93280400  0.87428200  1
  C  C14  1  0.43280400  0.19059500  0.87428200  1
  C  C15  1  0.56719600  0.80940500  0.87428200  1
  C  C16  1  0.93280400  0.69059500  0.12571800  1
  C  C17  1  0.06719600  0.30940500  0.12571800  1
  C  C18  1  0.00000000  0.50000000  0.31196000  1
  C  C19  1  0.50000000  0.00000000  0.68804000  1
  Ni  Ni20  1  0.70018100  0.64254300  0.12411300  1
  Ni  Ni21  1  0.29981900  0.35745700  0.12411300  1
  Ni  Ni22  1  0.20018100  0.14254300  0.87588700  1
  Ni  Ni23  1  0.79981900  0.85745700  0.87588700  1
  Ni  Ni24  1  0.35745700  0.70018100  0.87588700  1
  Ni  Ni25  1  0.64254300  0.29981900  0.87588700  1
  Ni  Ni26  1  0.85745700  0.20018100  0.12411300  1
  Ni  Ni27  1  0.14254300  0.79981900  0.12411300  1
  Cu  Cu28  1  0.69441000  0.54442600  0.15101600  1
  Cu  Cu29  1  0.30559000  0.45557400  0.15101600  1
  Cu  Cu30  1  0.19441000  0.04442600  0.84898400  1
  Cu  Cu31  1  0.80559000  0.95557400  0.84898400  1
  Cu  Cu32  1  0.45557400  0.69441000  0.84898400  1
  Cu  Cu33  1  0.54442600  0.30559000  0.84898400  1
  Cu  Cu34  1  0.95557400  0.19441000  0.15101600  1
  Cu  Cu35  1  0.04442600  0.80559000  0.15101600  1
  Cu  Cu36  1  0.16208200  0.53977800  0.88410900  1
  Cu  Cu37  1  0.83791800  0.46022200  0.88410900  1
  Cu  Cu38  1  0.66208200  0.03977800  0.11589100  1
  Cu  Cu39  1  0.33791800  0.96022200  0.11589100  1
  Cu  Cu40  1  0.46022200  0.16208200  0.11589100  1
  Cu  Cu41  1  0.53977800  0.83791800  0.11589100  1
  Cu  Cu42  1  0.96022200  0.66208200  0.88410900  1
  Cu  Cu43  1  0.03977800  0.33791800  0.88410900  1
  Cu  Cu44  1  0.49718000  0.63819300  0.38520100  1
  Cu  Cu45  1  0.50282000  0.36180700  0.38520100  1
  Cu  Cu46  1  0.99718000  0.13819300  0.61479900  1
  Cu  Cu47  1  0.00282000  0.86180700  0.61479900  1
  Cu  Cu48  1  0.36180700  0.49718000  0.61479900  1
  Cu  Cu49  1  0.63819300  0.50282000  0.61479900  1
  Cu  Cu50  1  0.86180700  0.99718000  0.38520100  1
  Cu  Cu51  1  0.13819300  0.00282000  0.38520100  1
  Cu  Cu52  1  0.22330400  0.59704600  0.36399600  1
  Cu  Cu53  1  0.77669600  0.40295400  0.36399600  1
  Cu  Cu54  1  0.72330400  0.09704600  0.63600400  1
  Cu  Cu55  1  0.27669600  0.90295400  0.63600400  1
  Cu  Cu56  1  0.40295400  0.22330400  0.63600400  1
  Cu  Cu57  1  0.59704600  0.77669600  0.63600400  1
  Cu  Cu58  1  0.90295400  0.72330400  0.36399600  1
  Cu  Cu59  1  0.09704600  0.27669600  0.36399600  1
  Cu  Cu60  1  0.62647800  0.66736900  0.99409700  1
  Cu  Cu61  1  0.37352200  0.33263100  0.99409700  1
  Cu  Cu62  1  0.12647800  0.16736900  0.00590300  1
  Cu  Cu63  1  0.87352200  0.83263100  0.00590300  1
  Cu  Cu64  1  0.33263100  0.62647800  0.00590300  1
  Cu  Cu65  1  0.66736900  0.37352200  0.00590300  1
  Cu  Cu66  1  0.83263100  0.12647800  0.99409700  1
  Cu  Cu67  1  0.16736900  0.87352200  0.99409700  1
  Cu  Cu68  1  0.78565300  0.66127900  0.02259000  1
  Cu  Cu69  1  0.21434700  0.33872100  0.02259000  1
  Cu  Cu70  1  0.28565300  0.16127900  0.97741000  1
  Cu  Cu71  1  0.71434700  0.83872100  0.97741000  1
  Cu  Cu72  1  0.33872100  0.78565300  0.97741000  1
  Cu  Cu73  1  0.66127900  0.21434700  0.97741000  1
  Cu  Cu74  1  0.83872100  0.28565300  0.02259000  1
  Cu  Cu75  1  0.16127900  0.71434700  0.02259000  1
  Cu  Cu76  1  0.10834900  0.45132400  0.23007400  1
  Cu  Cu77  1  0.89165100  0.54867600  0.23007400  1
  Cu  Cu78  1  0.60834900  0.95132400  0.76992600  1
  Cu  Cu79  1  0.39165100  0.04867600  0.76992600  1
  Cu  Cu80  1  0.54867600  0.10834900  0.76992600  1
  Cu  Cu81  1  0.45132400  0.89165100  0.76992600  1
  Cu  Cu82  1  0.04867600  0.60834900  0.23007400  1
  Cu  Cu83  1  0.95132400  0.39165100  0.23007400  1
  Cu  Cu84  1  0.69621600  0.68899900  0.30396700  1
  Cu  Cu85  1  0.30378400  0.31100100  0.30396700  1
  Cu  Cu86  1  0.19621600  0.18899900  0.69603300  1
  Cu  Cu87  1  0.80378400  0.81100100  0.69603300  1
  Cu  Cu88  1  0.31100100  0.69621600  0.69603300  1
  Cu  Cu89  1  0.68899900  0.30378400  0.69603300  1
  Cu  Cu90  1  0.81100100  0.19621600  0.30396700  1
  Cu  Cu91  1  0.18899900  0.80378400  0.30396700  1
  Cu  Cu92  1  0.00000000  0.50000000  0.54202200  1
  Cu  Cu93  1  0.50000000  0.00000000  0.45797800  1
