# generated using pymatgen
data_CuNiC8
_symmetry_space_group_name_H-M   'P 1'
_cell_length_a   5.18486000
_cell_length_b   12.27912600
_cell_length_c   19.16602800
_cell_angle_alpha   90.00000000
_cell_angle_beta   90.00000000
_cell_angle_gamma   90.00000000
_symmetry_Int_Tables_number   1
_chemical_formula_structural   CuNiC8
_chemical_formula_sum   'Cu8 Ni8 C64'
_cell_volume   1220.21569922
_cell_formula_units_Z   8
loop_
 _symmetry_equiv_pos_site_id
 _symmetry_equiv_pos_as_xyz
  1  'x, y, z'
loop_
 _atom_site_type_symbol
 _atom_site_label
 _atom_site_symmetry_multiplicity
 _atom_site_fract_x
 _atom_site_fract_y
 _atom_site_fract_z
 _atom_site_occupancy
  Ni  Ni0  1  0.45895400  0.17540800  0.68989700  1
  Ni  Ni1  1  0.04104600  0.67540800  0.31010300  1
  Ni  Ni2  1  0.95895400  0.82459200  0.81010300  1
  Ni  Ni3  1  0.54104600  0.32459200  0.18989700  1
  Ni  Ni4  1  0.54104600  0.82459200  0.31010300  1
  Ni  Ni5  1  0.95895400  0.32459200  0.68989700  1
  Ni  Ni6  1  0.04104600  0.17540800  0.18989700  1
  Ni  Ni7  1  0.45895400  0.67540800  0.81010300  1
  Cu  Cu8  1  0.57763600  0.08271500  0.33134400  1
  Cu  Cu9  1  0.92236400  0.58271500  0.66865600  1
  Cu  Cu10  1  0.07763600  0.91728500  0.16865600  1
  Cu  Cu11  1  0.42236400  0.41728500  0.83134400  1
  Cu  Cu12  1  0.42236400  0.91728500  0.66865600  1
  Cu  Cu13  1  0.07763600  0.41728500  0.33134400  1
  Cu  Cu14  1  0.92236400  0.08271500  0.83134400  1
  Cu  Cu15  1  0.57763600  0.58271500  0.16865600  1
  C  C16  1  0.39141700  0.62373500  0.58177700  1
  C  C17  1  0.10858300  0.12373500  0.41822300  1
  C  C18  1  0.89141700  0.37626500  0.91822300  1
  C  C19  1  0.60858300  0.87626500  0.08177700  1
  C  C20  1  0.60858300  0.37626500  0.41822300  1
  C  C21  1  0.89141700  0.87626500  0.58177700  1
  C  C22  1  0.10858300  0.62373500  0.08177700  1
  C  C23  1  0.39141700  0.12373500  0.91822300  1
  C  C24  1  0.85493400  0.28766600  0.22167100  1
  C  C25  1  0.64506600  0.78766600  0.77832900  1
  C  C26  1  0.35493400  0.71233400  0.27832900  1
  C  C27  1  0.14506600  0.21233400  0.72167100  1
  C  C28  1  0.14506600  0.71233400  0.77832900  1
  C  C29  1  0.35493400  0.21233400  0.22167100  1
  C  C30  1  0.64506600  0.28766600  0.72167100  1
  C  C31  1  0.85493400  0.78766600  0.27832900  1
  C  C32  1  0.59153500  0.05505900  0.72738800  1
  C  C33  1  0.90846500  0.55505900  0.27261200  1
  C  C34  1  0.09153500  0.94494100  0.77261200  1
  C  C35  1  0.40846500  0.44494100  0.22738800  1
  C  C36  1  0.40846500  0.94494100  0.27261200  1
  C  C37  1  0.09153500  0.44494100  0.72738800  1
  C  C38  1  0.90846500  0.05505900  0.22738800  1
  C  C39  1  0.59153500  0.55505900  0.77261200  1
  C  C40  1  0.42275400  0.14507900  0.59888200  1
  C  C41  1  0.07724600  0.64507900  0.40111800  1
  C  C42  1  0.92275400  0.85492100  0.90111800  1
  C  C43  1  0.57724600  0.35492100  0.09888200  1
  C  C44  1  0.57724600  0.85492100  0.40111800  1
  C  C45  1  0.92275400  0.35492100  0.59888200  1
  C  C46  1  0.07724600  0.14507900  0.09888200  1
  C  C47  1  0.42275400  0.64507900  0.90111800  1
  C  C48  1  0.19004600  0.57065800  0.56383800  1
  C  C49  1  0.30995400  0.07065800  0.43616200  1
  C  C50  1  0.69004600  0.42934200  0.93616200  1
  C  C51  1  0.80995400  0.92934200  0.06383800  1
  C  C52  1  0.80995400  0.42934200  0.43616200  1
  C  C53  1  0.69004600  0.92934200  0.56383800  1
  C  C54  1  0.30995400  0.57065800  0.06383800  1
  C  C55  1  0.19004600  0.07065800  0.93616200  1
  C  C56  1  0.07415000  0.85895800  0.54293200  1
  C  C57  1  0.42585000  0.35895800  0.45706800  1
  C  C58  1  0.57415000  0.14104200  0.95706800  1
  C  C59  1  0.92585000  0.64104200  0.04293200  1
  C  C60  1  0.92585000  0.14104200  0.45706800  1
  C  C61  1  0.57415000  0.64104200  0.54293200  1
  C  C62  1  0.42585000  0.85895800  0.04293200  1
  C  C63  1  0.07415000  0.35895800  0.95706800  1
  C  C64  1  0.60385200  0.34191800  0.35307600  1
  C  C65  1  0.89614800  0.84191800  0.64692400  1
  C  C66  1  0.10385200  0.65808200  0.14692400  1
  C  C67  1  0.39614800  0.15808200  0.85307600  1
  C  C68  1  0.39614800  0.65808200  0.64692400  1
  C  C69  1  0.10385200  0.15808200  0.35307600  1
  C  C70  1  0.89614800  0.34191800  0.85307600  1
  C  C71  1  0.60385200  0.84191800  0.14692400  1
  C  C72  1  0.76289800  0.94536600  0.38542100  1
  C  C73  1  0.73710200  0.44536600  0.61457900  1
  C  C74  1  0.26289800  0.05463400  0.11457900  1
  C  C75  1  0.23710200  0.55463400  0.88542100  1
  C  C76  1  0.23710200  0.05463400  0.61457900  1
  C  C77  1  0.26289800  0.55463400  0.38542100  1
  C  C78  1  0.73710200  0.94536600  0.88542100  1
  C  C79  1  0.76289800  0.44536600  0.11457900  1
