# generated using pymatgen
data_CuNiC12
_symmetry_space_group_name_H-M   'P 1'
_cell_length_a   6.98987200
_cell_length_b   16.71495200
_cell_length_c   8.09164823
_cell_angle_alpha   90.00000000
_cell_angle_beta   106.82750509
_cell_angle_gamma   90.00000000
_symmetry_Int_Tables_number   1
_chemical_formula_structural   CuNiC12
_chemical_formula_sum   'Cu4 Ni4 C48'
_cell_volume   904.90972429
_cell_formula_units_Z   4
loop_
 _symmetry_equiv_pos_site_id
 _symmetry_equiv_pos_as_xyz
  1  'x, y, z'
loop_
 _atom_site_type_symbol
 _atom_site_label
 _atom_site_symmetry_multiplicity
 _atom_site_fract_x
 _atom_site_fract_y
 _atom_site_fract_z
 _atom_site_occupancy
  C  C0  1  0.70081900  0.75000000  0.40175800  1
  C  C1  1  0.29918100  0.25000000  0.59824200  1
  C  C2  1  0.20110800  0.63972600  0.40661600  1
  C  C3  1  0.79889200  0.13972600  0.59338400  1
  C  C4  1  0.79889200  0.36027400  0.59338400  1
  C  C5  1  0.20110800  0.86027400  0.40661600  1
  Ni  Ni6  1  0.68788400  0.55317000  0.37343900  1
  Ni  Ni7  1  0.31211600  0.05317000  0.62656100  1
  Ni  Ni8  1  0.31211600  0.44683000  0.62656100  1
  Ni  Ni9  1  0.68788400  0.94683000  0.37343900  1
  Cu  Cu10  1  0.34539300  0.60596600  0.92587300  1
  Cu  Cu11  1  0.65460700  0.10596600  0.07412700  1
  Cu  Cu12  1  0.65460700  0.39403400  0.07412700  1
  Cu  Cu13  1  0.34539300  0.89403400  0.92587300  1
  C  C14  1  0.57571700  0.75000000  0.16122200  1
  C  C15  1  0.42428300  0.25000000  0.83877800  1
  C  C16  1  0.81535600  0.75000000  0.63075900  1
  C  C17  1  0.18464400  0.25000000  0.36924100  1
  C  C18  1  0.17598000  0.62936000  0.17118700  1
  C  C19  1  0.82402000  0.12936000  0.82881300  1
  C  C20  1  0.82402000  0.37064000  0.82881300  1
  C  C21  1  0.17598000  0.87064000  0.17118700  1
  C  C22  1  0.23669100  0.65047100  0.64477900  1
  C  C23  1  0.76330900  0.15047100  0.35522100  1
  C  C24  1  0.76330900  0.34952900  0.35522100  1
  C  C25  1  0.23669100  0.84952900  0.64477900  1
  C  C26  1  0.54687700  0.61568400  0.42057500  1
  C  C27  1  0.45312300  0.11568400  0.57942500  1
  C  C28  1  0.45312300  0.38431600  0.57942500  1
  C  C29  1  0.54687700  0.88431600  0.42057500  1
  C  C30  1  0.86416500  0.60752100  0.36203600  1
  C  C31  1  0.13583500  0.10752100  0.63796400  1
  C  C32  1  0.13583500  0.39247900  0.63796400  1
  C  C33  1  0.86416500  0.89247900  0.36203600  1
  C  C34  1  0.75770200  0.49110600  0.51856100  1
  C  C35  1  0.24229800  0.99110600  0.48143900  1
  C  C36  1  0.24229800  0.50889400  0.48143900  1
  C  C37  1  0.75770200  0.00889400  0.51856100  1
  C  C38  1  0.57887400  0.51387700  0.19686200  1
  C  C39  1  0.42112600  0.01387700  0.80313800  1
  C  C40  1  0.42112600  0.48612300  0.80313800  1
  C  C41  1  0.57887400  0.98612300  0.19686200  1
  C  C42  1  0.00870200  0.75000000  0.36725000  1
  C  C43  1  0.99129800  0.25000000  0.63275000  1
  C  C44  1  0.38845700  0.75000000  0.42488000  1
  C  C45  1  0.61154300  0.25000000  0.57512000  1
  C  C46  1  0.62568000  0.65143100  0.95716700  1
  C  C47  1  0.37432000  0.15143100  0.04283300  1
  C  C48  1  0.37432000  0.34856900  0.04283300  1
  C  C49  1  0.62568000  0.84856900  0.95716700  1
  C  C50  1  0.07106200  0.56273700  0.91495400  1
  C  C51  1  0.92893800  0.06273700  0.08504600  1
  C  C52  1  0.92893800  0.43726300  0.08504600  1
  C  C53  1  0.07106200  0.93726300  0.91495400  1
  C  C54  1  0.29827300  0.75000000  0.95025400  1
  C  C55  1  0.70172700  0.25000000  0.04974600  1
