# generated using pymatgen
data_Cu4NiC18
_symmetry_space_group_name_H-M   'P 1'
_cell_length_a   10.32267000
_cell_length_b   11.77034300
_cell_length_c   18.99871757
_cell_angle_alpha   52.66910121
_cell_angle_beta   90.00000000
_cell_angle_gamma   90.00000000
_symmetry_Int_Tables_number   1
_chemical_formula_structural   Cu4NiC18
_chemical_formula_sum   'Cu16 Ni4 C72'
_cell_volume   1835.49259204
_cell_formula_units_Z   4
loop_
 _symmetry_equiv_pos_site_id
 _symmetry_equiv_pos_as_xyz
  1  'x, y, z'
loop_
 _atom_site_type_symbol
 _atom_site_label
 _atom_site_symmetry_multiplicity
 _atom_site_fract_x
 _atom_site_fract_y
 _atom_site_fract_z
 _atom_site_occupancy
  C  C0  1  0.82020500  0.31759200  0.93997500  1
  C  C1  1  0.67979500  0.31759200  0.43997500  1
  C  C2  1  0.17979500  0.68240800  0.06002500  1
  C  C3  1  0.32020500  0.68240800  0.56002500  1
  C  C4  1  0.87703200  0.80530300  0.18562900  1
  C  C5  1  0.62296800  0.80530300  0.68562900  1
  C  C6  1  0.12296800  0.19469700  0.81437100  1
  C  C7  1  0.37703200  0.19469700  0.31437100  1
  C  C8  1  0.38750400  0.69526100  0.31777400  1
  C  C9  1  0.11249600  0.69526100  0.81777400  1
  C  C10  1  0.61249600  0.30473900  0.68222600  1
  C  C11  1  0.88750400  0.30473900  0.18222600  1
  Ni  Ni12  1  0.00000000  0.50000000  0.50000000  1
  Ni  Ni13  1  0.50000000  0.50000000  0.00000000  1
  Ni  Ni14  1  0.00000000  0.00000000  0.50000000  1
  Ni  Ni15  1  0.50000000  0.00000000  0.00000000  1
  Cu  Cu16  1  0.72898800  0.66390200  0.44305100  1
  Cu  Cu17  1  0.77101200  0.66390200  0.94305100  1
  Cu  Cu18  1  0.27101200  0.33609800  0.55694900  1
  Cu  Cu19  1  0.22898800  0.33609800  0.05694900  1
  Cu  Cu20  1  0.70463200  0.97650500  0.43158700  1
  Cu  Cu21  1  0.79536800  0.97650500  0.93158700  1
  Cu  Cu22  1  0.29536800  0.02349500  0.56841300  1
  Cu  Cu23  1  0.20463200  0.02349500  0.06841300  1
  Cu  Cu24  1  0.06497600  0.38048000  0.37664400  1
  Cu  Cu25  1  0.43502400  0.38048000  0.87664400  1
  Cu  Cu26  1  0.93502400  0.61952000  0.62335600  1
  Cu  Cu27  1  0.56497600  0.61952000  0.12335600  1
  Cu  Cu28  1  0.02056000  0.89871800  0.35910600  1
  Cu  Cu29  1  0.47944000  0.89871800  0.85910600  1
  Cu  Cu30  1  0.97944000  0.10128200  0.64089400  1
  Cu  Cu31  1  0.52056000  0.10128200  0.14089400  1
  C  C32  1  0.57309200  0.62998300  0.48764600  1
  C  C33  1  0.92690800  0.62998300  0.98764600  1
  C  C34  1  0.42690800  0.37001700  0.51235400  1
  C  C35  1  0.07309200  0.37001700  0.01235400  1
  C  C36  1  0.70262200  0.68709100  0.34394600  1
  C  C37  1  0.79737800  0.68709100  0.84394600  1
  C  C38  1  0.29737800  0.31290900  0.65605400  1
  C  C39  1  0.20262200  0.31290900  0.15605400  1
  C  C40  1  0.80644200  0.48411900  0.51416600  1
  C  C41  1  0.69355800  0.48411900  0.01416600  1
  C  C42  1  0.19355800  0.51588100  0.48583400  1
  C  C43  1  0.30644200  0.51588100  0.98583400  1
  C  C44  1  0.75454300  0.87024800  0.39174300  1
  C  C45  1  0.74545700  0.87024800  0.89174300  1
  C  C46  1  0.24545700  0.12975200  0.60825700  1
  C  C47  1  0.25454300  0.12975200  0.10825700  1
  C  C48  1  0.95325800  0.71007900  0.42607500  1
  C  C49  1  0.54674200  0.71007900  0.92607500  1
  C  C50  1  0.04674200  0.28992100  0.57392500  1
  C  C51  1  0.45325800  0.28992100  0.07392500  1
  C  C52  1  0.77582200  0.65327200  0.57758900  1
  C  C53  1  0.72417800  0.65327200  0.07758900  1
  C  C54  1  0.22417800  0.34672800  0.42241100  1
  C  C55  1  0.27582200  0.34672800  0.92241100  1
  C  C56  1  0.55302700  0.91076000  0.48071300  1
  C  C57  1  0.94697300  0.91076000  0.98071300  1
  C  C58  1  0.44697300  0.08924000  0.51928700  1
  C  C59  1  0.05302700  0.08924000  0.01928700  1
  C  C60  1  0.68278100  0.15730200  0.33999500  1
  C  C61  1  0.81721900  0.15730200  0.83999500  1
  C  C62  1  0.31721900  0.84269800  0.66000500  1
  C  C63  1  0.18278100  0.84269800  0.16000500  1
  C  C64  1  0.80444300  0.97003100  0.51394100  1
  C  C65  1  0.69555700  0.97003100  0.01394100  1
  C  C66  1  0.19555700  0.02996900  0.48605900  1
  C  C67  1  0.30444300  0.02996900  0.98605900  1
  C  C68  1  0.07382000  0.46087300  0.26264300  1
  C  C69  1  0.42618000  0.46087300  0.76264300  1
  C  C70  1  0.92618000  0.53912700  0.73735700  1
  C  C71  1  0.57382000  0.53912700  0.23735700  1
  C  C72  1  0.97351100  0.21372800  0.43254100  1
  C  C73  1  0.52648900  0.21372800  0.93254100  1
  C  C74  1  0.02648900  0.78627200  0.56745900  1
  C  C75  1  0.47351100  0.78627200  0.06745900  1
  C  C76  1  0.98193000  0.50130600  0.39144600  1
  C  C77  1  0.51807000  0.50130600  0.89144600  1
  C  C78  1  0.01807000  0.49869400  0.60855400  1
  C  C79  1  0.48193000  0.49869400  0.10855400  1
  C  C80  1  0.18932900  0.87879400  0.36897000  1
  C  C81  1  0.31067100  0.87879400  0.86897000  1
  C  C82  1  0.81067100  0.12120600  0.63103000  1
  C  C83  1  0.68932900  0.12120600  0.13103000  1
  C  C84  1  0.97915700  0.98895300  0.24795600  1
  C  C85  1  0.52084300  0.98895300  0.74795600  1
  C  C86  1  0.02084300  0.01104700  0.75204400  1
  C  C87  1  0.47915700  0.01104700  0.25204400  1
  C  C88  1  0.97544700  0.01651500  0.38888300  1
  C  C89  1  0.52455300  0.01651500  0.88888300  1
  C  C90  1  0.02455300  0.98348500  0.61111700  1
  C  C91  1  0.47544700  0.98348500  0.11111700  1
