# generated using pymatgen
data_CuNiC
_symmetry_space_group_name_H-M   'P 1'
_cell_length_a   6.38819700
_cell_length_b   6.38819700
_cell_length_c   6.38819700
_cell_angle_alpha   90.00000000
_cell_angle_beta   90.00000000
_cell_angle_gamma   90.00000000
_symmetry_Int_Tables_number   1
_chemical_formula_structural   CuNiC
_chemical_formula_sum   'Cu4 Ni4 C4'
_cell_volume   260.69632048
_cell_formula_units_Z   4
loop_
 _symmetry_equiv_pos_site_id
 _symmetry_equiv_pos_as_xyz
  1  'x, y, z'
loop_
 _atom_site_type_symbol
 _atom_site_label
 _atom_site_symmetry_multiplicity
 _atom_site_fract_x
 _atom_site_fract_y
 _atom_site_fract_z
 _atom_site_occupancy
  Ni  Ni0  1  0.13071500  0.63071500  0.86928500  1
  Ni  Ni1  1  0.63071500  0.86928500  0.13071500  1
  Ni  Ni2  1  0.86928500  0.13071500  0.63071500  1
  Ni  Ni3  1  0.36928500  0.36928500  0.36928500  1
  Cu  Cu4  1  0.48536300  0.98536300  0.51463700  1
  Cu  Cu5  1  0.98536300  0.51463700  0.48536300  1
  Cu  Cu6  1  0.51463700  0.48536300  0.98536300  1
  Cu  Cu7  1  0.01463700  0.01463700  0.01463700  1
  C  C8  1  0.87904900  0.37904900  0.12095100  1
  C  C9  1  0.37904900  0.12095100  0.87904900  1
  C  C10  1  0.12095100  0.87904900  0.37904900  1
  C  C11  1  0.62095100  0.62095100  0.62095100  1
