# generated using pymatgen
data_Cu9(NiC6)2
_symmetry_space_group_name_H-M   'P 1'
_cell_length_a   11.50777100
_cell_length_b   6.61928100
_cell_length_c   13.47841857
_cell_angle_alpha   61.93462962
_cell_angle_beta   90.00000000
_cell_angle_gamma   90.00000000
_symmetry_Int_Tables_number   1
_chemical_formula_structural   Cu9(NiC6)2
_chemical_formula_sum   'Cu36 Ni8 C48'
_cell_volume   905.96635833
_cell_formula_units_Z   4
loop_
 _symmetry_equiv_pos_site_id
 _symmetry_equiv_pos_as_xyz
  1  'x, y, z'
loop_
 _atom_site_type_symbol
 _atom_site_label
 _atom_site_symmetry_multiplicity
 _atom_site_fract_x
 _atom_site_fract_y
 _atom_site_fract_z
 _atom_site_occupancy
  C  C0  1  0.91776500  0.91916200  0.33528700  1
  C  C1  1  0.58223500  0.91916200  0.83528700  1
  C  C2  1  0.08223500  0.08083800  0.66471300  1
  C  C3  1  0.41776500  0.08083800  0.16471300  1
  Ni  Ni4  1  0.04924100  0.39130100  0.35935700  1
  Ni  Ni5  1  0.45075900  0.39130100  0.85935700  1
  Ni  Ni6  1  0.95075900  0.60869900  0.64064300  1
  Ni  Ni7  1  0.54924100  0.60869900  0.14064300  1
  Ni  Ni8  1  0.13386000  0.81834300  0.16383500  1
  Ni  Ni9  1  0.36614000  0.81834300  0.66383500  1
  Ni  Ni10  1  0.86614000  0.18165700  0.83616500  1
  Ni  Ni11  1  0.63386000  0.18165700  0.33616500  1
  Cu  Cu12  1  0.11432000  0.68191300  0.50338100  1
  Cu  Cu13  1  0.38568000  0.68191300  0.00338100  1
  Cu  Cu14  1  0.88568000  0.31808700  0.49661900  1
  Cu  Cu15  1  0.61432000  0.31808700  0.99661900  1
  Cu  Cu16  1  0.79205900  0.73907300  0.05560300  1
  Cu  Cu17  1  0.70794100  0.73907300  0.55560300  1
  Cu  Cu18  1  0.20794100  0.26092700  0.94439700  1
  Cu  Cu19  1  0.29205900  0.26092700  0.44439700  1
  Cu  Cu20  1  0.13411200  0.94676500  0.46060600  1
  Cu  Cu21  1  0.36588800  0.94676500  0.96060600  1
  Cu  Cu22  1  0.86588800  0.05323500  0.53939400  1
  Cu  Cu23  1  0.63411200  0.05323500  0.03939400  1
  Cu  Cu24  1  0.85821600  0.50045100  0.10939200  1
  Cu  Cu25  1  0.64178400  0.50045100  0.60939200  1
  Cu  Cu26  1  0.14178400  0.49954900  0.89060800  1
  Cu  Cu27  1  0.35821600  0.49954900  0.39060800  1
  Cu  Cu28  1  0.66516000  0.79996500  0.31264200  1
  Cu  Cu29  1  0.83484000  0.79996500  0.81264200  1
  Cu  Cu30  1  0.33484000  0.20003500  0.68735800  1
  Cu  Cu31  1  0.16516000  0.20003500  0.18735800  1
  Cu  Cu32  1  0.88331700  0.16499400  0.08139000  1
  Cu  Cu33  1  0.61668300  0.16499400  0.58139000  1
  Cu  Cu34  1  0.11668300  0.83500600  0.91861000  1
  Cu  Cu35  1  0.38331700  0.83500600  0.41861000  1
  Cu  Cu36  1  0.75924500  0.17711400  0.12378200  1
  Cu  Cu37  1  0.74075500  0.17711400  0.62378200  1
  Cu  Cu38  1  0.24075500  0.82288600  0.87621800  1
  Cu  Cu39  1  0.25924500  0.82288600  0.37621800  1
  Cu  Cu40  1  0.98809900  0.74900500  0.07117500  1
  Cu  Cu41  1  0.51190100  0.74900500  0.57117500  1
  Cu  Cu42  1  0.01190100  0.25099500  0.92882500  1
  Cu  Cu43  1  0.48809900  0.25099500  0.42882500  1
  Cu  Cu44  1  0.74182500  0.61354700  0.29943500  1
  Cu  Cu45  1  0.75817500  0.61354700  0.79943500  1
  Cu  Cu46  1  0.25817500  0.38645300  0.70056500  1
  Cu  Cu47  1  0.24182500  0.38645300  0.20056500  1
  C  C48  1  0.95935000  0.54196700  0.37730500  1
  C  C49  1  0.54065000  0.54196700  0.87730500  1
  C  C50  1  0.04065000  0.45803300  0.62269500  1
  C  C51  1  0.45935000  0.45803300  0.12269500  1
  C  C52  1  0.00003400  0.25285800  0.30595200  1
  C  C53  1  0.49996600  0.25285800  0.80595200  1
  C  C54  1  0.99996600  0.74714200  0.69404800  1
  C  C55  1  0.50003400  0.74714200  0.19404800  1
  C  C56  1  0.11906800  0.24050900  0.46623600  1
  C  C57  1  0.38093200  0.24050900  0.96623600  1
  C  C58  1  0.88093200  0.75949100  0.53376400  1
  C  C59  1  0.61906800  0.75949100  0.03376400  1
  C  C60  1  0.07665000  0.78676200  0.06542400  1
  C  C61  1  0.42335000  0.78676200  0.56542400  1
  C  C62  1  0.92335000  0.21323800  0.93457600  1
  C  C63  1  0.57665000  0.21323800  0.43457600  1
  C  C64  1  0.05771800  0.96176800  0.19818200  1
  C  C65  1  0.44228200  0.96176800  0.69818200  1
  C  C66  1  0.94228200  0.03823200  0.80181800  1
  C  C67  1  0.55771800  0.03823200  0.30181800  1
  C  C68  1  0.25740000  0.89523100  0.13120500  1
  C  C69  1  0.24260000  0.89523100  0.63120500  1
  C  C70  1  0.74260000  0.10476900  0.86879500  1
  C  C71  1  0.75740000  0.10476900  0.36879500  1
  C  C72  1  0.14638100  0.56304700  0.27089600  1
  C  C73  1  0.35361900  0.56304700  0.77089600  1
  C  C74  1  0.85361900  0.43695300  0.72910400  1
  C  C75  1  0.64638100  0.43695300  0.22910400  1
  C  C76  1  0.12210900  0.83129100  0.43434000  1
  C  C77  1  0.37789100  0.83129100  0.93434000  1
  C  C78  1  0.87789100  0.16870900  0.56566000  1
  C  C79  1  0.62210900  0.16870900  0.06566000  1
  C  C80  1  0.84299600  0.18161100  0.14162600  1
  C  C81  1  0.65700400  0.18161100  0.64162600  1
  C  C82  1  0.15700400  0.81838900  0.85837400  1
  C  C83  1  0.34299600  0.81838900  0.35837400  1
  C  C84  1  0.74298500  0.72949000  0.32482300  1
  C  C85  1  0.75701500  0.72949000  0.82482300  1
  C  C86  1  0.25701500  0.27051000  0.67517700  1
  C  C87  1  0.24298500  0.27051000  0.17517700  1
  C  C88  1  0.86710500  0.66529200  0.08611500  1
  C  C89  1  0.63289500  0.66529200  0.58611500  1
  C  C90  1  0.13289500  0.33470800  0.91388500  1
  C  C91  1  0.36710500  0.33470800  0.41388500  1
