# generated using pymatgen
data_Cu12Ni3C4
_symmetry_space_group_name_H-M   'P 1'
_cell_length_a   9.41269635
_cell_length_b   9.41269635
_cell_length_c   9.43326427
_cell_angle_alpha   70.76036173
_cell_angle_beta   70.76036173
_cell_angle_gamma   109.51419768
_symmetry_Int_Tables_number   1
_chemical_formula_structural   Cu12Ni3C4
_chemical_formula_sum   'Cu24 Ni6 C8'
_cell_volume   646.69209286
_cell_formula_units_Z   2
loop_
 _symmetry_equiv_pos_site_id
 _symmetry_equiv_pos_as_xyz
  1  'x, y, z'
loop_
 _atom_site_type_symbol
 _atom_site_label
 _atom_site_symmetry_multiplicity
 _atom_site_fract_x
 _atom_site_fract_y
 _atom_site_fract_z
 _atom_site_occupancy
  C  C0  1  0.35048800  0.31414100  0.62100800  1
  C  C1  1  0.31414100  0.35048800  0.12100800  1
  C  C2  1  0.79457500  0.66251200  0.02255800  1
  C  C3  1  0.66251200  0.79457600  0.52255800  1
  C  C4  1  0.44463800  0.95226600  0.85455400  1
  C  C5  1  0.95226500  0.44463800  0.35455400  1
  C  C6  1  0.16288400  0.84207800  0.50404600  1
  C  C7  1  0.84207800  0.16288400  0.00404600  1
  Ni  Ni8  1  0.45336600  0.74369900  0.23703900  1
  Ni  Ni9  1  0.74369900  0.45336600  0.73703900  1
  Ni  Ni10  1  0.52241500  0.13745100  0.35584900  1
  Ni  Ni11  1  0.13745100  0.52241500  0.85584900  1
  Ni  Ni12  1  0.95795400  0.07252400  0.64376500  1
  Ni  Ni13  1  0.07252400  0.95795400  0.14376500  1
  Cu  Cu14  1  0.92618500  0.59304700  0.59917500  1
  Cu  Cu15  1  0.59304700  0.92618500  0.09917500  1
  Cu  Cu16  1  0.52775200  0.65370000  0.32240000  1
  Cu  Cu17  1  0.65370000  0.52775200  0.82240000  1
  Cu  Cu18  1  0.31516100  0.75075700  0.36785800  1
  Cu  Cu19  1  0.75075700  0.31516100  0.86785800  1
  Cu  Cu20  1  0.65709700  0.37581500  0.65499400  1
  Cu  Cu21  1  0.37581500  0.65709700  0.15499400  1
  Cu  Cu22  1  0.59261500  0.31129500  0.33707000  1
  Cu  Cu23  1  0.31129500  0.59261500  0.83707000  1
  Cu  Cu24  1  0.66741200  0.10832100  0.27333400  1
  Cu  Cu25  1  0.10832100  0.66741200  0.77333400  1
  Cu  Cu26  1  0.40432900  0.11135900  0.27992100  1
  Cu  Cu27  1  0.11135900  0.40432900  0.77992100  1
  Cu  Cu28  1  0.40739800  0.99633400  0.54246600  1
  Cu  Cu29  1  0.99633400  0.40739800  0.04246600  1
  Cu  Cu30  1  0.79345500  0.02623600  0.64082300  1
  Cu  Cu31  1  0.02623600  0.79345500  0.14082300  1
  Cu  Cu32  1  0.00654500  0.93346200  0.64626800  1
  Cu  Cu33  1  0.93346200  0.00654500  0.14626800  1
  Cu  Cu34  1  0.10092400  0.24086500  0.49314000  1
  Cu  Cu35  1  0.24086500  0.10092400  0.99314000  1
  Cu  Cu36  1  0.07422400  0.93552300  0.30893100  1
  Cu  Cu37  1  0.93552300  0.07422400  0.80893100  1
