# generated using pymatgen
data_CuNiC7
_symmetry_space_group_name_H-M   'P 1'
_cell_length_a   14.63997500
_cell_length_b   5.20077900
_cell_length_c   5.59296844
_cell_angle_alpha   89.65833167
_cell_angle_beta   90.00000000
_cell_angle_gamma   90.00000000
_symmetry_Int_Tables_number   1
_chemical_formula_structural   CuNiC7
_chemical_formula_sum   'Cu4 Ni4 C28'
_cell_volume   425.83698826
_cell_formula_units_Z   4
loop_
 _symmetry_equiv_pos_site_id
 _symmetry_equiv_pos_as_xyz
  1  'x, y, z'
loop_
 _atom_site_type_symbol
 _atom_site_label
 _atom_site_symmetry_multiplicity
 _atom_site_fract_x
 _atom_site_fract_y
 _atom_site_fract_z
 _atom_site_occupancy
  C  C0  1  0.00022900  0.74657400  0.77066400  1
  C  C1  1  0.50022900  0.25342600  0.72933600  1
  C  C2  1  0.99977100  0.25342600  0.22933600  1
  C  C3  1  0.49977100  0.74657400  0.27066400  1
  Ni  Ni4  1  0.33220500  0.82313600  0.82303000  1
  Ni  Ni5  1  0.83220500  0.17686400  0.67697000  1
  Ni  Ni6  1  0.66779500  0.17686400  0.17697000  1
  Ni  Ni7  1  0.16779500  0.82313600  0.32303000  1
  Cu  Cu8  1  0.16419200  0.31858700  0.68607900  1
  Cu  Cu9  1  0.66419200  0.68141300  0.81392100  1
  Cu  Cu10  1  0.83580800  0.68141300  0.31392100  1
  Cu  Cu11  1  0.33580800  0.31858700  0.18607900  1
  C  C12  1  0.90845400  0.96836800  0.43148300  1
  C  C13  1  0.59119400  0.46955600  0.06504600  1
  C  C14  1  0.40845400  0.03163200  0.06851700  1
  C  C15  1  0.09119400  0.53044400  0.43495400  1
  C  C16  1  0.09154600  0.03163200  0.56851700  1
  C  C17  1  0.40880600  0.53044400  0.93495400  1
  C  C18  1  0.59154600  0.96836800  0.93148300  1
  C  C19  1  0.90880600  0.46955600  0.56504600  1
  C  C20  1  0.25904800  0.14775300  0.86030800  1
  C  C21  1  0.23888800  0.65153700  0.63417500  1
  C  C22  1  0.75904800  0.85224700  0.63969200  1
  C  C23  1  0.73888800  0.34846300  0.86582500  1
  C  C24  1  0.74095200  0.85224700  0.13969200  1
  C  C25  1  0.76111200  0.34846300  0.36582500  1
  C  C26  1  0.24095200  0.14775300  0.36030800  1
  C  C27  1  0.26111200  0.65153700  0.13417500  1
  C  C28  1  0.08488300  0.41967600  0.90850400  1
  C  C29  1  0.41647200  0.91998400  0.58868100  1
  C  C30  1  0.58488300  0.58032400  0.59149600  1
  C  C31  1  0.91647200  0.08001600  0.91131900  1
  C  C32  1  0.91511700  0.58032400  0.09149600  1
  C  C33  1  0.58352800  0.08001600  0.41131900  1
  C  C34  1  0.41511700  0.41967600  0.40850400  1
  C  C35  1  0.08352800  0.91998400  0.08868100  1
