# generated using pymatgen
data_Cu8NiC5
_symmetry_space_group_name_H-M   'P 1'
_cell_length_a   5.58090400
_cell_length_b   5.65393800
_cell_length_c   29.81277200
_cell_angle_alpha   90.00000000
_cell_angle_beta   90.00000000
_cell_angle_gamma   90.00000000
_symmetry_Int_Tables_number   1
_chemical_formula_structural   Cu8NiC5
_chemical_formula_sum   'Cu32 Ni4 C20'
_cell_volume   940.71474773
_cell_formula_units_Z   4
loop_
 _symmetry_equiv_pos_site_id
 _symmetry_equiv_pos_as_xyz
  1  'x, y, z'
loop_
 _atom_site_type_symbol
 _atom_site_label
 _atom_site_symmetry_multiplicity
 _atom_site_fract_x
 _atom_site_fract_y
 _atom_site_fract_z
 _atom_site_occupancy
  C  C0  1  0.99831700  0.25723500  0.24969500  1
  C  C1  1  0.49831700  0.74276500  0.75030500  1
  C  C2  1  0.49831700  0.75723500  0.25030500  1
  C  C3  1  0.99831700  0.24276500  0.74969500  1
  C  C4  1  0.98552300  0.69395500  0.34012200  1
  C  C5  1  0.48552300  0.30604500  0.65987800  1
  C  C6  1  0.48552300  0.19395500  0.15987800  1
  C  C7  1  0.98552300  0.80604500  0.84012200  1
  C  C8  1  0.99778800  0.24156500  0.07255800  1
  C  C9  1  0.49778800  0.75843500  0.92744200  1
  C  C10  1  0.49778800  0.74156500  0.42744200  1
  C  C11  1  0.99778800  0.25843500  0.57255800  1
  C  C12  1  0.02743600  0.69719300  0.15842200  1
  C  C13  1  0.52743600  0.30280700  0.84157800  1
  C  C14  1  0.52743600  0.19719300  0.34157800  1
  C  C15  1  0.02743600  0.80280700  0.65842200  1
  C  C16  1  0.01627500  0.24248200  0.42743600  1
  C  C17  1  0.51627500  0.75751800  0.57256400  1
  C  C18  1  0.51627500  0.74248200  0.07256400  1
  C  C19  1  0.01627500  0.25751800  0.92743600  1
  Ni  Ni20  1  0.50526800  0.24995000  0.50153200  1
  Ni  Ni21  1  0.00526800  0.75005000  0.49846800  1
  Ni  Ni22  1  0.00526800  0.74995000  0.99846800  1
  Ni  Ni23  1  0.50526800  0.25005000  0.00153200  1
  Cu  Cu24  1  0.75182100  0.99460700  0.11016700  1
  Cu  Cu25  1  0.25182100  0.00539300  0.88983300  1
  Cu  Cu26  1  0.25182100  0.49460700  0.38983300  1
  Cu  Cu27  1  0.75182100  0.50539300  0.61016700  1
  Cu  Cu28  1  0.25461700  0.00235300  0.10838900  1
  Cu  Cu29  1  0.75461700  0.99764700  0.89161100  1
  Cu  Cu30  1  0.75461700  0.50235300  0.39161100  1
  Cu  Cu31  1  0.25461700  0.49764700  0.60838900  1
  Cu  Cu32  1  0.76205600  0.49537000  0.10929400  1
  Cu  Cu33  1  0.26205600  0.50463000  0.89070600  1
  Cu  Cu34  1  0.26205600  0.99537000  0.39070600  1
  Cu  Cu35  1  0.76205600  0.00463000  0.60929400  1
  Cu  Cu36  1  0.25559300  0.50496700  0.10790500  1
  Cu  Cu37  1  0.75559300  0.49503300  0.89209500  1
  Cu  Cu38  1  0.75559300  0.00496700  0.39209500  1
  Cu  Cu39  1  0.25559300  0.99503300  0.60790500  1
  Cu  Cu40  1  0.39388600  0.83196600  0.18735900  1
  Cu  Cu41  1  0.89388600  0.16803400  0.81264100  1
  Cu  Cu42  1  0.89388600  0.33196600  0.31264100  1
  Cu  Cu43  1  0.39388600  0.66803400  0.68735900  1
  Cu  Cu44  1  0.61338900  0.83139100  0.31210600  1
  Cu  Cu45  1  0.11338900  0.16860900  0.68789400  1
  Cu  Cu46  1  0.11338900  0.33139100  0.18789400  1
  Cu  Cu47  1  0.61338900  0.66860900  0.81210600  1
  Cu  Cu48  1  0.24534900  0.55314100  0.26779900  1
  Cu  Cu49  1  0.74534900  0.44685900  0.73220100  1
  Cu  Cu50  1  0.74534900  0.05314100  0.23220100  1
  Cu  Cu51  1  0.24534900  0.94685900  0.76779900  1
  Cu  Cu52  1  0.74168200  0.54631000  0.23288000  1
  Cu  Cu53  1  0.24168200  0.45369000  0.76712000  1
  Cu  Cu54  1  0.24168200  0.04631000  0.26712000  1
  Cu  Cu55  1  0.74168200  0.95369000  0.73288000  1
