# generated using pymatgen
data_Cu5Ni2C11
_symmetry_space_group_name_H-M   'P 1'
_cell_length_a   6.45267900
_cell_length_b   6.95170914
_cell_length_c   10.00202835
_cell_angle_alpha   98.49712365
_cell_angle_beta   98.65916412
_cell_angle_gamma   88.80294807
_symmetry_Int_Tables_number   1
_chemical_formula_structural   Cu5Ni2C11
_chemical_formula_sum   'Cu10 Ni4 C22'
_cell_volume   438.67923060
_cell_formula_units_Z   2
loop_
 _symmetry_equiv_pos_site_id
 _symmetry_equiv_pos_as_xyz
  1  'x, y, z'
loop_
 _atom_site_type_symbol
 _atom_site_label
 _atom_site_symmetry_multiplicity
 _atom_site_fract_x
 _atom_site_fract_y
 _atom_site_fract_z
 _atom_site_occupancy
  C  C0  1  0.36874600  0.26079600  0.54117600  1
  C  C1  1  0.63028100  0.73971700  0.45916700  1
  Ni  Ni2  1  0.80464500  0.23324100  0.43484300  1
  Ni  Ni3  1  0.19458800  0.76778600  0.56530000  1
  Ni  Ni4  1  0.05713300  0.13895400  0.20978300  1
  Ni  Ni5  1  0.94151100  0.86057500  0.79009500  1
  Cu  Cu6  1  0.72023600  0.48526700  0.73586000  1
  Cu  Cu7  1  0.27548300  0.51516300  0.26546600  1
  Cu  Cu8  1  0.76737900  0.26616300  0.76371200  1
  Cu  Cu9  1  0.23215300  0.73384600  0.23607200  1
  Cu  Cu10  1  0.97637100  0.17580300  0.98815400  1
  Cu  Cu11  1  0.02189100  0.82403500  0.01205600  1
  Cu  Cu12  1  0.15087400  0.20410000  0.78828800  1
  Cu  Cu13  1  0.84873900  0.79356300  0.21321500  1
  Cu  Cu14  1  0.38311600  0.28396200  0.84342300  1
  Cu  Cu15  1  0.62496900  0.69406500  0.15695800  1
  C  C16  1  0.84353000  0.18038500  0.27697400  1
  C  C17  1  0.15495000  0.82133200  0.72283500  1
  C  C18  1  0.02014400  0.25134500  0.08355700  1
  C  C19  1  0.98054900  0.74836800  0.91630500  1
  C  C20  1  0.66022800  0.41201300  0.44102400  1
  C  C21  1  0.33828100  0.58855800  0.55960800  1
  C  C22  1  0.65651100  0.35730100  0.73250500  1
  C  C23  1  0.34140500  0.64197800  0.26836700  1
  C  C24  1  0.66606600  0.06997300  0.46359400  1
  C  C25  1  0.33411000  0.93068900  0.53700400  1
  C  C26  1  0.24217900  0.23044100  0.30855500  1
  C  C27  1  0.75691900  0.76756100  0.69165400  1
  C  C28  1  0.01337300  0.25808100  0.52622900  1
  C  C29  1  0.98593600  0.74395100  0.47405500  1
  C  C30  1  0.06490000  0.91865400  0.16544900  1
  C  C31  1  0.93156300  0.08074100  0.83428800  1
  C  C32  1  0.27248500  0.26983300  0.76505000  1
  C  C33  1  0.72898100  0.72670900  0.23786800  1
  C  C34  1  0.50282900  0.98721800  0.97482300  1
  C  C35  1  0.49534600  0.80942900  0.97028700  1
