# generated using pymatgen
data_Cu(Ni11C13)2
_symmetry_space_group_name_H-M   'P 1'
_cell_length_a   5.83273000
_cell_length_b   8.57765239
_cell_length_c   9.96665266
_cell_angle_alpha   115.22346996
_cell_angle_beta   89.73560837
_cell_angle_gamma   98.53032765
_symmetry_Int_Tables_number   1
_chemical_formula_structural   Cu(Ni11C13)2
_chemical_formula_sum   'Cu1 Ni22 C26'
_cell_volume   445.15036219
_cell_formula_units_Z   1
loop_
 _symmetry_equiv_pos_site_id
 _symmetry_equiv_pos_as_xyz
  1  'x, y, z'
loop_
 _atom_site_type_symbol
 _atom_site_label
 _atom_site_symmetry_multiplicity
 _atom_site_fract_x
 _atom_site_fract_y
 _atom_site_fract_z
 _atom_site_occupancy
  C  C0  1  0.52173300  0.88274500  0.19329400  1
  C  C1  1  0.48385400  0.11785200  0.80494700  1
  C  C2  1  0.01808500  0.38341800  0.68774500  1
  C  C3  1  0.98053400  0.62198500  0.30466800  1
  C  C4  1  0.00107900  0.00232300  0.99832000  1
  C  C5  1  0.49429500  0.49657800  0.49322400  1
  Ni  Ni6  1  0.18176900  0.74463600  0.00755000  1
  Ni  Ni7  1  0.83586700  0.27608300  0.97296800  1
  Ni  Ni8  1  0.31912200  0.21612900  0.03819700  1
  Ni  Ni9  1  0.69290700  0.78269000  0.96587200  1
  Ni  Ni10  1  0.34427900  0.76601900  0.48172400  1
  Ni  Ni11  1  0.66307100  0.23923600  0.50012300  1
  Ni  Ni12  1  0.80765200  0.70074800  0.54792300  1
  Ni  Ni13  1  0.16980000  0.27732500  0.46695500  1
  Ni  Ni14  1  0.99058200  0.00817600  0.74267200  1
  Ni  Ni15  1  0.01936800  0.99003400  0.25946400  1
  Ni  Ni16  1  0.50689500  0.49671900  0.74854500  1
  Ni  Ni17  1  0.48268000  0.52038200  0.22791200  1
  Ni  Ni18  1  0.69090100  0.20865400  0.26139400  1
  Ni  Ni19  1  0.43425400  0.14235600  0.30913700  1
  Ni  Ni20  1  0.29381700  0.78961100  0.73014000  1
  Ni  Ni21  1  0.56014800  0.85732900  0.68961600  1
  Ni  Ni22  1  0.06063600  0.36865700  0.18967700  1
  Ni  Ni23  1  0.86325100  0.47179200  0.07713700  1
  Ni  Ni24  1  0.49182800  0.49806600  0.00139300  1
  Ni  Ni25  1  0.22733900  0.49982600  0.96274400  1
  Ni  Ni26  1  0.97933100  0.00731300  0.47915200  1
  Ni  Ni27  1  0.24283600  0.00282900  0.52381800  1
  Cu  Cu28  1  0.88352400  0.66908600  0.80039900  1
  C  C29  1  0.14901600  0.79125200  0.07546300  1
  C  C30  1  0.84684000  0.21273900  0.91407500  1
  C  C31  1  0.30479000  0.10840400  0.02491500  1
  C  C32  1  0.69598000  0.88911200  0.98005300  1
  C  C33  1  0.34374600  0.70940600  0.41598900  1
  C  C34  1  0.64081200  0.28475600  0.57082700  1
  C  C35  1  0.79777900  0.60573800  0.51718700  1
  C  C36  1  0.18767500  0.38935700  0.47391500  1
  C  C37  1  0.07482500  0.07437900  0.79525300  1
  C  C38  1  0.92816900  0.93476400  0.20000700  1
  C  C39  1  0.42509900  0.42924800  0.69649700  1
  C  C40  1  0.57117600  0.57014000  0.29216200  1
  C  C41  1  0.58302000  0.10203500  0.31068300  1
  C  C42  1  0.40297100  0.89734200  0.68538000  1
  C  C43  1  0.90302200  0.39704700  0.18647600  1
  C  C44  1  0.34306200  0.45063800  0.04977800  1
  C  C45  1  0.12987600  0.06652800  0.44001200  1
  C  C46  1  0.75689900  0.58904900  0.91454900  1
  C  C47  1  0.07965800  0.61096200  0.80120200  1
  C  C48  1  0.81609700  0.80360700  0.68590800  1
