# generated using pymatgen
data_Cu4NiC54
_symmetry_space_group_name_H-M   'P 1'
_cell_length_a   9.25827700
_cell_length_b   9.25827700
_cell_length_c   16.47701700
_cell_angle_alpha   90.00000000
_cell_angle_beta   90.00000000
_cell_angle_gamma   90.00000000
_symmetry_Int_Tables_number   1
_chemical_formula_structural   Cu4NiC54
_chemical_formula_sum   'Cu8 Ni2 C108'
_cell_volume   1412.33893087
_cell_formula_units_Z   2
loop_
 _symmetry_equiv_pos_site_id
 _symmetry_equiv_pos_as_xyz
  1  'x, y, z'
loop_
 _atom_site_type_symbol
 _atom_site_label
 _atom_site_symmetry_multiplicity
 _atom_site_fract_x
 _atom_site_fract_y
 _atom_site_fract_z
 _atom_site_occupancy
  Ni  Ni0  1  0.00000000  0.00000000  0.50040700  1
  Ni  Ni1  1  0.50000000  0.50000000  0.00040700  1
  Cu  Cu2  1  0.39149600  0.23920600  0.50183800  1
  Cu  Cu3  1  0.60850400  0.76079400  0.50183800  1
  Cu  Cu4  1  0.10850400  0.73920600  0.00183800  1
  Cu  Cu5  1  0.89149600  0.26079400  0.00183800  1
  Cu  Cu6  1  0.23920600  0.60850400  0.50183800  1
  Cu  Cu7  1  0.76079400  0.39149600  0.50183800  1
  Cu  Cu8  1  0.73920600  0.89149600  0.00183800  1
  Cu  Cu9  1  0.26079400  0.10850400  0.00183800  1
  C  C10  1  0.59354500  0.28129000  0.30766400  1
  C  C11  1  0.40645500  0.71871000  0.30766400  1
  C  C12  1  0.90645500  0.78129000  0.80766400  1
  C  C13  1  0.09354500  0.21871000  0.80766400  1
  C  C14  1  0.28129000  0.40645500  0.30766400  1
  C  C15  1  0.71871000  0.59354500  0.30766400  1
  C  C16  1  0.78129000  0.09354500  0.80766400  1
  C  C17  1  0.21871000  0.90645500  0.80766400  1
  C  C18  1  0.40673200  0.71912300  0.69207700  1
  C  C19  1  0.59326800  0.28087700  0.69207700  1
  C  C20  1  0.09326800  0.21912300  0.19207700  1
  C  C21  1  0.90673200  0.78087700  0.19207700  1
  C  C22  1  0.71912300  0.59326800  0.69207700  1
  C  C23  1  0.28087700  0.40673200  0.69207700  1
  C  C24  1  0.21912300  0.90673200  0.19207700  1
  C  C25  1  0.78087700  0.09326800  0.19207700  1
  C  C26  1  0.67195600  0.07443300  0.40995800  1
  C  C27  1  0.32804400  0.92556700  0.40995800  1
  C  C28  1  0.82804400  0.57443300  0.90995800  1
  C  C29  1  0.17195600  0.42556700  0.90995800  1
  C  C30  1  0.07443300  0.32804400  0.40995800  1
  C  C31  1  0.92556700  0.67195600  0.40995800  1
  C  C32  1  0.57443300  0.17195600  0.90995800  1
  C  C33  1  0.42556700  0.82804400  0.90995800  1
  C  C34  1  0.32715900  0.92592100  0.59057100  1
  C  C35  1  0.67284100  0.07407900  0.59057100  1
  C  C36  1  0.17284100  0.42592100  0.09057100  1
  C  C37  1  0.82715900  0.57407900  0.09057100  1
  C  C38  1  0.92592100  0.67284100  0.59057100  1
  C  C39  1  0.07407900  0.32715900  0.59057100  1
  C  C40  1  0.42592100  0.82715900  0.09057100  1
  C  C41  1  0.57407900  0.17284100  0.09057100  1
  C  C42  1  0.26684500  0.04831800  0.64664300  1
  C  C43  1  0.73315500  0.95168200  0.64664300  1
  C  C44  1  0.23315500  0.54831800  0.14664300  1
  C  C45  1  0.76684500  0.45168200  0.14664300  1
  C  C46  1  0.04831800  0.73315500  0.64664300  1
  C  C47  1  0.95168200  0.26684500  0.64664300  1
  C  C48  1  0.54831800  0.76684500  0.14664300  1
  C  C49  1  0.45168200  0.23315500  0.14664300  1
  C  C50  1  0.73161300  0.95172400  0.35416200  1
  C  C51  1  0.26838700  0.04827600  0.35416200  1
  C  C52  1  0.76838700  0.45172400  0.85416200  1
  C  C53  1  0.23161300  0.54827600  0.85416200  1
  C  C54  1  0.95172400  0.26838700  0.35416200  1
  C  C55  1  0.04827600  0.73161300  0.35416200  1
  C  C56  1  0.45172400  0.23161300  0.85416200  1
  C  C57  1  0.54827600  0.76838700  0.85416200  1
  C  C58  1  0.50000000  0.50000000  0.43799000  1
  C  C59  1  0.00000000  0.00000000  0.93799000  1
  C  C60  1  0.28191700  0.02610200  0.58936500  1
  C  C61  1  0.71808300  0.97389800  0.58936500  1
  C  C62  1  0.21808300  0.52610200  0.08936500  1
  C  C63  1  0.78191700  0.47389800  0.08936500  1
  C  C64  1  0.02610200  0.71808300  0.58936500  1
  C  C65  1  0.97389800  0.28191700  0.58936500  1
  C  C66  1  0.52610200  0.78191700  0.08936500  1
  C  C67  1  0.47389800  0.21808300  0.08936500  1
  C  C68  1  0.71697500  0.97433200  0.41137300  1
  C  C69  1  0.28302500  0.02566800  0.41137300  1
  C  C70  1  0.78302500  0.47433100  0.91137300  1
  C  C71  1  0.21697500  0.52566800  0.91137300  1
  C  C72  1  0.97433200  0.28302500  0.41137300  1
  C  C73  1  0.02566800  0.71697500  0.41137300  1
  C  C74  1  0.47433100  0.21697500  0.91137300  1
  C  C75  1  0.52566800  0.78302500  0.91137300  1
  C  C76  1  0.42420300  0.31103800  0.28053600  1
  C  C77  1  0.57579700  0.68896200  0.28053600  1
  C  C78  1  0.07579700  0.81103800  0.78053600  1
  C  C79  1  0.92420300  0.18896200  0.78053600  1
  C  C80  1  0.31103800  0.57579700  0.28053600  1
  C  C81  1  0.68896200  0.42420300  0.28053600  1
  C  C82  1  0.81103800  0.92420300  0.78053600  1
  C  C83  1  0.18896200  0.07579700  0.78053600  1
  C  C84  1  0.57619400  0.68906200  0.71852400  1
  C  C85  1  0.42380600  0.31093800  0.71852400  1
  C  C86  1  0.92380600  0.18906200  0.21852400  1
  C  C87  1  0.07619400  0.81093800  0.21852400  1
  C  C88  1  0.68906200  0.42380600  0.71852400  1
  C  C89  1  0.31093800  0.57619400  0.71852400  1
  C  C90  1  0.18906200  0.07619400  0.21852400  1
  C  C91  1  0.81093800  0.92380600  0.21852400  1
  C  C92  1  0.64843700  0.14753000  0.25050300  1
  C  C93  1  0.35156300  0.85247000  0.25050300  1
  C  C94  1  0.85156300  0.64753000  0.75050300  1
  C  C95  1  0.14843700  0.35247000  0.75050300  1
  C  C96  1  0.14753000  0.35156300  0.25050300  1
  C  C97  1  0.85247000  0.64843700  0.25050300  1
  C  C98  1  0.64753000  0.14843700  0.75050300  1
  C  C99  1  0.35247000  0.85156300  0.75050300  1
  C  C100  1  0.60738300  0.24168400  0.40272800  1
  C  C101  1  0.39261700  0.75831600  0.40272800  1
  C  C102  1  0.89261700  0.74168400  0.90272800  1
  C  C103  1  0.10738300  0.25831600  0.90272800  1
  C  C104  1  0.24168400  0.39261700  0.40272800  1
  C  C105  1  0.75831600  0.60738300  0.40272800  1
  C  C106  1  0.74168400  0.10738300  0.90272800  1
  C  C107  1  0.25831600  0.89261700  0.90272800  1
  C  C108  1  0.39167900  0.76158000  0.59769200  1
  C  C109  1  0.60832100  0.23842000  0.59769200  1
  C  C110  1  0.10832100  0.26158000  0.09769200  1
  C  C111  1  0.89167900  0.73842000  0.09769200  1
  C  C112  1  0.76158000  0.60832100  0.59769200  1
  C  C113  1  0.23842000  0.39167900  0.59769200  1
  C  C114  1  0.26158000  0.89167900  0.09769200  1
  C  C115  1  0.73842000  0.10832100  0.09769200  1
  C  C116  1  0.50000000  0.50000000  0.49706000  1
  C  C117  1  0.00000000  0.00000000  0.99706000  1
