# generated using pymatgen
data_Cu2Ni3C19
_symmetry_space_group_name_H-M   'P 1'
_cell_length_a   11.28282238
_cell_length_b   11.28282238
_cell_length_c   11.28282238
_cell_angle_alpha   108.35944233
_cell_angle_beta   108.35944233
_cell_angle_gamma   111.71841947
_symmetry_Int_Tables_number   1
_chemical_formula_structural   Cu2Ni3C19
_chemical_formula_sum   'Cu8 Ni12 C76'
_cell_volume   1104.40366630
_cell_formula_units_Z   4
loop_
 _symmetry_equiv_pos_site_id
 _symmetry_equiv_pos_as_xyz
  1  'x, y, z'
loop_
 _atom_site_type_symbol
 _atom_site_label
 _atom_site_symmetry_multiplicity
 _atom_site_fract_x
 _atom_site_fract_y
 _atom_site_fract_z
 _atom_site_occupancy
  C  C0  1  0.50000000  0.50000000  0.00000000  1
  C  C1  1  0.00000000  0.00000000  0.00000000  1
  C  C2  1  0.25000000  0.75000000  0.50000000  1
  C  C3  1  0.75000000  0.25000000  0.50000000  1
  C  C4  1  0.92840800  0.92840800  0.35681600  1
  C  C5  1  0.07159200  0.42840800  0.00000000  1
  C  C6  1  0.67840800  0.17840800  0.85681600  1
  C  C7  1  0.82159200  0.67840800  0.50000000  1
  C  C8  1  0.32159200  0.82159200  0.14318400  1
  C  C9  1  0.17840800  0.32159200  0.50000000  1
  C  C10  1  0.57159200  0.57159200  0.64318400  1
  C  C11  1  0.42840800  0.07159200  0.00000000  1
  C  C12  1  0.90615800  0.14986300  0.91656800  1
  C  C13  1  0.73329500  0.64986300  0.24370400  1
  C  C14  1  0.89986300  0.15615800  0.41656800  1
  C  C15  1  0.23959100  0.65615800  0.25629600  1
  C  C16  1  0.34384200  0.60013700  0.58343200  1
  C  C17  1  0.51670500  0.10013700  0.25629600  1
  C  C18  1  0.35013700  0.59384200  0.08343200  1
  C  C19  1  0.01040900  0.09384200  0.24370400  1
  C  C20  1  0.40615800  0.48959100  0.75629600  1
  C  C21  1  0.23329500  0.98959100  0.08343200  1
  C  C22  1  0.39986300  0.98329500  0.74370400  1
  C  C23  1  0.73959100  0.48329500  0.58343200  1
  C  C24  1  0.84384200  0.26040900  0.74370400  1
  C  C25  1  0.01670500  0.76040900  0.41656800  1
  C  C26  1  0.85013700  0.76670500  0.75629600  1
  C  C27  1  0.51040900  0.26670500  0.91656800  1
  Ni  Ni28  1  0.75000000  0.75000000  0.00000000  1
  Ni  Ni29  1  0.25000000  0.25000000  0.00000000  1
  Ni  Ni30  1  0.50000000  0.00000000  0.50000000  1
  Ni  Ni31  1  0.00000000  0.50000000  0.50000000  1
  Ni  Ni32  1  0.37500000  0.75357100  0.87857100  1
  Ni  Ni33  1  0.37500000  0.25357100  0.37857100  1
  Ni  Ni34  1  0.50357100  0.62500000  0.37857100  1
  Ni  Ni35  1  0.74642900  0.12500000  0.12142900  1
  Ni  Ni36  1  0.87500000  0.99642900  0.62142900  1
  Ni  Ni37  1  0.87500000  0.49642900  0.12142900  1
  Ni  Ni38  1  0.00357100  0.62500000  0.87857100  1
  Ni  Ni39  1  0.24642900  0.12500000  0.62142900  1
  Cu  Cu40  1  0.62500000  0.87500000  0.75000000  1
  Cu  Cu41  1  0.62500000  0.37500000  0.25000000  1
  Cu  Cu42  1  0.62500000  0.87500000  0.25000000  1
  Cu  Cu43  1  0.12500000  0.37500000  0.25000000  1
  Cu  Cu44  1  0.12500000  0.37500000  0.75000000  1
  Cu  Cu45  1  0.12500000  0.87500000  0.25000000  1
  Cu  Cu46  1  0.12500000  0.87500000  0.75000000  1
  Cu  Cu47  1  0.62500000  0.37500000  0.75000000  1
  C  C48  1  0.52732800  0.68900700  0.77112500  1
  C  C49  1  0.41788200  0.18900700  0.16168000  1
  C  C50  1  0.43900700  0.77732800  0.27112500  1
  C  C51  1  0.00620300  0.27732800  0.33832000  1
  C  C52  1  0.72267200  0.06099300  0.72887500  1
  C  C53  1  0.83211800  0.56099300  0.33832000  1
  C  C54  1  0.81099300  0.97267200  0.22887500  1
  C  C55  1  0.24379700  0.47267200  0.16168000  1
  C  C56  1  0.02732800  0.25620300  0.83832000  1
  C  C57  1  0.91788200  0.75620300  0.22887500  1
  C  C58  1  0.93900700  0.66788200  0.66168000  1
  C  C59  1  0.50620300  0.16788200  0.72887500  1
  C  C60  1  0.22267200  0.49379700  0.66168000  1
  C  C61  1  0.33211800  0.99379700  0.27112500  1
  C  C62  1  0.31099300  0.08211800  0.83832000  1
  C  C63  1  0.74379700  0.58211800  0.77112500  1
  C  C64  1  0.94494900  0.39463000  0.65777600  1
  C  C65  1  0.23685300  0.89463000  0.44968000  1
  C  C66  1  0.14463000  0.19494900  0.15777600  1
  C  C67  1  0.53717300  0.69494900  0.05032000  1
  C  C68  1  0.30505100  0.35537000  0.84222400  1
  C  C69  1  0.01314700  0.85537000  0.05032000  1
  C  C70  1  0.10537000  0.55505100  0.34222400  1
  C  C71  1  0.71282700  0.05505100  0.44968000  1
  C  C72  1  0.44494900  0.78717300  0.55032000  1
  C  C73  1  0.73685300  0.28717300  0.34222400  1
  C  C74  1  0.64463000  0.48685300  0.94968000  1
  C  C75  1  0.03717300  0.98685300  0.84222400  1
  C  C76  1  0.80505100  0.96282700  0.94968000  1
  C  C77  1  0.51314700  0.46282700  0.15777600  1
  C  C78  1  0.60537000  0.26314700  0.55032000  1
  C  C79  1  0.21282700  0.76314700  0.65777600  1
  C  C80  1  0.20472300  0.57640200  0.92630200  1
  C  C81  1  0.15010000  0.07640200  0.37167900  1
  C  C82  1  0.32640200  0.45472300  0.42630200  1
  C  C83  1  0.52842100  0.95472300  0.12832100  1
  C  C84  1  0.04527700  0.17359800  0.57369800  1
  C  C85  1  0.09990000  0.67359800  0.12832100  1
  C  C86  1  0.92359800  0.29527700  0.07369800  1
  C  C87  1  0.72157900  0.79527700  0.37167900  1
  C  C88  1  0.70472300  0.77842100  0.62832100  1
  C  C89  1  0.65010000  0.27842100  0.07369800  1
  C  C90  1  0.82640200  0.40010000  0.87167900  1
  C  C91  1  0.02842100  0.90010000  0.57369800  1
  C  C92  1  0.54527700  0.97157900  0.87167900  1
  C  C93  1  0.59990000  0.47157900  0.42630200  1
  C  C94  1  0.42359800  0.34990000  0.62832100  1
  C  C95  1  0.22157900  0.84990000  0.92630200  1
