# generated using pymatgen
data_Cu2NiC11
_symmetry_space_group_name_H-M   'P 1'
_cell_length_a   7.62065286
_cell_length_b   7.62065286
_cell_length_c   10.91577453
_cell_angle_alpha   70.97746075
_cell_angle_beta   70.97746075
_cell_angle_gamma   41.74356531
_symmetry_Int_Tables_number   1
_chemical_formula_structural   Cu2NiC11
_chemical_formula_sum   'Cu4 Ni2 C22'
_cell_volume   395.55517099
_cell_formula_units_Z   2
loop_
 _symmetry_equiv_pos_site_id
 _symmetry_equiv_pos_as_xyz
  1  'x, y, z'
loop_
 _atom_site_type_symbol
 _atom_site_label
 _atom_site_symmetry_multiplicity
 _atom_site_fract_x
 _atom_site_fract_y
 _atom_site_fract_z
 _atom_site_occupancy
  C  C0  1  0.78435200  0.21564800  0.25000000  1
  C  C1  1  0.21564800  0.78435200  0.75000000  1
  Ni  Ni2  1  0.00000000  0.50000000  0.00000000  1
  Ni  Ni3  1  0.50000000  0.00000000  0.50000000  1
  Cu  Cu4  1  0.36030500  0.83973000  0.03858200  1
  Cu  Cu5  1  0.16027000  0.63969500  0.46141800  1
  Cu  Cu6  1  0.63969500  0.16027000  0.96141800  1
  Cu  Cu7  1  0.83973000  0.36030500  0.53858200  1
  C  C8  1  0.14896200  0.17787500  0.56983800  1
  C  C9  1  0.82212500  0.85103800  0.93016200  1
  C  C10  1  0.85103800  0.82212500  0.43016200  1
  C  C11  1  0.17787500  0.14896200  0.06983800  1
  C  C12  1  0.67929500  0.60285200  0.07910400  1
  C  C13  1  0.39714800  0.32070500  0.42089600  1
  C  C14  1  0.32070500  0.39714800  0.92089600  1
  C  C15  1  0.60285200  0.67929500  0.57910400  1
  C  C16  1  0.84793200  0.37491000  0.38528900  1
  C  C17  1  0.62509000  0.15206800  0.11471100  1
  C  C18  1  0.15206800  0.62509000  0.61471100  1
  C  C19  1  0.37491000  0.84793200  0.88528900  1
  C  C20  1  0.21051700  0.75514800  0.12596000  1
  C  C21  1  0.24485200  0.78948300  0.37404000  1
  C  C22  1  0.78948300  0.24485200  0.87404000  1
  C  C23  1  0.75514800  0.21051700  0.62596000  1
  C  C24  1  0.01235200  0.54783100  0.15748600  1
  C  C25  1  0.45216900  0.98764800  0.34251400  1
  C  C26  1  0.98764800  0.45216900  0.84251400  1
  C  C27  1  0.54783100  0.01235200  0.65748600  1
