# generated using pymatgen
data_Cu3NiC
_symmetry_space_group_name_H-M   'P 1'
_cell_length_a   10.86945981
_cell_length_b   10.86945981
_cell_length_c   10.86945971
_cell_angle_alpha   23.34107421
_cell_angle_beta   23.34107421
_cell_angle_gamma   23.34107577
_symmetry_Int_Tables_number   1
_chemical_formula_structural   Cu3NiC
_chemical_formula_sum   'Cu3 Ni1 C1'
_cell_volume   176.99206743
_cell_formula_units_Z   1
loop_
 _symmetry_equiv_pos_site_id
 _symmetry_equiv_pos_as_xyz
  1  'x, y, z'
loop_
 _atom_site_type_symbol
 _atom_site_label
 _atom_site_symmetry_multiplicity
 _atom_site_fract_x
 _atom_site_fract_y
 _atom_site_fract_z
 _atom_site_occupancy
  C  C0  1  0.39826000  0.39826000  0.39826000  1
  Ni  Ni1  1  0.60122400  0.60122400  0.60122400  1
  Cu  Cu2  1  0.78231100  0.78231100  0.78231100  1
  Cu  Cu3  1  0.21416200  0.21416200  0.21416200  1
  Cu  Cu4  1  0.00404300  0.00404300  0.00404300  1
