# generated using pymatgen
data_Cu2NiC10
_symmetry_space_group_name_H-M   'P 1'
_cell_length_a   5.12257434
_cell_length_b   5.12257434
_cell_length_c   7.24616368
_cell_angle_alpha   110.13233379
_cell_angle_beta   110.13233379
_cell_angle_gamma   91.50416916
_symmetry_Int_Tables_number   1
_chemical_formula_structural   Cu2NiC10
_chemical_formula_sum   'Cu2 Ni1 C10'
_cell_volume   165.34502027
_cell_formula_units_Z   1
loop_
 _symmetry_equiv_pos_site_id
 _symmetry_equiv_pos_as_xyz
  1  'x, y, z'
loop_
 _atom_site_type_symbol
 _atom_site_label
 _atom_site_symmetry_multiplicity
 _atom_site_fract_x
 _atom_site_fract_y
 _atom_site_fract_z
 _atom_site_occupancy
  Ni  Ni0  1  0.00000000  0.00000000  0.00000000  1
  Cu  Cu1  1  0.00000000  0.00000000  0.50000000  1
  Cu  Cu2  1  0.50000000  0.50000000  0.50000000  1
  C  C3  1  0.30013500  0.69986500  0.00000000  1
  C  C4  1  0.69986500  0.30013500  0.00000000  1
  C  C5  1  0.08409600  0.08409600  0.77956100  1
  C  C6  1  0.91590400  0.91590400  0.22043900  1
  C  C7  1  0.30453500  0.30453500  0.22043900  1
  C  C8  1  0.69546500  0.69546500  0.77956100  1
  C  C9  1  0.71631800  0.71631800  0.43263600  1
  C  C10  1  0.28368200  0.28368200  0.56736400  1
  C  C11  1  0.25000000  0.75000000  0.50000000  1
  C  C12  1  0.75000000  0.25000000  0.50000000  1
