# generated using pymatgen
data_Cu3Ni3C14
_symmetry_space_group_name_H-M   'P 1'
_cell_length_a   6.98829600
_cell_length_b   8.22179100
_cell_length_c   11.07477822
_cell_angle_alpha   77.74632410
_cell_angle_beta   90.00000000
_cell_angle_gamma   90.00000000
_symmetry_Int_Tables_number   1
_chemical_formula_structural   Cu3Ni3C14
_chemical_formula_sum   'Cu6 Ni6 C28'
_cell_volume   621.81900981
_cell_formula_units_Z   2
loop_
 _symmetry_equiv_pos_site_id
 _symmetry_equiv_pos_as_xyz
  1  'x, y, z'
loop_
 _atom_site_type_symbol
 _atom_site_label
 _atom_site_symmetry_multiplicity
 _atom_site_fract_x
 _atom_site_fract_y
 _atom_site_fract_z
 _atom_site_occupancy
  C  C0  1  0.75000000  0.42804200  0.16096600  1
  C  C1  1  0.25000000  0.57195800  0.83903400  1
  Ni  Ni2  1  0.25000000  0.65146600  0.23664000  1
  Ni  Ni3  1  0.75000000  0.34853400  0.76336000  1
  Ni  Ni4  1  0.25000000  0.23360500  0.43291500  1
  Ni  Ni5  1  0.50000000  0.00000000  0.00000000  1
  Ni  Ni6  1  0.75000000  0.76639500  0.56708500  1
  Ni  Ni7  1  0.00000000  0.00000000  0.00000000  1
  Cu  Cu8  1  0.25000000  0.80348000  0.51993700  1
  Cu  Cu9  1  0.75000000  0.19652000  0.48006300  1
  Cu  Cu10  1  0.25000000  0.27180900  0.76246200  1
  Cu  Cu11  1  0.75000000  0.72819100  0.23753800  1
  Cu  Cu12  1  0.75000000  0.68224400  0.89987800  1
  Cu  Cu13  1  0.25000000  0.31775600  0.10012200  1
  C  C14  1  0.75000000  0.66408200  0.76232500  1
  C  C15  1  0.57317100  0.23033000  0.39396200  1
  C  C16  1  0.25000000  0.21566900  0.64140200  1
  C  C17  1  0.56029100  0.77259300  0.91920300  1
  C  C18  1  0.75000000  0.31115000  0.57631100  1
  C  C19  1  0.75000000  0.12700600  0.88412700  1
  C  C20  1  0.25000000  0.68885000  0.42368900  1
  C  C21  1  0.06029100  0.22740700  0.08079700  1
  C  C22  1  0.25000000  0.98553100  0.43834000  1
  C  C23  1  0.75000000  0.01446900  0.56166000  1
  C  C24  1  0.07916100  0.38775900  0.78221600  1
  C  C25  1  0.25000000  0.87299400  0.11587300  1
  C  C26  1  0.57916100  0.61224100  0.21778400  1
  C  C27  1  0.75000000  0.50273200  0.97993200  1
  C  C28  1  0.75000000  0.78433100  0.35859800  1
  C  C29  1  0.43970900  0.22740700  0.08079700  1
  C  C30  1  0.92682900  0.23033000  0.39396200  1
  C  C31  1  0.42682900  0.76967000  0.60603800  1
  C  C32  1  0.42083900  0.38775900  0.78221600  1
  C  C33  1  0.25000000  0.33591800  0.23767500  1
  C  C34  1  0.75000000  0.89000600  0.13200500  1
  C  C35  1  0.25000000  0.10999400  0.86799500  1
  C  C36  1  0.92083900  0.61224100  0.21778400  1
  C  C37  1  0.93970900  0.77259300  0.91920300  1
  C  C38  1  0.07317100  0.76967000  0.60603800  1
  C  C39  1  0.25000000  0.49726800  0.02006800  1
