# generated using pymatgen
data_Cu2NiC7
_symmetry_space_group_name_H-M   'P 1'
_cell_length_a   6.85063612
_cell_length_b   6.85063612
_cell_length_c   5.14211147
_cell_angle_alpha   80.82360144
_cell_angle_beta   80.82360144
_cell_angle_gamma   78.02546495
_symmetry_Int_Tables_number   1
_chemical_formula_structural   Cu2NiC7
_chemical_formula_sum   'Cu4 Ni2 C14'
_cell_volume   231.04853252
_cell_formula_units_Z   2
loop_
 _symmetry_equiv_pos_site_id
 _symmetry_equiv_pos_as_xyz
  1  'x, y, z'
loop_
 _atom_site_type_symbol
 _atom_site_label
 _atom_site_symmetry_multiplicity
 _atom_site_fract_x
 _atom_site_fract_y
 _atom_site_fract_z
 _atom_site_occupancy
  Ni  Ni0  1  0.69458100  0.30541900  0.25000000  1
  Ni  Ni1  1  0.30541900  0.69458100  0.75000000  1
  C  C2  1  0.10075400  0.89924600  0.25000000  1
  C  C3  1  0.89924600  0.10075400  0.75000000  1
  Cu  Cu4  1  0.58866400  0.83406700  0.12470300  1
  Cu  Cu5  1  0.16593300  0.41133600  0.37529700  1
  Cu  Cu6  1  0.41133600  0.16593300  0.87529700  1
  Cu  Cu7  1  0.83406700  0.58866400  0.62470300  1
  C  C8  1  0.69812500  0.59584100  0.32954700  1
  C  C9  1  0.40415900  0.30187500  0.17045300  1
  C  C10  1  0.30187500  0.40415900  0.67045300  1
  C  C11  1  0.59584100  0.69812500  0.82954700  1
  C  C12  1  0.85117700  0.34922300  0.87546700  1
  C  C13  1  0.65077700  0.14882300  0.62453300  1
  C  C14  1  0.14882300  0.65077700  0.12453300  1
  C  C15  1  0.34922300  0.85117700  0.37546700  1
  C  C16  1  0.80937500  0.97615100  0.11289800  1
  C  C17  1  0.02384900  0.19062500  0.38710200  1
  C  C18  1  0.19062500  0.02384900  0.88710200  1
  C  C19  1  0.97615100  0.80937500  0.61289800  1
