# generated using pymatgen
data_Cu2Ni3
_symmetry_space_group_name_H-M   'P 1'
_cell_length_a   16.35333600
_cell_length_b   7.06654200
_cell_length_c   10.79690149
_cell_angle_alpha   77.78047556
_cell_angle_beta   90.00000000
_cell_angle_gamma   90.00000000
_symmetry_Int_Tables_number   1
_chemical_formula_structural   Cu2Ni3
_chemical_formula_sum   'Cu16 Ni24'
_cell_volume   1219.43825958
_cell_formula_units_Z   8
loop_
 _symmetry_equiv_pos_site_id
 _symmetry_equiv_pos_as_xyz
  1  'x, y, z'
loop_
 _atom_site_type_symbol
 _atom_site_label
 _atom_site_symmetry_multiplicity
 _atom_site_fract_x
 _atom_site_fract_y
 _atom_site_fract_z
 _atom_site_occupancy
  Ni  Ni0  1  0.00000000  0.00000000  0.00000000  1
  Ni  Ni1  1  0.50000000  0.00000000  0.00000000  1
  Ni  Ni2  1  0.25000000  0.01023900  0.99381700  1
  Ni  Ni3  1  0.75000000  0.98976100  0.00618300  1
  Ni  Ni4  1  0.12564100  0.50710500  0.99421300  1
  Ni  Ni5  1  0.62564100  0.49289500  0.00578700  1
  Ni  Ni6  1  0.87435900  0.49289500  0.00578700  1
  Ni  Ni7  1  0.37435900  0.50710500  0.99421300  1
  Ni  Ni8  1  0.00135300  0.77402500  0.67151700  1
  Ni  Ni9  1  0.50135300  0.22597500  0.32848300  1
  Ni  Ni10  1  0.99864700  0.22597500  0.32848300  1
  Ni  Ni11  1  0.49864700  0.77402500  0.67151700  1
  Ni  Ni12  1  0.25000000  0.78603600  0.66939000  1
  Ni  Ni13  1  0.75000000  0.21396400  0.33061000  1
  Ni  Ni14  1  0.75000000  0.76333200  0.66617700  1
  Ni  Ni15  1  0.25000000  0.23666800  0.33382300  1
  Ni  Ni16  1  0.12492200  0.28175700  0.67037000  1
  Ni  Ni17  1  0.62492200  0.71824300  0.32963000  1
  Ni  Ni18  1  0.87507800  0.71824300  0.32963000  1
  Ni  Ni19  1  0.37507800  0.28175700  0.67037000  1
  Ni  Ni20  1  0.62321900  0.26207500  0.66421200  1
  Ni  Ni21  1  0.12321900  0.73792500  0.33578800  1
  Ni  Ni22  1  0.37678100  0.73792500  0.33578800  1
  Ni  Ni23  1  0.87678100  0.26207500  0.66421200  1
  Cu  Cu24  1  0.25000000  0.61993800  0.20274800  1
  Cu  Cu25  1  0.75000000  0.38006200  0.79725200  1
  Cu  Cu26  1  0.75000000  0.60287400  0.17782800  1
  Cu  Cu27  1  0.25000000  0.39712600  0.82217200  1
  Cu  Cu28  1  0.99136400  0.60299900  0.17032700  1
  Cu  Cu29  1  0.49136400  0.39700100  0.82967300  1
  Cu  Cu30  1  0.00863600  0.39700100  0.82967300  1
  Cu  Cu31  1  0.50863600  0.60299900  0.17032700  1
  Cu  Cu32  1  0.12908900  0.89687400  0.82754300  1
  Cu  Cu33  1  0.62908900  0.10312600  0.17245700  1
  Cu  Cu34  1  0.87091100  0.10312600  0.17245700  1
  Cu  Cu35  1  0.37091100  0.89687400  0.82754300  1
  Cu  Cu36  1  0.62129300  0.88925500  0.81665800  1
  Cu  Cu37  1  0.12129300  0.11074500  0.18334200  1
  Cu  Cu38  1  0.37870700  0.11074500  0.18334200  1
  Cu  Cu39  1  0.87870700  0.88925500  0.81665800  1
