# generated using pymatgen
data_Cu2NiC4
_symmetry_space_group_name_H-M   'P 1'
_cell_length_a   2.92772800
_cell_length_b   9.28862700
_cell_length_c   9.52908800
_cell_angle_alpha   90.00000000
_cell_angle_beta   90.00000000
_cell_angle_gamma   90.00000000
_symmetry_Int_Tables_number   1
_chemical_formula_structural   Cu2NiC4
_chemical_formula_sum   'Cu8 Ni4 C16'
_cell_volume   259.13948257
_cell_formula_units_Z   4
loop_
 _symmetry_equiv_pos_site_id
 _symmetry_equiv_pos_as_xyz
  1  'x, y, z'
loop_
 _atom_site_type_symbol
 _atom_site_label
 _atom_site_symmetry_multiplicity
 _atom_site_fract_x
 _atom_site_fract_y
 _atom_site_fract_z
 _atom_site_occupancy
  Ni  Ni0  1  0.80414100  0.25000000  0.85292700  1
  Ni  Ni1  1  0.80414100  0.75000000  0.64707300  1
  Ni  Ni2  1  0.19585900  0.25000000  0.35292700  1
  Ni  Ni3  1  0.19585900  0.75000000  0.14707300  1
  Cu  Cu4  1  0.27559300  0.07023600  0.61340100  1
  Cu  Cu5  1  0.27559300  0.57023600  0.88659900  1
  Cu  Cu6  1  0.72440700  0.57023600  0.38659900  1
  Cu  Cu7  1  0.27559300  0.92976400  0.88659900  1
  Cu  Cu8  1  0.72440700  0.92976400  0.38659900  1
  Cu  Cu9  1  0.27559300  0.42976400  0.61340100  1
  Cu  Cu10  1  0.72440700  0.42976400  0.11340100  1
  Cu  Cu11  1  0.72440700  0.07023600  0.11340100  1
  C  C12  1  0.72343700  0.38670300  0.47261300  1
  C  C13  1  0.27656300  0.61329700  0.52738700  1
  C  C14  1  0.84879800  0.50000000  0.75000000  1
  C  C15  1  0.27656300  0.38670300  0.97261300  1
  C  C16  1  0.27656300  0.11329700  0.97261300  1
  C  C17  1  0.30345400  0.75000000  0.79511800  1
  C  C18  1  0.72343700  0.61329700  0.02738700  1
  C  C19  1  0.69654600  0.75000000  0.29511800  1
  C  C20  1  0.84879800  0.00000000  0.75000000  1
  C  C21  1  0.15120200  0.50000000  0.25000000  1
  C  C22  1  0.72343700  0.11329700  0.47261300  1
  C  C23  1  0.69654600  0.25000000  0.20488200  1
  C  C24  1  0.30345400  0.25000000  0.70488200  1
  C  C25  1  0.15120200  0.00000000  0.25000000  1
  C  C26  1  0.72343700  0.88670300  0.02738700  1
  C  C27  1  0.27656300  0.88670300  0.52738700  1
