# generated using pymatgen
data_Cu2Ni6C19
_symmetry_space_group_name_H-M   'P 1'
_cell_length_a   6.05144400
_cell_length_b   8.05463300
_cell_length_c   18.69429878
_cell_angle_alpha   88.60800919
_cell_angle_beta   90.00000000
_cell_angle_gamma   90.00000000
_symmetry_Int_Tables_number   1
_chemical_formula_structural   Cu2Ni6C19
_chemical_formula_sum   'Cu4 Ni12 C38'
_cell_volume   910.93161254
_cell_formula_units_Z   2
loop_
 _symmetry_equiv_pos_site_id
 _symmetry_equiv_pos_as_xyz
  1  'x, y, z'
loop_
 _atom_site_type_symbol
 _atom_site_label
 _atom_site_symmetry_multiplicity
 _atom_site_fract_x
 _atom_site_fract_y
 _atom_site_fract_z
 _atom_site_occupancy
  Ni  Ni0  1  0.75678100  0.49866800  0.07849800  1
  Ni  Ni1  1  0.24321900  0.50133200  0.92150200  1
  Ni  Ni2  1  0.75678100  0.50133200  0.42150200  1
  Ni  Ni3  1  0.24321900  0.49866800  0.57849800  1
  Ni  Ni4  1  0.74321900  0.97090900  0.09003500  1
  Ni  Ni5  1  0.25678100  0.02909100  0.90996500  1
  Ni  Ni6  1  0.74321900  0.02909100  0.40996500  1
  Ni  Ni7  1  0.25678100  0.97090900  0.59003500  1
  Ni  Ni8  1  0.72420000  0.00000000  0.75000000  1
  Ni  Ni9  1  0.27580000  0.00000000  0.25000000  1
  Ni  Ni10  1  0.66538200  0.50000000  0.75000000  1
  Ni  Ni11  1  0.33461800  0.50000000  0.25000000  1
  Cu  Cu12  1  0.74559300  0.75181900  0.90995600  1
  Cu  Cu13  1  0.25440700  0.24818100  0.09004400  1
  Cu  Cu14  1  0.74559300  0.24818100  0.59004400  1
  Cu  Cu15  1  0.25440700  0.75181900  0.40995600  1
  C  C16  1  0.75042700  0.75440700  0.55894100  1
  C  C17  1  0.24957300  0.24559300  0.44105900  1
  C  C18  1  0.75042700  0.24559300  0.94105900  1
  C  C19  1  0.24957300  0.75440700  0.05894100  1
  C  C20  1  0.77536600  0.76987500  0.26566300  1
  C  C21  1  0.22463400  0.23012500  0.73433700  1
  C  C22  1  0.77536600  0.23012500  0.23433700  1
  C  C23  1  0.22463400  0.76987500  0.76566300  1
  C  C24  1  0.20608400  0.00000000  0.75000000  1
  C  C25  1  0.79391600  0.00000000  0.25000000  1
  C  C26  1  0.50460900  0.76563100  0.00108800  1
  C  C27  1  0.49539100  0.23436900  0.99891200  1
  C  C28  1  0.50460900  0.23436900  0.49891200  1
  C  C29  1  0.49539100  0.76563100  0.50108800  1
  C  C30  1  0.76210400  0.95300300  0.60922700  1
  C  C31  1  0.23789600  0.04699700  0.39077300  1
  C  C32  1  0.76210400  0.04699700  0.89077300  1
  C  C33  1  0.23789600  0.95300300  0.10922700  1
  C  C34  1  0.00589700  0.76372800  0.99505300  1
  C  C35  1  0.99410300  0.23627200  0.00494700  1
  C  C36  1  0.00589700  0.23627200  0.50494700  1
  C  C37  1  0.99410300  0.76372800  0.49505300  1
  C  C38  1  0.32727200  0.68959900  0.68155600  1
  C  C39  1  0.67272800  0.31040100  0.31844400  1
  C  C40  1  0.32727200  0.31040100  0.81844400  1
  C  C41  1  0.67272800  0.68959900  0.18155600  1
  C  C42  1  0.44867400  0.74816400  0.83571900  1
  C  C43  1  0.55132600  0.25183600  0.16428100  1
  C  C44  1  0.44867400  0.25183600  0.66428100  1
  C  C45  1  0.55132600  0.74816400  0.33571900  1
  C  C46  1  0.95560300  0.72474500  0.80915000  1
  C  C47  1  0.04439700  0.27525500  0.19085000  1
  C  C48  1  0.95560300  0.27525500  0.69085000  1
  C  C49  1  0.04439700  0.72474500  0.30915000  1
  C  C50  1  0.75626600  0.53298800  0.59196000  1
  C  C51  1  0.24373400  0.46701200  0.40804000  1
  C  C52  1  0.75626600  0.46701200  0.90804000  1
  C  C53  1  0.24373400  0.53298800  0.09196000  1
