# generated using pymatgen
data_CuNi6C5
_symmetry_space_group_name_H-M   'P 1'
_cell_length_a   8.26726600
_cell_length_b   11.21645700
_cell_length_c   12.17995800
_cell_angle_alpha   90.00000000
_cell_angle_beta   90.00000000
_cell_angle_gamma   90.00000000
_symmetry_Int_Tables_number   1
_chemical_formula_structural   CuNi6C5
_chemical_formula_sum   'Cu4 Ni24 C20'
_cell_volume   1129.44060657
_cell_formula_units_Z   4
loop_
 _symmetry_equiv_pos_site_id
 _symmetry_equiv_pos_as_xyz
  1  'x, y, z'
loop_
 _atom_site_type_symbol
 _atom_site_label
 _atom_site_symmetry_multiplicity
 _atom_site_fract_x
 _atom_site_fract_y
 _atom_site_fract_z
 _atom_site_occupancy
  C  C0  1  0.63605600  0.11792500  0.45955500  1
  C  C1  1  0.13605600  0.88207500  0.54044500  1
  C  C2  1  0.63605600  0.61792500  0.04044500  1
  C  C3  1  0.13605600  0.38207500  0.95955500  1
  C  C4  1  0.06051200  0.22973900  0.10003900  1
  C  C5  1  0.56051200  0.77026100  0.89996100  1
  C  C6  1  0.06051200  0.72973900  0.39996100  1
  C  C7  1  0.56051200  0.27026100  0.60003900  1
  Ni  Ni8  1  0.16857300  0.29778200  0.98642800  1
  Ni  Ni9  1  0.66857300  0.70221800  0.01357200  1
  Ni  Ni10  1  0.16857300  0.79778200  0.51357200  1
  Ni  Ni11  1  0.66857300  0.20221800  0.48642800  1
  Ni  Ni12  1  0.30168300  0.43388200  0.67735600  1
  Ni  Ni13  1  0.80168300  0.56611800  0.32264400  1
  Ni  Ni14  1  0.30168300  0.93388200  0.82264400  1
  Ni  Ni15  1  0.80168300  0.06611800  0.17735600  1
  Ni  Ni16  1  0.92750000  0.32027900  0.16703200  1
  Ni  Ni17  1  0.42750000  0.67972100  0.83296800  1
  Ni  Ni18  1  0.92750000  0.82027900  0.33296800  1
  Ni  Ni19  1  0.42750000  0.17972100  0.66703200  1
  Ni  Ni20  1  0.40514200  0.40056500  0.55854500  1
  Ni  Ni21  1  0.90514200  0.59943500  0.44145500  1
  Ni  Ni22  1  0.40514200  0.90056500  0.94145500  1
  Ni  Ni23  1  0.90514200  0.09943500  0.05854500  1
  Ni  Ni24  1  0.20214600  0.16123400  0.60183200  1
  Ni  Ni25  1  0.70214600  0.83876600  0.39816800  1
  Ni  Ni26  1  0.20214600  0.66123400  0.89816800  1
  Ni  Ni27  1  0.70214600  0.33876600  0.10183200  1
  Ni  Ni28  1  0.20651500  0.15208600  0.18820300  1
  Ni  Ni29  1  0.70651500  0.84791400  0.81179700  1
  Ni  Ni30  1  0.20651500  0.65208600  0.31179700  1
  Ni  Ni31  1  0.70651500  0.34791400  0.68820300  1
  C  C32  1  0.99396700  0.46242900  0.45681300  1
  C  C33  1  0.49396700  0.53757100  0.54318700  1
  C  C34  1  0.99396700  0.96242900  0.04318700  1
  C  C35  1  0.49396700  0.03757100  0.95681300  1
  C  C36  1  0.18352000  0.11491200  0.31941000  1
  C  C37  1  0.68352000  0.88508800  0.68059000  1
  C  C38  1  0.18352000  0.61491200  0.18059000  1
  C  C39  1  0.68352000  0.38508800  0.81941000  1
  C  C40  1  0.56794600  0.33995200  0.19867600  1
  C  C41  1  0.06794600  0.66004800  0.80132400  1
  C  C42  1  0.56794600  0.83995200  0.30132400  1
  C  C43  1  0.06794600  0.16004800  0.69867600  1
  Cu  Cu44  1  0.66314100  0.08387200  0.16775900  1
  Cu  Cu45  1  0.16314100  0.91612800  0.83224100  1
  Cu  Cu46  1  0.66314100  0.58387200  0.33224100  1
  Cu  Cu47  1  0.16314100  0.41612800  0.66775900  1
