# generated using pymatgen
data_Cu2NiC8
_symmetry_space_group_name_H-M   'P 1'
_cell_length_a   5.71397867
_cell_length_b   5.71397867
_cell_length_c   9.92339753
_cell_angle_alpha   82.99373401
_cell_angle_beta   82.99373401
_cell_angle_gamma   105.01551552
_symmetry_Int_Tables_number   1
_chemical_formula_structural   Cu2NiC8
_chemical_formula_sum   'Cu4 Ni2 C16'
_cell_volume   306.58345462
_cell_formula_units_Z   2
loop_
 _symmetry_equiv_pos_site_id
 _symmetry_equiv_pos_as_xyz
  1  'x, y, z'
loop_
 _atom_site_type_symbol
 _atom_site_label
 _atom_site_symmetry_multiplicity
 _atom_site_fract_x
 _atom_site_fract_y
 _atom_site_fract_z
 _atom_site_occupancy
  C  C0  1  0.70552900  0.29639600  0.25276800  1
  C  C1  1  0.70360400  0.29447100  0.74723200  1
  Ni  Ni2  1  0.31640400  0.68448900  0.24820000  1
  Ni  Ni3  1  0.31551100  0.68359600  0.75180000  1
  Cu  Cu4  1  0.77511800  0.76885600  0.95561500  1
  Cu  Cu5  1  0.23114400  0.22488200  0.04438500  1
  Cu  Cu6  1  0.22177000  0.22824000  0.54410900  1
  Cu  Cu7  1  0.77176000  0.77823000  0.45589100  1
  C  C8  1  0.61209800  0.59184500  0.11329500  1
  C  C9  1  0.40815500  0.38790200  0.88670500  1
  C  C10  1  0.40259000  0.38642200  0.38687600  1
  C  C11  1  0.61357800  0.59741000  0.61312400  1
  C  C12  1  0.59246400  0.90117500  0.85331900  1
  C  C13  1  0.09882500  0.40753600  0.14668100  1
  C  C14  1  0.37768300  0.05707500  0.64232400  1
  C  C15  1  0.94292500  0.62231700  0.35767600  1
  C  C16  1  0.95796800  0.04203200  0.00000000  1
  C  C17  1  0.93614300  0.06385700  0.50000000  1
  C  C18  1  0.94014700  0.60583200  0.85919800  1
  C  C19  1  0.39416800  0.05985300  0.14080200  1
  C  C20  1  0.09906600  0.41665300  0.64564600  1
  C  C21  1  0.58334700  0.90093400  0.35435400  1
