# generated using pymatgen
data_CuNi2C11
_symmetry_space_group_name_H-M   'P 1'
_cell_length_a   5.33531400
_cell_length_b   9.24176100
_cell_length_c   13.69312166
_cell_angle_alpha   89.71901647
_cell_angle_beta   90.00000000
_cell_angle_gamma   90.00000000
_symmetry_Int_Tables_number   1
_chemical_formula_structural   CuNi2C11
_chemical_formula_sum   'Cu4 Ni8 C44'
_cell_volume   675.16817271
_cell_formula_units_Z   4
loop_
 _symmetry_equiv_pos_site_id
 _symmetry_equiv_pos_as_xyz
  1  'x, y, z'
loop_
 _atom_site_type_symbol
 _atom_site_label
 _atom_site_symmetry_multiplicity
 _atom_site_fract_x
 _atom_site_fract_y
 _atom_site_fract_z
 _atom_site_occupancy
  Ni  Ni0  1  0.77237500  0.91644300  0.90732600  1
  Ni  Ni1  1  0.27237500  0.08355700  0.59267400  1
  Ni  Ni2  1  0.22762500  0.08355700  0.09267400  1
  Ni  Ni3  1  0.72762500  0.91644300  0.40732600  1
  Ni  Ni4  1  0.76983100  0.58442600  0.58968600  1
  Ni  Ni5  1  0.26983100  0.41557400  0.91031400  1
  Ni  Ni6  1  0.23016900  0.41557400  0.41031400  1
  Ni  Ni7  1  0.73016900  0.58442600  0.08968600  1
  Cu  Cu8  1  0.80605700  0.25355000  0.74997500  1
  Cu  Cu9  1  0.30605700  0.74645000  0.75002500  1
  Cu  Cu10  1  0.19394300  0.74645000  0.25002500  1
  Cu  Cu11  1  0.69394300  0.25355000  0.24997500  1
  C  C12  1  0.74684500  0.24937600  0.50084700  1
  C  C13  1  0.24684500  0.75062400  0.99915300  1
  C  C14  1  0.25315500  0.75062400  0.49915300  1
  C  C15  1  0.75315500  0.24937600  0.00084700  1
  C  C16  1  0.77113100  0.91714900  0.63173800  1
  C  C17  1  0.27113100  0.08285100  0.86826200  1
  C  C18  1  0.22886900  0.08285100  0.36826200  1
  C  C19  1  0.72886900  0.91714900  0.13173800  1
  C  C20  1  0.76575500  0.58105300  0.86733300  1
  C  C21  1  0.26575500  0.41894700  0.63266700  1
  C  C22  1  0.23424500  0.41894700  0.13266700  1
  C  C23  1  0.73424500  0.58105300  0.36733300  1
  C  C24  1  0.29819400  0.92328300  0.90429100  1
  C  C25  1  0.79819400  0.07671700  0.59570900  1
  C  C26  1  0.70180600  0.07671700  0.09570900  1
  C  C27  1  0.20180600  0.92328300  0.40429100  1
  C  C28  1  0.71172500  0.91261200  0.74124200  1
  C  C29  1  0.21172500  0.08738800  0.75875800  1
  C  C30  1  0.28827500  0.08738800  0.25875800  1
  C  C31  1  0.78827500  0.91261200  0.24124200  1
  C  C32  1  0.01909300  0.83443100  0.60831100  1
  C  C33  1  0.51909300  0.16556900  0.89168900  1
  C  C34  1  0.98090700  0.16556900  0.39168900  1
  C  C35  1  0.48090700  0.83443100  0.10831100  1
  C  C36  1  0.55251000  0.84508400  0.57377100  1
  C  C37  1  0.05251000  0.15491600  0.92622900  1
  C  C38  1  0.44749000  0.15491600  0.42622900  1
  C  C39  1  0.94749000  0.84508400  0.07377100  1
  C  C40  1  0.53874600  0.65063800  0.92195300  1
  C  C41  1  0.03874600  0.34936200  0.57804700  1
  C  C42  1  0.46125400  0.34936200  0.07804700  1
  C  C43  1  0.96125400  0.65063800  0.42195300  1
  C  C44  1  0.71184100  0.57861300  0.75729800  1
  C  C45  1  0.21184100  0.42138700  0.74270200  1
  C  C46  1  0.28815900  0.42138700  0.24270200  1
  C  C47  1  0.78815900  0.57861300  0.25729800  1
  C  C48  1  0.80036200  0.42383800  0.90698800  1
  C  C49  1  0.30036200  0.57616200  0.59301200  1
  C  C50  1  0.19963800  0.57616200  0.09301200  1
  C  C51  1  0.69963800  0.42383800  0.40698800  1
  C  C52  1  0.50656000  0.33026100  0.60910800  1
  C  C53  1  0.00656000  0.66973900  0.89089200  1
  C  C54  1  0.49344000  0.66973900  0.39089200  1
  C  C55  1  0.99344000  0.33026100  0.10910800  1
