# generated using pymatgen
data_Cu4NiC6
_symmetry_space_group_name_H-M   'P 1'
_cell_length_a   8.33811700
_cell_length_b   9.19298600
_cell_length_c   10.41869900
_cell_angle_alpha   90.00000000
_cell_angle_beta   90.00000000
_cell_angle_gamma   90.00000000
_symmetry_Int_Tables_number   1
_chemical_formula_structural   Cu4NiC6
_chemical_formula_sum   'Cu16 Ni4 C24'
_cell_volume   798.61612497
_cell_formula_units_Z   4
loop_
 _symmetry_equiv_pos_site_id
 _symmetry_equiv_pos_as_xyz
  1  'x, y, z'
loop_
 _atom_site_type_symbol
 _atom_site_label
 _atom_site_symmetry_multiplicity
 _atom_site_fract_x
 _atom_site_fract_y
 _atom_site_fract_z
 _atom_site_occupancy
  C  C0  1  0.25000000  0.62894900  0.04689400  1
  C  C1  1  0.75000000  0.37105100  0.95310600  1
  C  C2  1  0.75000000  0.12895000  0.45310600  1
  C  C3  1  0.25000000  0.87105100  0.54689400  1
  C  C4  1  0.25000000  0.68915700  0.18122300  1
  C  C5  1  0.75000000  0.31084300  0.81877700  1
  C  C6  1  0.75000000  0.18915700  0.31877700  1
  C  C7  1  0.25000000  0.81084300  0.68122300  1
  Ni  Ni8  1  0.25000000  0.04803800  0.27995300  1
  Ni  Ni9  1  0.75000000  0.95196200  0.72004700  1
  Ni  Ni10  1  0.75000000  0.54803800  0.22004700  1
  Ni  Ni11  1  0.25000000  0.45196200  0.77995300  1
  Cu  Cu12  1  0.44677500  0.31121500  0.48895100  1
  Cu  Cu13  1  0.55322500  0.68878500  0.51104900  1
  Cu  Cu14  1  0.55322500  0.81121500  0.01104900  1
  Cu  Cu15  1  0.94677500  0.68878500  0.51104900  1
  Cu  Cu16  1  0.44677500  0.18878500  0.98895100  1
  Cu  Cu17  1  0.05322500  0.31121500  0.48895100  1
  Cu  Cu18  1  0.05322500  0.18878500  0.98895100  1
  Cu  Cu19  1  0.94677500  0.81121500  0.01104900  1
  Cu  Cu20  1  0.55052100  0.26480000  0.98303700  1
  Cu  Cu21  1  0.44947900  0.73520000  0.01696300  1
  Cu  Cu22  1  0.44947900  0.76480000  0.51696300  1
  Cu  Cu23  1  0.05052100  0.73520000  0.01696300  1
  Cu  Cu24  1  0.55052100  0.23520000  0.48303700  1
  Cu  Cu25  1  0.94947900  0.26480000  0.98303700  1
  Cu  Cu26  1  0.94947900  0.23520000  0.48303700  1
  Cu  Cu27  1  0.05052100  0.76480000  0.51696300  1
  C  C28  1  0.10351500  0.98183600  0.22742700  1
  C  C29  1  0.89648500  0.01816400  0.77257300  1
  C  C30  1  0.89648500  0.48183600  0.27257300  1
  C  C31  1  0.60351500  0.01816400  0.77257300  1
  C  C32  1  0.10351500  0.51816400  0.72742700  1
  C  C33  1  0.39648500  0.98183600  0.22742700  1
  C  C34  1  0.39648500  0.51816400  0.72742700  1
  C  C35  1  0.60351500  0.48183600  0.27257300  1
  C  C36  1  0.25000000  0.01917400  0.42754400  1
  C  C37  1  0.75000000  0.98082600  0.57245600  1
  C  C38  1  0.75000000  0.51917400  0.07245600  1
  C  C39  1  0.25000000  0.48082600  0.92754400  1
  C  C40  1  0.25000000  0.20776500  0.27137700  1
  C  C41  1  0.75000000  0.79223500  0.72862300  1
  C  C42  1  0.75000000  0.70776500  0.22862300  1
  C  C43  1  0.25000000  0.29223500  0.77137700  1
