# generated using pymatgen
data_Cu4Ni2C27
_symmetry_space_group_name_H-M   'P 1'
_cell_length_a   12.70582800
_cell_length_b   7.95681200
_cell_length_c   17.63842873
_cell_angle_alpha   77.72494473
_cell_angle_beta   90.00000000
_cell_angle_gamma   90.00000000
_symmetry_Int_Tables_number   1
_chemical_formula_structural   Cu4Ni2C27
_chemical_formula_sum   'Cu16 Ni8 C108'
_cell_volume   1742.44054372
_cell_formula_units_Z   4
loop_
 _symmetry_equiv_pos_site_id
 _symmetry_equiv_pos_as_xyz
  1  'x, y, z'
loop_
 _atom_site_type_symbol
 _atom_site_label
 _atom_site_symmetry_multiplicity
 _atom_site_fract_x
 _atom_site_fract_y
 _atom_site_fract_z
 _atom_site_occupancy
  Ni  Ni0  1  0.28241000  0.76955100  0.54438200  1
  Ni  Ni1  1  0.21759000  0.76955100  0.04438200  1
  Ni  Ni2  1  0.71759000  0.23044900  0.45561800  1
  Ni  Ni3  1  0.78241000  0.23044900  0.95561800  1
  Ni  Ni4  1  0.47866500  0.74913600  0.44752000  1
  Ni  Ni5  1  0.02133500  0.74913600  0.94752000  1
  Ni  Ni6  1  0.52133500  0.25086400  0.55248000  1
  Ni  Ni7  1  0.97866500  0.25086400  0.05248000  1
  C  C8  1  0.45089400  0.18797900  0.25987600  1
  C  C9  1  0.04910600  0.18797900  0.75987600  1
  C  C10  1  0.54910600  0.81202100  0.74012400  1
  C  C11  1  0.95089400  0.81202100  0.24012400  1
  C  C12  1  0.04202200  0.81122300  0.75368400  1
  C  C13  1  0.45797800  0.81122300  0.25368400  1
  C  C14  1  0.95797800  0.18877700  0.24631600  1
  C  C15  1  0.54202200  0.18877700  0.74631600  1
  C  C16  1  0.21945000  0.30658100  0.24653200  1
  C  C17  1  0.28055000  0.30658100  0.74653200  1
  C  C18  1  0.78055000  0.69341900  0.75346800  1
  C  C19  1  0.71945000  0.69341900  0.25346800  1
  C  C20  1  0.28722400  0.68538800  0.74917100  1
  C  C21  1  0.21277600  0.68538800  0.24917100  1
  C  C22  1  0.71277600  0.31461200  0.25082900  1
  C  C23  1  0.78722400  0.31461200  0.75082900  1
  Cu  Cu24  1  0.27163600  0.94015400  0.36184700  1
  Cu  Cu25  1  0.22836400  0.94015400  0.86184700  1
  Cu  Cu26  1  0.72836400  0.05984600  0.63815300  1
  Cu  Cu27  1  0.77163600  0.05984600  0.13815300  1
  Cu  Cu28  1  0.45897400  0.55527800  0.63425100  1
  Cu  Cu29  1  0.04102600  0.55527800  0.13425100  1
  Cu  Cu30  1  0.54102600  0.44472200  0.36574900  1
  Cu  Cu31  1  0.95897400  0.44472200  0.86574900  1
  Cu  Cu32  1  0.36358100  0.05483500  0.63425500  1
  Cu  Cu33  1  0.13641900  0.05483500  0.13425500  1
  Cu  Cu34  1  0.63641900  0.94516500  0.36574500  1
  Cu  Cu35  1  0.86358100  0.94516500  0.86574500  1
  Cu  Cu36  1  0.10482500  0.55371800  0.64384400  1
  Cu  Cu37  1  0.39517500  0.55371800  0.14384400  1
  Cu  Cu38  1  0.89517500  0.44628200  0.35615600  1
  Cu  Cu39  1  0.60482500  0.44628200  0.85615600  1
  C  C40  1  0.31522600  0.12031700  0.31740200  1
  C  C41  1  0.18477400  0.12031700  0.81740200  1
  C  C42  1  0.68477400  0.87968300  0.68259800  1
  C  C43  1  0.81522600  0.87968300  0.18259800  1
  C  C44  1  0.19827800  0.81398700  0.80669100  1
  C  C45  1  0.30172200  0.81398700  0.30669100  1
  C  C46  1  0.80172200  0.18601300  0.19330900  1
  C  C47  1  0.69827800  0.18601300  0.69330900  1
  C  C48  1  0.33764000  0.87367200  0.43861200  1
  C  C49  1  0.16236000  0.87367200  0.93861200  1
  C  C50  1  0.66236000  0.12632800  0.56138800  1
  C  C51  1  0.83764000  0.12632800  0.06138800  1
  C  C52  1  0.15670000  0.94862000  0.37843500  1
  C  C53  1  0.34330000  0.94862000  0.87843500  1
  C  C54  1  0.84330000  0.05138000  0.62156500  1
  C  C55  1  0.65670000  0.05138000  0.12156500  1
  C  C56  1  0.35318300  0.53013600  0.67930400  1
  C  C57  1  0.14681700  0.53013600  0.17930400  1
  C  C58  1  0.64681700  0.46986400  0.32069600  1
  C  C59  1  0.85318300  0.46986400  0.82069600  1
  C  C60  1  0.42577300  0.62542000  0.54830100  1
  C  C61  1  0.07422700  0.62542000  0.04830100  1
  C  C62  1  0.57422700  0.37458000  0.45169900  1
  C  C63  1  0.92577300  0.37458000  0.95169900  1
  C  C64  1  0.53269800  0.68179900  0.66212200  1
  C  C65  1  0.96730200  0.68179900  0.16212200  1
  C  C66  1  0.46730200  0.31820100  0.33787800  1
  C  C67  1  0.03269800  0.31820100  0.83787800  1
  C  C68  1  0.48421900  0.62059000  0.35994000  1
  C  C69  1  0.01578100  0.62059000  0.85994000  1
  C  C70  1  0.51578100  0.37941000  0.64006000  1
  C  C71  1  0.98421900  0.37941000  0.14006000  1
  C  C72  1  0.47433700  0.03352400  0.67521200  1
  C  C73  1  0.02566300  0.03352400  0.17521200  1
  C  C74  1  0.52566300  0.96647600  0.32478800  1
  C  C75  1  0.97433700  0.96647600  0.82478800  1
  C  C76  1  0.31016100  0.87594200  0.63876800  1
  C  C77  1  0.18983900  0.87594200  0.13876800  1
  C  C78  1  0.68983900  0.12405800  0.36123200  1
  C  C79  1  0.81016100  0.12405800  0.86123200  1
  C  C80  1  0.29034400  0.16488500  0.67376500  1
  C  C81  1  0.20965600  0.16488500  0.17376500  1
  C  C82  1  0.70965600  0.83511500  0.32623500  1
  C  C83  1  0.79034400  0.83511500  0.82623500  1
  C  C84  1  0.61402000  0.86090200  0.45083300  1
  C  C85  1  0.88598000  0.86090200  0.95083300  1
  C  C86  1  0.38598000  0.13909800  0.54916700  1
  C  C87  1  0.11402000  0.13909800  0.04916700  1
  C  C88  1  0.16926800  0.61129200  0.56983700  1
  C  C89  1  0.33073200  0.61129200  0.06983700  1
  C  C90  1  0.83073200  0.38870800  0.43016300  1
  C  C91  1  0.66926800  0.38870800  0.93016300  1
  C  C92  1  0.14311000  0.37288900  0.69312800  1
  C  C93  1  0.35689000  0.37288900  0.19312800  1
  C  C94  1  0.85689000  0.62711100  0.30687200  1
  C  C95  1  0.64311000  0.62711100  0.80687200  1
  C  C96  1  0.98724300  0.54356100  0.63106000  1
  C  C97  1  0.51275700  0.54356100  0.13106000  1
  C  C98  1  0.01275700  0.45643900  0.36894000  1
  C  C99  1  0.48724300  0.45643900  0.86894000  1
  C  C100  1  0.13183500  0.68170000  0.69974300  1
  C  C101  1  0.36816500  0.68170000  0.19974300  1
  C  C102  1  0.86816500  0.31830000  0.30025700  1
  C  C103  1  0.63183500  0.31830000  0.80025700  1
  C  C104  1  0.26166000  0.45188000  0.80676200  1
  C  C105  1  0.23834000  0.45188000  0.30676200  1
  C  C106  1  0.73834000  0.54812000  0.19323800  1
  C  C107  1  0.76166000  0.54812000  0.69323800  1
  C  C108  1  0.41937100  0.72971800  0.77918800  1
  C  C109  1  0.08062900  0.72971800  0.27918800  1
  C  C110  1  0.58062900  0.27028200  0.22081200  1
  C  C111  1  0.91937100  0.27028200  0.72081200  1
  C  C112  1  0.43063000  0.04455000  0.19879400  1
  C  C113  1  0.06937000  0.04455000  0.69879400  1
  C  C114  1  0.56937000  0.95545000  0.80120600  1
  C  C115  1  0.93063000  0.95545000  0.30120600  1
  C  C116  1  0.91382100  0.76660100  0.71908600  1
  C  C117  1  0.58617900  0.76660100  0.21908600  1
  C  C118  1  0.08617900  0.23339900  0.28091400  1
  C  C119  1  0.41382100  0.23339900  0.78091400  1
  C  C120  1  0.15094800  0.15749400  0.50131900  1
  C  C121  1  0.34905200  0.15749400  0.00131900  1
  C  C122  1  0.84905200  0.84250600  0.49868100  1
  C  C123  1  0.65094800  0.84250600  0.99868100  1
  C  C124  1  0.69880500  0.69720000  0.01441000  1
  C  C125  1  0.80119500  0.69720000  0.51441000  1
  C  C126  1  0.30119500  0.30280000  0.98559000  1
  C  C127  1  0.19880500  0.30280000  0.48559000  1
  C  C128  1  0.44073500  0.15072200  0.03242200  1
  C  C129  1  0.05926500  0.15072200  0.53242200  1
  C  C130  1  0.55926500  0.84927800  0.96757800  1
  C  C131  1  0.94073500  0.84927800  0.46757800  1
