# generated using pymatgen
data_CuNiC6
_symmetry_space_group_name_H-M   'P 1'
_cell_length_a   6.37568881
_cell_length_b   5.11710700
_cell_length_c   10.90160925
_cell_angle_alpha   90.00000000
_cell_angle_beta   88.34018393
_cell_angle_gamma   90.00000000
_symmetry_Int_Tables_number   1
_chemical_formula_structural   CuNiC6
_chemical_formula_sum   'Cu4 Ni4 C24'
_cell_volume   355.51666362
_cell_formula_units_Z   4
loop_
 _symmetry_equiv_pos_site_id
 _symmetry_equiv_pos_as_xyz
  1  'x, y, z'
loop_
 _atom_site_type_symbol
 _atom_site_label
 _atom_site_symmetry_multiplicity
 _atom_site_fract_x
 _atom_site_fract_y
 _atom_site_fract_z
 _atom_site_occupancy
  C  C0  1  0.00462700  0.20012300  0.83044100  1
  C  C1  1  0.00462700  0.29987700  0.33044100  1
  C  C2  1  0.21609500  0.30199700  0.57119400  1
  C  C3  1  0.21609500  0.19800300  0.07119400  1
  C  C4  1  0.78390500  0.80199700  0.92880600  1
  C  C5  1  0.78390500  0.69800300  0.42880600  1
  C  C6  1  0.99537300  0.70012300  0.66955900  1
  C  C7  1  0.99537300  0.79987700  0.16955900  1
  Ni  Ni8  1  0.50575800  0.20661700  0.84288200  1
  Ni  Ni9  1  0.49424200  0.70661700  0.65711800  1
  Ni  Ni10  1  0.50575800  0.29338300  0.34288200  1
  Ni  Ni11  1  0.49424200  0.79338300  0.15711800  1
  Cu  Cu12  1  0.24590200  0.69859900  0.91028400  1
  Cu  Cu13  1  0.24590200  0.80140100  0.41028400  1
  Cu  Cu14  1  0.75409800  0.19859900  0.58971600  1
  Cu  Cu15  1  0.75409800  0.30140100  0.08971600  1
  C  C16  1  0.04866100  0.81397000  0.83664700  1
  C  C17  1  0.04866100  0.68603000  0.33664700  1
  C  C18  1  0.24217000  0.37468700  0.91086400  1
  C  C19  1  0.24631800  0.69259000  0.55288600  1
  C  C20  1  0.24217000  0.12531300  0.41086400  1
  C  C21  1  0.47586000  0.78970300  0.84187800  1
  C  C22  1  0.24631800  0.80741000  0.05288600  1
  C  C23  1  0.47586000  0.71029700  0.34187800  1
  C  C24  1  0.52414000  0.28970300  0.65812200  1
  C  C25  1  0.75368200  0.19259000  0.94711400  1
  C  C26  1  0.52414000  0.21029700  0.15812200  1
  C  C27  1  0.75783000  0.87468700  0.58913600  1
  C  C28  1  0.75368200  0.30741000  0.44711400  1
  C  C29  1  0.75783000  0.62531300  0.08913600  1
  C  C30  1  0.95133900  0.31397000  0.66335300  1
  C  C31  1  0.95133900  0.18603000  0.16335300  1
