# generated using pymatgen
data_Cu2Ni2C9
_symmetry_space_group_name_H-M   'P 1'
_cell_length_a   7.00643400
_cell_length_b   8.53367300
_cell_length_c   15.32957400
_cell_angle_alpha   90.00000000
_cell_angle_beta   90.00000000
_cell_angle_gamma   90.00000000
_symmetry_Int_Tables_number   1
_chemical_formula_structural   Cu2Ni2C9
_chemical_formula_sum   'Cu8 Ni8 C36'
_cell_volume   916.56468247
_cell_formula_units_Z   4
loop_
 _symmetry_equiv_pos_site_id
 _symmetry_equiv_pos_as_xyz
  1  'x, y, z'
loop_
 _atom_site_type_symbol
 _atom_site_label
 _atom_site_symmetry_multiplicity
 _atom_site_fract_x
 _atom_site_fract_y
 _atom_site_fract_z
 _atom_site_occupancy
  Ni  Ni0  1  0.25000000  0.86463900  0.37474700  1
  Ni  Ni1  1  0.75000000  0.13536100  0.62525300  1
  Ni  Ni2  1  0.75000000  0.36463900  0.12525300  1
  Ni  Ni3  1  0.25000000  0.63536100  0.87474700  1
  Ni  Ni4  1  0.00000000  0.50000000  0.50000000  1
  Ni  Ni5  1  0.00000000  0.00000000  0.00000000  1
  Ni  Ni6  1  0.50000000  0.00000000  0.00000000  1
  Ni  Ni7  1  0.50000000  0.50000000  0.50000000  1
  Cu  Cu8  1  0.75000000  0.85481700  0.43482300  1
  Cu  Cu9  1  0.25000000  0.14518300  0.56517700  1
  Cu  Cu10  1  0.25000000  0.35481700  0.06517700  1
  Cu  Cu11  1  0.75000000  0.64518300  0.93482300  1
  Cu  Cu12  1  0.25000000  0.89035800  0.18862400  1
  Cu  Cu13  1  0.25000000  0.60964200  0.68862400  1
  Cu  Cu14  1  0.75000000  0.39035800  0.31137600  1
  Cu  Cu15  1  0.75000000  0.10964200  0.81137600  1
  C  C16  1  0.56674400  0.09939400  0.86811600  1
  C  C17  1  0.06674400  0.90060600  0.13188400  1
  C  C18  1  0.43325600  0.59939400  0.63188400  1
  C  C19  1  0.93325600  0.40060600  0.36811600  1
  C  C20  1  0.43325600  0.90060600  0.13188400  1
  C  C21  1  0.93325600  0.09939400  0.86811600  1
  C  C22  1  0.56674400  0.40060600  0.36811600  1
  C  C23  1  0.06674400  0.59939400  0.63188400  1
  C  C24  1  0.75000000  0.81630200  0.98031600  1
  C  C25  1  0.25000000  0.18369800  0.01968400  1
  C  C26  1  0.25000000  0.31630200  0.51968400  1
  C  C27  1  0.75000000  0.68369800  0.48031600  1
  C  C28  1  0.25000000  0.63712900  0.44804900  1
  C  C29  1  0.75000000  0.36287100  0.55195100  1
  C  C30  1  0.75000000  0.13712900  0.05195100  1
  C  C31  1  0.25000000  0.86287100  0.94804900  1
  C  C32  1  0.25000000  0.73664700  0.24329300  1
  C  C33  1  0.75000000  0.26335300  0.75670700  1
  C  C34  1  0.75000000  0.23664700  0.25670700  1
  C  C35  1  0.25000000  0.76335300  0.74329300  1
  C  C36  1  0.92651000  0.63775500  0.87533200  1
  C  C37  1  0.42651000  0.36224500  0.12466800  1
  C  C38  1  0.07349000  0.13775500  0.62466800  1
  C  C39  1  0.57349000  0.86224500  0.37533200  1
  C  C40  1  0.07349000  0.36224500  0.12466800  1
  C  C41  1  0.57349000  0.63775500  0.87533200  1
  C  C42  1  0.92651000  0.86224500  0.37533200  1
  C  C43  1  0.42651000  0.13775500  0.62466800  1
  C  C44  1  0.25000000  0.01855300  0.49482800  1
  C  C45  1  0.75000000  0.52492400  0.23938700  1
  C  C46  1  0.75000000  0.97507600  0.73938700  1
  C  C47  1  0.25000000  0.02492400  0.26061300  1
  C  C48  1  0.25000000  0.48144700  0.99482800  1
  C  C49  1  0.75000000  0.51855300  0.00517200  1
  C  C50  1  0.75000000  0.98144700  0.50517200  1
  C  C51  1  0.25000000  0.47507600  0.76061300  1
