# generated using pymatgen
data_CuNiC12
_symmetry_space_group_name_H-M   'P 1'
_cell_length_a   6.46415400
_cell_length_b   7.51910800
_cell_length_c   14.18131585
_cell_angle_alpha   89.61040165
_cell_angle_beta   90.00000000
_cell_angle_gamma   90.00000000
_symmetry_Int_Tables_number   1
_chemical_formula_structural   CuNiC12
_chemical_formula_sum   'Cu4 Ni4 C48'
_cell_volume   689.26227115
_cell_formula_units_Z   4
loop_
 _symmetry_equiv_pos_site_id
 _symmetry_equiv_pos_as_xyz
  1  'x, y, z'
loop_
 _atom_site_type_symbol
 _atom_site_label
 _atom_site_symmetry_multiplicity
 _atom_site_fract_x
 _atom_site_fract_y
 _atom_site_fract_z
 _atom_site_occupancy
  C  C0  1  0.00000000  0.12944900  0.77795400  1
  C  C1  1  0.00000000  0.37206200  0.27978900  1
  C  C2  1  0.50000000  0.87002100  0.22174200  1
  C  C3  1  0.50000000  0.62317900  0.71850900  1
  Ni  Ni4  1  0.00000000  0.65356800  0.88278200  1
  Ni  Ni5  1  0.50000000  0.34687700  0.11730200  1
  Ni  Ni6  1  0.50000000  0.15438700  0.61780700  1
  Ni  Ni7  1  0.00000000  0.84863300  0.38362700  1
  Cu  Cu8  1  0.75023800  0.99960900  0.00049900  1
  Cu  Cu9  1  0.75095200  0.49865900  0.50000700  1
  Cu  Cu10  1  0.24904800  0.49865900  0.50000700  1
  Cu  Cu11  1  0.24976200  0.99960900  0.00049900  1
  C  C12  1  0.50000000  0.64839600  0.93736300  1
  C  C13  1  0.00000000  0.35182500  0.06212600  1
  C  C14  1  0.00000000  0.14767600  0.56180000  1
  C  C15  1  0.50000000  0.85069600  0.43941300  1
  C  C16  1  0.00000000  0.60786500  0.69421400  1
  C  C17  1  0.50000000  0.39211200  0.30590400  1
  C  C18  1  0.50000000  0.11541600  0.80493500  1
  C  C19  1  0.00000000  0.89125400  0.19463900  1
  C  C20  1  0.30214700  0.39605300  0.36634600  1
  C  C21  1  0.80227000  0.60382400  0.63352700  1
  C  C22  1  0.19835600  0.89654600  0.13407300  1
  C  C23  1  0.69764900  0.10122500  0.86493200  1
  C  C24  1  0.19773000  0.60382400  0.63352700  1
  C  C25  1  0.69785300  0.39605300  0.36634600  1
  C  C26  1  0.30235100  0.10122500  0.86493200  1
  C  C27  1  0.80164400  0.89654600  0.13407300  1
  C  C28  1  0.50000000  0.66517400  0.48837800  1
  C  C29  1  0.00000000  0.33048000  0.51145600  1
  C  C30  1  0.00000000  0.16996300  0.01215000  1
  C  C31  1  0.50000000  0.83015600  0.98736400  1
  C  C32  1  0.00000000  0.85642200  0.94759300  1
  C  C33  1  0.50000000  0.14367900  0.05230400  1
  C  C34  1  0.50000000  0.35082600  0.55599800  1
  C  C35  1  0.00000000  0.64386300  0.44821800  1
  C  C36  1  0.00000000  0.78134900  0.75693800  1
  C  C37  1  0.50000000  0.21874700  0.24299700  1
  C  C38  1  0.50000000  0.29009200  0.74403100  1
  C  C39  1  0.00000000  0.71760100  0.25778700  1
  C  C40  1  0.68804700  0.86439600  0.37039100  1
  C  C41  1  0.18695800  0.13391100  0.63041400  1
  C  C42  1  0.81166800  0.36541700  0.13037200  1
  C  C43  1  0.31190400  0.63546500  0.86870400  1
  C  C44  1  0.81304200  0.13391100  0.63041400  1
  C  C45  1  0.31195300  0.86439600  0.37039100  1
  C  C46  1  0.68809600  0.63546500  0.86870400  1
  C  C47  1  0.18833200  0.36541700  0.13037200  1
  C  C48  1  0.00000000  0.04181300  0.27053900  1
  C  C49  1  0.50000000  0.97225300  0.72348900  1
  C  C50  1  0.50000000  0.54253500  0.22891500  1
  C  C51  1  0.00000000  0.45729300  0.77105200  1
  C  C52  1  0.00000000  0.99966700  0.48894900  1
  C  C53  1  0.50000000  0.99379400  0.51405400  1
  C  C54  1  0.50000000  0.49818700  0.00976400  1
  C  C55  1  0.00000000  0.50163700  0.98939300  1
