# generated using pymatgen
data_Cu4Ni3C8
_symmetry_space_group_name_H-M   'P 1'
_cell_length_a   6.53578200
_cell_length_b   9.95449600
_cell_length_c   15.67355129
_cell_angle_alpha   54.51469324
_cell_angle_beta   90.00000000
_cell_angle_gamma   90.00000000
_symmetry_Int_Tables_number   1
_chemical_formula_structural   Cu4Ni3C8
_chemical_formula_sum   'Cu16 Ni12 C32'
_cell_volume   830.32802620
_cell_formula_units_Z   4
loop_
 _symmetry_equiv_pos_site_id
 _symmetry_equiv_pos_as_xyz
  1  'x, y, z'
loop_
 _atom_site_type_symbol
 _atom_site_label
 _atom_site_symmetry_multiplicity
 _atom_site_fract_x
 _atom_site_fract_y
 _atom_site_fract_z
 _atom_site_occupancy
  C  C0  1  0.03280700  0.32672500  0.00314700  1
  C  C1  1  0.46719300  0.32672500  0.50314700  1
  C  C2  1  0.96719300  0.67327500  0.99685300  1
  C  C3  1  0.53280700  0.67327500  0.49685300  1
  C  C4  1  0.70622100  0.40173200  0.08534200  1
  C  C5  1  0.79377900  0.40173200  0.58534200  1
  C  C6  1  0.29377900  0.59826800  0.91465800  1
  C  C7  1  0.20622100  0.59826800  0.41465800  1
  C  C8  1  0.04963100  0.18885200  0.21715000  1
  C  C9  1  0.45036900  0.18885200  0.71715000  1
  C  C10  1  0.95036900  0.81114800  0.78285000  1
  C  C11  1  0.54963100  0.81114800  0.28285000  1
  C  C12  1  0.28109200  0.25530800  0.16857500  1
  C  C13  1  0.21890800  0.25530800  0.66857500  1
  C  C14  1  0.71890800  0.74469200  0.83142500  1
  C  C15  1  0.78109200  0.74469200  0.33142500  1
  C  C16  1  0.49753300  0.39116600  0.20137800  1
  C  C17  1  0.00246700  0.39116600  0.70137800  1
  C  C18  1  0.50246700  0.60883400  0.79862200  1
  C  C19  1  0.99753300  0.60883400  0.29862200  1
  C  C20  1  0.59851000  0.22275500  0.24105000  1
  C  C21  1  0.90149000  0.22275500  0.74105000  1
  C  C22  1  0.40149000  0.77724500  0.75895000  1
  C  C23  1  0.09851000  0.77724500  0.25895000  1
  C  C24  1  0.87886000  0.02099300  0.37140000  1
  C  C25  1  0.62114000  0.02099300  0.87140000  1
  C  C26  1  0.12114000  0.97900700  0.62860000  1
  C  C27  1  0.37886000  0.97900700  0.12860000  1
  C  C28  1  0.89575600  0.20195100  0.33681400  1
  C  C29  1  0.60424400  0.20195100  0.83681400  1
  C  C30  1  0.10424400  0.79804900  0.66318600  1
  C  C31  1  0.39575600  0.79804900  0.16318600  1
  Ni  Ni32  1  0.89727000  0.45678000  0.82699500  1
  Ni  Ni33  1  0.60273000  0.45678000  0.32699500  1
  Ni  Ni34  1  0.10273000  0.54322000  0.17300500  1
  Ni  Ni35  1  0.39727000  0.54322000  0.67300500  1
  Ni  Ni36  1  0.35009000  0.23878900  0.96980500  1
  Ni  Ni37  1  0.14991000  0.23878900  0.46980500  1
  Ni  Ni38  1  0.64991000  0.76121100  0.03019500  1
  Ni  Ni39  1  0.85009000  0.76121100  0.53019500  1
  Ni  Ni40  1  0.84266400  0.07833100  0.07640300  1
  Ni  Ni41  1  0.65733600  0.07833100  0.57640300  1
  Ni  Ni42  1  0.15733600  0.92166900  0.92359700  1
  Ni  Ni43  1  0.34266400  0.92166900  0.42359700  1
  Cu  Cu44  1  0.81914100  0.45553800  0.03245400  1
  Cu  Cu45  1  0.68085900  0.45553800  0.53245400  1
  Cu  Cu46  1  0.18085900  0.54446200  0.96754600  1
  Cu  Cu47  1  0.31914100  0.54446200  0.46754600  1
  Cu  Cu48  1  0.14943400  0.21040000  0.16137900  1
  Cu  Cu49  1  0.35056600  0.21040000  0.66137900  1
  Cu  Cu50  1  0.85056600  0.78960000  0.83862100  1
  Cu  Cu51  1  0.64943400  0.78960000  0.33862100  1
  Cu  Cu52  1  0.51623400  0.31316000  0.18286000  1
  Cu  Cu53  1  0.98376600  0.31316000  0.68286000  1
  Cu  Cu54  1  0.48376600  0.68684000  0.81714000  1
  Cu  Cu55  1  0.01623400  0.68684000  0.31714000  1
  Cu  Cu56  1  0.87175000  0.13697000  0.30934400  1
  Cu  Cu57  1  0.62825000  0.13697000  0.80934400  1
  Cu  Cu58  1  0.12825000  0.86303000  0.69065600  1
  Cu  Cu59  1  0.37175000  0.86303000  0.19065600  1
