# generated using pymatgen
data_Cu6NiC
_symmetry_space_group_name_H-M   'P 1'
_cell_length_a   5.52054200
_cell_length_b   6.90203300
_cell_length_c   11.95274100
_cell_angle_alpha   90.00000000
_cell_angle_beta   90.00000000
_cell_angle_gamma   90.00000000
_symmetry_Int_Tables_number   1
_chemical_formula_structural   Cu6NiC
_chemical_formula_sum   'Cu24 Ni4 C4'
_cell_volume   455.43484881
_cell_formula_units_Z   4
loop_
 _symmetry_equiv_pos_site_id
 _symmetry_equiv_pos_as_xyz
  1  'x, y, z'
loop_
 _atom_site_type_symbol
 _atom_site_label
 _atom_site_symmetry_multiplicity
 _atom_site_fract_x
 _atom_site_fract_y
 _atom_site_fract_z
 _atom_site_occupancy
  C  C0  1  0.25000000  0.38607600  0.55801200  1
  C  C1  1  0.25000000  0.11392400  0.05801200  1
  C  C2  1  0.75000000  0.61392400  0.44198800  1
  C  C3  1  0.75000000  0.88607600  0.94198800  1
  Ni  Ni4  1  0.25000000  0.55885900  0.86454500  1
  Ni  Ni5  1  0.25000000  0.94114100  0.36454500  1
  Ni  Ni6  1  0.75000000  0.44114100  0.13545500  1
  Ni  Ni7  1  0.75000000  0.05885900  0.63545500  1
  Cu  Cu8  1  0.99840700  0.10402900  0.92096600  1
  Cu  Cu9  1  0.50159300  0.39597100  0.42096600  1
  Cu  Cu10  1  0.49840700  0.89597100  0.07903400  1
  Cu  Cu11  1  0.00159300  0.60402900  0.57903400  1
  Cu  Cu12  1  0.00159300  0.89597100  0.07903400  1
  Cu  Cu13  1  0.49840700  0.60402900  0.57903400  1
  Cu  Cu14  1  0.50159300  0.10402900  0.92096600  1
  Cu  Cu15  1  0.99840700  0.39597100  0.42096600  1
  Cu  Cu16  1  0.25000000  0.44763800  0.96812100  1
  Cu  Cu17  1  0.25000000  0.05236200  0.46812100  1
  Cu  Cu18  1  0.75000000  0.55236200  0.03187900  1
  Cu  Cu19  1  0.75000000  0.94763800  0.53187900  1
  Cu  Cu20  1  0.25000000  0.43734100  0.76464700  1
  Cu  Cu21  1  0.25000000  0.06265900  0.26464700  1
  Cu  Cu22  1  0.75000000  0.56265900  0.23535300  1
  Cu  Cu23  1  0.75000000  0.93734100  0.73535300  1
  Cu  Cu24  1  0.03179500  0.69139400  0.86176600  1
  Cu  Cu25  1  0.46820500  0.80860600  0.36176600  1
  Cu  Cu26  1  0.53179500  0.30860600  0.13823400  1
  Cu  Cu27  1  0.96820500  0.19139400  0.63823400  1
  Cu  Cu28  1  0.96820500  0.30860600  0.13823400  1
  Cu  Cu29  1  0.53179500  0.19139400  0.63823400  1
  Cu  Cu30  1  0.46820500  0.69139400  0.86176600  1
  Cu  Cu31  1  0.03179500  0.80860600  0.36176600  1
