# generated using pymatgen
data_CuNi2C13
_symmetry_space_group_name_H-M   'P 1'
_cell_length_a   6.76818122
_cell_length_b   6.89017176
_cell_length_c   15.95521800
_cell_angle_alpha   90.00000000
_cell_angle_beta   90.00000000
_cell_angle_gamma   90.84120031
_symmetry_Int_Tables_number   1
_chemical_formula_structural   CuNi2C13
_chemical_formula_sum   'Cu4 Ni8 C52'
_cell_volume   743.97434693
_cell_formula_units_Z   4
loop_
 _symmetry_equiv_pos_site_id
 _symmetry_equiv_pos_as_xyz
  1  'x, y, z'
loop_
 _atom_site_type_symbol
 _atom_site_label
 _atom_site_symmetry_multiplicity
 _atom_site_fract_x
 _atom_site_fract_y
 _atom_site_fract_z
 _atom_site_occupancy
  C  C0  1  0.14648200  0.71537800  0.48966500  1
  C  C1  1  0.35351800  0.28462200  0.98966500  1
  C  C2  1  0.85351800  0.28462200  0.51033500  1
  C  C3  1  0.64648200  0.71537800  0.01033500  1
  C  C4  1  0.59538400  0.83924400  0.60514900  1
  C  C5  1  0.90461600  0.16075600  0.10514900  1
  C  C6  1  0.40461600  0.16075600  0.39485100  1
  C  C7  1  0.09538400  0.83924400  0.89485100  1
  Ni  Ni8  1  0.64536800  0.67012200  0.41902800  1
  Ni  Ni9  1  0.85463200  0.32987800  0.91902800  1
  Ni  Ni10  1  0.35463200  0.32987800  0.58097200  1
  Ni  Ni11  1  0.14536800  0.67012200  0.08097200  1
  Ni  Ni12  1  0.09809200  0.00291500  0.66060600  1
  Ni  Ni13  1  0.40190800  0.99708500  0.16060600  1
  Ni  Ni14  1  0.90190800  0.99708500  0.33939400  1
  Ni  Ni15  1  0.59809200  0.00291500  0.83939400  1
  C  C16  1  0.93459700  0.69585800  0.71337300  1
  C  C17  1  0.56540300  0.30414200  0.21337300  1
  C  C18  1  0.06540300  0.30414200  0.28662700  1
  C  C19  1  0.43459700  0.69585800  0.78662700  1
  C  C20  1  0.89803800  0.51736100  0.65219300  1
  C  C21  1  0.60196200  0.48263900  0.15219300  1
  C  C22  1  0.10196200  0.48263900  0.34780700  1
  C  C23  1  0.39803800  0.51736100  0.84780700  1
  C  C24  1  0.86454200  0.65437000  0.29980000  1
  C  C25  1  0.63545800  0.34562900  0.79980000  1
  C  C26  1  0.13545800  0.34562900  0.70020000  1
  C  C27  1  0.36454200  0.65437000  0.20020000  1
  C  C28  1  0.65375400  0.79255500  0.27926900  1
  C  C29  1  0.84624600  0.20744500  0.77926900  1
  C  C30  1  0.34624600  0.20744500  0.72073100  1
  C  C31  1  0.15375400  0.79255500  0.22073100  1
  Cu  Cu32  1  0.76947200  0.76707200  0.32620200  1
  Cu  Cu33  1  0.73052800  0.23292800  0.82620200  1
  Cu  Cu34  1  0.23052800  0.23292800  0.67379800  1
  Cu  Cu35  1  0.26947200  0.76707200  0.17379800  1
  C  C36  1  0.23549200  0.87232000  0.60963500  1
  C  C37  1  0.26450800  0.12768000  0.10963500  1
  C  C38  1  0.76450800  0.12768000  0.39036500  1
  C  C39  1  0.73549200  0.87232000  0.89036500  1
  C  C40  1  0.90165400  0.04023300  0.61404800  1
  C  C41  1  0.59834600  0.95976700  0.11404800  1
  C  C42  1  0.09834600  0.95976700  0.38595200  1
  C  C43  1  0.40165400  0.04023300  0.88595200  1
  C  C44  1  0.49142100  0.82256300  0.44952400  1
  C  C45  1  0.00857900  0.17743700  0.94952400  1
  C  C46  1  0.50857900  0.17743700  0.55047600  1
  C  C47  1  0.99142100  0.82256300  0.05047600  1
  C  C48  1  0.79862400  0.64631400  0.49077400  1
  C  C49  1  0.70137600  0.35368600  0.99077400  1
  C  C50  1  0.20137600  0.35368600  0.50922600  1
  C  C51  1  0.29862400  0.64631400  0.00922600  1
  C  C52  1  0.54521200  0.48060200  0.39303500  1
  C  C53  1  0.95478800  0.51939800  0.89303500  1
  C  C54  1  0.45478800  0.51939800  0.60696500  1
  C  C55  1  0.04521200  0.48060200  0.10696500  1
  C  C56  1  0.83112300  0.61563100  0.68502300  1
  C  C57  1  0.66887700  0.38436900  0.18502300  1
  C  C58  1  0.16887700  0.38436900  0.31497700  1
  C  C59  1  0.33112300  0.61563100  0.81497700  1
  C  C60  1  0.05625600  0.91622400  0.74857700  1
  C  C61  1  0.44374400  0.08377600  0.24857700  1
  C  C62  1  0.94374400  0.08377600  0.25142300  1
  C  C63  1  0.55625600  0.91622400  0.75142300  1
