# generated using pymatgen
data_CuNiC13
_symmetry_space_group_name_H-M   'P 1'
_cell_length_a   8.63412270
_cell_length_b   8.63412270
_cell_length_c   5.12255000
_cell_angle_alpha   90.00000000
_cell_angle_beta   90.00000000
_cell_angle_gamma   124.56648398
_symmetry_Int_Tables_number   1
_chemical_formula_structural   CuNiC13
_chemical_formula_sum   'Cu1 Ni1 C13'
_cell_volume   314.46301574
_cell_formula_units_Z   1
loop_
 _symmetry_equiv_pos_site_id
 _symmetry_equiv_pos_as_xyz
  1  'x, y, z'
loop_
 _atom_site_type_symbol
 _atom_site_label
 _atom_site_symmetry_multiplicity
 _atom_site_fract_x
 _atom_site_fract_y
 _atom_site_fract_z
 _atom_site_occupancy
  Ni  Ni0  1  0.74912100  0.25087900  0.50000000  1
  Cu  Cu1  1  0.20942900  0.79057100  0.50000000  1
  C  C2  1  0.02437000  0.97563000  0.00000000  1
  C  C3  1  0.10003800  0.89996200  0.74973400  1
  C  C4  1  0.10003800  0.89996200  0.25026600  1
  C  C5  1  0.13408700  0.21399700  0.00000000  1
  C  C6  1  0.78600300  0.86591300  0.00000000  1
  C  C7  1  0.57549500  0.42450500  0.87996400  1
  C  C8  1  0.57549500  0.42450500  0.12003600  1
  C  C9  1  0.85073800  0.99505400  0.50000000  1
  C  C10  1  0.00494600  0.14926200  0.50000000  1
  C  C11  1  0.06957300  0.54750300  0.87483200  1
  C  C12  1  0.45249700  0.93042700  0.12516800  1
  C  C13  1  0.06957300  0.54750300  0.12516800  1
  C  C14  1  0.45249700  0.93042700  0.87483200  1
