# generated using pymatgen
data_Cu7NiC2
_symmetry_space_group_name_H-M   'P 1'
_cell_length_a   5.18486000
_cell_length_b   12.27912600
_cell_length_c   19.16602800
_cell_angle_alpha   90.00000000
_cell_angle_beta   90.00000000
_cell_angle_gamma   90.00000000
_symmetry_Int_Tables_number   1
_chemical_formula_structural   Cu7NiC2
_chemical_formula_sum   'Cu56 Ni8 C16'
_cell_volume   1220.21569922
_cell_formula_units_Z   8
loop_
 _symmetry_equiv_pos_site_id
 _symmetry_equiv_pos_as_xyz
  1  'x, y, z'
loop_
 _atom_site_type_symbol
 _atom_site_label
 _atom_site_symmetry_multiplicity
 _atom_site_fract_x
 _atom_site_fract_y
 _atom_site_fract_z
 _atom_site_occupancy
  C  C0  1  0.45895400  0.17540800  0.68989700  1
  C  C1  1  0.04104600  0.67540800  0.31010300  1
  C  C2  1  0.95895400  0.82459200  0.81010300  1
  C  C3  1  0.54104600  0.32459200  0.18989700  1
  C  C4  1  0.54104600  0.82459200  0.31010300  1
  C  C5  1  0.95895400  0.32459200  0.68989700  1
  C  C6  1  0.04104600  0.17540800  0.18989700  1
  C  C7  1  0.45895400  0.67540800  0.81010300  1
  C  C8  1  0.57763600  0.08271500  0.33134400  1
  C  C9  1  0.92236400  0.58271500  0.66865600  1
  C  C10  1  0.07763600  0.91728500  0.16865600  1
  C  C11  1  0.42236400  0.41728500  0.83134400  1
  C  C12  1  0.42236400  0.91728500  0.66865600  1
  C  C13  1  0.07763600  0.41728500  0.33134400  1
  C  C14  1  0.92236400  0.08271500  0.83134400  1
  C  C15  1  0.57763600  0.58271500  0.16865600  1
  Ni  Ni16  1  0.39141700  0.62373500  0.58177700  1
  Ni  Ni17  1  0.10858300  0.12373500  0.41822300  1
  Ni  Ni18  1  0.89141700  0.37626500  0.91822300  1
  Ni  Ni19  1  0.60858300  0.87626500  0.08177700  1
  Ni  Ni20  1  0.60858300  0.37626500  0.41822300  1
  Ni  Ni21  1  0.89141700  0.87626500  0.58177700  1
  Ni  Ni22  1  0.10858300  0.62373500  0.08177700  1
  Ni  Ni23  1  0.39141700  0.12373500  0.91822300  1
  Cu  Cu24  1  0.85493400  0.28766600  0.22167100  1
  Cu  Cu25  1  0.64506600  0.78766600  0.77832900  1
  Cu  Cu26  1  0.35493400  0.71233400  0.27832900  1
  Cu  Cu27  1  0.14506600  0.21233400  0.72167100  1
  Cu  Cu28  1  0.14506600  0.71233400  0.77832900  1
  Cu  Cu29  1  0.35493400  0.21233400  0.22167100  1
  Cu  Cu30  1  0.64506600  0.28766600  0.72167100  1
  Cu  Cu31  1  0.85493400  0.78766600  0.27832900  1
  Cu  Cu32  1  0.59153500  0.05505900  0.72738800  1
  Cu  Cu33  1  0.90846500  0.55505900  0.27261200  1
  Cu  Cu34  1  0.09153500  0.94494100  0.77261200  1
  Cu  Cu35  1  0.40846500  0.44494100  0.22738800  1
  Cu  Cu36  1  0.40846500  0.94494100  0.27261200  1
  Cu  Cu37  1  0.09153500  0.44494100  0.72738800  1
  Cu  Cu38  1  0.90846500  0.05505900  0.22738800  1
  Cu  Cu39  1  0.59153500  0.55505900  0.77261200  1
  Cu  Cu40  1  0.42275400  0.14507900  0.59888200  1
  Cu  Cu41  1  0.07724600  0.64507900  0.40111800  1
  Cu  Cu42  1  0.92275400  0.85492100  0.90111800  1
  Cu  Cu43  1  0.57724600  0.35492100  0.09888200  1
  Cu  Cu44  1  0.57724600  0.85492100  0.40111800  1
  Cu  Cu45  1  0.92275400  0.35492100  0.59888200  1
  Cu  Cu46  1  0.07724600  0.14507900  0.09888200  1
  Cu  Cu47  1  0.42275400  0.64507900  0.90111800  1
  Cu  Cu48  1  0.19004600  0.57065800  0.56383800  1
  Cu  Cu49  1  0.30995400  0.07065800  0.43616200  1
  Cu  Cu50  1  0.69004600  0.42934200  0.93616200  1
  Cu  Cu51  1  0.80995400  0.92934200  0.06383800  1
  Cu  Cu52  1  0.80995400  0.42934200  0.43616200  1
  Cu  Cu53  1  0.69004600  0.92934200  0.56383800  1
  Cu  Cu54  1  0.30995400  0.57065800  0.06383800  1
  Cu  Cu55  1  0.19004600  0.07065800  0.93616200  1
  Cu  Cu56  1  0.07415000  0.85895800  0.54293200  1
  Cu  Cu57  1  0.42585000  0.35895800  0.45706800  1
  Cu  Cu58  1  0.57415000  0.14104200  0.95706800  1
  Cu  Cu59  1  0.92585000  0.64104200  0.04293200  1
  Cu  Cu60  1  0.92585000  0.14104200  0.45706800  1
  Cu  Cu61  1  0.57415000  0.64104200  0.54293200  1
  Cu  Cu62  1  0.42585000  0.85895800  0.04293200  1
  Cu  Cu63  1  0.07415000  0.35895800  0.95706800  1
  Cu  Cu64  1  0.60385200  0.34191800  0.35307600  1
  Cu  Cu65  1  0.89614800  0.84191800  0.64692400  1
  Cu  Cu66  1  0.10385200  0.65808200  0.14692400  1
  Cu  Cu67  1  0.39614800  0.15808200  0.85307600  1
  Cu  Cu68  1  0.39614800  0.65808200  0.64692400  1
  Cu  Cu69  1  0.10385200  0.15808200  0.35307600  1
  Cu  Cu70  1  0.89614800  0.34191800  0.85307600  1
  Cu  Cu71  1  0.60385200  0.84191800  0.14692400  1
  Cu  Cu72  1  0.76289800  0.94536600  0.38542100  1
  Cu  Cu73  1  0.73710200  0.44536600  0.61457900  1
  Cu  Cu74  1  0.26289800  0.05463400  0.11457900  1
  Cu  Cu75  1  0.23710200  0.55463400  0.88542100  1
  Cu  Cu76  1  0.23710200  0.05463400  0.61457900  1
  Cu  Cu77  1  0.26289800  0.55463400  0.38542100  1
  Cu  Cu78  1  0.73710200  0.94536600  0.88542100  1
  Cu  Cu79  1  0.76289800  0.44536600  0.11457900  1
