# generated using pymatgen
data_Cu4NiC36
_symmetry_space_group_name_H-M   'P 1'
_cell_length_a   7.77819736
_cell_length_b   7.87480272
_cell_length_c   10.61246851
_cell_angle_alpha   102.91304680
_cell_angle_beta   110.62893604
_cell_angle_gamma   89.26663473
_symmetry_Int_Tables_number   1
_chemical_formula_structural   Cu4NiC36
_chemical_formula_sum   'Cu4 Ni1 C36'
_cell_volume   591.41755744
_cell_formula_units_Z   1
loop_
 _symmetry_equiv_pos_site_id
 _symmetry_equiv_pos_as_xyz
  1  'x, y, z'
loop_
 _atom_site_type_symbol
 _atom_site_label
 _atom_site_symmetry_multiplicity
 _atom_site_fract_x
 _atom_site_fract_y
 _atom_site_fract_z
 _atom_site_occupancy
  C  C0  1  0.82704226  0.13388074  0.76473317  1
  C  C1  1  0.25889587  0.89551083  0.21569332  1
  Ni  Ni2  1  0.63138105  0.78335016  0.84424010  1
  Cu  Cu3  1  0.66195653  0.32322977  0.33905479  1
  Cu  Cu4  1  0.27067307  0.66947627  0.64211226  1
  Cu  Cu5  1  0.49605158  0.48976028  0.00886190  1
  Cu  Cu6  1  0.00808873  0.00415839  0.48409346  1
  C  C7  1  0.69340354  0.73619342  0.53199258  1
  C  C8  1  0.34859464  0.26449962  0.48616174  1
  C  C9  1  0.30721202  0.08248797  0.81564091  1
  C  C10  1  0.68966596  0.91542517  0.17518582  1
  C  C11  1  0.05542514  0.60010152  0.84869947  1
  C  C12  1  0.92606085  0.40610479  0.16386185  1
  C  C13  1  0.72933818  0.54955095  0.47908754  1
  C  C14  1  0.29147197  0.44381381  0.53132429  1
  C  C15  1  0.82056807  0.87991256  0.53029757  1
  C  C16  1  0.19560252  0.11836246  0.43367648  1
  C  C17  1  0.59867825  0.08206805  0.20536323  1
  C  C18  1  0.40268544  0.91354933  0.78417071  1
  C  C19  1  0.44257961  0.23726268  0.89349410  1
  C  C20  1  0.55563382  0.75644957  0.11296482  1
  C  C21  1  0.87905944  0.89843943  0.27721287  1
  C  C22  1  0.14229555  0.10706380  0.69161902  1
  C  C23  1  0.87861954  0.36134062  0.27755953  1
  C  C24  1  0.08522870  0.67186803  0.73991114  1
  C  C25  1  0.78792765  0.46528796  0.04629347  1
  C  C26  1  0.20023117  0.54068772  0.96074303  1
  C  C27  1  0.45150264  0.24826060  0.38660842  1
  C  C28  1  0.66870712  0.77224281  0.67195344  1
  C  C29  1  0.84651365  0.20373903  0.47819185  1
  C  C30  1  0.15445588  0.80213343  0.49462216  1
  C  C31  1  0.50647849  0.42527578  0.19406562  1
  C  C32  1  0.48681750  0.58501118  0.82679659  1
  C  C33  1  0.74474989  0.93524545  0.03577780  1
  C  C34  1  0.21009899  0.04614042  0.91977157  1
  C  C35  1  0.88656098  0.45943228  0.77688581  1
  C  C36  1  0.10116805  0.53738009  0.22901868  1
  C  C37  1  0.49583172  0.21988496  0.62309510  1
  C  C38  1  0.49590263  0.76558224  0.42573937  1
  C  C39  1  0.01535774  0.24256596  0.09918287  1
  C  C40  1  0.94791260  0.74393687  0.92299157  1
