# generated using pymatgen
data_CuNiC5
_symmetry_space_group_name_H-M   'P 1'
_cell_length_a   3.88972700
_cell_length_b   3.88972700
_cell_length_c   6.99669462
_cell_angle_alpha   73.86098467
_cell_angle_beta   73.86098467
_cell_angle_gamma   90.00000000
_symmetry_Int_Tables_number   1
_chemical_formula_structural   CuNiC5
_chemical_formula_sum   'Cu1 Ni1 C5'
_cell_volume   97.33732463
_cell_formula_units_Z   1
loop_
 _symmetry_equiv_pos_site_id
 _symmetry_equiv_pos_as_xyz
  1  'x, y, z'
loop_
 _atom_site_type_symbol
 _atom_site_label
 _atom_site_symmetry_multiplicity
 _atom_site_fract_x
 _atom_site_fract_y
 _atom_site_fract_z
 _atom_site_occupancy
  Ni  Ni0  1  0.35679700  0.35679700  0.28640500  1
  Cu  Cu1  1  0.64343700  0.64343700  0.71312600  1
  C  C2  1  0.99717000  0.99717000  0.00566000  1
  C  C3  1  0.50557300  0.00557300  0.98885300  1
  C  C4  1  0.00557300  0.50557300  0.98885300  1
  C  C5  1  0.16780700  0.16780700  0.66438500  1
  C  C6  1  0.82364200  0.82364200  0.35271600  1
