# generated using pymatgen
data_Cu10NiC78
_symmetry_space_group_name_H-M   'P 1'
_cell_length_a   11.23812687
_cell_length_b   11.23812687
_cell_length_c   10.88593212
_cell_angle_alpha   64.31526953
_cell_angle_beta   64.31526953
_cell_angle_gamma   52.81729783
_symmetry_Int_Tables_number   1
_chemical_formula_structural   Cu10NiC78
_chemical_formula_sum   'Cu10 Ni1 C78'
_cell_volume   958.55990848
_cell_formula_units_Z   1
loop_
 _symmetry_equiv_pos_site_id
 _symmetry_equiv_pos_as_xyz
  1  'x, y, z'
loop_
 _atom_site_type_symbol
 _atom_site_label
 _atom_site_symmetry_multiplicity
 _atom_site_fract_x
 _atom_site_fract_y
 _atom_site_fract_z
 _atom_site_occupancy
  C  C0  1  0.27034400  0.27034400  0.08014300  1
  C  C1  1  0.72965600  0.72965600  0.91985700  1
  Ni  Ni2  1  0.50000000  0.50000000  0.50000000  1
  Cu  Cu3  1  0.16568800  0.83431200  0.00000000  1
  Cu  Cu4  1  0.83431200  0.16568800  0.00000000  1
  Cu  Cu5  1  0.04542200  0.04542200  0.20194200  1
  Cu  Cu6  1  0.95457800  0.95457800  0.79805800  1
  Cu  Cu7  1  0.15560200  0.15560200  0.87576100  1
  Cu  Cu8  1  0.84439800  0.84439800  0.12423900  1
  Cu  Cu9  1  0.04650600  0.73203500  0.32434700  1
  Cu  Cu10  1  0.73203500  0.04650600  0.32434700  1
  Cu  Cu11  1  0.95349400  0.26796500  0.67565300  1
  Cu  Cu12  1  0.26796500  0.95349400  0.67565300  1
  C  C13  1  0.28773200  0.44415200  0.52922000  1
  C  C14  1  0.44415200  0.28773200  0.52922000  1
  C  C15  1  0.71226800  0.55584800  0.47078000  1
  C  C16  1  0.55584800  0.71226800  0.47078000  1
  C  C17  1  0.37589900  0.52905900  0.77143200  1
  C  C18  1  0.52905900  0.37589900  0.77143200  1
  C  C19  1  0.62410100  0.47094100  0.22856800  1
  C  C20  1  0.47094100  0.62410100  0.22856800  1
  C  C21  1  0.01365000  0.50993200  0.25182300  1
  C  C22  1  0.50993200  0.01365000  0.25182300  1
  C  C23  1  0.98635000  0.49006800  0.74817700  1
  C  C24  1  0.49006800  0.98635000  0.74817700  1
  C  C25  1  0.03630900  0.34907800  0.34541400  1
  C  C26  1  0.34907800  0.03630900  0.34541400  1
  C  C27  1  0.96369100  0.65092200  0.65458600  1
  C  C28  1  0.65092200  0.96369100  0.65458600  1
  C  C29  1  0.23817800  0.77084300  0.56878900  1
  C  C30  1  0.77084300  0.23817800  0.56878900  1
  C  C31  1  0.76182200  0.22915700  0.43121100  1
  C  C32  1  0.22915700  0.76182200  0.43121100  1
  C  C33  1  0.12008700  0.53761700  0.84886500  1
  C  C34  1  0.53761700  0.12008700  0.84886500  1
  C  C35  1  0.87991300  0.46238300  0.15113500  1
  C  C36  1  0.46238300  0.87991300  0.15113500  1
  C  C37  1  0.12152400  0.61938300  0.93539700  1
  C  C38  1  0.61938300  0.12152400  0.93539700  1
  C  C39  1  0.87847600  0.38061700  0.06460300  1
  C  C40  1  0.38061700  0.87847600  0.06460300  1
  C  C41  1  0.32282100  0.47979500  0.13400200  1
  C  C42  1  0.47979500  0.32282100  0.13400200  1
  C  C43  1  0.67717900  0.52020500  0.86599800  1
  C  C44  1  0.52020500  0.67717900  0.86599800  1
  C  C45  1  0.22578700  0.22578700  0.91373200  1
  C  C46  1  0.77421300  0.77421300  0.08626800  1
  C  C47  1  0.04699300  0.04699300  0.86363500  1
  C  C48  1  0.95300700  0.95300700  0.13636500  1
  C  C49  1  0.04073600  0.79117900  0.96653800  1
  C  C50  1  0.79117900  0.04073600  0.96653800  1
  C  C51  1  0.95926400  0.20882100  0.03346200  1
  C  C52  1  0.20882100  0.95926400  0.03346200  1
  C  C53  1  0.21792400  0.68187200  0.14428400  1
  C  C54  1  0.68187200  0.21792400  0.14428400  1
  C  C55  1  0.78207600  0.31812800  0.85571600  1
  C  C56  1  0.31812800  0.78207600  0.85571600  1
  C  C57  1  0.12230900  0.12230900  0.21944800  1
  C  C58  1  0.87769100  0.87769100  0.78055200  1
  C  C59  1  0.12152900  0.84982900  0.31377000  1
  C  C60  1  0.84982900  0.12152900  0.31377000  1
  C  C61  1  0.87847100  0.15017100  0.68623000  1
  C  C62  1  0.15017100  0.87847100  0.68623000  1
  C  C63  1  0.04207800  0.31465100  0.75041000  1
  C  C64  1  0.31465100  0.04207800  0.75041000  1
  C  C65  1  0.95792200  0.68534900  0.24959000  1
  C  C66  1  0.68534900  0.95792200  0.24959000  1
  C  C67  1  0.85541500  0.85541500  0.42409000  1
  C  C68  1  0.14458500  0.14458500  0.57591000  1
  C  C69  1  0.12478500  0.57567300  0.44268500  1
  C  C70  1  0.57567300  0.12478500  0.44268500  1
  C  C71  1  0.87521500  0.42432700  0.55731500  1
  C  C72  1  0.42432700  0.87521500  0.55731500  1
  C  C73  1  0.38261000  0.38261000  0.56244900  1
  C  C74  1  0.61739000  0.61739000  0.43755100  1
  C  C75  1  0.48036300  0.48036300  0.71280600  1
  C  C76  1  0.51963700  0.51963700  0.28719400  1
  C  C77  1  0.04460900  0.40726400  0.24717800  1
  C  C78  1  0.40726400  0.04460900  0.24717800  1
  C  C79  1  0.95539100  0.59273600  0.75282200  1
  C  C80  1  0.59273600  0.95539100  0.75282200  1
  C  C81  1  0.29329600  0.70670400  0.50000000  1
  C  C82  1  0.70670400  0.29329600  0.50000000  1
  C  C83  1  0.17402000  0.51891200  0.91203400  1
  C  C84  1  0.51891200  0.17402000  0.91203400  1
  C  C85  1  0.82598000  0.48108800  0.08796600  1
  C  C86  1  0.48108800  0.82598000  0.08796600  1
  C  C87  1  0.37667400  0.37667400  0.11857700  1
  C  C88  1  0.62332600  0.62332600  0.88142300  1
