# generated using pymatgen
data_Cu5NiC11
_symmetry_space_group_name_H-M   'P 1'
_cell_length_a   10.18987566
_cell_length_b   10.18987566
_cell_length_c   6.96008156
_cell_angle_alpha   72.31461316
_cell_angle_beta   72.31461316
_cell_angle_gamma   101.21075438
_symmetry_Int_Tables_number   1
_chemical_formula_structural   Cu5NiC11
_chemical_formula_sum   'Cu5 Ni1 C11'
_cell_volume   622.41177343
_cell_formula_units_Z   1
loop_
 _symmetry_equiv_pos_site_id
 _symmetry_equiv_pos_as_xyz
  1  'x, y, z'
loop_
 _atom_site_type_symbol
 _atom_site_label
 _atom_site_symmetry_multiplicity
 _atom_site_fract_x
 _atom_site_fract_y
 _atom_site_fract_z
 _atom_site_occupancy
  Ni  Ni0  1  0.00000000  0.00000000  0.00000000  1
  Cu  Cu1  1  0.34888900  0.01541200  0.31515100  1
  Cu  Cu2  1  0.65111100  0.98458800  0.68484900  1
  Cu  Cu3  1  0.98458800  0.65111100  0.68484900  1
  Cu  Cu4  1  0.01541200  0.34888900  0.31515100  1
  Cu  Cu5  1  0.50000000  0.50000000  0.00000000  1
  C  C6  1  0.64835700  0.64835700  0.60895200  1
  C  C7  1  0.35164300  0.35164300  0.39104800  1
  C  C8  1  0.70381800  0.13990200  0.30165000  1
  C  C9  1  0.29618200  0.86009800  0.69835000  1
  C  C10  1  0.86009800  0.29618200  0.69835000  1
  C  C11  1  0.13990200  0.70381800  0.30165000  1
  C  C12  1  0.00000000  0.00000000  0.50000000  1
  C  C13  1  0.58198800  0.83094800  0.07316500  1
  C  C14  1  0.41801200  0.16905200  0.92683500  1
  C  C15  1  0.16905200  0.41801200  0.92683500  1
  C  C16  1  0.83094800  0.58198800  0.07316500  1
