# generated using pymatgen
data_Cu(NiC2)3
_symmetry_space_group_name_H-M   'P 1'
_cell_length_a   4.81257707
_cell_length_b   4.81257707
_cell_length_c   6.91421463
_cell_angle_alpha   89.35571829
_cell_angle_beta   89.35571829
_cell_angle_gamma   33.85672566
_symmetry_Int_Tables_number   1
_chemical_formula_structural   Cu(NiC2)3
_chemical_formula_sum   'Cu1 Ni3 C6'
_cell_volume   89.21039990
_cell_formula_units_Z   1
loop_
 _symmetry_equiv_pos_site_id
 _symmetry_equiv_pos_as_xyz
  1  'x, y, z'
loop_
 _atom_site_type_symbol
 _atom_site_label
 _atom_site_symmetry_multiplicity
 _atom_site_fract_x
 _atom_site_fract_y
 _atom_site_fract_z
 _atom_site_occupancy
  C  C0  1  0.59827300  0.59827300  0.24495200  1
  C  C1  1  0.40172700  0.40172700  0.75504800  1
  C  C2  1  0.85746200  0.85746200  0.43407700  1
  C  C3  1  0.14253800  0.14253800  0.56592300  1
  C  C4  1  0.85259300  0.85259300  0.07579500  1
  C  C5  1  0.14740700  0.14740700  0.92420500  1
  Ni  Ni6  1  0.50000000  0.50000000  0.50000000  1
  Ni  Ni7  1  0.24778100  0.24778100  0.25263600  1
  Ni  Ni8  1  0.75221900  0.75221900  0.74736400  1
  Cu  Cu9  1  0.50000000  0.50000000  0.00000000  1
