# generated using pymatgen
data_Cu8Ni2C11
_symmetry_space_group_name_H-M   'P 1'
_cell_length_a   3.49357000
_cell_length_b   11.98273400
_cell_length_c   19.53390000
_cell_angle_alpha   90.00000000
_cell_angle_beta   90.00000000
_cell_angle_gamma   90.00000000
_symmetry_Int_Tables_number   1
_chemical_formula_structural   Cu8Ni2C11
_chemical_formula_sum   'Cu16 Ni4 C22'
_cell_volume   817.73827983
_cell_formula_units_Z   2
loop_
 _symmetry_equiv_pos_site_id
 _symmetry_equiv_pos_as_xyz
  1  'x, y, z'
loop_
 _atom_site_type_symbol
 _atom_site_label
 _atom_site_symmetry_multiplicity
 _atom_site_fract_x
 _atom_site_fract_y
 _atom_site_fract_z
 _atom_site_occupancy
  C  C0  1  0.00000000  0.56232800  0.11341500  1
  C  C1  1  0.00000000  0.43767200  0.88658500  1
  C  C2  1  0.50000000  0.93767200  0.61341500  1
  C  C3  1  0.50000000  0.06232800  0.38658500  1
  C  C4  1  0.00000000  0.32016700  0.04663800  1
  C  C5  1  0.00000000  0.67983300  0.95336200  1
  C  C6  1  0.50000000  0.17983300  0.54663800  1
  C  C7  1  0.50000000  0.82016700  0.45336200  1
  C  C8  1  0.00000000  0.04596400  0.25798200  1
  C  C9  1  0.00000000  0.95403600  0.74201800  1
  C  C10  1  0.50000000  0.45403600  0.75798200  1
  C  C11  1  0.50000000  0.54596400  0.24201800  1
  C  C12  1  0.00000000  0.00000000  0.50000000  1
  C  C13  1  0.50000000  0.50000000  0.00000000  1
  C  C14  1  0.00000000  0.33733600  0.21328400  1
  C  C15  1  0.00000000  0.66266400  0.78671600  1
  C  C16  1  0.50000000  0.16266400  0.71328400  1
  C  C17  1  0.50000000  0.83733600  0.28671600  1
  C  C18  1  0.00000000  0.32323900  0.64403000  1
  C  C19  1  0.00000000  0.67676100  0.35597000  1
  C  C20  1  0.50000000  0.17676100  0.14403000  1
  C  C21  1  0.50000000  0.82323900  0.85597000  1
  Ni  Ni22  1  0.00000000  0.09414700  0.62784200  1
  Ni  Ni23  1  0.00000000  0.90585300  0.37215800  1
  Ni  Ni24  1  0.50000000  0.40585300  0.12784200  1
  Ni  Ni25  1  0.50000000  0.59414700  0.87215800  1
  Cu  Cu26  1  0.00000000  0.71316500  0.21387800  1
  Cu  Cu27  1  0.00000000  0.28683500  0.78612200  1
  Cu  Cu28  1  0.50000000  0.78683500  0.71387800  1
  Cu  Cu29  1  0.50000000  0.21316500  0.28612200  1
  Cu  Cu30  1  0.00000000  0.10740500  0.05358700  1
  Cu  Cu31  1  0.00000000  0.89259500  0.94641300  1
  Cu  Cu32  1  0.50000000  0.39259500  0.55358700  1
  Cu  Cu33  1  0.50000000  0.60740500  0.44641300  1
  Cu  Cu34  1  0.00000000  0.21178900  0.44199900  1
  Cu  Cu35  1  0.00000000  0.78821100  0.55800100  1
  Cu  Cu36  1  0.50000000  0.28821100  0.94199900  1
  Cu  Cu37  1  0.50000000  0.71178900  0.05800100  1
  Cu  Cu38  1  0.00000000  0.45765400  0.32741900  1
  Cu  Cu39  1  0.00000000  0.54234600  0.67258100  1
  Cu  Cu40  1  0.50000000  0.04234600  0.82741900  1
  Cu  Cu41  1  0.50000000  0.95765400  0.17258100  1
