# generated using pymatgen
data_Cu(NiC4)2
_symmetry_space_group_name_H-M   'P 1'
_cell_length_a   7.49820343
_cell_length_b   7.49820343
_cell_length_c   7.49820343
_cell_angle_alpha   120.95032011
_cell_angle_beta   118.95162388
_cell_angle_gamma   90.09364213
_symmetry_Int_Tables_number   1
_chemical_formula_structural   Cu(NiC4)2
_chemical_formula_sum   'Cu2 Ni4 C16'
_cell_volume   298.20360254
_cell_formula_units_Z   2
loop_
 _symmetry_equiv_pos_site_id
 _symmetry_equiv_pos_as_xyz
  1  'x, y, z'
loop_
 _atom_site_type_symbol
 _atom_site_label
 _atom_site_symmetry_multiplicity
 _atom_site_fract_x
 _atom_site_fract_y
 _atom_site_fract_z
 _atom_site_occupancy
  Ni  Ni0  1  0.50000000  0.50000000  0.00000000  1
  Ni  Ni1  1  0.00000000  0.00000000  0.00000000  1
  Ni  Ni2  1  0.00000000  0.50000000  0.00000000  1
  Ni  Ni3  1  0.00000000  0.00000000  0.50000000  1
  C  C4  1  0.50000000  0.50000000  0.50000000  1
  C  C5  1  0.50000000  0.00000000  0.00000000  1
  Cu  Cu6  1  0.00000000  0.50000000  0.50000000  1
  Cu  Cu7  1  0.50000000  0.00000000  0.50000000  1
  C  C8  1  0.86145600  0.59652800  0.26492800  1
  C  C9  1  0.16840100  0.90347200  0.26492800  1
  C  C10  1  0.18300500  0.82325200  0.77131900  1
  C  C11  1  0.44806800  0.67674800  0.35975300  1
  C  C12  1  0.44806800  0.08831500  0.77131900  1
  C  C13  1  0.18300500  0.41168500  0.35975300  1
  C  C14  1  0.81699500  0.58831500  0.64024700  1
  C  C15  1  0.55193200  0.91168500  0.22868100  1
  C  C16  1  0.55193200  0.32325200  0.64024700  1
  C  C17  1  0.81699500  0.17674800  0.22868100  1
  C  C18  1  0.42050600  0.25000000  0.17050600  1
  C  C19  1  0.13854400  0.40347200  0.73507200  1
  C  C20  1  0.83159900  0.09652800  0.73507200  1
  C  C21  1  0.57949400  0.75000000  0.82949400  1
