# generated using pymatgen
data_CuNiC2
_symmetry_space_group_name_H-M   'P 1'
_cell_length_a   5.92532688
_cell_length_b   11.89018789
_cell_length_c   14.47552089
_cell_angle_alpha   90.00000000
_cell_angle_beta   90.00000000
_cell_angle_gamma   90.00000000
_symmetry_Int_Tables_number   1
_chemical_formula_structural   CuNiC2
_chemical_formula_sum   'Cu16 Ni16 C32'
_cell_volume   1019.84749088
_cell_formula_units_Z   16
loop_
 _symmetry_equiv_pos_site_id
 _symmetry_equiv_pos_as_xyz
  1  'x, y, z'
loop_
 _atom_site_type_symbol
 _atom_site_label
 _atom_site_symmetry_multiplicity
 _atom_site_fract_x
 _atom_site_fract_y
 _atom_site_fract_z
 _atom_site_occupancy
  Ni  Ni0  1  0.66348194  0.03102750  0.31522213  1
  Ni  Ni1  1  0.16348194  0.46897250  0.68477787  1
  Ni  Ni2  1  0.33651806  0.53102750  0.18477787  1
  Ni  Ni3  1  0.83651806  0.96897250  0.81522213  1
  Ni  Ni4  1  0.33651806  0.96897250  0.68477787  1
  Ni  Ni5  1  0.83651806  0.53102750  0.31522213  1
  Ni  Ni6  1  0.66348194  0.46897250  0.81522213  1
  Ni  Ni7  1  0.16348194  0.03102750  0.18477787  1
  Ni  Ni8  1  0.77112518  0.28436923  0.44004346  1
  Ni  Ni9  1  0.27112518  0.21563077  0.55995654  1
  Ni  Ni10  1  0.22887482  0.78436923  0.05995654  1
  Ni  Ni11  1  0.72887482  0.71563077  0.94004346  1
  Ni  Ni12  1  0.22887482  0.71563077  0.55995654  1
  Ni  Ni13  1  0.72887482  0.78436923  0.44004346  1
  Ni  Ni14  1  0.77112518  0.21563077  0.94004346  1
  Ni  Ni15  1  0.27112518  0.28436923  0.05995654  1
  Cu  Cu16  1  0.20989111  0.99786277  0.43400326  1
  Cu  Cu17  1  0.70989111  0.50213723  0.56599674  1
  Cu  Cu18  1  0.79010889  0.49786277  0.06599674  1
  Cu  Cu19  1  0.29010889  0.00213723  0.93400326  1
  Cu  Cu20  1  0.79010889  0.00213723  0.56599674  1
  Cu  Cu21  1  0.29010889  0.49786277  0.43400326  1
  Cu  Cu22  1  0.20989111  0.50213723  0.93400326  1
  Cu  Cu23  1  0.70989111  0.99786277  0.06599674  1
  Cu  Cu24  1  0.19062701  0.27485548  0.30265426  1
  Cu  Cu25  1  0.69062701  0.22514452  0.69734574  1
  Cu  Cu26  1  0.80937299  0.77485548  0.19734574  1
  Cu  Cu27  1  0.30937299  0.72514452  0.80265426  1
  Cu  Cu28  1  0.80937299  0.72514452  0.69734574  1
  Cu  Cu29  1  0.30937299  0.77485548  0.30265426  1
  Cu  Cu30  1  0.19062701  0.22514452  0.80265426  1
  Cu  Cu31  1  0.69062701  0.27485548  0.19734574  1
  C  C32  1  0.09945939  0.26750365  0.45318984  1
  C  C33  1  0.59945939  0.23249635  0.54681016  1
  C  C34  1  0.90054061  0.76750365  0.04681016  1
  C  C35  1  0.40054061  0.73249635  0.95318984  1
  C  C36  1  0.90054061  0.73249635  0.54681016  1
  C  C37  1  0.40054061  0.76750365  0.45318984  1
  C  C38  1  0.09945939  0.23249635  0.95318984  1
  C  C39  1  0.59945939  0.26750365  0.04681016  1
  C  C40  1  0.71043695  0.44688601  0.41984246  1
  C  C41  1  0.21043695  0.05311399  0.58015754  1
  C  C42  1  0.28956305  0.94688601  0.08015754  1
  C  C43  1  0.78956305  0.55311399  0.91984246  1
  C  C44  1  0.28956305  0.55311399  0.58015754  1
  C  C45  1  0.78956305  0.94688601  0.41984246  1
  C  C46  1  0.71043695  0.05311399  0.91984246  1
  C  C47  1  0.21043695  0.44688601  0.08015754  1
  C  C48  1  0.67564811  0.19408257  0.33362574  1
  C  C49  1  0.17564811  0.30591743  0.66637426  1
  C  C50  1  0.32435189  0.69408257  0.16637426  1
  C  C51  1  0.82435189  0.80591743  0.83362574  1
  C  C52  1  0.32435189  0.80591743  0.66637426  1
  C  C53  1  0.82435189  0.69408257  0.33362574  1
  C  C54  1  0.67564811  0.30591743  0.83362574  1
  C  C55  1  0.17564811  0.19408257  0.16637426  1
  C  C56  1  0.65449946  0.48823878  0.20680891  1
  C  C57  1  0.15449946  0.01176122  0.79319109  1
  C  C58  1  0.34550054  0.98823878  0.29319109  1
  C  C59  1  0.84550054  0.51176122  0.70680891  1
  C  C60  1  0.34550054  0.51176122  0.79319109  1
  C  C61  1  0.84550054  0.98823878  0.20680891  1
  C  C62  1  0.65449946  0.01176122  0.70680891  1
  C  C63  1  0.15449946  0.48823878  0.29319109  1
