# generated using pymatgen
data_Cu4Ni3C4
_symmetry_space_group_name_H-M   'P 1'
_cell_length_a   9.96407000
_cell_length_b   6.31790200
_cell_length_c   15.06541609
_cell_angle_alpha   84.69794640
_cell_angle_beta   90.00000000
_cell_angle_gamma   90.00000000
_symmetry_Int_Tables_number   1
_chemical_formula_structural   Cu4Ni3C4
_chemical_formula_sum   'Cu32 Ni24 C32'
_cell_volume   944.34051180
_cell_formula_units_Z   8
loop_
 _symmetry_equiv_pos_site_id
 _symmetry_equiv_pos_as_xyz
  1  'x, y, z'
loop_
 _atom_site_type_symbol
 _atom_site_label
 _atom_site_symmetry_multiplicity
 _atom_site_fract_x
 _atom_site_fract_y
 _atom_site_fract_z
 _atom_site_occupancy
  C  C0  1  0.75153500  0.78517400  0.15523900  1
  C  C1  1  0.25153500  0.21482600  0.34476100  1
  C  C2  1  0.24846500  0.21482600  0.84476100  1
  C  C3  1  0.74846500  0.78517400  0.65523900  1
  C  C4  1  0.61901600  0.61276400  0.34109800  1
  C  C5  1  0.11901600  0.38723600  0.15890200  1
  C  C6  1  0.38098400  0.38723600  0.65890200  1
  C  C7  1  0.88098400  0.61276400  0.84109800  1
  C  C8  1  0.64213800  0.41678800  0.62254900  1
  C  C9  1  0.14213800  0.58321200  0.87745100  1
  C  C10  1  0.35786200  0.58321200  0.37745100  1
  C  C11  1  0.85786200  0.41678800  0.12254900  1
  C  C12  1  0.58157700  0.57672600  0.54596700  1
  C  C13  1  0.08157700  0.42327400  0.95403300  1
  C  C14  1  0.41842300  0.42327400  0.45403300  1
  C  C15  1  0.91842300  0.57672600  0.04596700  1
  C  C16  1  0.55493800  0.14078300  0.10051300  1
  C  C17  1  0.05493800  0.85921700  0.39948700  1
  C  C18  1  0.44506200  0.85921700  0.89948700  1
  C  C19  1  0.94506200  0.14078300  0.60051300  1
  C  C20  1  0.44848900  0.35548700  0.06743000  1
  C  C21  1  0.94848900  0.64451300  0.43257000  1
  C  C22  1  0.55151100  0.64451300  0.93257000  1
  C  C23  1  0.05151100  0.35548700  0.56743000  1
  C  C24  1  0.36312900  0.87224000  0.10391000  1
  C  C25  1  0.86312900  0.12776000  0.39609000  1
  C  C26  1  0.63687100  0.12776000  0.89609000  1
  C  C27  1  0.13687100  0.87224000  0.60391000  1
  C  C28  1  0.21095800  0.93173500  0.15959000  1
  C  C29  1  0.71095800  0.06826500  0.34041000  1
  C  C30  1  0.78904200  0.06826500  0.84041000  1
  C  C31  1  0.28904200  0.93173500  0.65959000  1
  Ni  Ni32  1  0.37580700  0.14799500  0.18098500  1
  Ni  Ni33  1  0.87580700  0.85200500  0.31901400  1
  Ni  Ni34  1  0.62419300  0.85200500  0.81901400  1
  Ni  Ni35  1  0.12419300  0.14799500  0.68098600  1
  Ni  Ni36  1  0.48929000  0.26144300  0.12645600  1
  Ni  Ni37  1  0.98929000  0.73855700  0.37354400  1
  Ni  Ni38  1  0.51071000  0.73855700  0.87354400  1
  Ni  Ni39  1  0.01071000  0.26144300  0.62645600  1
  Ni  Ni40  1  0.29740500  0.00096100  0.12159000  1
  Ni  Ni41  1  0.79740500  0.99903900  0.37841000  1
  Ni  Ni42  1  0.70259500  0.99903900  0.87841000  1
  Ni  Ni43  1  0.20259500  0.00096100  0.62159000  1
  Ni  Ni44  1  0.43496400  0.99442700  0.25702500  1
  Ni  Ni45  1  0.93496400  0.00557300  0.24297500  1
  Ni  Ni46  1  0.56503600  0.00557300  0.74297500  1
  Ni  Ni47  1  0.06503600  0.99442700  0.75702500  1
  Ni  Ni48  1  0.57794600  0.40736000  0.17559700  1
  Ni  Ni49  1  0.07794600  0.59264000  0.32440300  1
  Ni  Ni50  1  0.42205400  0.59264000  0.82440300  1
  Ni  Ni51  1  0.92205400  0.40736000  0.67559700  1
  Ni  Ni52  1  0.24808300  0.12432800  0.03747200  1
  Ni  Ni53  1  0.74808300  0.87567200  0.46252800  1
  Ni  Ni54  1  0.75191700  0.87567200  0.96252800  1
  Ni  Ni55  1  0.25191700  0.12432800  0.53747200  1
  Cu  Cu56  1  0.55781600  0.46780900  0.59547400  1
  Cu  Cu57  1  0.05781600  0.53219100  0.90452600  1
  Cu  Cu58  1  0.44218400  0.53219100  0.40452600  1
  Cu  Cu59  1  0.94218400  0.46780900  0.09547400  1
  Cu  Cu60  1  0.28841100  0.29593700  0.21832200  1
  Cu  Cu61  1  0.78841100  0.70406300  0.28167800  1
  Cu  Cu62  1  0.71158900  0.70406300  0.78167800  1
  Cu  Cu63  1  0.21158900  0.29593700  0.71832200  1
  Cu  Cu64  1  0.38210100  0.99641200  0.33495000  1
  Cu  Cu65  1  0.88210100  0.00358800  0.16505000  1
  Cu  Cu66  1  0.61789900  0.00358800  0.66505000  1
  Cu  Cu67  1  0.11789900  0.99641200  0.83495000  1
  Cu  Cu68  1  0.52547000  0.86714900  0.23995500  1
  Cu  Cu69  1  0.02547000  0.13285100  0.26004500  1
  Cu  Cu70  1  0.47453000  0.13285100  0.76004500  1
  Cu  Cu71  1  0.97453000  0.86714900  0.73995500  1
  Cu  Cu72  1  0.57962100  0.38843300  0.26021600  1
  Cu  Cu73  1  0.07962100  0.61156700  0.23978400  1
  Cu  Cu74  1  0.42037900  0.61156700  0.73978400  1
  Cu  Cu75  1  0.92037900  0.38843300  0.76021600  1
  Cu  Cu76  1  0.64819700  0.53903900  0.12498100  1
  Cu  Cu77  1  0.14819700  0.46096100  0.37501900  1
  Cu  Cu78  1  0.35180300  0.46096100  0.87501900  1
  Cu  Cu79  1  0.85180300  0.53903900  0.62498100  1
  Cu  Cu80  1  0.29163200  0.07190100  0.96363000  1
  Cu  Cu81  1  0.79163200  0.92809900  0.53637000  1
  Cu  Cu82  1  0.70836800  0.92809900  0.03637000  1
  Cu  Cu83  1  0.20836800  0.07190100  0.46363000  1
  Cu  Cu84  1  0.16646200  0.28021200  0.04394100  1
  Cu  Cu85  1  0.66646200  0.71978800  0.45605900  1
  Cu  Cu86  1  0.83353800  0.71978800  0.95605900  1
  Cu  Cu87  1  0.33353800  0.28021200  0.54394100  1
