# generated using pymatgen
data_Cu2(Ni2C7)3
_symmetry_space_group_name_H-M   'P 1'
_cell_length_a   6.00232841
_cell_length_b   6.00232841
_cell_length_c   30.01966900
_cell_angle_alpha   90.00000000
_cell_angle_beta   90.00000000
_cell_angle_gamma   120.00000449
_symmetry_Int_Tables_number   1
_chemical_formula_structural   Cu2(Ni2C7)3
_chemical_formula_sum   'Cu4 Ni12 C42'
_cell_volume   936.64715486
_cell_formula_units_Z   2
loop_
 _symmetry_equiv_pos_site_id
 _symmetry_equiv_pos_as_xyz
  1  'x, y, z'
loop_
 _atom_site_type_symbol
 _atom_site_label
 _atom_site_symmetry_multiplicity
 _atom_site_fract_x
 _atom_site_fract_y
 _atom_site_fract_z
 _atom_site_occupancy
  Ni  Ni0  1  0.66666700  0.33333300  0.81547800  1
  Ni  Ni1  1  0.33333300  0.66666700  0.18452200  1
  Ni  Ni2  1  0.66666700  0.33333300  0.41038900  1
  Ni  Ni3  1  0.33333300  0.66666700  0.91038900  1
  Ni  Ni4  1  0.33333300  0.66666700  0.58961100  1
  Ni  Ni5  1  0.66666700  0.33333300  0.08961100  1
  Ni  Ni6  1  0.00000000  0.00000000  0.50000000  1
  Ni  Ni7  1  0.00000000  0.00000000  0.00000000  1
  Ni  Ni8  1  0.33333300  0.66666700  0.31547800  1
  Ni  Ni9  1  0.00000000  0.00000000  0.25000000  1
  Ni  Ni10  1  0.00000000  0.00000000  0.75000000  1
  Ni  Ni11  1  0.66666700  0.33333300  0.68452200  1
  Cu  Cu12  1  0.00000000  0.00000000  0.62687300  1
  Cu  Cu13  1  0.00000000  0.00000000  0.87312700  1
  Cu  Cu14  1  0.00000000  0.00000000  0.37312700  1
  Cu  Cu15  1  0.00000000  0.00000000  0.12687300  1
  C  C16  1  0.66666700  0.33333300  0.29615600  1
  C  C17  1  0.33333300  0.66666700  0.79615600  1
  C  C18  1  0.33333300  0.66666700  0.70384400  1
  C  C19  1  0.66666700  0.33333300  0.20384400  1
  C  C20  1  0.66666700  0.33333300  0.55473900  1
  C  C21  1  0.66666700  0.33333300  0.94526100  1
  C  C22  1  0.33333300  0.66666700  0.05473900  1
  C  C23  1  0.33333300  0.66666700  0.44526100  1
  C  C24  1  0.48160300  0.96320500  0.75000000  1
  C  C25  1  0.51839700  0.48160300  0.25000000  1
  C  C26  1  0.96320500  0.48160300  0.25000000  1
  C  C27  1  0.03679500  0.51839700  0.75000000  1
  C  C28  1  0.48160300  0.51839700  0.75000000  1
  C  C29  1  0.51839700  0.03679500  0.25000000  1
  C  C30  1  0.35159200  0.17579600  0.33027300  1
  C  C31  1  0.82420400  0.17579600  0.33027300  1
  C  C32  1  0.82420400  0.64840800  0.33027300  1
  C  C33  1  0.17579600  0.35159200  0.83027300  1
  C  C34  1  0.64840800  0.82420400  0.66972700  1
  C  C35  1  0.64840800  0.82420400  0.83027300  1
  C  C36  1  0.17579600  0.82420400  0.83027300  1
  C  C37  1  0.82420400  0.64840800  0.16972700  1
  C  C38  1  0.82420400  0.17579600  0.16972700  1
  C  C39  1  0.17579600  0.82420400  0.66972700  1
  C  C40  1  0.17579600  0.35159200  0.66972700  1
  C  C41  1  0.35159200  0.17579600  0.16972700  1
  C  C42  1  0.66369500  0.83184800  0.42256700  1
  C  C43  1  0.16815200  0.83184800  0.42256700  1
  C  C44  1  0.16815200  0.33630500  0.42256700  1
  C  C45  1  0.83184800  0.66369500  0.92256700  1
  C  C46  1  0.33630500  0.16815200  0.57743300  1
  C  C47  1  0.33630500  0.16815200  0.92256700  1
  C  C48  1  0.33333300  0.66666700  0.99557400  1
  C  C49  1  0.66666700  0.33333300  0.49557400  1
  C  C50  1  0.66666700  0.33333300  0.00442600  1
  C  C51  1  0.33333300  0.66666700  0.50442600  1
  C  C52  1  0.66369500  0.83184800  0.07743300  1
  C  C53  1  0.83184800  0.66369500  0.57743300  1
  C  C54  1  0.83184800  0.16815200  0.57743300  1
  C  C55  1  0.16815200  0.83184800  0.07743300  1
  C  C56  1  0.16815200  0.33630500  0.07743300  1
  C  C57  1  0.83184800  0.16815200  0.92256700  1
