# generated using pymatgen
data_Cu2NiC
_symmetry_space_group_name_H-M   'P 1'
_cell_length_a   12.51821300
_cell_length_b   6.18913900
_cell_length_c   6.35582889
_cell_angle_alpha   85.27534390
_cell_angle_beta   90.00000000
_cell_angle_gamma   90.00000000
_symmetry_Int_Tables_number   1
_chemical_formula_structural   Cu2NiC
_chemical_formula_sum   'Cu8 Ni4 C4'
_cell_volume   490.75704112
_cell_formula_units_Z   4
loop_
 _symmetry_equiv_pos_site_id
 _symmetry_equiv_pos_as_xyz
  1  'x, y, z'
loop_
 _atom_site_type_symbol
 _atom_site_label
 _atom_site_symmetry_multiplicity
 _atom_site_fract_x
 _atom_site_fract_y
 _atom_site_fract_z
 _atom_site_occupancy
  C  C0  1  0.87673400  0.04605000  0.24217000  1
  C  C1  1  0.37673400  0.95395000  0.25783000  1
  C  C2  1  0.12326600  0.95395000  0.75783000  1
  C  C3  1  0.62326600  0.04605000  0.74217000  1
  Ni  Ni4  1  0.86755300  0.52434600  0.71945300  1
  Ni  Ni5  1  0.13244700  0.47565400  0.28054700  1
  Ni  Ni6  1  0.36755300  0.47565400  0.78054700  1
  Ni  Ni7  1  0.63244700  0.52434600  0.21945300  1
  Cu  Cu8  1  0.83701300  0.55241000  0.12730500  1
  Cu  Cu9  1  0.33701300  0.44759000  0.37269500  1
  Cu  Cu10  1  0.16298700  0.44759000  0.87269500  1
  Cu  Cu11  1  0.66298700  0.55241000  0.62730500  1
  Cu  Cu12  1  0.62312800  0.10557300  0.23839100  1
  Cu  Cu13  1  0.87687200  0.10557300  0.73839100  1
  Cu  Cu14  1  0.37687200  0.89442700  0.76160900  1
  Cu  Cu15  1  0.12312800  0.89442700  0.26160900  1
