# generated using pymatgen
data_Cu2Ni3C17
_symmetry_space_group_name_H-M   'P 1'
_cell_length_a   7.53662540
_cell_length_b   7.53662540
_cell_length_c   7.49181206
_cell_angle_alpha   60.76009986
_cell_angle_beta   60.76009986
_cell_angle_gamma   60.48909187
_symmetry_Int_Tables_number   1
_chemical_formula_structural   Cu2Ni3C17
_chemical_formula_sum   'Cu2 Ni3 C17'
_cell_volume   305.44755980
_cell_formula_units_Z   1
loop_
 _symmetry_equiv_pos_site_id
 _symmetry_equiv_pos_as_xyz
  1  'x, y, z'
loop_
 _atom_site_type_symbol
 _atom_site_label
 _atom_site_symmetry_multiplicity
 _atom_site_fract_x
 _atom_site_fract_y
 _atom_site_fract_z
 _atom_site_occupancy
  Ni  Ni0  1  0.00000000  0.00000000  0.00000000  1
  Ni  Ni1  1  0.50000000  0.50000000  0.50000000  1
  Ni  Ni2  1  0.50000000  0.50000000  0.00000000  1
  Cu  Cu3  1  0.50000000  0.00000000  0.50000000  1
  Cu  Cu4  1  0.00000000  0.50000000  0.50000000  1
  C  C5  1  0.00000000  0.00000000  0.50000000  1
  C  C6  1  0.50000000  0.00000000  0.00000000  1
  C  C7  1  0.00000000  0.50000000  0.00000000  1
  C  C8  1  0.37620600  0.37620600  0.37959300  1
  C  C9  1  0.62379400  0.62379400  0.62040700  1
  C  C10  1  0.31550000  0.91122200  0.31693300  1
  C  C11  1  0.68450000  0.08877800  0.68306700  1
  C  C12  1  0.08877800  0.68450000  0.68306700  1
  C  C13  1  0.91122200  0.31550000  0.31693300  1
  C  C14  1  0.62949000  0.09137700  0.09928400  1
  C  C15  1  0.37051000  0.90862300  0.90071600  1
  C  C16  1  0.90862300  0.37051000  0.90071600  1
  C  C17  1  0.09137700  0.62949000  0.09928400  1
  C  C18  1  0.90291300  0.90291300  0.37138700  1
  C  C19  1  0.09708700  0.09708700  0.62861300  1
  C  C20  1  0.68570700  0.68570700  0.08838800  1
  C  C21  1  0.31429300  0.31429300  0.91161200  1
