# generated using pymatgen
data_CuNiC6
_symmetry_space_group_name_H-M   'P 1'
_cell_length_a   5.40106512
_cell_length_b   5.40106512
_cell_length_c   5.40106532
_cell_angle_alpha   58.29972197
_cell_angle_beta   58.29972197
_cell_angle_gamma   58.29972242
_symmetry_Int_Tables_number   1
_chemical_formula_structural   CuNiC6
_chemical_formula_sum   'Cu1 Ni1 C6'
_cell_volume   107.07161270
_cell_formula_units_Z   1
loop_
 _symmetry_equiv_pos_site_id
 _symmetry_equiv_pos_as_xyz
  1  'x, y, z'
loop_
 _atom_site_type_symbol
 _atom_site_label
 _atom_site_symmetry_multiplicity
 _atom_site_fract_x
 _atom_site_fract_y
 _atom_site_fract_z
 _atom_site_occupancy
  Ni  Ni0  1  0.00000000  0.00000000  0.00000000  1
  Cu  Cu1  1  0.50000000  0.50000000  0.50000000  1
  C  C2  1  0.67274700  0.85312600  0.23572200  1
  C  C3  1  0.85312600  0.23572200  0.67274700  1
  C  C4  1  0.76427800  0.32725300  0.14687400  1
  C  C5  1  0.14687400  0.76427800  0.32725300  1
  C  C6  1  0.32725300  0.14687400  0.76427800  1
  C  C7  1  0.23572200  0.67274700  0.85312600  1
