# generated using pymatgen
data_Cu21Ni7C5
_symmetry_space_group_name_H-M   'P 1'
_cell_length_a   7.35639100
_cell_length_b   9.16242300
_cell_length_c   28.60788200
_cell_angle_alpha   90.00000000
_cell_angle_beta   90.00000000
_cell_angle_gamma   90.00000000
_symmetry_Int_Tables_number   1
_chemical_formula_structural   Cu21Ni7C5
_chemical_formula_sum   'Cu84 Ni28 C20'
_cell_volume   1928.23893578
_cell_formula_units_Z   4
loop_
 _symmetry_equiv_pos_site_id
 _symmetry_equiv_pos_as_xyz
  1  'x, y, z'
loop_
 _atom_site_type_symbol
 _atom_site_label
 _atom_site_symmetry_multiplicity
 _atom_site_fract_x
 _atom_site_fract_y
 _atom_site_fract_z
 _atom_site_occupancy
  C  C0  1  0.91415400  0.98189100  0.25000000  1
  C  C1  1  0.58584600  0.48189100  0.25000000  1
  C  C2  1  0.08584600  0.01810900  0.75000000  1
  C  C3  1  0.41415400  0.51810900  0.75000000  1
  C  C4  1  0.87767200  0.99783300  0.43607800  1
  C  C5  1  0.62232800  0.49783300  0.06392200  1
  C  C6  1  0.12232800  0.00216700  0.93607800  1
  C  C7  1  0.37767200  0.50216700  0.56392200  1
  C  C8  1  0.12232800  0.00216700  0.56392200  1
  C  C9  1  0.37767200  0.50216700  0.93607800  1
  C  C10  1  0.87767200  0.99783300  0.06392200  1
  C  C11  1  0.62232800  0.49783300  0.43607800  1
  C  C12  1  0.09868500  0.36976700  0.35951300  1
  C  C13  1  0.40131500  0.86976700  0.14048700  1
  C  C14  1  0.90131500  0.63023300  0.85951300  1
  C  C15  1  0.59868500  0.13023300  0.64048700  1
  C  C16  1  0.90131500  0.63023300  0.64048700  1
  C  C17  1  0.59868500  0.13023300  0.85951300  1
  C  C18  1  0.09868500  0.36976700  0.14048700  1
  C  C19  1  0.40131500  0.86976700  0.35951300  1
  Ni  Ni20  1  0.37233100  0.87803700  0.25000000  1
  Ni  Ni21  1  0.12766900  0.37803700  0.25000000  1
  Ni  Ni22  1  0.62766900  0.12196300  0.75000000  1
  Ni  Ni23  1  0.87233100  0.62196300  0.75000000  1
  Ni  Ni24  1  0.10723400  0.34020200  0.46444300  1
  Ni  Ni25  1  0.39276600  0.84020200  0.03555700  1
  Ni  Ni26  1  0.89276600  0.65979800  0.96444300  1
  Ni  Ni27  1  0.60723400  0.15979800  0.53555700  1
  Ni  Ni28  1  0.89276600  0.65979800  0.53555700  1
  Ni  Ni29  1  0.60723400  0.15979800  0.96444300  1
  Ni  Ni30  1  0.10723400  0.34020200  0.03555700  1
  Ni  Ni31  1  0.39276600  0.84020200  0.46444300  1
  Ni  Ni32  1  0.08328700  0.68389000  0.38203800  1
  Ni  Ni33  1  0.41671300  0.18389000  0.11796200  1
  Ni  Ni34  1  0.91671300  0.31611000  0.88203800  1
  Ni  Ni35  1  0.58328700  0.81611000  0.61796200  1
  Ni  Ni36  1  0.91671300  0.31611000  0.61796200  1
  Ni  Ni37  1  0.58328700  0.81611000  0.88203800  1
  Ni  Ni38  1  0.08328700  0.68389000  0.11796200  1
  Ni  Ni39  1  0.41671300  0.18389000  0.38203800  1
  Ni  Ni40  1  0.69012100  0.75617700  0.32778800  1
  Ni  Ni41  1  0.80987900  0.25617700  0.17221200  1
  Ni  Ni42  1  0.30987900  0.24382300  0.82778800  1
  Ni  Ni43  1  0.19012100  0.74382300  0.67221200  1
  Ni  Ni44  1  0.30987900  0.24382300  0.67221200  1
  Ni  Ni45  1  0.19012100  0.74382300  0.82778800  1
  Ni  Ni46  1  0.69012100  0.75617700  0.17221200  1
  Ni  Ni47  1  0.80987900  0.25617700  0.32778800  1
  Cu  Cu48  1  0.01360200  0.31481300  0.42620700  1
  Cu  Cu49  1  0.48639800  0.81481300  0.07379300  1
  Cu  Cu50  1  0.98639800  0.68518700  0.92620700  1
  Cu  Cu51  1  0.51360200  0.18518700  0.57379300  1
  Cu  Cu52  1  0.98639800  0.68518700  0.57379300  1
  Cu  Cu53  1  0.51360200  0.18518700  0.92620700  1
  Cu  Cu54  1  0.01360200  0.31481300  0.07379300  1
  Cu  Cu55  1  0.48639800  0.81481300  0.42620700  1
  Cu  Cu56  1  0.96419900  0.34326900  0.25000000  1
  Cu  Cu57  1  0.53580100  0.84326900  0.25000000  1
  Cu  Cu58  1  0.03580100  0.65673100  0.75000000  1
  Cu  Cu59  1  0.46419900  0.15673100  0.75000000  1
  Cu  Cu60  1  0.90835400  0.74958700  0.50294400  1
  Cu  Cu61  1  0.59164600  0.24958700  0.99705600  1
  Cu  Cu62  1  0.09164600  0.25041300  0.00294400  1
  Cu  Cu63  1  0.40835400  0.75041300  0.49705600  1
  Cu  Cu64  1  0.09164600  0.25041300  0.49705600  1
  Cu  Cu65  1  0.40835400  0.75041300  0.00294400  1
  Cu  Cu66  1  0.90835400  0.74958700  0.99705600  1
  Cu  Cu67  1  0.59164600  0.24958700  0.50294400  1
  Cu  Cu68  1  0.82242300  0.70773200  0.30623300  1
  Cu  Cu69  1  0.67757700  0.20773200  0.19376700  1
  Cu  Cu70  1  0.17757700  0.29226800  0.80623300  1
  Cu  Cu71  1  0.32242300  0.79226800  0.69376700  1
  Cu  Cu72  1  0.17757700  0.29226800  0.69376700  1
  Cu  Cu73  1  0.32242300  0.79226800  0.80623300  1
  Cu  Cu74  1  0.82242300  0.70773200  0.19376700  1
  Cu  Cu75  1  0.67757700  0.20773200  0.30623300  1
  Cu  Cu76  1  0.20496200  0.45175200  0.46714200  1
  Cu  Cu77  1  0.29503800  0.95175200  0.03285800  1
  Cu  Cu78  1  0.79503800  0.54824800  0.96714200  1
  Cu  Cu79  1  0.70496200  0.04824800  0.53285800  1
  Cu  Cu80  1  0.79503800  0.54824800  0.53285800  1
  Cu  Cu81  1  0.70496200  0.04824800  0.96714200  1
  Cu  Cu82  1  0.20496200  0.45175200  0.03285800  1
  Cu  Cu83  1  0.29503800  0.95175200  0.46714200  1
  Cu  Cu84  1  0.81863300  0.39000400  0.34138600  1
  Cu  Cu85  1  0.68136700  0.89000400  0.15861400  1
  Cu  Cu86  1  0.18136700  0.60999600  0.84138600  1
  Cu  Cu87  1  0.31863300  0.10999600  0.65861400  1
  Cu  Cu88  1  0.18136700  0.60999600  0.65861400  1
  Cu  Cu89  1  0.31863300  0.10999600  0.84138600  1
  Cu  Cu90  1  0.81863300  0.39000400  0.15861400  1
  Cu  Cu91  1  0.68136700  0.89000400  0.34138600  1
  Cu  Cu92  1  0.93550500  0.65803600  0.40097500  1
  Cu  Cu93  1  0.56449500  0.15803600  0.09902500  1
  Cu  Cu94  1  0.06449500  0.34196400  0.90097500  1
  Cu  Cu95  1  0.43550500  0.84196400  0.59902500  1
  Cu  Cu96  1  0.06449500  0.34196400  0.59902500  1
  Cu  Cu97  1  0.43550500  0.84196400  0.90097500  1
  Cu  Cu98  1  0.93550500  0.65803600  0.09902500  1
  Cu  Cu99  1  0.56449500  0.15803600  0.40097500  1
  Cu  Cu100  1  0.95134900  0.17807100  0.33676300  1
  Cu  Cu101  1  0.54865100  0.67807100  0.16323700  1
  Cu  Cu102  1  0.04865100  0.82192900  0.83676300  1
  Cu  Cu103  1  0.45134900  0.32192900  0.66323700  1
  Cu  Cu104  1  0.04865100  0.82192900  0.66323700  1
  Cu  Cu105  1  0.45134900  0.32192900  0.83676300  1
  Cu  Cu106  1  0.95134900  0.17807100  0.16323700  1
  Cu  Cu107  1  0.54865100  0.67807100  0.33676300  1
  Cu  Cu108  1  0.28474600  0.89613500  0.28828400  1
  Cu  Cu109  1  0.21525400  0.39613500  0.21171600  1
  Cu  Cu110  1  0.71525400  0.10386500  0.78828400  1
  Cu  Cu111  1  0.78474600  0.60386500  0.71171600  1
  Cu  Cu112  1  0.71525400  0.10386500  0.71171600  1
  Cu  Cu113  1  0.78474600  0.60386500  0.78828400  1
  Cu  Cu114  1  0.28474600  0.89613500  0.21171600  1
  Cu  Cu115  1  0.21525400  0.39613500  0.28828400  1
  Cu  Cu116  1  0.36112300  0.31675500  0.37875700  1
  Cu  Cu117  1  0.13887700  0.81675500  0.12124300  1
  Cu  Cu118  1  0.63887700  0.68324500  0.87875700  1
  Cu  Cu119  1  0.86112300  0.18324500  0.62124300  1
  Cu  Cu120  1  0.63887700  0.68324500  0.62124300  1
  Cu  Cu121  1  0.86112300  0.18324500  0.87875700  1
  Cu  Cu122  1  0.36112300  0.31675500  0.12124300  1
  Cu  Cu123  1  0.13887700  0.81675500  0.37875700  1
  Cu  Cu124  1  0.18488300  0.58375800  0.36521500  1
  Cu  Cu125  1  0.31511700  0.08375800  0.13478500  1
  Cu  Cu126  1  0.81511700  0.41624200  0.86521500  1
  Cu  Cu127  1  0.68488300  0.91624200  0.63478500  1
  Cu  Cu128  1  0.81511700  0.41624200  0.63478500  1
  Cu  Cu129  1  0.68488300  0.91624200  0.86521500  1
  Cu  Cu130  1  0.18488300  0.58375800  0.13478500  1
  Cu  Cu131  1  0.31511700  0.08375800  0.36521500  1
