# generated using pymatgen
data_Cu(Ni3C8)2
_symmetry_space_group_name_H-M   'P 1'
_cell_length_a   6.70907722
_cell_length_b   6.70907722
_cell_length_c   6.70907722
_cell_angle_alpha   60.00000000
_cell_angle_beta   60.00000000
_cell_angle_gamma   60.00000000
_symmetry_Int_Tables_number   1
_chemical_formula_structural   Cu(Ni3C8)2
_chemical_formula_sum   'Cu1 Ni6 C16'
_cell_volume   213.53711673
_cell_formula_units_Z   1
loop_
 _symmetry_equiv_pos_site_id
 _symmetry_equiv_pos_as_xyz
  1  'x, y, z'
loop_
 _atom_site_type_symbol
 _atom_site_label
 _atom_site_symmetry_multiplicity
 _atom_site_fract_x
 _atom_site_fract_y
 _atom_site_fract_z
 _atom_site_occupancy
  Ni  Ni0  1  0.00000000  0.00000000  0.50000000  1
  Ni  Ni1  1  0.50000000  0.00000000  0.50000000  1
  Ni  Ni2  1  0.00000000  0.50000000  0.50000000  1
  Ni  Ni3  1  0.50000000  0.50000000  0.00000000  1
  Ni  Ni4  1  0.00000000  0.50000000  0.00000000  1
  Ni  Ni5  1  0.50000000  0.00000000  0.00000000  1
  Cu  Cu6  1  0.00000000  0.00000000  0.00000000  1
  C  C7  1  0.88713400  0.88713400  0.33859900  1
  C  C8  1  0.88713400  0.33859900  0.88713400  1
  C  C9  1  0.33859900  0.88713400  0.88713400  1
  C  C10  1  0.88713400  0.88713400  0.88713400  1
  C  C11  1  0.11286600  0.11286600  0.66140100  1
  C  C12  1  0.11286600  0.66140100  0.11286600  1
  C  C13  1  0.66140100  0.11286600  0.11286600  1
  C  C14  1  0.11286600  0.11286600  0.11286600  1
  C  C15  1  0.64413900  0.64413900  0.06758300  1
  C  C16  1  0.64413900  0.06758300  0.64413900  1
  C  C17  1  0.06758300  0.64413900  0.64413900  1
  C  C18  1  0.64413900  0.64413900  0.64413900  1
  C  C19  1  0.35586100  0.35586100  0.93241700  1
  C  C20  1  0.35586100  0.93241700  0.35586100  1
  C  C21  1  0.93241700  0.35586100  0.35586100  1
  C  C22  1  0.35586100  0.35586100  0.35586100  1
