# generated using pymatgen
data_CuNi3C11
_symmetry_space_group_name_H-M   'P 1'
_cell_length_a   10.69435167
_cell_length_b   10.69435167
_cell_length_c   10.69435167
_cell_angle_alpha   146.47759983
_cell_angle_beta   131.95212519
_cell_angle_gamma   59.85570727
_symmetry_Int_Tables_number   1
_chemical_formula_structural   CuNi3C11
_chemical_formula_sum   'Cu2 Ni6 C22'
_cell_volume   497.80608829
_cell_formula_units_Z   2
loop_
 _symmetry_equiv_pos_site_id
 _symmetry_equiv_pos_as_xyz
  1  'x, y, z'
loop_
 _atom_site_type_symbol
 _atom_site_label
 _atom_site_symmetry_multiplicity
 _atom_site_fract_x
 _atom_site_fract_y
 _atom_site_fract_z
 _atom_site_occupancy
  Ni  Ni0  1  0.75824000  0.50000000  0.25824000  1
  Ni  Ni1  1  0.41685800  0.16957800  0.24727900  1
  Ni  Ni2  1  0.07770100  0.83042200  0.24727900  1
  Ni  Ni3  1  0.24176000  0.50000000  0.74176000  1
  Ni  Ni4  1  0.92229900  0.16957800  0.75272100  1
  Ni  Ni5  1  0.58314200  0.83042200  0.75272100  1
  Cu  Cu6  1  0.16600200  0.66600200  0.50000000  1
  Cu  Cu7  1  0.83399800  0.33399800  0.50000000  1
  C  C8  1  0.00000000  0.00000000  0.00000000  1
  C  C9  1  0.66757800  0.66757800  0.00000000  1
  C  C10  1  0.33242200  0.33242200  0.00000000  1
  C  C11  1  0.50000000  0.00000000  0.50000000  1
  C  C12  1  0.74469100  0.00000000  0.74469100  1
  C  C13  1  0.42262700  0.66102100  0.76160600  1
  C  C14  1  0.10058500  0.33897900  0.76160600  1
  C  C15  1  0.58106800  0.83403200  0.25296400  1
  C  C16  1  0.25427800  0.49954800  0.24527100  1
  C  C17  1  0.92063900  0.16039500  0.23975600  1
  C  C18  1  0.41893200  0.67189600  0.25296400  1
  C  C19  1  0.07936100  0.31911700  0.23975600  1
  C  C20  1  0.74572200  0.99099300  0.24527100  1
  C  C21  1  0.25530900  0.00000000  0.25530900  1
  C  C22  1  0.89941500  0.66102100  0.23839400  1
  C  C23  1  0.57737300  0.33897900  0.23839400  1
  C  C24  1  0.41893200  0.16596800  0.74703600  1
  C  C25  1  0.07936100  0.83960500  0.76024400  1
  C  C26  1  0.74572200  0.50045200  0.75472900  1
  C  C27  1  0.58106800  0.32810400  0.74703600  1
  C  C28  1  0.25427800  0.00900700  0.75472900  1
  C  C29  1  0.92063900  0.68088300  0.76024400  1
