# generated using pymatgen
data_CuNi2C9
_symmetry_space_group_name_H-M   'P 1'
_cell_length_a   6.27439500
_cell_length_b   10.92874400
_cell_length_c   15.45586832
_cell_angle_alpha   62.15314779
_cell_angle_beta   90.00000000
_cell_angle_gamma   90.00000000
_symmetry_Int_Tables_number   1
_chemical_formula_structural   CuNi2C9
_chemical_formula_sum   'Cu4 Ni8 C36'
_cell_volume   937.09945704
_cell_formula_units_Z   4
loop_
 _symmetry_equiv_pos_site_id
 _symmetry_equiv_pos_as_xyz
  1  'x, y, z'
loop_
 _atom_site_type_symbol
 _atom_site_label
 _atom_site_symmetry_multiplicity
 _atom_site_fract_x
 _atom_site_fract_y
 _atom_site_fract_z
 _atom_site_occupancy
  Ni  Ni0  1  0.73551400  0.48195700  0.65597400  1
  Ni  Ni1  1  0.76448600  0.48195700  0.15597400  1
  Ni  Ni2  1  0.26448600  0.51804300  0.34402600  1
  Ni  Ni3  1  0.23551400  0.51804300  0.84402600  1
  Ni  Ni4  1  0.72423300  0.03311800  0.82619900  1
  Ni  Ni5  1  0.77576700  0.03311800  0.32619900  1
  Ni  Ni6  1  0.27576700  0.96688200  0.17380100  1
  Ni  Ni7  1  0.22423300  0.96688200  0.67380100  1
  Cu  Cu8  1  0.75771000  0.23975900  0.50854300  1
  Cu  Cu9  1  0.74229000  0.23975900  0.00854300  1
  Cu  Cu10  1  0.24229000  0.76024100  0.49145700  1
  Cu  Cu11  1  0.25771000  0.76024100  0.99145700  1
  C  C12  1  0.22316500  0.17602100  0.86468900  1
  C  C13  1  0.27683500  0.17602100  0.36468900  1
  C  C14  1  0.77683500  0.82397900  0.13531100  1
  C  C15  1  0.72316500  0.82397900  0.63531100  1
  C  C16  1  0.74018200  0.67347700  0.85847500  1
  C  C17  1  0.75981800  0.67347700  0.35847500  1
  C  C18  1  0.25981800  0.32652300  0.14152500  1
  C  C19  1  0.24018200  0.32652300  0.64152500  1
  C  C20  1  0.52813100  0.74564300  0.85506400  1
  C  C21  1  0.97186900  0.74564300  0.35506400  1
  C  C22  1  0.47186900  0.25435700  0.14493600  1
  C  C23  1  0.02813100  0.25435700  0.64493600  1
  C  C24  1  0.21284200  0.03269800  0.86916000  1
  C  C25  1  0.28715800  0.03269800  0.36916000  1
  C  C26  1  0.78715800  0.96730200  0.13084000  1
  C  C27  1  0.71284200  0.96730200  0.63084000  1
  C  C28  1  0.00366300  0.23171400  0.87382100  1
  C  C29  1  0.49633700  0.23171400  0.37382100  1
  C  C30  1  0.99633700  0.76828600  0.12617900  1
  C  C31  1  0.50366300  0.76828600  0.62617900  1
  C  C32  1  0.31468800  0.28538800  0.75501700  1
  C  C33  1  0.18531200  0.28538800  0.25501700  1
  C  C34  1  0.68531200  0.71461200  0.24498300  1
  C  C35  1  0.81468800  0.71461200  0.74498300  1
  C  C36  1  0.39296600  0.18762000  0.93177900  1
  C  C37  1  0.10703400  0.18762000  0.43177900  1
  C  C38  1  0.60703400  0.81238000  0.06822100  1
  C  C39  1  0.89296600  0.81238000  0.56822100  1
  C  C40  1  0.72129100  0.51505000  0.90670200  1
  C  C41  1  0.77870900  0.51505000  0.40670200  1
  C  C42  1  0.27870900  0.48495000  0.09329800  1
  C  C43  1  0.22129100  0.48495000  0.59329800  1
  C  C44  1  0.92717900  0.72352900  0.89769800  1
  C  C45  1  0.57282100  0.72352900  0.39769800  1
  C  C46  1  0.07282100  0.27647100  0.10230200  1
  C  C47  1  0.42717900  0.27647100  0.60230200  1
