# generated using pymatgen
data_CuNiC11
_symmetry_space_group_name_H-M   'P 1'
_cell_length_a   14.21725300
_cell_length_b   5.12947500
_cell_length_c   9.46424466
_cell_angle_alpha   79.79166085
_cell_angle_beta   90.00000000
_cell_angle_gamma   90.00000000
_symmetry_Int_Tables_number   1
_chemical_formula_structural   CuNiC11
_chemical_formula_sum   'Cu4 Ni4 C44'
_cell_volume   679.27340732
_cell_formula_units_Z   4
loop_
 _symmetry_equiv_pos_site_id
 _symmetry_equiv_pos_as_xyz
  1  'x, y, z'
loop_
 _atom_site_type_symbol
 _atom_site_label
 _atom_site_symmetry_multiplicity
 _atom_site_fract_x
 _atom_site_fract_y
 _atom_site_fract_z
 _atom_site_occupancy
  C  C0  1  0.17400100  0.78653600  0.78695200  1
  C  C1  1  0.67400100  0.21346400  0.71304800  1
  C  C2  1  0.82599900  0.21346400  0.21304800  1
  C  C3  1  0.32599900  0.78653600  0.28695200  1
  Ni  Ni4  1  0.37031400  0.24565800  0.61108400  1
  Ni  Ni5  1  0.87031400  0.75434200  0.88891600  1
  Ni  Ni6  1  0.62968600  0.75434200  0.38891600  1
  Ni  Ni7  1  0.12968600  0.24565800  0.11108400  1
  Cu  Cu8  1  0.45779500  0.76046500  0.95044100  1
  Cu  Cu9  1  0.95779500  0.23953500  0.54955900  1
  Cu  Cu10  1  0.54220500  0.23953500  0.04955900  1
  Cu  Cu11  1  0.04220500  0.76046500  0.45044100  1
  C  C12  1  0.32813300  0.27311700  0.95050900  1
  C  C13  1  0.82813300  0.72688300  0.54949100  1
  C  C14  1  0.67186700  0.72688300  0.04949100  1
  C  C15  1  0.17186700  0.27311700  0.45050900  1
  C  C16  1  0.48751400  0.72088000  0.66447800  1
  C  C17  1  0.98751400  0.27912000  0.83552200  1
  C  C18  1  0.51248600  0.27912000  0.33552200  1
  C  C19  1  0.01248600  0.72088000  0.16447800  1
  C  C20  1  0.42205400  0.23020600  0.42481900  1
  C  C21  1  0.92205400  0.76979400  0.07518100  1
  C  C22  1  0.57794600  0.76979400  0.57518100  1
  C  C23  1  0.07794600  0.23020600  0.92481900  1
  C  C24  1  0.40949200  0.58701000  0.58765500  1
  C  C25  1  0.90949200  0.41299000  0.91234500  1
  C  C26  1  0.59050800  0.41299000  0.41234500  1
  C  C27  1  0.09050800  0.58701000  0.08765500  1
  C  C28  1  0.33984200  0.56479700  0.97011900  1
  C  C29  1  0.83984200  0.43520300  0.52988100  1
  C  C30  1  0.66015800  0.43520300  0.02988100  1
  C  C31  1  0.16015800  0.56479700  0.47011900  1
  C  C32  1  0.31149700  0.25093100  0.79227100  1
  C  C33  1  0.81149700  0.74906900  0.70772900  1
  C  C34  1  0.68850300  0.74906900  0.20772900  1
  C  C35  1  0.18850300  0.25093100  0.29227100  1
  C  C36  1  0.51039200  0.54870000  0.81275700  1
  C  C37  1  0.01039200  0.45130000  0.68724300  1
  C  C38  1  0.48960800  0.45130000  0.18724300  1
  C  C39  1  0.98960800  0.54870000  0.31275700  1
  C  C40  1  0.44902900  0.98904900  0.69619500  1
  C  C41  1  0.94902900  0.01095100  0.80380500  1
  C  C42  1  0.55097100  0.01095100  0.30380500  1
  C  C43  1  0.05097100  0.98904900  0.19619500  1
  C  C44  1  0.41404200  0.09513400  0.01548600  1
  C  C45  1  0.91404200  0.90486600  0.48451400  1
  C  C46  1  0.58595800  0.90486600  0.98451400  1
  C  C47  1  0.08595800  0.09513400  0.51548600  1
  C  C48  1  0.25840800  0.15834700  0.54102900  1
  C  C49  1  0.75840800  0.84165300  0.95897100  1
  C  C50  1  0.74159200  0.84165300  0.45897100  1
  C  C51  1  0.24159200  0.15834700  0.04102900  1
