# generated using pymatgen
data_Cu2NiC13
_symmetry_space_group_name_H-M   'P 1'
_cell_length_a   6.44158600
_cell_length_b   10.43280600
_cell_length_c   10.43279458
_cell_angle_alpha   59.99998747
_cell_angle_beta   90.00005795
_cell_angle_gamma   89.99987733
_symmetry_Int_Tables_number   1
_chemical_formula_structural   Cu2NiC13
_chemical_formula_sum   'Cu6 Ni3 C39'
_cell_volume   607.19078827
_cell_formula_units_Z   3
loop_
 _symmetry_equiv_pos_site_id
 _symmetry_equiv_pos_as_xyz
  1  'x, y, z'
loop_
 _atom_site_type_symbol
 _atom_site_label
 _atom_site_symmetry_multiplicity
 _atom_site_fract_x
 _atom_site_fract_y
 _atom_site_fract_z
 _atom_site_occupancy
  Ni  Ni0  1  0.99999900  0.99999900  0.50336800  1
  Ni  Ni1  1  0.99999900  0.49663300  0.99999900  1
  Ni  Ni2  1  0.00000000  0.50336800  0.49663400  1
  C  C3  1  0.50000000  0.00000000  0.50288200  1
  C  C4  1  0.50000000  0.49711900  0.00000100  1
  C  C5  1  0.50000000  0.50288100  0.49711900  1
  Cu  Cu6  1  0.36271100  0.81685000  0.82781900  1
  Cu  Cu7  1  0.36271000  0.35532600  0.81685100  1
  Cu  Cu8  1  0.36271300  0.82782400  0.35532900  1
  Cu  Cu9  1  0.63728800  0.17218600  0.18314200  1
  Cu  Cu10  1  0.63729100  0.64467500  0.17218700  1
  Cu  Cu11  1  0.63728900  0.18313900  0.64467100  1
  C  C12  1  0.80474700  0.80865000  0.81248500  1
  C  C13  1  0.80474600  0.37886000  0.80864900  1
  C  C14  1  0.80474500  0.81249400  0.37886400  1
  C  C15  1  0.19525600  0.18751800  0.19134600  1
  C  C16  1  0.19525600  0.62114100  0.18752100  1
  C  C17  1  0.19525500  0.19133700  0.62113600  1
  C  C18  1  0.33526300  0.66667700  0.66666100  1
  C  C19  1  0.66473600  0.33332300  0.33333800  1
  C  C20  1  0.49999900  0.00000000  0.00000800  1
  C  C21  1  0.31346200  0.07119600  0.63813400  1
  C  C22  1  0.31346500  0.29066400  0.07120200  1
  C  C23  1  0.31346400  0.63813700  0.29066400  1
  C  C24  1  0.30372100  0.07719400  0.31291300  1
  C  C25  1  0.30372200  0.60989500  0.07719500  1
  C  C26  1  0.30372200  0.31290800  0.60989200  1
  C  C27  1  0.69627900  0.92281900  0.39010400  1
  C  C28  1  0.69627400  0.68708300  0.92281300  1
  C  C29  1  0.69627400  0.39010200  0.68707900  1
  C  C30  1  0.68654000  0.92879100  0.70933800  1
  C  C31  1  0.68654000  0.36186700  0.92878900  1
  C  C32  1  0.68653900  0.70934400  0.36187000  1
  C  C33  1  0.01562500  0.80510300  0.80122600  1
  C  C34  1  0.01562500  0.39366800  0.80510300  1
  C  C35  1  0.01562600  0.80122900  0.39367200  1
  C  C36  1  0.98437500  0.19878900  0.19488300  1
  C  C37  1  0.98437400  0.60633300  0.19878900  1
  C  C38  1  0.98437500  0.19487800  0.60633000  1
  C  C39  1  0.33711900  0.81917100  0.58957700  1
  C  C40  1  0.33711100  0.59124500  0.81918400  1
  C  C41  1  0.33711100  0.58956900  0.59124800  1
  C  C42  1  0.66288000  0.18083000  0.40874200  1
  C  C43  1  0.66288800  0.41043600  0.18081600  1
  C  C44  1  0.66288800  0.40875000  0.41043400  1
  C  C45  1  0.49999700  0.86819900  0.00000100  1
  C  C46  1  0.50000200  0.13180000  0.86819800  1
  C  C47  1  0.50000000  0.00000200  0.13179100  1
