# generated using pymatgen
data_Cu3Ni3C
_symmetry_space_group_name_H-M   'P 1'
_cell_length_a   6.02928100
_cell_length_b   7.93065800
_cell_length_c   10.43585900
_cell_angle_alpha   90.00000000
_cell_angle_beta   90.00000000
_cell_angle_gamma   90.00000000
_symmetry_Int_Tables_number   1
_chemical_formula_structural   Cu3Ni3C
_chemical_formula_sum   'Cu12 Ni12 C4'
_cell_volume   499.00276209
_cell_formula_units_Z   4
loop_
 _symmetry_equiv_pos_site_id
 _symmetry_equiv_pos_as_xyz
  1  'x, y, z'
loop_
 _atom_site_type_symbol
 _atom_site_label
 _atom_site_symmetry_multiplicity
 _atom_site_fract_x
 _atom_site_fract_y
 _atom_site_fract_z
 _atom_site_occupancy
  C  C0  1  0.50000000  0.50000000  0.50000000  1
  C  C1  1  0.00000000  0.00000000  0.00000000  1
  C  C2  1  0.00000000  0.50000000  0.50000000  1
  C  C3  1  0.50000000  0.00000000  0.00000000  1
  Ni  Ni4  1  0.00000000  0.26262900  0.98569900  1
  Ni  Ni5  1  0.00000000  0.73737100  0.01430100  1
  Ni  Ni6  1  0.50000000  0.76262900  0.51430100  1
  Ni  Ni7  1  0.50000000  0.23737100  0.48569900  1
  Ni  Ni8  1  0.50000000  0.13509100  0.82555700  1
  Ni  Ni9  1  0.50000000  0.86490900  0.17444300  1
  Ni  Ni10  1  0.00000000  0.63509100  0.67444300  1
  Ni  Ni11  1  0.00000000  0.36490900  0.32555700  1
  Ni  Ni12  1  0.00000000  0.07674900  0.65667500  1
  Ni  Ni13  1  0.00000000  0.92325100  0.34332500  1
  Ni  Ni14  1  0.50000000  0.57674900  0.84332500  1
  Ni  Ni15  1  0.50000000  0.42325100  0.15667500  1
  Cu  Cu16  1  0.00000000  0.23484300  0.67478600  1
  Cu  Cu17  1  0.00000000  0.76515700  0.32521400  1
  Cu  Cu18  1  0.50000000  0.73484300  0.82521400  1
  Cu  Cu19  1  0.50000000  0.26515700  0.17478600  1
  Cu  Cu20  1  0.18021800  0.99870000  0.64882000  1
  Cu  Cu21  1  0.18021800  0.00130000  0.35118000  1
  Cu  Cu22  1  0.31978200  0.49870000  0.85118000  1
  Cu  Cu23  1  0.31978200  0.50130000  0.14882000  1
  Cu  Cu24  1  0.81978200  0.00130000  0.35118000  1
  Cu  Cu25  1  0.81978200  0.99870000  0.64882000  1
  Cu  Cu26  1  0.68021800  0.50130000  0.14882000  1
  Cu  Cu27  1  0.68021800  0.49870000  0.85118000  1
