# generated using pymatgen
data_Cu6NiC
_symmetry_space_group_name_H-M   'P 1'
_cell_length_a   4.90009160
_cell_length_b   4.90009160
_cell_length_c   4.90009165
_cell_angle_alpha   96.31767169
_cell_angle_beta   96.31767169
_cell_angle_gamma   96.31766356
_symmetry_Int_Tables_number   1
_chemical_formula_structural   Cu6NiC
_chemical_formula_sum   'Cu6 Ni1 C1'
_cell_volume   115.33898368
_cell_formula_units_Z   1
loop_
 _symmetry_equiv_pos_site_id
 _symmetry_equiv_pos_as_xyz
  1  'x, y, z'
loop_
 _atom_site_type_symbol
 _atom_site_label
 _atom_site_symmetry_multiplicity
 _atom_site_fract_x
 _atom_site_fract_y
 _atom_site_fract_z
 _atom_site_occupancy
  C  C0  1  0.00000000  0.00000000  0.00000000  1
  Ni  Ni1  1  0.50000000  0.50000000  0.50000000  1
  Cu  Cu2  1  0.78557900  0.08413300  0.67205200  1
  Cu  Cu3  1  0.08413300  0.67205200  0.78557900  1
  Cu  Cu4  1  0.67205200  0.78557900  0.08413300  1
  Cu  Cu5  1  0.21442100  0.91586700  0.32794800  1
  Cu  Cu6  1  0.91586700  0.32794800  0.21442100  1
  Cu  Cu7  1  0.32794800  0.21442100  0.91586700  1
