# generated using pymatgen
data_Cu6NiC7
_symmetry_space_group_name_H-M   'P 1'
_cell_length_a   10.53102800
_cell_length_b   10.53102800
_cell_length_c   10.53102800
_cell_angle_alpha   90.00000000
_cell_angle_beta   90.00000000
_cell_angle_gamma   90.00000000
_symmetry_Int_Tables_number   1
_chemical_formula_structural   Cu6NiC7
_chemical_formula_sum   'Cu24 Ni4 C28'
_cell_volume   1167.91786708
_cell_formula_units_Z   4
loop_
 _symmetry_equiv_pos_site_id
 _symmetry_equiv_pos_as_xyz
  1  'x, y, z'
loop_
 _atom_site_type_symbol
 _atom_site_label
 _atom_site_symmetry_multiplicity
 _atom_site_fract_x
 _atom_site_fract_y
 _atom_site_fract_z
 _atom_site_occupancy
  C  C0  1  0.23338300  0.92657800  0.90250300  1
  C  C1  1  0.09749700  0.73338300  0.57342200  1
  C  C2  1  0.42657800  0.59749700  0.76661700  1
  C  C3  1  0.73338300  0.57342200  0.09749700  1
  C  C4  1  0.59749700  0.76661700  0.42657800  1
  C  C5  1  0.92657800  0.90250300  0.23338300  1
  C  C6  1  0.76661700  0.42657800  0.59749700  1
  C  C7  1  0.90250300  0.23338300  0.92657800  1
  C  C8  1  0.57342200  0.09749700  0.73338300  1
  C  C9  1  0.26661700  0.07342200  0.40250300  1
  C  C10  1  0.40250300  0.26661700  0.07342200  1
  C  C11  1  0.07342200  0.40250300  0.26661700  1
  C  C12  1  0.00774200  0.77273500  0.98409600  1
  C  C13  1  0.01590400  0.50774200  0.72726500  1
  C  C14  1  0.27273500  0.51590400  0.99225800  1
  C  C15  1  0.50774200  0.72726500  0.01590400  1
  C  C16  1  0.51590400  0.99225800  0.27273500  1
  C  C17  1  0.77273500  0.98409600  0.00774200  1
  C  C18  1  0.99225800  0.27273500  0.51590400  1
  C  C19  1  0.98409600  0.00774200  0.77273500  1
  C  C20  1  0.72726500  0.01590400  0.50774200  1
  C  C21  1  0.49225800  0.22726500  0.48409600  1
  C  C22  1  0.48409600  0.49225800  0.22726500  1
  C  C23  1  0.22726500  0.48409600  0.49225800  1
  C  C24  1  0.35195800  0.85195800  0.64804200  1
  C  C25  1  0.85195800  0.64804200  0.35195800  1
  C  C26  1  0.64804200  0.35195800  0.85195800  1
  C  C27  1  0.14804200  0.14804200  0.14804200  1
  Ni  Ni28  1  0.75138000  0.25138000  0.24862000  1
  Ni  Ni29  1  0.25138000  0.24862000  0.75138000  1
  Ni  Ni30  1  0.24862000  0.75138000  0.25138000  1
  Ni  Ni31  1  0.74862000  0.74862000  0.74862000  1
  Cu  Cu32  1  0.86535700  0.36535700  0.13464300  1
  Cu  Cu33  1  0.36535700  0.13464300  0.86535700  1
  Cu  Cu34  1  0.13464300  0.86535700  0.36535700  1
  Cu  Cu35  1  0.63464300  0.63464300  0.63464300  1
  Cu  Cu36  1  0.35458700  0.86834300  0.13309200  1
  Cu  Cu37  1  0.86690800  0.85458700  0.63165700  1
  Cu  Cu38  1  0.36834300  0.36690800  0.64541300  1
  Cu  Cu39  1  0.85458700  0.63165700  0.86690800  1
  Cu  Cu40  1  0.36690800  0.64541300  0.36834300  1
  Cu  Cu41  1  0.86834300  0.13309200  0.35458700  1
  Cu  Cu42  1  0.64541300  0.36834300  0.36690800  1
  Cu  Cu43  1  0.13309200  0.35458700  0.86834300  1
  Cu  Cu44  1  0.63165700  0.86690800  0.85458700  1
  Cu  Cu45  1  0.14541300  0.13165700  0.63309200  1
  Cu  Cu46  1  0.63309200  0.14541300  0.13165700  1
  Cu  Cu47  1  0.13165700  0.63309200  0.14541300  1
  Cu  Cu48  1  0.21923000  0.71923000  0.78077000  1
  Cu  Cu49  1  0.71923000  0.78077000  0.21923000  1
  Cu  Cu50  1  0.78077000  0.21923000  0.71923000  1
  Cu  Cu51  1  0.28077000  0.28077000  0.28077000  1
  Cu  Cu52  1  0.48534000  0.98534000  0.51466000  1
  Cu  Cu53  1  0.98534000  0.51466000  0.48534000  1
  Cu  Cu54  1  0.51466000  0.48534000  0.98534000  1
  Cu  Cu55  1  0.01466000  0.01466000  0.01466000  1
