# generated using pymatgen
data_Cu2NiC8
_symmetry_space_group_name_H-M   'P 1'
_cell_length_a   7.23464704
_cell_length_b   10.10195151
_cell_length_c   8.44000954
_cell_angle_alpha   93.25987919
_cell_angle_beta   114.04773707
_cell_angle_gamma   104.75924700
_symmetry_Int_Tables_number   1
_chemical_formula_structural   Cu2NiC8
_chemical_formula_sum   'Cu8 Ni4 C32'
_cell_volume   535.61448452
_cell_formula_units_Z   4
loop_
 _symmetry_equiv_pos_site_id
 _symmetry_equiv_pos_as_xyz
  1  'x, y, z'
loop_
 _atom_site_type_symbol
 _atom_site_label
 _atom_site_symmetry_multiplicity
 _atom_site_fract_x
 _atom_site_fract_y
 _atom_site_fract_z
 _atom_site_occupancy
  C  C0  1  0.78329600  0.28600200  0.59648200  1
  C  C1  1  0.21685600  0.71404000  0.40357800  1
  C  C2  1  0.78419200  0.78607700  0.09674100  1
  C  C3  1  0.21583400  0.21391700  0.90328800  1
  Ni  Ni4  1  0.11193400  0.62688500  0.79901800  1
  Ni  Ni5  1  0.11190700  0.12696300  0.29914500  1
  Ni  Ni6  1  0.88799900  0.87301000  0.70085600  1
  Ni  Ni7  1  0.88813000  0.37315900  0.20098100  1
  Cu  Cu8  1  0.76292400  0.58114100  0.40715300  1
  Cu  Cu9  1  0.76268500  0.08109900  0.90720600  1
  Cu  Cu10  1  0.23726000  0.91890900  0.09277500  1
  Cu  Cu11  1  0.23714800  0.41886400  0.59284500  1
  Cu  Cu12  1  0.69007400  0.98085200  0.35264400  1
  Cu  Cu13  1  0.69010000  0.48092100  0.85270000  1
  Cu  Cu14  1  0.30995300  0.51909600  0.14729600  1
  Cu  Cu15  1  0.30983500  0.01911300  0.64735000  1
  C  C16  1  0.47814300  0.91581000  0.16480800  1
  C  C17  1  0.47798700  0.41572100  0.66500800  1
  C  C18  1  0.52206300  0.58427100  0.33496700  1
  C  C19  1  0.52180300  0.08418700  0.83517900  1
  C  C20  1  0.76807400  0.42922400  0.39817200  1
  C  C21  1  0.76799400  0.92920500  0.89819400  1
  C  C22  1  0.23195900  0.07080000  0.10176900  1
  C  C23  1  0.23199900  0.57078200  0.60182600  1
  C  C24  1  0.34591900  0.61079600  0.01661600  1
  C  C25  1  0.34600300  0.11092200  0.51680700  1
  C  C26  1  0.65386000  0.88901800  0.48316300  1
  C  C27  1  0.65413000  0.38921300  0.98336900  1
  C  C28  1  0.13762200  0.54433800  0.19902400  1
  C  C29  1  0.13731300  0.04427200  0.69889600  1
  C  C30  1  0.86260900  0.95569100  0.30111400  1
  C  C31  1  0.86245100  0.45569800  0.80098900  1
  C  C32  1  0.13257600  0.83467400  0.90289300  1
  C  C33  1  0.13260000  0.33468900  0.40294900  1
  C  C34  1  0.86741700  0.66531300  0.59704900  1
  C  C35  1  0.86737000  0.16531200  0.09710200  1
  C  C36  1  0.13988500  0.84589400  0.20709300  1
  C  C37  1  0.13945900  0.34585000  0.70695400  1
  C  C38  1  0.86062500  0.65416400  0.29305800  1
  C  C39  1  0.86008400  0.15413300  0.79291500  1
  C  C40  1  0.28420100  0.36695700  0.10408700  1
  C  C41  1  0.28419900  0.86700200  0.60407300  1
  C  C42  1  0.71574800  0.13296200  0.39597100  1
  C  C43  1  0.71577700  0.63305100  0.89589100  1
