# generated using pymatgen
data_Cu2Ni2C7
_symmetry_space_group_name_H-M   'P 1'
_cell_length_a   6.44813734
_cell_length_b   6.82573937
_cell_length_c   6.88011008
_cell_angle_alpha   81.18773571
_cell_angle_beta   66.77046553
_cell_angle_gamma   71.84876920
_symmetry_Int_Tables_number   1
_chemical_formula_structural   Cu2Ni2C7
_chemical_formula_sum   'Cu2 Ni2 C7'
_cell_volume   264.26091141
_cell_formula_units_Z   1
loop_
 _symmetry_equiv_pos_site_id
 _symmetry_equiv_pos_as_xyz
  1  'x, y, z'
loop_
 _atom_site_type_symbol
 _atom_site_label
 _atom_site_symmetry_multiplicity
 _atom_site_fract_x
 _atom_site_fract_y
 _atom_site_fract_z
 _atom_site_occupancy
  Ni  Ni0  1  0.41891200  0.81143900  0.32640400  1
  Ni  Ni1  1  0.58108800  0.18856100  0.67359600  1
  Cu  Cu2  1  0.86319700  0.59306800  0.78977200  1
  Cu  Cu3  1  0.13680300  0.40693200  0.21022800  1
  C  C4  1  0.00000000  0.00000000  0.00000000  1
  C  C5  1  0.90100000  0.80351600  0.37807600  1
  C  C6  1  0.09900000  0.19648400  0.62192400  1
  C  C7  1  0.32326300  0.65877300  0.81681200  1
  C  C8  1  0.67673700  0.34122700  0.18318800  1
  C  C9  1  0.76371600  0.91599000  0.95595900  1
  C  C10  1  0.23628400  0.08401000  0.04404100  1
