# generated using pymatgen
data_Cu14Ni2C13
_symmetry_space_group_name_H-M   'P 1'
_cell_length_a   5.96283600
_cell_length_b   9.30187104
_cell_length_c   9.85350162
_cell_angle_alpha   94.92831064
_cell_angle_beta   90.00000000
_cell_angle_gamma   90.00000000
_symmetry_Int_Tables_number   1
_chemical_formula_structural   Cu14Ni2C13
_chemical_formula_sum   'Cu28 Ni4 C26'
_cell_volume   544.50916760
_cell_formula_units_Z   2
loop_
 _symmetry_equiv_pos_site_id
 _symmetry_equiv_pos_as_xyz
  1  'x, y, z'
loop_
 _atom_site_type_symbol
 _atom_site_label
 _atom_site_symmetry_multiplicity
 _atom_site_fract_x
 _atom_site_fract_y
 _atom_site_fract_z
 _atom_site_occupancy
  C  C0  1  0.00000000  0.00000000  0.00000000  1
  C  C1  1  0.50000000  0.50000000  0.50000000  1
  Ni  Ni2  1  0.35521200  0.57012100  0.02919600  1
  Ni  Ni3  1  0.14478800  0.07012100  0.52919600  1
  Ni  Ni4  1  0.64478800  0.42987900  0.97080400  1
  Ni  Ni5  1  0.85521200  0.92987900  0.47080400  1
  Cu  Cu6  1  0.05523900  0.45026300  0.10550900  1
  Cu  Cu7  1  0.44476100  0.95026300  0.60550900  1
  Cu  Cu8  1  0.94476100  0.54973700  0.89449100  1
  Cu  Cu9  1  0.55523900  0.04973700  0.39449100  1
  Cu  Cu10  1  0.80707500  0.11078000  0.22776800  1
  Cu  Cu11  1  0.69292500  0.61078000  0.72776800  1
  Cu  Cu12  1  0.19292500  0.88922000  0.77223200  1
  Cu  Cu13  1  0.30707500  0.38922000  0.27223200  1
  Cu  Cu14  1  0.83740900  0.24108400  0.13076300  1
  Cu  Cu15  1  0.66259100  0.74108400  0.63076300  1
  Cu  Cu16  1  0.16259100  0.75891600  0.86923700  1
  Cu  Cu17  1  0.33740900  0.25891600  0.36923700  1
  Cu  Cu18  1  0.35101400  0.88694200  0.11082400  1
  Cu  Cu19  1  0.14898600  0.38694200  0.61082400  1
  Cu  Cu20  1  0.64898600  0.11305800  0.88917600  1
  Cu  Cu21  1  0.85101400  0.61305800  0.38917600  1
  Cu  Cu22  1  0.27341400  0.02153500  0.20984700  1
  Cu  Cu23  1  0.22658600  0.52153500  0.70984700  1
  Cu  Cu24  1  0.72658600  0.97846500  0.79015300  1
  Cu  Cu25  1  0.77341400  0.47846500  0.29015300  1
  Cu  Cu26  1  0.72350900  0.78955100  0.08547500  1
  Cu  Cu27  1  0.77649100  0.28955100  0.58547500  1
  Cu  Cu28  1  0.27649100  0.21044900  0.91452500  1
  Cu  Cu29  1  0.22350900  0.71044900  0.41452500  1
  Cu  Cu30  1  0.91044100  0.81748100  0.19610300  1
  Cu  Cu31  1  0.58955900  0.31748100  0.69610300  1
  Cu  Cu32  1  0.08955900  0.18251900  0.80389700  1
  Cu  Cu33  1  0.41044100  0.68251900  0.30389700  1
  C  C34  1  0.44551100  0.70471800  0.10977700  1
  C  C35  1  0.05448900  0.20471800  0.60977700  1
  C  C36  1  0.55448900  0.29528200  0.89022300  1
  C  C37  1  0.94551100  0.79528200  0.39022300  1
  C  C38  1  0.21019500  0.58896900  0.90314900  1
  C  C39  1  0.28980500  0.08896900  0.40314900  1
  C  C40  1  0.78980500  0.41103100  0.09685100  1
  C  C41  1  0.71019500  0.91103100  0.59685100  1
  C  C42  1  0.21596800  0.47697100  0.12995100  1
  C  C43  1  0.28403200  0.97697100  0.62995100  1
  C  C44  1  0.78403200  0.52302900  0.87004900  1
  C  C45  1  0.71596800  0.02302900  0.37004900  1
  C  C46  1  0.89590100  0.14590800  0.15330900  1
  C  C47  1  0.60409900  0.64590800  0.65330900  1
  C  C48  1  0.10409900  0.85409200  0.84669100  1
  C  C49  1  0.39590100  0.35409200  0.34669100  1
  C  C50  1  0.29412000  0.98726900  0.11324400  1
  C  C51  1  0.20588000  0.48726900  0.61324400  1
  C  C52  1  0.70588000  0.01273100  0.88675600  1
  C  C53  1  0.79412000  0.51273100  0.38675600  1
  C  C54  1  0.88074700  0.82057600  0.09784700  1
  C  C55  1  0.61925300  0.32057600  0.59784700  1
  C  C56  1  0.11925300  0.17942400  0.90215300  1
  C  C57  1  0.38074700  0.67942400  0.40215300  1
