# generated using pymatgen
data_Cu2NiC11
_symmetry_space_group_name_H-M   'P 1'
_cell_length_a   6.45328747
_cell_length_b   6.45328747
_cell_length_c   8.67163349
_cell_angle_alpha   71.17166524
_cell_angle_beta   71.17166524
_cell_angle_gamma   60.76503820
_symmetry_Int_Tables_number   1
_chemical_formula_structural   Cu2NiC11
_chemical_formula_sum   'Cu2 Ni1 C11'
_cell_volume   292.24677225
_cell_formula_units_Z   1
loop_
 _symmetry_equiv_pos_site_id
 _symmetry_equiv_pos_as_xyz
  1  'x, y, z'
loop_
 _atom_site_type_symbol
 _atom_site_label
 _atom_site_symmetry_multiplicity
 _atom_site_fract_x
 _atom_site_fract_y
 _atom_site_fract_z
 _atom_site_occupancy
  C  C0  1  0.99920600  0.99920600  0.00450300  1
  C  C1  1  0.80260700  0.80260700  0.60762600  1
  C  C2  1  0.19825900  0.19825900  0.38863400  1
  Ni  Ni3  1  0.48050800  0.48050800  0.99749800  1
  Cu  Cu4  1  0.57269400  0.57269400  0.23167000  1
  Cu  Cu5  1  0.42894800  0.42894800  0.76197100  1
  C  C6  1  0.60292000  0.60292000  0.02262600  1
  C  C7  1  0.39002800  0.39002800  0.97955800  1
  C  C8  1  0.72672000  0.30242800  0.69275800  1
  C  C9  1  0.30242800  0.72672000  0.69275800  1
  C  C10  1  0.27457800  0.69743100  0.31064700  1
  C  C11  1  0.69743100  0.27457800  0.31064700  1
  C  C12  1  0.71180100  0.71180100  0.26192000  1
  C  C13  1  0.28687200  0.28687200  0.74218400  1
