# generated using pymatgen
data_Cu6NiC54
_symmetry_space_group_name_H-M   'P 1'
_cell_length_a   11.77312963
_cell_length_b   11.77312963
_cell_length_c   12.17457274
_cell_angle_alpha   90.00000000
_cell_angle_beta   90.00000000
_cell_angle_gamma   119.99999768
_symmetry_Int_Tables_number   1
_chemical_formula_structural   Cu6NiC54
_chemical_formula_sum   'Cu12 Ni2 C108'
_cell_volume   1461.39703641
_cell_formula_units_Z   2
loop_
 _symmetry_equiv_pos_site_id
 _symmetry_equiv_pos_as_xyz
  1  'x, y, z'
loop_
 _atom_site_type_symbol
 _atom_site_label
 _atom_site_symmetry_multiplicity
 _atom_site_fract_x
 _atom_site_fract_y
 _atom_site_fract_z
 _atom_site_occupancy
  C  C0  1  0.71789530  0.84728489  0.75000000  1
  C  C1  1  0.28210470  0.15271511  0.25000000  1
  C  C2  1  0.12938959  0.28210470  0.75000000  1
  C  C3  1  0.87061041  0.71789530  0.25000000  1
  C  C4  1  0.15271511  0.87061041  0.75000000  1
  C  C5  1  0.84728489  0.12938959  0.25000000  1
  C  C6  1  0.42942521  0.55881464  0.75000000  1
  C  C7  1  0.57057479  0.44118536  0.25000000  1
  C  C8  1  0.12938943  0.57057479  0.75000000  1
  C  C9  1  0.87061057  0.42942521  0.25000000  1
  C  C10  1  0.44118536  0.87061057  0.75000000  1
  C  C11  1  0.55881464  0.12938943  0.25000000  1
  Ni  Ni12  1  -0.00000000  0.00000000  0.00000000  1
  Ni  Ni13  1  -0.00000000  0.00000000  0.50000000  1
  Cu  Cu14  1  0.49753272  0.74740478  0.99314654  1
  Cu  Cu15  1  0.50246728  0.25259522  0.00685346  1
  Cu  Cu16  1  0.24987206  0.50246728  0.99314654  1
  Cu  Cu17  1  0.50246728  0.25259522  0.49314654  1
  Cu  Cu18  1  0.75012794  0.49753272  0.00685346  1
  Cu  Cu19  1  0.49753272  0.74740478  0.50685346  1
  Cu  Cu20  1  0.25259522  0.75012794  0.99314654  1
  Cu  Cu21  1  0.75012794  0.49753272  0.49314654  1
  Cu  Cu22  1  0.74740478  0.24987206  0.00685346  1
  Cu  Cu23  1  0.24987206  0.50246728  0.50685346  1
  Cu  Cu24  1  0.74740478  0.24987206  0.49314654  1
  Cu  Cu25  1  0.25259522  0.75012794  0.50685346  1
  C  C26  1  0.92967554  0.15112973  0.92759169  1
  C  C27  1  0.07032446  0.84887027  0.07240831  1
  C  C28  1  0.22145419  0.07032446  0.92759169  1
  C  C29  1  0.07032446  0.84887027  0.42759169  1
  C  C30  1  0.77854581  0.92967554  0.07240831  1
  C  C31  1  0.92967554  0.15112973  0.57240831  1
  C  C32  1  0.84887027  0.77854581  0.92759169  1
  C  C33  1  0.77854581  0.92967554  0.42759169  1
  C  C34  1  0.15112973  0.22145419  0.07240831  1
  C  C35  1  0.22145419  0.07032446  0.57240831  1
  C  C36  1  0.15112973  0.22145419  0.42759169  1
  C  C37  1  0.84887027  0.77854581  0.57240831  1
  C  C38  1  0.71204261  0.08355109  0.81455460  1
  C  C39  1  0.28795739  0.91644891  0.18544540  1
  C  C40  1  0.37150847  0.28795739  0.81455460  1
  C  C41  1  0.28795739  0.91644891  0.31455460  1
  C  C42  1  0.62849153  0.71204261  0.18544540  1
  C  C43  1  0.71204261  0.08355109  0.68544540  1
  C  C44  1  0.91644891  0.62849153  0.81455460  1
  C  C45  1  0.62849153  0.71204261  0.31455460  1
  C  C46  1  0.08355109  0.37150847  0.18544540  1
  C  C47  1  0.37150847  0.28795739  0.68544540  1
  C  C48  1  0.08355109  0.37150847  0.31455460  1
  C  C49  1  0.91644891  0.62849153  0.68544540  1
  C  C50  1  0.90524969  0.30438778  0.81434808  1
  C  C51  1  0.09475031  0.69561222  0.18565192  1
  C  C52  1  0.39913809  0.09475031  0.81434808  1
  C  C53  1  0.09475031  0.69561222  0.31434808  1
  C  C54  1  0.60086191  0.90524969  0.18565192  1
  C  C55  1  0.90524969  0.30438778  0.68565192  1
  C  C56  1  0.69561222  0.60086191  0.81434808  1
  C  C57  1  0.60086191  0.90524969  0.31434808  1
  C  C58  1  0.30438778  0.39913809  0.18565192  1
  C  C59  1  0.39913809  0.09475031  0.68565192  1
  C  C60  1  0.30438778  0.39913809  0.31434808  1
  C  C61  1  0.69561222  0.60086191  0.68565192  1
  C  C62  1  0.80438840  0.19352325  0.92766937  1
  C  C63  1  0.19561160  0.80647675  0.07233063  1
  C  C64  1  0.38913486  0.19561160  0.92766937  1
  C  C65  1  0.19561160  0.80647675  0.42766937  1
  C  C66  1  0.61086514  0.80438840  0.07233063  1
  C  C67  1  0.80438840  0.19352325  0.57233063  1
  C  C68  1  0.80647675  0.61086514  0.92766937  1
  C  C69  1  0.61086514  0.80438840  0.42766937  1
  C  C70  1  0.19352325  0.38913486  0.07233063  1
  C  C71  1  0.38913486  0.19561160  0.57233063  1
  C  C72  1  0.19352325  0.38913486  0.42766937  1
  C  C73  1  0.80647675  0.61086514  0.57233063  1
  C  C74  1  0.67523553  0.02562019  0.75000000  1
  C  C75  1  0.32476447  0.97437981  0.25000000  1
  C  C76  1  0.35038466  0.32476447  0.75000000  1
  C  C77  1  0.64961534  0.67523553  0.25000000  1
  C  C78  1  0.97437981  0.64961534  0.75000000  1
  C  C79  1  0.02562019  0.35038466  0.25000000  1
  C  C80  1  0.80977310  0.40388764  0.97240516  1
  C  C81  1  0.19022690  0.59611236  0.02759484  1
  C  C82  1  0.59411455  0.19022690  0.97240516  1
  C  C83  1  0.19022690  0.59611236  0.47240516  1
  C  C84  1  0.40588545  0.80977310  0.02759484  1
  C  C85  1  0.80977310  0.40388764  0.52759484  1
  C  C86  1  0.59611236  0.40588545  0.97240516  1
  C  C87  1  0.40588545  0.80977310  0.47240516  1
  C  C88  1  0.40388764  0.59411455  0.02759484  1
  C  C89  1  0.59411455  0.19022690  0.52759484  1
  C  C90  1  0.40388764  0.59411455  0.47240516  1
  C  C91  1  0.59611236  0.40588545  0.52759484  1
  C  C92  1  0.00225178  0.13541603  0.90564940  1
  C  C93  1  0.99774822  0.86458397  0.09435060  1
  C  C94  1  0.13316425  0.99774822  0.90564940  1
  C  C95  1  0.99774822  0.86458397  0.40564940  1
  C  C96  1  0.86683575  0.00225178  0.09435060  1
  C  C97  1  0.00225178  0.13541603  0.59435060  1
  C  C98  1  0.86458397  0.86683575  0.90564940  1
  C  C99  1  0.86683575  0.00225178  0.40564940  1
  C  C100  1  0.13541603  0.13316425  0.09435060  1
  C  C101  1  0.13316425  0.99774822  0.59435060  1
  C  C102  1  0.13541603  0.13316425  0.40564940  1
  C  C103  1  0.86458397  0.86683575  0.59435060  1
  C  C104  1  0.96225915  0.34535751  0.75000000  1
  C  C105  1  0.03774085  0.65464249  0.25000000  1
  C  C106  1  0.38309836  0.03774085  0.75000000  1
  C  C107  1  0.61690164  0.96225915  0.25000000  1
  C  C108  1  0.65464249  0.61690164  0.75000000  1
  C  C109  1  0.34535751  0.38309836  0.25000000  1
  C  C110  1  0.52034916  0.75798138  0.87179834  1
  C  C111  1  0.47965084  0.24201862  0.12820166  1
  C  C112  1  0.23763222  0.47965084  0.87179834  1
  C  C113  1  0.47965084  0.24201862  0.37179834  1
  C  C114  1  0.76236778  0.52034916  0.12820166  1
  C  C115  1  0.52034916  0.75798138  0.62820166  1
  C  C116  1  0.24201862  0.76236778  0.87179834  1
  C  C117  1  0.76236778  0.52034916  0.37179834  1
  C  C118  1  0.75798138  0.23763222  0.12820166  1
  C  C119  1  0.23763222  0.47965084  0.62820166  1
  C  C120  1  0.75798138  0.23763222  0.37179834  1
  C  C121  1  0.24201862  0.76236778  0.62820166  1
