# generated using pymatgen
data_Cu(NiC3)3
_symmetry_space_group_name_H-M   'P 1'
_cell_length_a   6.13783968
_cell_length_b   6.13783968
_cell_length_c   10.14774600
_cell_angle_alpha   90.00000000
_cell_angle_beta   90.00000000
_cell_angle_gamma   119.99999660
_symmetry_Int_Tables_number   1
_chemical_formula_structural   Cu(NiC3)3
_chemical_formula_sum   'Cu2 Ni6 C18'
_cell_volume   331.07875731
_cell_formula_units_Z   2
loop_
 _symmetry_equiv_pos_site_id
 _symmetry_equiv_pos_as_xyz
  1  'x, y, z'
loop_
 _atom_site_type_symbol
 _atom_site_label
 _atom_site_symmetry_multiplicity
 _atom_site_fract_x
 _atom_site_fract_y
 _atom_site_fract_z
 _atom_site_occupancy
  C  C0  1  0.66666700  0.33333300  0.55310700  1
  C  C1  1  0.33333300  0.66666700  0.05310700  1
  C  C2  1  0.66666700  0.33333300  0.93749000  1
  C  C3  1  0.33333300  0.66666700  0.43749000  1
  Ni  Ni4  1  0.16541400  0.33082900  0.73792700  1
  Ni  Ni5  1  0.16541400  0.83458600  0.73792700  1
  Ni  Ni6  1  0.83458600  0.66917100  0.23792700  1
  Ni  Ni7  1  0.66917100  0.83458600  0.73792700  1
  Ni  Ni8  1  0.83458600  0.16541400  0.23792700  1
  Ni  Ni9  1  0.33082900  0.16541400  0.23792700  1
  Cu  Cu10  1  0.00000000  0.00000000  0.00071300  1
  Cu  Cu11  1  0.00000000  0.00000000  0.50071300  1
  C  C12  1  0.00000000  0.00000000  0.81918000  1
  C  C13  1  0.00000000  0.00000000  0.31918000  1
  C  C14  1  0.15424200  0.30848400  0.55668100  1
  C  C15  1  0.15424200  0.84575800  0.55668100  1
  C  C16  1  0.84575800  0.69151600  0.05668100  1
  C  C17  1  0.69151600  0.84575800  0.55668100  1
  C  C18  1  0.84575800  0.15424200  0.05668100  1
  C  C19  1  0.30848400  0.15424200  0.05668100  1
  C  C20  1  0.48949600  0.97899200  0.79303800  1
  C  C21  1  0.48949600  0.51050400  0.79303800  1
  C  C22  1  0.51050400  0.02100800  0.29303800  1
  C  C23  1  0.02100800  0.51050400  0.79303800  1
  C  C24  1  0.51050400  0.48949600  0.29303800  1
  C  C25  1  0.97899200  0.48949600  0.29303800  1
