# generated using pymatgen
data_Cu7NiC10
_symmetry_space_group_name_H-M   'P 1'
_cell_length_a   6.70042093
_cell_length_b   6.91190700
_cell_length_c   9.70545867
_cell_angle_alpha   90.00000000
_cell_angle_beta   103.79377342
_cell_angle_gamma   90.00000000
_symmetry_Int_Tables_number   1
_chemical_formula_structural   Cu7NiC10
_chemical_formula_sum   'Cu14 Ni2 C20'
_cell_volume   436.52277900
_cell_formula_units_Z   2
loop_
 _symmetry_equiv_pos_site_id
 _symmetry_equiv_pos_as_xyz
  1  'x, y, z'
loop_
 _atom_site_type_symbol
 _atom_site_label
 _atom_site_symmetry_multiplicity
 _atom_site_fract_x
 _atom_site_fract_y
 _atom_site_fract_z
 _atom_site_occupancy
  Ni  Ni0  1  0.96254600  0.92481900  0.67773000  1
  Ni  Ni1  1  0.96254600  0.07518100  0.17773000  1
  Cu  Cu2  1  0.54676900  0.98297900  0.82559300  1
  Cu  Cu3  1  0.54676900  0.01702100  0.32559300  1
  Cu  Cu4  1  0.35274400  0.01848000  0.02307700  1
  Cu  Cu5  1  0.35274400  0.98152000  0.52307700  1
  Cu  Cu6  1  0.11032500  0.40044200  0.07385100  1
  Cu  Cu7  1  0.11032500  0.59955800  0.57385100  1
  Cu  Cu8  1  0.65964600  0.36578800  0.99134800  1
  Cu  Cu9  1  0.65964600  0.63421200  0.49134800  1
  Cu  Cu10  1  0.84703900  0.61645300  0.80694700  1
  Cu  Cu11  1  0.84703900  0.38354700  0.30694700  1
  Cu  Cu12  1  0.29969000  0.62159800  0.88240900  1
  Cu  Cu13  1  0.29969000  0.37840200  0.38240900  1
  Cu  Cu14  1  0.48360000  0.36884900  0.68656400  1
  Cu  Cu15  1  0.48360000  0.63115100  0.18656400  1
  C  C16  1  0.75753700  0.85240500  0.80534500  1
  C  C17  1  0.75753700  0.14759500  0.30534500  1
  C  C18  1  0.56041500  0.13639600  0.97331700  1
  C  C19  1  0.56041500  0.86360400  0.47331700  1
  C  C20  1  0.32781900  0.86875400  0.87065300  1
  C  C21  1  0.32781900  0.13124600  0.37065300  1
  C  C22  1  0.14929400  0.15453200  0.04745600  1
  C  C23  1  0.14929400  0.84546800  0.54745600  1
  C  C24  1  0.28807400  0.50856100  0.72248300  1
  C  C25  1  0.28807400  0.49143900  0.22248300  1
  C  C26  1  0.45008300  0.12180100  0.67384800  1
  C  C27  1  0.45008300  0.87819900  0.17384800  1
  C  C28  1  0.88003800  0.39296400  0.12906000  1
  C  C29  1  0.88003800  0.60703600  0.62906000  1
  C  C30  1  0.07559000  0.56892600  0.93394600  1
  C  C31  1  0.07559000  0.43107400  0.43394600  1
  C  C32  1  0.69668500  0.41970700  0.82384800  1
  C  C33  1  0.69668500  0.58029300  0.32384800  1
  C  C34  1  0.49440700  0.54043100  0.02182500  1
  C  C35  1  0.49440700  0.45956900  0.52182500  1
