# generated using pymatgen
data_Cu6Ni6C
_symmetry_space_group_name_H-M   'P 1'
_cell_length_a   9.63968100
_cell_length_b   9.63968100
_cell_length_c   9.63968100
_cell_angle_alpha   90.00000000
_cell_angle_beta   90.00000000
_cell_angle_gamma   90.00000000
_symmetry_Int_Tables_number   1
_chemical_formula_structural   Cu6Ni6C
_chemical_formula_sum   'Cu48 Ni48 C8'
_cell_volume   895.75241332
_cell_formula_units_Z   8
loop_
 _symmetry_equiv_pos_site_id
 _symmetry_equiv_pos_as_xyz
  1  'x, y, z'
loop_
 _atom_site_type_symbol
 _atom_site_label
 _atom_site_symmetry_multiplicity
 _atom_site_fract_x
 _atom_site_fract_y
 _atom_site_fract_z
 _atom_site_occupancy
  C  C0  1  0.85901500  0.14098500  0.64098500  1
  C  C1  1  0.14098500  0.64098500  0.85901500  1
  C  C2  1  0.64098500  0.85901500  0.14098500  1
  C  C3  1  0.35901500  0.35901500  0.35901500  1
  C  C4  1  0.14098500  0.85901500  0.35901500  1
  C  C5  1  0.85901500  0.35901500  0.14098500  1
  C  C6  1  0.35901500  0.14098500  0.85901500  1
  C  C7  1  0.64098500  0.64098500  0.64098500  1
  Ni  Ni8  1  0.37895000  0.40973900  0.91164600  1
  Ni  Ni9  1  0.62105000  0.90973900  0.58835400  1
  Ni  Ni10  1  0.12105000  0.59026100  0.41164600  1
  Ni  Ni11  1  0.87895000  0.09026100  0.08835400  1
  Ni  Ni12  1  0.91164600  0.37895000  0.40973900  1
  Ni  Ni13  1  0.58835400  0.62105000  0.90973900  1
  Ni  Ni14  1  0.41164600  0.12105000  0.59026100  1
  Ni  Ni15  1  0.08835400  0.87895000  0.09026100  1
  Ni  Ni16  1  0.40973900  0.91164600  0.37895000  1
  Ni  Ni17  1  0.90973900  0.58835400  0.62105000  1
  Ni  Ni18  1  0.59026100  0.41164600  0.12105000  1
  Ni  Ni19  1  0.09026100  0.08835400  0.87895000  1
  Ni  Ni20  1  0.62105000  0.59026100  0.08835400  1
  Ni  Ni21  1  0.37895000  0.09026100  0.41164600  1
  Ni  Ni22  1  0.87895000  0.40973900  0.58835400  1
  Ni  Ni23  1  0.12105000  0.90973900  0.91164600  1
  Ni  Ni24  1  0.08835400  0.62105000  0.59026100  1
  Ni  Ni25  1  0.41164600  0.37895000  0.09026100  1
  Ni  Ni26  1  0.58835400  0.87895000  0.40973900  1
  Ni  Ni27  1  0.91164600  0.12105000  0.90973900  1
  Ni  Ni28  1  0.59026100  0.08835400  0.62105000  1
  Ni  Ni29  1  0.09026100  0.41164600  0.37895000  1
  Ni  Ni30  1  0.40973900  0.58835400  0.87895000  1
  Ni  Ni31  1  0.90973900  0.91164600  0.12105000  1
  Ni  Ni32  1  0.66751600  0.46361500  0.96252200  1
  Ni  Ni33  1  0.33248400  0.96361500  0.53747800  1
  Ni  Ni34  1  0.83248400  0.53638500  0.46252200  1
  Ni  Ni35  1  0.16751600  0.03638500  0.03747800  1
  Ni  Ni36  1  0.96252200  0.66751600  0.46361500  1
  Ni  Ni37  1  0.53747800  0.33248400  0.96361500  1
  Ni  Ni38  1  0.46252200  0.83248400  0.53638500  1
  Ni  Ni39  1  0.03747800  0.16751600  0.03638500  1
  Ni  Ni40  1  0.46361500  0.96252200  0.66751600  1
  Ni  Ni41  1  0.96361500  0.53747800  0.33248400  1
  Ni  Ni42  1  0.53638500  0.46252200  0.83248400  1
  Ni  Ni43  1  0.03638500  0.03747800  0.16751600  1
  Ni  Ni44  1  0.33248400  0.53638500  0.03747800  1
  Ni  Ni45  1  0.66751600  0.03638500  0.46252200  1
  Ni  Ni46  1  0.16751600  0.46361500  0.53747800  1
  Ni  Ni47  1  0.83248400  0.96361500  0.96252200  1
  Ni  Ni48  1  0.03747800  0.33248400  0.53638500  1
  Ni  Ni49  1  0.46252200  0.66751600  0.03638500  1
  Ni  Ni50  1  0.53747800  0.16751600  0.46361500  1
  Ni  Ni51  1  0.96252200  0.83248400  0.96361500  1
  Ni  Ni52  1  0.53638500  0.03747800  0.33248400  1
  Ni  Ni53  1  0.03638500  0.46252200  0.66751600  1
  Ni  Ni54  1  0.46361500  0.53747800  0.16751600  1
  Ni  Ni55  1  0.96361500  0.96252200  0.83248400  1
  Cu  Cu56  1  0.29216200  0.34683600  0.84750900  1
  Cu  Cu57  1  0.70783800  0.84683600  0.65249100  1
  Cu  Cu58  1  0.20783800  0.65316400  0.34750900  1
  Cu  Cu59  1  0.79216200  0.15316400  0.15249100  1
  Cu  Cu60  1  0.84750900  0.29216200  0.34683600  1
  Cu  Cu61  1  0.65249100  0.70783800  0.84683600  1
  Cu  Cu62  1  0.34750900  0.20783800  0.65316400  1
  Cu  Cu63  1  0.15249100  0.79216200  0.15316400  1
  Cu  Cu64  1  0.34683600  0.84750900  0.29216200  1
  Cu  Cu65  1  0.84683600  0.65249100  0.70783800  1
  Cu  Cu66  1  0.65316400  0.34750900  0.20783800  1
  Cu  Cu67  1  0.15316400  0.15249100  0.79216200  1
  Cu  Cu68  1  0.70783800  0.65316400  0.15249100  1
  Cu  Cu69  1  0.29216200  0.15316400  0.34750900  1
  Cu  Cu70  1  0.79216200  0.34683600  0.65249100  1
  Cu  Cu71  1  0.20783800  0.84683600  0.84750900  1
  Cu  Cu72  1  0.15249100  0.70783800  0.65316400  1
  Cu  Cu73  1  0.34750900  0.29216200  0.15316400  1
  Cu  Cu74  1  0.65249100  0.79216200  0.34683600  1
  Cu  Cu75  1  0.84750900  0.20783800  0.84683600  1
  Cu  Cu76  1  0.65316400  0.15249100  0.70783800  1
  Cu  Cu77  1  0.15316400  0.34750900  0.29216200  1
  Cu  Cu78  1  0.34683600  0.65249100  0.79216200  1
  Cu  Cu79  1  0.84683600  0.84750900  0.20783800  1
  Cu  Cu80  1  0.78723300  0.43925700  0.93508600  1
  Cu  Cu81  1  0.21276700  0.93925700  0.56491400  1
  Cu  Cu82  1  0.71276700  0.56074300  0.43508600  1
  Cu  Cu83  1  0.28723300  0.06074300  0.06491400  1
  Cu  Cu84  1  0.93508600  0.78723300  0.43925700  1
  Cu  Cu85  1  0.56491400  0.21276700  0.93925700  1
  Cu  Cu86  1  0.43508600  0.71276700  0.56074300  1
  Cu  Cu87  1  0.06491400  0.28723300  0.06074300  1
  Cu  Cu88  1  0.43925700  0.93508600  0.78723300  1
  Cu  Cu89  1  0.93925700  0.56491400  0.21276700  1
  Cu  Cu90  1  0.56074300  0.43508600  0.71276700  1
  Cu  Cu91  1  0.06074300  0.06491400  0.28723300  1
  Cu  Cu92  1  0.21276700  0.56074300  0.06491400  1
  Cu  Cu93  1  0.78723300  0.06074300  0.43508600  1
  Cu  Cu94  1  0.28723300  0.43925700  0.56491400  1
  Cu  Cu95  1  0.71276700  0.93925700  0.93508600  1
  Cu  Cu96  1  0.06491400  0.21276700  0.56074300  1
  Cu  Cu97  1  0.43508600  0.78723300  0.06074300  1
  Cu  Cu98  1  0.56491400  0.28723300  0.43925700  1
  Cu  Cu99  1  0.93508600  0.71276700  0.93925700  1
  Cu  Cu100  1  0.56074300  0.06491400  0.21276700  1
  Cu  Cu101  1  0.06074300  0.43508600  0.78723300  1
  Cu  Cu102  1  0.43925700  0.56491400  0.28723300  1
  Cu  Cu103  1  0.93925700  0.93508600  0.71276700  1
