# generated using pymatgen
data_Cu5Ni2C25
_symmetry_space_group_name_H-M   'P 1'
_cell_length_a   6.55562794
_cell_length_b   6.55562794
_cell_length_c   10.21693991
_cell_angle_alpha   59.53349015
_cell_angle_beta   59.53349015
_cell_angle_gamma   52.68071947
_symmetry_Int_Tables_number   1
_chemical_formula_structural   Cu5Ni2C25
_chemical_formula_sum   'Cu5 Ni2 C25'
_cell_volume   287.92883369
_cell_formula_units_Z   1
loop_
 _symmetry_equiv_pos_site_id
 _symmetry_equiv_pos_as_xyz
  1  'x, y, z'
loop_
 _atom_site_type_symbol
 _atom_site_label
 _atom_site_symmetry_multiplicity
 _atom_site_fract_x
 _atom_site_fract_y
 _atom_site_fract_z
 _atom_site_occupancy
  C  C0  1  0.49183300  0.99935000  0.25820100  1
  C  C1  1  0.00065000  0.50816700  0.74179900  1
  C  C2  1  0.24971400  0.24971400  0.49526600  1
  C  C3  1  0.75111600  0.75111600  0.99905700  1
  C  C4  1  0.24888400  0.24888400  0.00094300  1
  C  C5  1  0.75028600  0.75028600  0.50473400  1
  C  C6  1  0.99935000  0.49183300  0.25820100  1
  C  C7  1  0.50816700  0.00065000  0.74179900  1
  C  C8  1  0.00000000  0.00000000  0.50000000  1
  Ni  Ni9  1  0.00000000  0.00000000  0.00000000  1
  Ni  Ni10  1  0.50000000  0.50000000  0.50000000  1
  Cu  Cu11  1  0.75296300  0.24383000  0.25830100  1
  Cu  Cu12  1  0.24703700  0.75617000  0.74169900  1
  Cu  Cu13  1  0.75617000  0.24703700  0.74169900  1
  Cu  Cu14  1  0.24383000  0.75296300  0.25830100  1
  Cu  Cu15  1  0.50000000  0.50000000  0.00000000  1
  C  C16  1  0.64458900  0.13046400  0.99716000  1
  C  C17  1  0.15058700  0.62005000  0.49236000  1
  C  C18  1  0.38942900  0.38942900  0.24338100  1
  C  C19  1  0.88318900  0.88318900  0.75686200  1
  C  C20  1  0.38504800  0.38504800  0.73254800  1
  C  C21  1  0.88730100  0.88730100  0.23318700  1
  C  C22  1  0.13046400  0.64458900  0.99716000  1
  C  C23  1  0.62005000  0.15058700  0.49236000  1
  C  C24  1  0.37995000  0.84941300  0.50764000  1
  C  C25  1  0.86953600  0.35541100  0.00284000  1
  C  C26  1  0.11269900  0.11269900  0.76681300  1
  C  C27  1  0.61495200  0.61495200  0.26745200  1
  C  C28  1  0.11681100  0.11681100  0.24313800  1
  C  C29  1  0.61057100  0.61057100  0.75661900  1
  C  C30  1  0.84941300  0.37995000  0.50764000  1
  C  C31  1  0.35541100  0.86953600  0.00284000  1
