# generated using pymatgen
data_Cu3Ni7C10
_symmetry_space_group_name_H-M   'P 1'
_cell_length_a   6.87496000
_cell_length_b   8.57702700
_cell_length_c   12.95649400
_cell_angle_alpha   90.00000000
_cell_angle_beta   90.00000000
_cell_angle_gamma   90.00000000
_symmetry_Int_Tables_number   1
_chemical_formula_structural   Cu3Ni7C10
_chemical_formula_sum   'Cu12 Ni28 C40'
_cell_volume   764.00192206
_cell_formula_units_Z   4
loop_
 _symmetry_equiv_pos_site_id
 _symmetry_equiv_pos_as_xyz
  1  'x, y, z'
loop_
 _atom_site_type_symbol
 _atom_site_label
 _atom_site_symmetry_multiplicity
 _atom_site_fract_x
 _atom_site_fract_y
 _atom_site_fract_z
 _atom_site_occupancy
  C  C0  1  0.25000000  0.55013700  0.62816700  1
  C  C1  1  0.75000000  0.44986300  0.37183300  1
  C  C2  1  0.75000000  0.55013700  0.87183300  1
  C  C3  1  0.25000000  0.44986300  0.12816700  1
  C  C4  1  0.25000000  0.94826100  0.69905100  1
  C  C5  1  0.75000000  0.05173900  0.30094900  1
  C  C6  1  0.75000000  0.94826100  0.80094900  1
  C  C7  1  0.25000000  0.05173900  0.19905100  1
  C  C8  1  0.25000000  0.65767100  0.89264000  1
  C  C9  1  0.75000000  0.34232900  0.10736000  1
  C  C10  1  0.75000000  0.65767100  0.60736000  1
  C  C11  1  0.25000000  0.34232900  0.39264000  1
  C  C12  1  0.12894500  0.75907200  0.51642600  1
  C  C13  1  0.62894500  0.24092800  0.48357400  1
  C  C14  1  0.87105500  0.75907200  0.98357400  1
  C  C15  1  0.37105500  0.24092800  0.01642600  1
  C  C16  1  0.87105500  0.24092800  0.48357400  1
  C  C17  1  0.37105500  0.75907200  0.51642600  1
  C  C18  1  0.12894500  0.24092800  0.01642600  1
  C  C19  1  0.62894500  0.75907200  0.98357400  1
  C  C20  1  0.12906700  0.99017300  0.87482600  1
  C  C21  1  0.62906700  0.00982700  0.12517400  1
  C  C22  1  0.87093300  0.99017300  0.62517400  1
  C  C23  1  0.37093300  0.00982700  0.37482600  1
  C  C24  1  0.87093300  0.00982700  0.12517400  1
  C  C25  1  0.37093300  0.99017300  0.87482600  1
  C  C26  1  0.12906700  0.00982700  0.37482600  1
  C  C27  1  0.62906700  0.99017300  0.62517400  1
  C  C28  1  0.12939300  0.40521000  0.82781800  1
  C  C29  1  0.62939300  0.59479000  0.17218200  1
  C  C30  1  0.87060700  0.40521000  0.67218200  1
  C  C31  1  0.37060700  0.59479000  0.32781800  1
  C  C32  1  0.87060700  0.59479000  0.17218200  1
  C  C33  1  0.37060700  0.40521000  0.82781800  1
  C  C34  1  0.12939300  0.59479000  0.32781800  1
  C  C35  1  0.62939300  0.40521000  0.67218200  1
  C  C36  1  0.25000000  0.71876100  0.73992400  1
  C  C37  1  0.75000000  0.28123900  0.26007600  1
  C  C38  1  0.75000000  0.71876100  0.76007600  1
  C  C39  1  0.25000000  0.28123900  0.23992400  1
  Ni  Ni40  1  0.25000000  0.66822700  0.64222900  1
  Ni  Ni41  1  0.75000000  0.33177300  0.35777100  1
  Ni  Ni42  1  0.75000000  0.66822700  0.85777100  1
  Ni  Ni43  1  0.25000000  0.33177300  0.14222900  1
  Ni  Ni44  1  0.25000000  0.87233300  0.75999700  1
  Ni  Ni45  1  0.75000000  0.12766700  0.24000300  1
  Ni  Ni46  1  0.75000000  0.87233300  0.74000300  1
  Ni  Ni47  1  0.25000000  0.12766700  0.25999700  1
  Ni  Ni48  1  0.25000000  0.61633600  0.81818200  1
  Ni  Ni49  1  0.75000000  0.38366400  0.18181800  1
  Ni  Ni50  1  0.75000000  0.61633600  0.68181800  1
  Ni  Ni51  1  0.25000000  0.38366400  0.31818200  1
  Ni  Ni52  1  0.25000000  0.77662800  0.56117400  1
  Ni  Ni53  1  0.75000000  0.22337200  0.43882600  1
  Ni  Ni54  1  0.75000000  0.77662800  0.93882600  1
  Ni  Ni55  1  0.25000000  0.22337200  0.06117400  1
  Ni  Ni56  1  0.25000000  0.92274800  0.86294400  1
  Ni  Ni57  1  0.75000000  0.07725200  0.13705600  1
  Ni  Ni58  1  0.75000000  0.92274800  0.63705600  1
  Ni  Ni59  1  0.25000000  0.07725200  0.36294400  1
  Ni  Ni60  1  0.25000000  0.45624800  0.79598400  1
  Ni  Ni61  1  0.75000000  0.54375200  0.20401600  1
  Ni  Ni62  1  0.75000000  0.45624800  0.70401600  1
  Ni  Ni63  1  0.25000000  0.54375200  0.29598400  1
  Ni  Ni64  1  0.25000000  0.24007000  0.59690400  1
  Ni  Ni65  1  0.75000000  0.75993000  0.40309600  1
  Ni  Ni66  1  0.75000000  0.24007000  0.90309600  1
  Ni  Ni67  1  0.25000000  0.75993000  0.09690400  1
  Cu  Cu68  1  0.25000000  0.36562600  0.54341000  1
  Cu  Cu69  1  0.75000000  0.63437400  0.45659000  1
  Cu  Cu70  1  0.75000000  0.36562600  0.95659000  1
  Cu  Cu71  1  0.25000000  0.63437400  0.04341000  1
  Cu  Cu72  1  0.40994900  0.17927900  0.62350400  1
  Cu  Cu73  1  0.90994900  0.82072100  0.37649600  1
  Cu  Cu74  1  0.59005100  0.17927900  0.87649600  1
  Cu  Cu75  1  0.09005100  0.82072100  0.12350400  1
  Cu  Cu76  1  0.59005100  0.82072100  0.37649600  1
  Cu  Cu77  1  0.09005100  0.17927900  0.62350400  1
  Cu  Cu78  1  0.40994900  0.82072100  0.12350400  1
  Cu  Cu79  1  0.90994900  0.17927900  0.87649600  1
