# generated using pymatgen
data_Cu2Ni3C16
_symmetry_space_group_name_H-M   'P 1'
_cell_length_a   10.58221027
_cell_length_b   10.58221027
_cell_length_c   7.68522600
_cell_angle_alpha   90.00000000
_cell_angle_beta   90.00000000
_cell_angle_gamma   120.00000169
_symmetry_Int_Tables_number   1
_chemical_formula_structural   Cu2Ni3C16
_chemical_formula_sum   'Cu4 Ni6 C32'
_cell_volume   745.31530789
_cell_formula_units_Z   2
loop_
 _symmetry_equiv_pos_site_id
 _symmetry_equiv_pos_as_xyz
  1  'x, y, z'
loop_
 _atom_site_type_symbol
 _atom_site_label
 _atom_site_symmetry_multiplicity
 _atom_site_fract_x
 _atom_site_fract_y
 _atom_site_fract_z
 _atom_site_occupancy
  Ni  Ni0  1  0.74234000  0.98919700  0.75000000  1
  Ni  Ni1  1  0.25766000  0.01080300  0.25000000  1
  Ni  Ni2  1  0.24685700  0.25766000  0.75000000  1
  Ni  Ni3  1  0.75314300  0.74234000  0.25000000  1
  Ni  Ni4  1  0.01080300  0.75314300  0.75000000  1
  Ni  Ni5  1  0.98919700  0.24685700  0.25000000  1
  Cu  Cu6  1  0.66666700  0.33333300  0.00011000  1
  Cu  Cu7  1  0.33333300  0.66666700  0.99989000  1
  Cu  Cu8  1  0.33333300  0.66666700  0.50011000  1
  Cu  Cu9  1  0.66666700  0.33333300  0.49989000  1
  C  C10  1  0.96643400  0.37983200  0.75000000  1
  C  C11  1  0.03356600  0.62016800  0.25000000  1
  C  C12  1  0.41339800  0.03356600  0.75000000  1
  C  C13  1  0.58660200  0.96643400  0.25000000  1
  C  C14  1  0.62016800  0.58660200  0.75000000  1
  C  C15  1  0.37983200  0.41339800  0.25000000  1
  C  C16  1  0.00000000  0.00000000  0.00000000  1
  C  C17  1  0.00000000  0.00000000  0.50000000  1
  C  C18  1  0.49778300  0.64957300  0.75000000  1
  C  C19  1  0.50221700  0.35042700  0.25000000  1
  C  C20  1  0.15179000  0.50221700  0.75000000  1
  C  C21  1  0.84821000  0.49778300  0.25000000  1
  C  C22  1  0.35042700  0.84821000  0.75000000  1
  C  C23  1  0.64957300  0.15179000  0.25000000  1
  C  C24  1  0.91183800  0.26837000  0.92951900  1
  C  C25  1  0.08816200  0.73163000  0.07048100  1
  C  C26  1  0.35653200  0.08816200  0.92951900  1
  C  C27  1  0.08816200  0.73163000  0.42951900  1
  C  C28  1  0.64346800  0.91183800  0.07048100  1
  C  C29  1  0.91183800  0.26837000  0.57048100  1
  C  C30  1  0.73163000  0.64346800  0.92951900  1
  C  C31  1  0.64346800  0.91183800  0.42951900  1
  C  C32  1  0.26837000  0.35653200  0.07048100  1
  C  C33  1  0.35653200  0.08816200  0.57048100  1
  C  C34  1  0.26837000  0.35653200  0.42951900  1
  C  C35  1  0.73163000  0.64346800  0.57048100  1
  C  C36  1  0.86385000  0.46626700  0.75000000  1
  C  C37  1  0.13615000  0.53373300  0.25000000  1
  C  C38  1  0.60241800  0.13615000  0.75000000  1
  C  C39  1  0.39758200  0.86385000  0.25000000  1
  C  C40  1  0.53373300  0.39758200  0.75000000  1
  C  C41  1  0.46626700  0.60241800  0.25000000  1
