# generated using pymatgen
data_Cu2Ni2C5
_symmetry_space_group_name_H-M   'P 1'
_cell_length_a   3.62635200
_cell_length_b   5.27354700
_cell_length_c   10.67796100
_cell_angle_alpha   90.00000000
_cell_angle_beta   90.00000000
_cell_angle_gamma   90.00000000
_symmetry_Int_Tables_number   1
_chemical_formula_structural   Cu2Ni2C5
_chemical_formula_sum   'Cu4 Ni4 C10'
_cell_volume   204.20252545
_cell_formula_units_Z   2
loop_
 _symmetry_equiv_pos_site_id
 _symmetry_equiv_pos_as_xyz
  1  'x, y, z'
loop_
 _atom_site_type_symbol
 _atom_site_label
 _atom_site_symmetry_multiplicity
 _atom_site_fract_x
 _atom_site_fract_y
 _atom_site_fract_z
 _atom_site_occupancy
  Ni  Ni0  1  0.50000000  0.25611800  0.90565100  1
  Ni  Ni1  1  0.50000000  0.74388200  0.09434900  1
  Ni  Ni2  1  0.50000000  0.75611800  0.59434900  1
  Ni  Ni3  1  0.50000000  0.24388200  0.40565100  1
  Cu  Cu4  1  0.00000000  0.22431200  0.63590500  1
  Cu  Cu5  1  0.00000000  0.77568800  0.36409500  1
  Cu  Cu6  1  0.00000000  0.27568800  0.13590500  1
  Cu  Cu7  1  0.00000000  0.72431200  0.86409500  1
  C  C8  1  0.00000000  0.50000000  0.50000000  1
  C  C9  1  0.00000000  0.14207300  0.31549700  1
  C  C10  1  0.00000000  0.64207300  0.18450300  1
  C  C11  1  0.00000000  0.35792700  0.81549700  1
  C  C12  1  0.50000000  0.32490200  0.09480700  1
  C  C13  1  0.50000000  0.67509800  0.90519300  1
  C  C14  1  0.00000000  0.85792700  0.68450300  1
  C  C15  1  0.50000000  0.17509800  0.59480700  1
  C  C16  1  0.00000000  0.00000000  0.00000000  1
  C  C17  1  0.50000000  0.82490200  0.40519300  1
