# generated using pymatgen
data_Cu3NiC20
_symmetry_space_group_name_H-M   'P 1'
_cell_length_a   7.42307000
_cell_length_b   7.42307000
_cell_length_c   6.40470300
_cell_angle_alpha   90.00000000
_cell_angle_beta   90.00000000
_cell_angle_gamma   90.00000000
_symmetry_Int_Tables_number   1
_chemical_formula_structural   Cu3NiC20
_chemical_formula_sum   'Cu3 Ni1 C20'
_cell_volume   352.91174120
_cell_formula_units_Z   1
loop_
 _symmetry_equiv_pos_site_id
 _symmetry_equiv_pos_as_xyz
  1  'x, y, z'
loop_
 _atom_site_type_symbol
 _atom_site_label
 _atom_site_symmetry_multiplicity
 _atom_site_fract_x
 _atom_site_fract_y
 _atom_site_fract_z
 _atom_site_occupancy
  Ni  Ni0  1  0.50000000  0.50000000  0.50000000  1
  Cu  Cu1  1  0.00000000  0.00000000  0.00000000  1
  Cu  Cu2  1  0.00000000  0.50000000  0.74831500  1
  Cu  Cu3  1  0.50000000  0.00000000  0.25168500  1
  C  C4  1  0.50000000  0.00000000  0.74650900  1
  C  C5  1  0.00000000  0.50000000  0.25349100  1
  C  C6  1  0.00000000  0.00000000  0.50000000  1
  C  C7  1  0.50000000  0.50000000  0.00000000  1
  C  C8  1  0.32077600  0.00000000  0.92166200  1
  C  C9  1  0.81836100  0.50000000  0.41913700  1
  C  C10  1  0.00000000  0.18089000  0.66862500  1
  C  C11  1  0.50000000  0.67683400  0.15952400  1
  C  C12  1  0.00000000  0.81911000  0.66862500  1
  C  C13  1  0.50000000  0.32316600  0.15952400  1
  C  C14  1  0.67922400  0.00000000  0.92166200  1
  C  C15  1  0.18163900  0.50000000  0.41913700  1
  C  C16  1  0.18089000  0.00000000  0.33137500  1
  C  C17  1  0.67683400  0.50000000  0.84047600  1
  C  C18  1  0.50000000  0.81836100  0.58086300  1
  C  C19  1  0.00000000  0.32077600  0.07833800  1
  C  C20  1  0.50000000  0.18163900  0.58086300  1
  C  C21  1  0.00000000  0.67922400  0.07833800  1
  C  C22  1  0.81911000  0.00000000  0.33137500  1
  C  C23  1  0.32316600  0.50000000  0.84047600  1
