# generated using pymatgen
data_Cu9(NiC8)2
_symmetry_space_group_name_H-M   'P 1'
_cell_length_a   13.26476904
_cell_length_b   10.69463257
_cell_length_c   9.54239929
_cell_angle_alpha   102.82260303
_cell_angle_beta   90.00000000
_cell_angle_gamma   90.00000000
_symmetry_Int_Tables_number   1
_chemical_formula_structural   Cu9(NiC8)2
_chemical_formula_sum   'Cu36 Ni8 C64'
_cell_volume   1319.94344388
_cell_formula_units_Z   4
loop_
 _symmetry_equiv_pos_site_id
 _symmetry_equiv_pos_as_xyz
  1  'x, y, z'
loop_
 _atom_site_type_symbol
 _atom_site_label
 _atom_site_symmetry_multiplicity
 _atom_site_fract_x
 _atom_site_fract_y
 _atom_site_fract_z
 _atom_site_occupancy
  C  C0  1  0.86287780  0.75000000  0.75000000  1
  C  C1  1  0.13712220  0.25000000  0.25000000  1
  C  C2  1  0.00000000  0.00000000  0.50000000  1
  C  C3  1  0.00000000  0.50000000  0.00000000  1
  C  C4  1  0.47972879  0.25000000  0.75000000  1
  C  C5  1  0.52027121  0.75000000  0.25000000  1
  C  C6  1  0.00000000  0.00000000  0.00000000  1
  C  C7  1  0.00000000  0.50000000  0.50000000  1
  C  C8  1  0.40530574  0.25000000  0.25000000  1
  C  C9  1  0.50000000  0.50000000  0.50000000  1
  C  C10  1  0.50000000  0.00000000  0.00000000  1
  C  C11  1  0.59469426  0.75000000  0.75000000  1
  Ni  Ni12  1  0.67553266  0.04871025  0.76151472  1
  Ni  Ni13  1  0.67553266  0.45128975  0.73848528  1
  Ni  Ni14  1  0.71211894  0.36818509  0.42418693  1
  Ni  Ni15  1  0.71211894  0.13181491  0.07581307  1
  Ni  Ni16  1  0.28788106  0.86818509  0.92418693  1
  Ni  Ni17  1  0.28788106  0.63181491  0.57581307  1
  Ni  Ni18  1  0.32446734  0.54871025  0.26151472  1
  Ni  Ni19  1  0.32446734  0.95128975  0.23848528  1
  Cu  Cu20  1  0.10203718  0.80610216  0.37483928  1
  Cu  Cu21  1  0.10203718  0.69389784  0.12516072  1
  Cu  Cu22  1  0.25402238  0.60761261  0.18539514  1
  Cu  Cu23  1  0.25402238  0.89238739  0.31460486  1
  Cu  Cu24  1  0.65358554  0.84089716  0.00779852  1
  Cu  Cu25  1  0.65358554  0.65910284  0.49220148  1
  Cu  Cu26  1  0.24654907  0.66385395  0.83712727  1
  Cu  Cu27  1  0.24654907  0.83614605  0.66287273  1
  Cu  Cu28  1  0.29670334  0.32423790  0.85499693  1
  Cu  Cu29  1  0.29670334  0.17576210  0.64500307  1
  Cu  Cu30  1  0.87301152  0.03886305  0.20765210  1
  Cu  Cu31  1  0.87301152  0.46113695  0.29234790  1
  Cu  Cu32  1  0.62609319  0.87521672  0.48472806  1
  Cu  Cu33  1  0.62609319  0.62478328  0.01527194  1
  Cu  Cu34  1  0.93903644  0.17672196  0.36928461  1
  Cu  Cu35  1  0.93903644  0.32327804  0.13071539  1
  Cu  Cu36  1  0.90430224  0.69020804  0.45081436  1
  Cu  Cu37  1  0.90430224  0.80979196  0.04918564  1
  Cu  Cu38  1  0.09569776  0.19020804  0.95081436  1
  Cu  Cu39  1  0.09569776  0.30979196  0.54918564  1
  Cu  Cu40  1  0.06096356  0.67672196  0.86928461  1
  Cu  Cu41  1  0.06096356  0.82327804  0.63071539  1
  Cu  Cu42  1  0.37390681  0.37521672  0.98472806  1
  Cu  Cu43  1  0.37390681  0.12478328  0.51527194  1
  Cu  Cu44  1  0.12698848  0.53886305  0.70765210  1
  Cu  Cu45  1  0.12698848  0.96113695  0.79234790  1
  Cu  Cu46  1  0.70329666  0.82423790  0.35499693  1
  Cu  Cu47  1  0.70329666  0.67576210  0.14500307  1
  Cu  Cu48  1  0.75345093  0.16385395  0.33712727  1
  Cu  Cu49  1  0.75345093  0.33614605  0.16287273  1
  Cu  Cu50  1  0.34641446  0.34089716  0.50779852  1
  Cu  Cu51  1  0.34641446  0.15910284  0.99220148  1
  Cu  Cu52  1  0.74597762  0.10761261  0.68539514  1
  Cu  Cu53  1  0.74597762  0.39238739  0.81460486  1
  Cu  Cu54  1  0.89796282  0.30610216  0.87483928  1
  Cu  Cu55  1  0.89796282  0.19389784  0.62516072  1
  C  C56  1  0.94819552  0.01268921  0.21961489  1
  C  C57  1  0.94819552  0.48731079  0.28038511  1
  C  C58  1  0.26450216  0.55443328  0.41287468  1
  C  C59  1  0.26450216  0.94556672  0.08712532  1
  C  C60  1  0.07128926  0.33912104  0.46531140  1
  C  C61  1  0.07128926  0.16087896  0.03468860  1
  C  C62  1  0.23921112  0.73383152  0.92745235  1
  C  C63  1  0.23921112  0.76616848  0.57254765  1
  C  C64  1  0.76874250  0.43423463  0.32185316  1
  C  C65  1  0.76874250  0.06576537  0.17814684  1
  C  C66  1  0.89598545  0.39899126  0.89423993  1
  C  C67  1  0.89598545  0.10100874  0.60576007  1
  C  C68  1  0.42482879  0.61931964  0.29336378  1
  C  C69  1  0.42482879  0.88068036  0.20663622  1
  C  C70  1  0.40712250  0.15232865  0.04693509  1
  C  C71  1  0.40712250  0.34767135  0.45306491  1
  C  C72  1  0.81167012  0.71558512  0.18166838  1
  C  C73  1  0.81167012  0.78441488  0.31833162  1
  C  C74  1  0.66690671  0.59240992  0.81425696  1
  C  C75  1  0.66690671  0.90759008  0.68574304  1
  C  C76  1  0.99482697  0.11727210  0.33187665  1
  C  C77  1  0.99482697  0.38272790  0.16812335  1
  C  C78  1  0.60045891  0.13906483  0.10485594  1
  C  C79  1  0.60045891  0.36093517  0.39514406  1
  C  C80  1  0.62720384  0.65423335  0.12053795  1
  C  C81  1  0.62720384  0.84576665  0.37946205  1
  C  C82  1  0.37279616  0.15423335  0.62053795  1
  C  C83  1  0.37279616  0.34576665  0.87946205  1
  C  C84  1  0.39954109  0.63906483  0.60485594  1
  C  C85  1  0.39954109  0.86093517  0.89514406  1
  C  C86  1  0.00517303  0.61727210  0.83187665  1
  C  C87  1  0.00517303  0.88272790  0.66812335  1
  C  C88  1  0.33309329  0.09240992  0.31425696  1
  C  C89  1  0.33309329  0.40759008  0.18574304  1
  C  C90  1  0.18832988  0.21558512  0.68166838  1
  C  C91  1  0.18832988  0.28441488  0.81833162  1
  C  C92  1  0.59287750  0.65232865  0.54693509  1
  C  C93  1  0.59287750  0.84767135  0.95306491  1
  C  C94  1  0.57517121  0.11931964  0.79336378  1
  C  C95  1  0.57517121  0.38068036  0.70663622  1
  C  C96  1  0.10401455  0.89899126  0.39423993  1
  C  C97  1  0.10401455  0.60100874  0.10576007  1
  C  C98  1  0.23125750  0.93423463  0.82185316  1
  C  C99  1  0.23125750  0.56576537  0.67814684  1
  C  C100  1  0.76078888  0.23383152  0.42745235  1
  C  C101  1  0.76078888  0.26616848  0.07254765  1
  C  C102  1  0.92871074  0.83912104  0.96531140  1
  C  C103  1  0.92871074  0.66087896  0.53468860  1
  C  C104  1  0.73549784  0.05443328  0.91287468  1
  C  C105  1  0.73549784  0.44556672  0.58712532  1
  C  C106  1  0.05180448  0.51268921  0.71961489  1
  C  C107  1  0.05180448  0.98731079  0.78038511  1
