# generated using pymatgen
data_Cu4NiC
_symmetry_space_group_name_H-M   'P 1'
_cell_length_a   5.99040400
_cell_length_b   5.55748700
_cell_length_c   7.43560174
_cell_angle_alpha   77.16282951
_cell_angle_beta   90.00000000
_cell_angle_gamma   90.00000000
_symmetry_Int_Tables_number   1
_chemical_formula_structural   Cu4NiC
_chemical_formula_sum   'Cu8 Ni2 C2'
_cell_volume   241.35578826
_cell_formula_units_Z   2
loop_
 _symmetry_equiv_pos_site_id
 _symmetry_equiv_pos_as_xyz
  1  'x, y, z'
loop_
 _atom_site_type_symbol
 _atom_site_label
 _atom_site_symmetry_multiplicity
 _atom_site_fract_x
 _atom_site_fract_y
 _atom_site_fract_z
 _atom_site_occupancy
  C  C0  1  0.75000000  0.46830400  0.22893800  1
  C  C1  1  0.25000000  0.53169600  0.77106200  1
  Ni  Ni2  1  0.75000000  0.04820000  0.73597700  1
  Ni  Ni3  1  0.25000000  0.95180000  0.26402300  1
  Cu  Cu4  1  0.75000000  0.77854300  0.80468200  1
  Cu  Cu5  1  0.25000000  0.22145700  0.19531800  1
  Cu  Cu6  1  0.75000000  0.18000100  0.89016100  1
  Cu  Cu7  1  0.25000000  0.81999900  0.10983900  1
  Cu  Cu8  1  0.95646500  0.13031800  0.62632900  1
  Cu  Cu9  1  0.04353500  0.86968200  0.37367100  1
  Cu  Cu10  1  0.45646500  0.86968200  0.37367100  1
  Cu  Cu11  1  0.54353500  0.13031800  0.62632900  1
