# generated using pymatgen
data_Cu2Ni6C
_symmetry_space_group_name_H-M   'P 1'
_cell_length_a   6.46325185
_cell_length_b   10.78858441
_cell_length_c   11.78505500
_cell_angle_alpha   90.00000000
_cell_angle_beta   90.00000000
_cell_angle_gamma   95.19371607
_symmetry_Int_Tables_number   1
_chemical_formula_structural   Cu2Ni6C
_chemical_formula_sum   'Cu16 Ni48 C8'
_cell_volume   818.39019529
_cell_formula_units_Z   8
loop_
 _symmetry_equiv_pos_site_id
 _symmetry_equiv_pos_as_xyz
  1  'x, y, z'
loop_
 _atom_site_type_symbol
 _atom_site_label
 _atom_site_symmetry_multiplicity
 _atom_site_fract_x
 _atom_site_fract_y
 _atom_site_fract_z
 _atom_site_occupancy
  C  C0  1  0.09688700  0.25995400  0.94967900  1
  C  C1  1  0.59688700  0.75995400  0.55032100  1
  C  C2  1  0.90311300  0.74004600  0.05032100  1
  C  C3  1  0.40311300  0.24004600  0.44967900  1
  C  C4  1  0.43829700  0.24870300  0.81826600  1
  C  C5  1  0.93829700  0.74870300  0.68173400  1
  C  C6  1  0.56170300  0.75129700  0.18173400  1
  C  C7  1  0.06170300  0.25129700  0.31826600  1
  Ni  Ni8  1  0.11223400  0.07337300  0.86917600  1
  Ni  Ni9  1  0.61223400  0.57337300  0.63082400  1
  Ni  Ni10  1  0.88776600  0.92662700  0.13082400  1
  Ni  Ni11  1  0.38776600  0.42662700  0.36917600  1
  Ni  Ni12  1  0.48786200  0.14837200  0.61882000  1
  Ni  Ni13  1  0.98786200  0.64837200  0.88118000  1
  Ni  Ni14  1  0.51213800  0.85162800  0.38118000  1
  Ni  Ni15  1  0.01213800  0.35162800  0.11882000  1
  Ni  Ni16  1  0.80179800  0.16908300  0.85166500  1
  Ni  Ni17  1  0.30179800  0.66908300  0.64833500  1
  Ni  Ni18  1  0.19820200  0.83091700  0.14833500  1
  Ni  Ni19  1  0.69820200  0.33091700  0.35166500  1
  Ni  Ni20  1  0.16754800  0.42997200  0.82324200  1
  Ni  Ni21  1  0.66754800  0.92997200  0.67675800  1
  Ni  Ni22  1  0.83245200  0.57002800  0.17675800  1
  Ni  Ni23  1  0.33245200  0.07002800  0.32324200  1
  Ni  Ni24  1  0.35600500  0.01943000  0.85263600  1
  Ni  Ni25  1  0.85600500  0.51943000  0.64736400  1
  Ni  Ni26  1  0.64399500  0.98057000  0.14736400  1
  Ni  Ni27  1  0.14399500  0.48057000  0.35263600  1
  Ni  Ni28  1  0.49938100  0.31704700  0.60968000  1
  Ni  Ni29  1  0.99938100  0.81704700  0.89032000  1
  Ni  Ni30  1  0.50061900  0.68295300  0.39032000  1
  Ni  Ni31  1  0.00061900  0.18295300  0.10968000  1
  Ni  Ni32  1  0.73474200  0.26890200  0.96696300  1
  Ni  Ni33  1  0.23474200  0.76890200  0.53303700  1
  Ni  Ni34  1  0.26525800  0.73109800  0.03303700  1
  Ni  Ni35  1  0.76525800  0.23109800  0.46696300  1
  Ni  Ni36  1  0.30895700  0.43701000  0.95347300  1
  Ni  Ni37  1  0.80895700  0.93701000  0.54652700  1
  Ni  Ni38  1  0.69104300  0.56299000  0.04652700  1
  Ni  Ni39  1  0.19104300  0.06299000  0.45347300  1
  Ni  Ni40  1  0.29492000  0.08445100  0.98276300  1
  Ni  Ni41  1  0.79492000  0.58445100  0.51723700  1
  Ni  Ni42  1  0.70508000  0.91554900  0.01723700  1
  Ni  Ni43  1  0.20508000  0.41554900  0.48276300  1
  Ni  Ni44  1  0.25150200  0.22549400  0.62314100  1
  Ni  Ni45  1  0.75150200  0.72549400  0.87685900  1
  Ni  Ni46  1  0.74849800  0.77450600  0.37685900  1
  Ni  Ni47  1  0.24849800  0.27450600  0.12314100  1
  Ni  Ni48  1  0.82546100  0.33637900  0.83424500  1
  Ni  Ni49  1  0.32546100  0.83637900  0.66575500  1
  Ni  Ni50  1  0.17453900  0.66362100  0.16575500  1
  Ni  Ni51  1  0.67453900  0.16362100  0.33424500  1
  Ni  Ni52  1  0.43133800  0.48129200  0.82668500  1
  Ni  Ni53  1  0.93133800  0.98129200  0.67331500  1
  Ni  Ni54  1  0.56866200  0.51870800  0.17331500  1
  Ni  Ni55  1  0.06866200  0.01870800  0.32668500  1
  Cu  Cu56  1  0.27855300  0.09728500  0.89003900  1
  Cu  Cu57  1  0.77855300  0.59728500  0.60996100  1
  Cu  Cu58  1  0.72144700  0.90271500  0.10996100  1
  Cu  Cu59  1  0.22144700  0.40271500  0.39003900  1
  Cu  Cu60  1  0.41713600  0.23243300  0.64737800  1
  Cu  Cu61  1  0.91713600  0.73243300  0.85262200  1
  Cu  Cu62  1  0.58286400  0.76756700  0.35262200  1
  Cu  Cu63  1  0.08286400  0.26756700  0.14737800  1
  Cu  Cu64  1  0.73505000  0.25643400  0.87409200  1
  Cu  Cu65  1  0.23505000  0.75643400  0.62590800  1
  Cu  Cu66  1  0.26495000  0.74356600  0.12590800  1
  Cu  Cu67  1  0.76495000  0.24356600  0.37409200  1
  Cu  Cu68  1  0.31624700  0.40999000  0.86288900  1
  Cu  Cu69  1  0.81624700  0.90999000  0.63711100  1
  Cu  Cu70  1  0.68375300  0.59001000  0.13711100  1
  Cu  Cu71  1  0.18375300  0.09001000  0.36288900  1
