# generated using pymatgen
data_Cu(NiC2)3
_symmetry_space_group_name_H-M   'P 1'
_cell_length_a   3.92797400
_cell_length_b   3.92797400
_cell_length_c   10.23366000
_cell_angle_alpha   90.00000000
_cell_angle_beta   90.00000000
_cell_angle_gamma   90.00000000
_symmetry_Int_Tables_number   1
_chemical_formula_structural   Cu(NiC2)3
_chemical_formula_sum   'Cu1 Ni3 C6'
_cell_volume   157.89493285
_cell_formula_units_Z   1
loop_
 _symmetry_equiv_pos_site_id
 _symmetry_equiv_pos_as_xyz
  1  'x, y, z'
loop_
 _atom_site_type_symbol
 _atom_site_label
 _atom_site_symmetry_multiplicity
 _atom_site_fract_x
 _atom_site_fract_y
 _atom_site_fract_z
 _atom_site_occupancy
  C  C0  1  0.00000000  0.00000000  0.99749100  1
  C  C1  1  0.50000000  0.50000000  0.50108500  1
  C  C2  1  0.00000000  0.50000000  0.25593000  1
  C  C3  1  0.50000000  0.00000000  0.74904800  1
  C  C4  1  0.50000000  0.00000000  0.25593000  1
  C  C5  1  0.00000000  0.50000000  0.74904800  1
  Ni  Ni6  1  0.00000000  0.00000000  0.63632400  1
  Ni  Ni7  1  0.00000000  0.00000000  0.36588200  1
  Ni  Ni8  1  0.50000000  0.50000000  0.85880700  1
  Cu  Cu9  1  0.50000000  0.50000000  0.13045400  1
