# generated using pymatgen
data_Cu2Ni6C7
_symmetry_space_group_name_H-M   'P 1'
_cell_length_a   12.52558600
_cell_length_b   12.52558600
_cell_length_c   12.52558600
_cell_angle_alpha   90.00000000
_cell_angle_beta   90.00000000
_cell_angle_gamma   90.00000000
_symmetry_Int_Tables_number   1
_chemical_formula_structural   Cu2Ni6C7
_chemical_formula_sum   'Cu8 Ni24 C28'
_cell_volume   1965.14300338
_cell_formula_units_Z   4
loop_
 _symmetry_equiv_pos_site_id
 _symmetry_equiv_pos_as_xyz
  1  'x, y, z'
loop_
 _atom_site_type_symbol
 _atom_site_label
 _atom_site_symmetry_multiplicity
 _atom_site_fract_x
 _atom_site_fract_y
 _atom_site_fract_z
 _atom_site_occupancy
  C  C0  1  0.50000000  0.50000000  0.00000000  1
  C  C1  1  0.50000000  0.00000000  0.50000000  1
  C  C2  1  0.00000000  0.50000000  0.50000000  1
  C  C3  1  0.00000000  0.00000000  0.00000000  1
  Ni  Ni4  1  0.35571800  0.64223500  0.27883800  1
  Ni  Ni5  1  0.64428200  0.14223500  0.22116200  1
  Ni  Ni6  1  0.14428200  0.35776500  0.77883800  1
  Ni  Ni7  1  0.85571800  0.85776500  0.72116200  1
  Ni  Ni8  1  0.27883800  0.35571800  0.64223500  1
  Ni  Ni9  1  0.22116200  0.64428200  0.14223500  1
  Ni  Ni10  1  0.77883800  0.14428200  0.35776500  1
  Ni  Ni11  1  0.72116200  0.85571800  0.85776500  1
  Ni  Ni12  1  0.64223500  0.27883800  0.35571800  1
  Ni  Ni13  1  0.14223500  0.22116200  0.64428200  1
  Ni  Ni14  1  0.35776500  0.77883800  0.14428200  1
  Ni  Ni15  1  0.85776500  0.72116200  0.85571800  1
  Ni  Ni16  1  0.64428200  0.35776500  0.72116200  1
  Ni  Ni17  1  0.35571800  0.85776500  0.77883800  1
  Ni  Ni18  1  0.85571800  0.64223500  0.22116200  1
  Ni  Ni19  1  0.14428200  0.14223500  0.27883800  1
  Ni  Ni20  1  0.72116200  0.64428200  0.35776500  1
  Ni  Ni21  1  0.77883800  0.35571800  0.85776500  1
  Ni  Ni22  1  0.22116200  0.85571800  0.64223500  1
  Ni  Ni23  1  0.27883800  0.14428200  0.14223500  1
  Ni  Ni24  1  0.35776500  0.72116200  0.64428200  1
  Ni  Ni25  1  0.85776500  0.77883800  0.35571800  1
  Ni  Ni26  1  0.64223500  0.22116200  0.85571800  1
  Ni  Ni27  1  0.14223500  0.27883800  0.14428200  1
  C  C28  1  0.26482000  0.53955700  0.98701800  1
  C  C29  1  0.73518000  0.03955700  0.51298200  1
  C  C30  1  0.23518000  0.46044300  0.48701800  1
  C  C31  1  0.76482000  0.96044300  0.01298200  1
  C  C32  1  0.98701800  0.26482000  0.53955700  1
  C  C33  1  0.51298200  0.73518000  0.03955700  1
  C  C34  1  0.48701800  0.23518000  0.46044300  1
  C  C35  1  0.01298200  0.76482000  0.96044300  1
  C  C36  1  0.53955700  0.98701800  0.26482000  1
  C  C37  1  0.03955700  0.51298200  0.73518000  1
  C  C38  1  0.46044300  0.48701800  0.23518000  1
  C  C39  1  0.96044300  0.01298200  0.76482000  1
  C  C40  1  0.73518000  0.46044300  0.01298200  1
  C  C41  1  0.26482000  0.96044300  0.48701800  1
  C  C42  1  0.76482000  0.53955700  0.51298200  1
  C  C43  1  0.23518000  0.03955700  0.98701800  1
  C  C44  1  0.01298200  0.73518000  0.46044300  1
  C  C45  1  0.48701800  0.26482000  0.96044300  1
  C  C46  1  0.51298200  0.76482000  0.53955700  1
  C  C47  1  0.98701800  0.23518000  0.03955700  1
  C  C48  1  0.46044300  0.01298200  0.73518000  1
  C  C49  1  0.96044300  0.48701800  0.26482000  1
  C  C50  1  0.53955700  0.51298200  0.76482000  1
  C  C51  1  0.03955700  0.98701800  0.23518000  1
  Cu  Cu52  1  0.31396400  0.68603600  0.18603600  1
  Cu  Cu53  1  0.68603600  0.18603600  0.31396400  1
  Cu  Cu54  1  0.18603600  0.31396400  0.68603600  1
  Cu  Cu55  1  0.81396400  0.81396400  0.81396400  1
  Cu  Cu56  1  0.68603600  0.31396400  0.81396400  1
  Cu  Cu57  1  0.31396400  0.81396400  0.68603600  1
  Cu  Cu58  1  0.81396400  0.68603600  0.31396400  1
  Cu  Cu59  1  0.18603600  0.18603600  0.18603600  1
