# generated using pymatgen
data_Cu80Ni9C19
_symmetry_space_group_name_H-M   'P 1'
_cell_length_a   10.93170242
_cell_length_b   10.92208333
_cell_length_c   21.80441300
_cell_angle_alpha   89.98148966
_cell_angle_beta   90.00004944
_cell_angle_gamma   90.00000063
_symmetry_Int_Tables_number   1
_chemical_formula_structural   Cu80Ni9C19
_chemical_formula_sum   'Cu80 Ni9 C19'
_cell_volume   2603.38059606
_cell_formula_units_Z   1
loop_
 _symmetry_equiv_pos_site_id
 _symmetry_equiv_pos_as_xyz
  1  'x, y, z'
loop_
 _atom_site_type_symbol
 _atom_site_label
 _atom_site_symmetry_multiplicity
 _atom_site_fract_x
 _atom_site_fract_y
 _atom_site_fract_z
 _atom_site_occupancy
  C  C0  1  0.49999988  0.49888601  0.25043869  1
  C  C1  1  0.49999983  0.50008298  0.75046634  1
  C  C2  1  0.00000001  0.00039709  0.00055770  1
  C  C3  1  0.99999990  0.00047778  0.49839275  1
  C  C4  1  0.00000002  0.49607928  0.37217130  1
  C  C5  1  0.00000008  0.49990363  0.87553250  1
  C  C6  1  0.49999992  0.24535638  0.99956804  1
  C  C7  1  0.50000016  0.24537281  0.49643685  1
  C  C8  1  0.74984457  0.00351165  0.25193110  1
  C  C9  1  0.74547811  0.00006449  0.75192898  1
  C  C10  1  0.99999975  0.49648521  0.12790442  1
  C  C11  1  0.00000041  0.49974586  0.62438131  1
  C  C12  1  0.49999962  0.75468818  0.99895322  1
  C  C13  1  0.50000008  0.75449895  0.49720517  1
  C  C14  1  0.25015556  0.00351139  0.25193104  1
  C  C15  1  0.25452171  0.00006441  0.75192886  1
  Ni  Ni16  1  0.00000000  0.24951708  0.74963689  1
  Ni  Ni17  1  0.74974569  0.50026839  0.00032863  1
  Ni  Ni18  1  0.74983009  0.50020291  0.50034540  1
  Ni  Ni19  1  0.49999989  0.99958042  0.12511807  1
  Ni  Ni20  1  0.50000000  0.99994930  0.62509470  1
  Ni  Ni21  1  0.99999998  0.75029228  0.24972242  1
  Ni  Ni22  1  0.00000006  0.75067751  0.74961730  1
  Ni  Ni23  1  0.25025429  0.50026833  0.00032863  1
  Ni  Ni24  1  0.25016987  0.50020316  0.50034549  1
  Cu  Cu25  1  0.68356852  0.31762351  0.34173474  1
  Cu  Cu26  1  0.68383210  0.31635401  0.84130544  1
  Cu  Cu27  1  0.31713953  0.68374643  0.15799248  1
  Cu  Cu28  1  0.31690875  0.68406396  0.65801769  1
  Cu  Cu29  1  0.68286054  0.68374697  0.15799252  1
  Cu  Cu30  1  0.68309112  0.68406377  0.65801764  1
  Cu  Cu31  1  0.31643131  0.31762356  0.34173460  1
  Cu  Cu32  1  0.31616791  0.31635406  0.84130543  1
  Cu  Cu33  1  0.31642887  0.68347031  0.34137409  1
  Cu  Cu34  1  0.31611129  0.68371195  0.84130464  1
  Cu  Cu35  1  0.68288736  0.31706319  0.15772096  1
  Cu  Cu36  1  0.68313023  0.31590307  0.65808774  1
  Cu  Cu37  1  0.31711290  0.31706322  0.15772097  1
  Cu  Cu38  1  0.31686977  0.31590315  0.65808782  1
  Cu  Cu39  1  0.68357130  0.68347033  0.34137393  1
  Cu  Cu40  1  0.68388851  0.68371192  0.84130472  1
  Cu  Cu41  1  0.18376322  0.18355652  0.40885773  1
  Cu  Cu42  1  0.18334188  0.18369484  0.90851279  1
  Cu  Cu43  1  0.81657896  0.81642887  0.09190306  1
  Cu  Cu44  1  0.81613040  0.81710815  0.59209267  1
  Cu  Cu45  1  0.18342114  0.81642905  0.09190302  1
  Cu  Cu46  1  0.18386975  0.81710802  0.59209260  1
  Cu  Cu47  1  0.81623651  0.18355617  0.40885790  1
  Cu  Cu48  1  0.81665773  0.18369467  0.90851286  1
  Cu  Cu49  1  0.81611721  0.18246973  0.09178650  1
  Cu  Cu50  1  0.81616667  0.18296711  0.59216108  1
  Cu  Cu51  1  0.18318592  0.81565929  0.40866015  1
  Cu  Cu52  1  0.18345377  0.81632510  0.90852292  1
  Cu  Cu53  1  0.81681416  0.81565976  0.40866006  1
  Cu  Cu54  1  0.81654608  0.81632533  0.90852284  1
  Cu  Cu55  1  0.18388312  0.18247003  0.09178638  1
  Cu  Cu56  1  0.18383343  0.18296687  0.59216118  1
  Cu  Cu57  1  0.81591652  0.37816492  0.24987006  1
  Cu  Cu58  1  0.81125453  0.38192657  0.74989907  1
  Cu  Cu59  1  0.61859110  0.50028420  0.40551397  1
  Cu  Cu60  1  0.61859374  0.49996750  0.90508521  1
  Cu  Cu61  1  0.49999985  0.18472539  0.31143850  1
  Cu  Cu62  1  0.50000014  0.18452138  0.81098386  1
  Cu  Cu63  1  0.19001666  0.61620794  0.24985864  1
  Cu  Cu64  1  0.18879520  0.61807000  0.74986568  1
  Cu  Cu65  1  0.38285100  0.50026163  0.09442814  1
  Cu  Cu66  1  0.38268831  0.49988881  0.59493635  1
  Cu  Cu67  1  0.50000005  0.80920576  0.19177567  1
  Cu  Cu68  1  0.49999992  0.80907056  0.69173789  1
  Cu  Cu69  1  0.80998351  0.61620790  0.24985868  1
  Cu  Cu70  1  0.81120446  0.61806981  0.74986570  1
  Cu  Cu71  1  0.61714872  0.50026156  0.09442795  1
  Cu  Cu72  1  0.61731167  0.49988886  0.59493631  1
  Cu  Cu73  1  0.18408365  0.37816524  0.24987009  1
  Cu  Cu74  1  0.18874549  0.38192671  0.74989898  1
  Cu  Cu75  1  0.38140866  0.50028455  0.40551404  1
  Cu  Cu76  1  0.38140655  0.49996757  0.90508517  1
  Cu  Cu77  1  0.49999991  0.81566561  0.31080298  1
  Cu  Cu78  1  0.49999993  0.81566572  0.81100586  1
  Cu  Cu79  1  0.49999992  0.19093686  0.19116027  1
  Cu  Cu80  1  0.49999995  0.19088243  0.69169576  1
  Cu  Cu81  1  0.31581839  0.99989497  0.43916850  1
  Cu  Cu82  1  0.31554164  0.99996085  0.93868414  1
  Cu  Cu83  1  0.11831173  0.31109426  0.00003180  1
  Cu  Cu84  1  0.11822134  0.31114234  0.50023121  1
  Cu  Cu85  1  0.99999979  0.12249353  0.34242514  1
  Cu  Cu86  1  0.00000004  0.11883467  0.84479062  1
  Cu  Cu87  1  0.69055926  0.99971765  0.05804688  1
  Cu  Cu88  1  0.69057516  0.00003597  0.55868274  1
  Cu  Cu89  1  0.88233463  0.68874611  0.99984161  1
  Cu  Cu90  1  0.88237621  0.68871609  0.50047635  1
  Cu  Cu91  1  0.99999989  0.88435868  0.15452220  1
  Cu  Cu92  1  0.00000033  0.88262802  0.65513213  1
  Cu  Cu93  1  0.30944081  0.99971750  0.05804683  1
  Cu  Cu94  1  0.30942527  0.00003588  0.55868288  1
  Cu  Cu95  1  0.11766538  0.68874631  0.99984154  1
  Cu  Cu96  1  0.11762391  0.68871571  0.50047634  1
  Cu  Cu97  1  0.68418172  0.99989509  0.43916843  1
  Cu  Cu98  1  0.68445861  0.99996096  0.93868399  1
  Cu  Cu99  1  0.88168838  0.31109439  0.00003191  1
  Cu  Cu100  1  0.88177840  0.31114224  0.50023126  1
  Cu  Cu101  1  0.99999979  0.12112922  0.15766498  1
  Cu  Cu102  1  0.00000033  0.11748387  0.65525498  1
  Cu  Cu103  1  0.99999992  0.88290069  0.34549463  1
  Cu  Cu104  1  0.00000004  0.88130564  0.84476694  1
  C  C105  1  0.49999982  0.99950014  0.37516063  1
  C  C106  1  0.49999999  0.00006792  0.87492866  1
  C  C107  1  0.00000036  0.25008547  0.24968289  1
