# generated using pymatgen
data_CuNi2C7
_symmetry_space_group_name_H-M   'P 1'
_cell_length_a   6.21166042
_cell_length_b   6.21166042
_cell_length_c   6.21166040
_cell_angle_alpha   60.33716780
_cell_angle_beta   60.33716780
_cell_angle_gamma   60.33716882
_symmetry_Int_Tables_number   1
_chemical_formula_structural   CuNi2C7
_chemical_formula_sum   'Cu1 Ni2 C7'
_cell_volume   170.76873247
_cell_formula_units_Z   1
loop_
 _symmetry_equiv_pos_site_id
 _symmetry_equiv_pos_as_xyz
  1  'x, y, z'
loop_
 _atom_site_type_symbol
 _atom_site_label
 _atom_site_symmetry_multiplicity
 _atom_site_fract_x
 _atom_site_fract_y
 _atom_site_fract_z
 _atom_site_occupancy
  Ni  Ni0  1  0.24987000  0.24987000  0.24987000  1
  Ni  Ni1  1  0.75013000  0.75013000  0.75013000  1
  Cu  Cu2  1  0.50000000  0.50000000  0.50000000  1
  C  C3  1  0.00000000  0.00000000  0.00000000  1
  C  C4  1  0.24836100  0.80088700  0.70195300  1
  C  C5  1  0.70195300  0.24836100  0.80088700  1
  C  C6  1  0.80088700  0.70195300  0.24836100  1
  C  C7  1  0.75163900  0.19911300  0.29804700  1
  C  C8  1  0.29804700  0.75163900  0.19911300  1
  C  C9  1  0.19911300  0.29804700  0.75163900  1
