# generated using pymatgen
data_Cu2Ni9C25
_symmetry_space_group_name_H-M   'P 1'
_cell_length_a   11.43637857
_cell_length_b   11.43637857
_cell_length_c   11.43637857
_cell_angle_alpha   91.74012972
_cell_angle_beta   91.74012972
_cell_angle_gamma   159.92887944
_symmetry_Int_Tables_number   1
_chemical_formula_structural   Cu2Ni9C25
_chemical_formula_sum   'Cu2 Ni9 C25'
_cell_volume   505.47463484
_cell_formula_units_Z   1
loop_
 _symmetry_equiv_pos_site_id
 _symmetry_equiv_pos_as_xyz
  1  'x, y, z'
loop_
 _atom_site_type_symbol
 _atom_site_label
 _atom_site_symmetry_multiplicity
 _atom_site_fract_x
 _atom_site_fract_y
 _atom_site_fract_z
 _atom_site_occupancy
  Ni  Ni0  1  0.00000000  0.00000000  0.00000000  1
  Ni  Ni1  1  0.22248000  0.90108800  0.12356800  1
  Ni  Ni2  1  0.77752000  0.09891200  0.87643200  1
  Ni  Ni3  1  0.90108800  0.77752000  0.67860700  1
  Ni  Ni4  1  0.09891200  0.22248000  0.32139300  1
  Ni  Ni5  1  0.12525800  0.68007700  0.80533500  1
  Ni  Ni6  1  0.87474200  0.31992300  0.19466500  1
  Ni  Ni7  1  0.68007700  0.87474200  0.55481800  1
  Ni  Ni8  1  0.31992300  0.12525800  0.44518200  1
  Cu  Cu9  1  0.75000000  0.25000000  0.50000000  1
  Cu  Cu10  1  0.25000000  0.75000000  0.50000000  1
  C  C11  1  0.34992000  0.83775100  0.18767000  1
  C  C12  1  0.65008000  0.16224900  0.81233000  1
  C  C13  1  0.83775100  0.65008000  0.48783100  1
  C  C14  1  0.16224900  0.34992000  0.51216900  1
  C  C15  1  0.25075600  0.61211500  0.86287100  1
  C  C16  1  0.74924400  0.38788500  0.13712900  1
  C  C17  1  0.61211500  0.74924400  0.36135900  1
  C  C18  1  0.38788500  0.25075600  0.63864100  1
  C  C19  1  0.17824900  0.78726300  0.96551200  1
  C  C20  1  0.82175100  0.21273700  0.03448800  1
  C  C21  1  0.78726300  0.82175100  0.60901300  1
  C  C22  1  0.21273700  0.17824900  0.39098700  1
  C  C23  1  0.08408700  0.56012100  0.64420800  1
  C  C24  1  0.91591300  0.43987900  0.35579200  1
  C  C25  1  0.56012100  0.91591300  0.47603400  1
  C  C26  1  0.43987900  0.08408700  0.52396600  1
  C  C27  1  0.50000000  0.50000000  0.00000000  1
  C  C28  1  0.11653500  0.94961400  0.06615000  1
  C  C29  1  0.88346500  0.05038600  0.93385000  1
  C  C30  1  0.94961400  0.88346500  0.83307900  1
  C  C31  1  0.05038600  0.11653500  0.16692100  1
  C  C32  1  0.01482700  0.72026800  0.73509500  1
  C  C33  1  0.98517300  0.27973200  0.26490500  1
  C  C34  1  0.72026800  0.98517300  0.70544100  1
  C  C35  1  0.27973200  0.01482700  0.29455900  1
