# generated using pymatgen
data_CuNiC7
_symmetry_space_group_name_H-M   'P 1'
_cell_length_a   5.55492700
_cell_length_b   5.55492700
_cell_length_c   7.65796200
_cell_angle_alpha   90.00000000
_cell_angle_beta   90.00000000
_cell_angle_gamma   90.00000000
_symmetry_Int_Tables_number   1
_chemical_formula_structural   CuNiC7
_chemical_formula_sum   'Cu2 Ni2 C14'
_cell_volume   236.30337205
_cell_formula_units_Z   2
loop_
 _symmetry_equiv_pos_site_id
 _symmetry_equiv_pos_as_xyz
  1  'x, y, z'
loop_
 _atom_site_type_symbol
 _atom_site_label
 _atom_site_symmetry_multiplicity
 _atom_site_fract_x
 _atom_site_fract_y
 _atom_site_fract_z
 _atom_site_occupancy
  C  C0  1  0.50000000  0.50000000  0.51241100  1
  C  C1  1  0.00000000  0.00000000  0.51241100  1
  C  C2  1  0.50000000  0.50000000  0.00475200  1
  C  C3  1  0.00000000  0.00000000  0.00475200  1
  Ni  Ni4  1  0.00000000  0.50000000  0.78398300  1
  Ni  Ni5  1  0.50000000  0.00000000  0.78398300  1
  Cu  Cu6  1  0.50000000  0.00000000  0.26387600  1
  Cu  Cu7  1  0.00000000  0.50000000  0.26387600  1
  C  C8  1  0.34484700  0.15515300  0.17612700  1
  C  C9  1  0.15515300  0.65515300  0.17612700  1
  C  C10  1  0.00000000  0.50000000  0.44607100  1
  C  C11  1  0.50000000  0.00000000  0.44607100  1
  C  C12  1  0.84484700  0.34484700  0.17612700  1
  C  C13  1  0.65515300  0.84484700  0.17612700  1
  C  C14  1  0.25241600  0.75241600  0.79902600  1
  C  C15  1  0.24758400  0.25241600  0.79902600  1
  C  C16  1  0.75241600  0.74758400  0.79902600  1
  C  C17  1  0.74758400  0.24758400  0.79902600  1
