# generated using pymatgen
data_Cu22Ni4C31
_symmetry_space_group_name_H-M   'P 1'
_cell_length_a   14.95351200
_cell_length_b   8.70498600
_cell_length_c   8.98164631
_cell_angle_alpha   85.69904941
_cell_angle_beta   90.00000000
_cell_angle_gamma   90.00000000
_symmetry_Int_Tables_number   1
_chemical_formula_structural   Cu22Ni4C31
_chemical_formula_sum   'Cu44 Ni8 C62'
_cell_volume   1165.84947859
_cell_formula_units_Z   2
loop_
 _symmetry_equiv_pos_site_id
 _symmetry_equiv_pos_as_xyz
  1  'x, y, z'
loop_
 _atom_site_type_symbol
 _atom_site_label
 _atom_site_symmetry_multiplicity
 _atom_site_fract_x
 _atom_site_fract_y
 _atom_site_fract_z
 _atom_site_occupancy
  C  C0  1  0.00000000  0.00000000  0.00000000  1
  C  C1  1  0.50000000  0.00000000  0.50000000  1
  C  C2  1  0.33851600  0.85250100  0.30359500  1
  C  C3  1  0.83851600  0.14749900  0.19640500  1
  C  C4  1  0.66148400  0.14749900  0.69640500  1
  C  C5  1  0.16148400  0.85250100  0.80359500  1
  C  C6  1  0.33835500  0.52290700  0.25286700  1
  C  C7  1  0.83835500  0.47709300  0.24713300  1
  C  C8  1  0.66164500  0.47709300  0.74713300  1
  C  C9  1  0.16164500  0.52290700  0.75286700  1
  C  C10  1  0.45290100  0.74028000  0.06760700  1
  C  C11  1  0.95290100  0.25972000  0.43239300  1
  C  C12  1  0.54709900  0.25972000  0.93239300  1
  C  C13  1  0.04709900  0.74028000  0.56760700  1
  C  C14  1  0.42900600  0.26613400  0.36160400  1
  C  C15  1  0.92900600  0.73386600  0.13839600  1
  C  C16  1  0.57099400  0.73386600  0.63839600  1
  C  C17  1  0.07099400  0.26613400  0.86160400  1
  C  C18  1  0.48354900  0.17762500  0.24275500  1
  C  C19  1  0.98354900  0.82237500  0.25724500  1
  C  C20  1  0.51645100  0.82237500  0.75724500  1
  C  C21  1  0.01645100  0.17762500  0.74275500  1
  C  C22  1  0.13645800  0.00997500  0.20060400  1
  C  C23  1  0.63645800  0.99002500  0.29939600  1
  C  C24  1  0.86354200  0.99002500  0.79939600  1
  C  C25  1  0.36354200  0.00997500  0.70060400  1
  C  C26  1  0.07033900  0.14814600  0.22643400  1
  C  C27  1  0.57033900  0.85185400  0.27356600  1
  C  C28  1  0.92966100  0.85185400  0.77356600  1
  C  C29  1  0.42966100  0.14814600  0.72643400  1
  C  C30  1  0.15801400  0.51242100  0.18311700  1
  C  C31  1  0.65801400  0.48757900  0.31688300  1
  C  C32  1  0.84198600  0.48757900  0.81688300  1
  C  C33  1  0.34198600  0.51242100  0.68311700  1
  C  C34  1  0.10088800  0.65277900  0.07997200  1
  C  C35  1  0.60088800  0.34722100  0.42002800  1
  C  C36  1  0.89911200  0.34722100  0.92002800  1
  C  C37  1  0.39911200  0.65277900  0.57997200  1
  C  C38  1  0.09269200  0.64275400  0.26787400  1
  C  C39  1  0.59269200  0.35724600  0.23212600  1
  C  C40  1  0.90730800  0.35724600  0.73212600  1
  C  C41  1  0.40730800  0.64275400  0.76787400  1
  C  C42  1  0.04388600  0.50947500  0.16936700  1
  C  C43  1  0.54388600  0.49052500  0.33063300  1
  C  C44  1  0.95611400  0.49052500  0.83063300  1
  C  C45  1  0.45611400  0.50947500  0.66936700  1
  C  C46  1  0.23659700  0.27749000  0.54080100  1
  C  C47  1  0.73659700  0.72251000  0.95919900  1
  C  C48  1  0.76340300  0.72251000  0.45919900  1
  C  C49  1  0.26340300  0.27749000  0.04080100  1
  C  C50  1  0.24410000  0.12502000  0.42700600  1
  C  C51  1  0.74410000  0.87498000  0.07299400  1
  C  C52  1  0.75590000  0.87498000  0.57299400  1
  C  C53  1  0.25590000  0.12502000  0.92700600  1
  C  C54  1  0.14429700  0.20784900  0.46114300  1
  C  C55  1  0.64429700  0.79215100  0.03885700  1
  C  C56  1  0.85570300  0.79215100  0.53885700  1
  C  C57  1  0.35570300  0.20784900  0.96114300  1
  C  C58  1  0.20111700  0.10274300  0.60008800  1
  C  C59  1  0.70111700  0.89725700  0.89991200  1
  C  C60  1  0.79888300  0.89725700  0.39991200  1
  C  C61  1  0.29888300  0.10274300  0.10008800  1
  Ni  Ni62  1  0.09937500  0.57851500  0.17530200  1
  Ni  Ni63  1  0.59937500  0.42148500  0.32469800  1
  Ni  Ni64  1  0.90062500  0.42148500  0.82469800  1
  Ni  Ni65  1  0.40062500  0.57851500  0.67530200  1
  Ni  Ni66  1  0.20692200  0.17856300  0.50630400  1
  Ni  Ni67  1  0.70692200  0.82143700  0.99369600  1
  Ni  Ni68  1  0.79307800  0.82143700  0.49369600  1
  Ni  Ni69  1  0.29307800  0.17856300  0.00630400  1
  Cu  Cu70  1  0.29296000  0.68309900  0.30094700  1
  Cu  Cu71  1  0.79296000  0.31690100  0.19905300  1
  Cu  Cu72  1  0.70704000  0.31690100  0.69905300  1
  Cu  Cu73  1  0.20704000  0.68309900  0.80094700  1
  Cu  Cu74  1  0.39085000  0.86718200  0.14337900  1
  Cu  Cu75  1  0.89085000  0.13281800  0.35662100  1
  Cu  Cu76  1  0.60915000  0.13281800  0.85662100  1
  Cu  Cu77  1  0.10915000  0.86718200  0.64337900  1
  Cu  Cu78  1  0.26640100  0.97262500  0.29133100  1
  Cu  Cu79  1  0.76640100  0.02737500  0.20866900  1
  Cu  Cu80  1  0.73359900  0.02737500  0.70866900  1
  Cu  Cu81  1  0.23359900  0.97262500  0.79133100  1
  Cu  Cu82  1  0.40386400  0.84443200  0.43119300  1
  Cu  Cu83  1  0.90386400  0.15556800  0.06880700  1
  Cu  Cu84  1  0.59613600  0.15556800  0.56880700  1
  Cu  Cu85  1  0.09613600  0.84443200  0.93119300  1
  Cu  Cu86  1  0.39676600  0.58317200  0.10621500  1
  Cu  Cu87  1  0.89676600  0.41682800  0.39378500  1
  Cu  Cu88  1  0.60323400  0.41682800  0.89378500  1
  Cu  Cu89  1  0.10323400  0.58317200  0.60621500  1
  Cu  Cu90  1  0.26325200  0.42604900  0.20111000  1
  Cu  Cu91  1  0.76325200  0.57395100  0.29889000  1
  Cu  Cu92  1  0.73674800  0.57395100  0.79889000  1
  Cu  Cu93  1  0.23674800  0.42604900  0.70111000  1
  Cu  Cu94  1  0.40104600  0.45843200  0.37212100  1
  Cu  Cu95  1  0.90104600  0.54156800  0.12787900  1
  Cu  Cu96  1  0.59895400  0.54156800  0.62787900  1
  Cu  Cu97  1  0.09895400  0.45843200  0.87212100  1
  Cu  Cu98  1  0.04270100  0.26731500  0.35573000  1
  Cu  Cu99  1  0.54270100  0.73268500  0.14427000  1
  Cu  Cu100  1  0.95729900  0.73268500  0.64427000  1
  Cu  Cu101  1  0.45729900  0.26731500  0.85573000  1
  Cu  Cu102  1  0.05043000  0.77229800  0.40185000  1
  Cu  Cu103  1  0.55043000  0.22770200  0.09815000  1
  Cu  Cu104  1  0.94957000  0.22770200  0.59815000  1
  Cu  Cu105  1  0.44957000  0.77229800  0.90185000  1
  Cu  Cu106  1  0.45146500  0.16268600  0.33970500  1
  Cu  Cu107  1  0.95146500  0.83731400  0.16029500  1
  Cu  Cu108  1  0.54853500  0.83731400  0.66029500  1
  Cu  Cu109  1  0.04853500  0.16268600  0.83970500  1
  Cu  Cu110  1  0.09186300  0.07819800  0.15071900  1
  Cu  Cu111  1  0.59186300  0.92180200  0.34928100  1
  Cu  Cu112  1  0.90813700  0.92180200  0.84928100  1
  Cu  Cu113  1  0.40813700  0.07819800  0.65071900  1
