# generated using pymatgen
data_CuNiC7
_symmetry_space_group_name_H-M   'P 1'
_cell_length_a   6.86211300
_cell_length_b   7.19376900
_cell_length_c   10.21936700
_cell_angle_alpha   90.00000000
_cell_angle_beta   90.00000000
_cell_angle_gamma   90.00000000
_symmetry_Int_Tables_number   1
_chemical_formula_structural   CuNiC7
_chemical_formula_sum   'Cu4 Ni4 C28'
_cell_volume   504.47349031
_cell_formula_units_Z   4
loop_
 _symmetry_equiv_pos_site_id
 _symmetry_equiv_pos_as_xyz
  1  'x, y, z'
loop_
 _atom_site_type_symbol
 _atom_site_label
 _atom_site_symmetry_multiplicity
 _atom_site_fract_x
 _atom_site_fract_y
 _atom_site_fract_z
 _atom_site_occupancy
  C  C0  1  0.01315000  0.25000000  0.62887700  1
  C  C1  1  0.98685000  0.75000000  0.37112300  1
  C  C2  1  0.48685000  0.75000000  0.12887700  1
  C  C3  1  0.51315000  0.25000000  0.87112300  1
  Ni  Ni4  1  0.00000000  0.00000000  0.00000000  1
  Ni  Ni5  1  0.50000000  0.00000000  0.50000000  1
  Ni  Ni6  1  0.00000000  0.50000000  0.00000000  1
  Ni  Ni7  1  0.50000000  0.50000000  0.50000000  1
  Cu  Cu8  1  0.21053700  0.25000000  0.25570900  1
  Cu  Cu9  1  0.78946300  0.75000000  0.74429100  1
  Cu  Cu10  1  0.28946300  0.75000000  0.75570900  1
  Cu  Cu11  1  0.71053700  0.25000000  0.24429100  1
  C  C12  1  0.28169200  0.04991900  0.40713500  1
  C  C13  1  0.71830800  0.95008100  0.59286500  1
  C  C14  1  0.21830800  0.95008100  0.90713500  1
  C  C15  1  0.71830800  0.54991900  0.59286500  1
  C  C16  1  0.78169200  0.04991900  0.09286500  1
  C  C17  1  0.28169200  0.45008100  0.40713500  1
  C  C18  1  0.78169200  0.45008100  0.09286500  1
  C  C19  1  0.21830800  0.54991900  0.90713500  1
  C  C20  1  0.54799300  0.25000000  0.52540900  1
  C  C21  1  0.45200700  0.75000000  0.47459100  1
  C  C22  1  0.95200700  0.75000000  0.02540900  1
  C  C23  1  0.04799300  0.25000000  0.97459100  1
  C  C24  1  0.14504600  0.49641700  0.14930700  1
  C  C25  1  0.85495400  0.50358300  0.85069300  1
  C  C26  1  0.35495400  0.50358300  0.64930700  1
  C  C27  1  0.85495400  0.99641700  0.85069300  1
  C  C28  1  0.64504600  0.49641700  0.35069300  1
  C  C29  1  0.14504600  0.00358300  0.14930700  1
  C  C30  1  0.64504600  0.00358300  0.35069300  1
  C  C31  1  0.35495400  0.99641700  0.64930700  1
  C  C32  1  0.45579900  0.25000000  0.16943600  1
  C  C33  1  0.54420100  0.75000000  0.83056400  1
  C  C34  1  0.04420100  0.75000000  0.66943600  1
  C  C35  1  0.95579900  0.25000000  0.33056400  1
