# generated using pymatgen
data_CuNiC10
_symmetry_space_group_name_H-M   'P 1'
_cell_length_a   9.84769500
_cell_length_b   9.84769522
_cell_length_c   6.25245900
_cell_angle_alpha   90.00000000
_cell_angle_beta   90.00000000
_cell_angle_gamma   120.00000263
_symmetry_Int_Tables_number   1
_chemical_formula_structural   CuNiC10
_chemical_formula_sum   'Cu2 Ni2 C20'
_cell_volume   525.11044973
_cell_formula_units_Z   2
loop_
 _symmetry_equiv_pos_site_id
 _symmetry_equiv_pos_as_xyz
  1  'x, y, z'
loop_
 _atom_site_type_symbol
 _atom_site_label
 _atom_site_symmetry_multiplicity
 _atom_site_fract_x
 _atom_site_fract_y
 _atom_site_fract_z
 _atom_site_occupancy
  C  C0  1  0.76633700  0.14715300  0.21979600  1
  C  C1  1  0.38081600  0.23366300  0.21979600  1
  C  C2  1  0.85284700  0.61918400  0.21979600  1
  C  C3  1  0.23366300  0.85284700  0.71979600  1
  C  C4  1  0.61918400  0.76633700  0.71979600  1
  C  C5  1  0.14715300  0.38081600  0.71979600  1
  Ni  Ni6  1  0.66666700  0.33333300  0.64269300  1
  Ni  Ni7  1  0.33333300  0.66666700  0.14269300  1
  Cu  Cu8  1  0.00000000  0.00000000  0.02344700  1
  Cu  Cu9  1  0.00000000  0.00000000  0.52344700  1
  C  C10  1  0.84979600  0.10803400  0.79646400  1
  C  C11  1  0.25823800  0.15020400  0.79646400  1
  C  C12  1  0.89196600  0.74176200  0.79646400  1
  C  C13  1  0.15020400  0.89196600  0.29646400  1
  C  C14  1  0.74176200  0.84979600  0.29646400  1
  C  C15  1  0.10803400  0.25823800  0.29646400  1
  C  C16  1  0.90327500  0.42340500  0.48682400  1
  C  C17  1  0.52013000  0.09672500  0.48682400  1
  C  C18  1  0.57659500  0.47987000  0.48682400  1
  C  C19  1  0.09672500  0.57659500  0.98682400  1
  C  C20  1  0.47987000  0.90327500  0.98682400  1
  C  C21  1  0.42340500  0.52013000  0.98682400  1
  C  C22  1  0.66666700  0.33333300  0.00661700  1
  C  C23  1  0.33333300  0.66666700  0.50661700  1
