# generated using pymatgen
data_Cu4NiC
_symmetry_space_group_name_H-M   'P 1'
_cell_length_a   5.41168500
_cell_length_b   9.25674100
_cell_length_c   9.00321200
_cell_angle_alpha   90.00000000
_cell_angle_beta   90.00000000
_cell_angle_gamma   90.00000000
_symmetry_Int_Tables_number   1
_chemical_formula_structural   Cu4NiC
_chemical_formula_sum   'Cu16 Ni4 C4'
_cell_volume   451.01200151
_cell_formula_units_Z   4
loop_
 _symmetry_equiv_pos_site_id
 _symmetry_equiv_pos_as_xyz
  1  'x, y, z'
loop_
 _atom_site_type_symbol
 _atom_site_label
 _atom_site_symmetry_multiplicity
 _atom_site_fract_x
 _atom_site_fract_y
 _atom_site_fract_z
 _atom_site_occupancy
  C  C0  1  0.25000000  0.31229100  0.97882800  1
  C  C1  1  0.25000000  0.18770900  0.47882800  1
  C  C2  1  0.75000000  0.68770900  0.02117200  1
  C  C3  1  0.75000000  0.81229100  0.52117200  1
  Ni  Ni4  1  0.25000000  0.74387300  0.01610200  1
  Ni  Ni5  1  0.25000000  0.75612700  0.51610200  1
  Ni  Ni6  1  0.75000000  0.25612700  0.98389800  1
  Ni  Ni7  1  0.75000000  0.24387300  0.48389800  1
  Cu  Cu8  1  0.25000000  0.39125100  0.81928000  1
  Cu  Cu9  1  0.25000000  0.10874900  0.31928000  1
  Cu  Cu10  1  0.75000000  0.60874900  0.18072000  1
  Cu  Cu11  1  0.75000000  0.89125100  0.68072000  1
  Cu  Cu12  1  0.25000000  0.39133100  0.13841900  1
  Cu  Cu13  1  0.25000000  0.10866900  0.63841900  1
  Cu  Cu14  1  0.75000000  0.60866900  0.86158100  1
  Cu  Cu15  1  0.75000000  0.89133100  0.36158100  1
  Cu  Cu16  1  0.94553500  0.17958800  0.97652700  1
  Cu  Cu17  1  0.55446500  0.32041200  0.47652700  1
  Cu  Cu18  1  0.44553500  0.82041200  0.02347300  1
  Cu  Cu19  1  0.05446500  0.67958800  0.52347300  1
  Cu  Cu20  1  0.05446500  0.82041200  0.02347300  1
  Cu  Cu21  1  0.44553500  0.67958800  0.52347300  1
  Cu  Cu22  1  0.55446500  0.17958800  0.97652700  1
  Cu  Cu23  1  0.94553500  0.32041200  0.47652700  1
