# generated using pymatgen
data_CuNiC29
_symmetry_space_group_name_H-M   'P 1'
_cell_length_a   8.60222017
_cell_length_b   8.94134231
_cell_length_c   4.48366134
_cell_angle_alpha   90.00000000
_cell_angle_beta   90.00000000
_cell_angle_gamma   90.00000000
_symmetry_Int_Tables_number   1
_chemical_formula_structural   CuNiC29
_chemical_formula_sum   'Cu1 Ni1 C29'
_cell_volume   344.86258376
_cell_formula_units_Z   1
loop_
 _symmetry_equiv_pos_site_id
 _symmetry_equiv_pos_as_xyz
  1  'x, y, z'
loop_
 _atom_site_type_symbol
 _atom_site_label
 _atom_site_symmetry_multiplicity
 _atom_site_fract_x
 _atom_site_fract_y
 _atom_site_fract_z
 _atom_site_occupancy
  Ni  Ni0  1  0.98240346  0.00000000  0.00000000  1
  Cu  Cu1  1  0.11046381  0.50000000  0.00000000  1
  C  C2  1  0.49605633  0.00000000  0.00000000  1
  C  C3  1  0.51880929  0.50000000  0.00000000  1
  C  C4  1  0.99584299  0.24907530  0.50000000  1
  C  C5  1  0.99584299  0.75092470  0.50000000  1
  C  C6  1  0.49590273  0.25458866  0.50000000  1
  C  C7  1  0.49590273  0.74541134  0.50000000  1
  C  C8  1  0.24666577  0.00000000  0.50000000  1
  C  C9  1  0.25341632  0.50000000  0.50000000  1
  C  C10  1  0.74018933  0.00000000  0.50000000  1
  C  C11  1  0.76921320  0.50000000  0.50000000  1
  C  C12  1  0.24065809  0.21592188  -0.00000000  1
  C  C13  1  0.24065809  0.78407812  0.00000000  1
  C  C14  1  0.75852853  0.26137606  0.00000000  1
  C  C15  1  0.75852853  0.73862394  0.00000000  1
  C  C16  1  0.27116559  0.00000000  0.00000000  1
  C  C17  1  0.71443843  0.00000000  0.00000000  1
  C  C18  1  0.74174744  0.50000000  0.00000000  1
  C  C19  1  0.24638269  0.26040017  0.50000000  1
  C  C20  1  0.24638269  0.73959983  0.50000000  1
  C  C21  1  0.74403216  0.25252732  0.50000000  1
  C  C22  1  0.74403216  0.74747268  0.50000000  1
  C  C23  1  0.01136380  0.00000000  0.50000000  1
  C  C24  1  0.00443741  0.50000000  0.50000000  1
  C  C25  1  0.49002401  0.00000000  0.50000000  1
  C  C26  1  0.48418166  0.50000000  0.50000000  1
  C  C27  1  0.99921568  0.25899667  0.00000000  1
  C  C28  1  0.99921568  0.74100333  -0.00000000  1
  C  C29  1  0.47714920  0.27025139  0.00000000  1
  C  C30  1  0.47714920  0.72974861  0.00000000  1
