# generated using pymatgen
data_Cu2Ni2C13
_symmetry_space_group_name_H-M   'P 1'
_cell_length_a   5.41662700
_cell_length_b   5.62016600
_cell_length_c   15.34794323
_cell_angle_alpha   69.87775092
_cell_angle_beta   90.00000000
_cell_angle_gamma   90.00000000
_symmetry_Int_Tables_number   1
_chemical_formula_structural   Cu2Ni2C13
_chemical_formula_sum   'Cu4 Ni4 C26'
_cell_volume   438.70813484
_cell_formula_units_Z   2
loop_
 _symmetry_equiv_pos_site_id
 _symmetry_equiv_pos_as_xyz
  1  'x, y, z'
loop_
 _atom_site_type_symbol
 _atom_site_label
 _atom_site_symmetry_multiplicity
 _atom_site_fract_x
 _atom_site_fract_y
 _atom_site_fract_z
 _atom_site_occupancy
  C  C0  1  0.26566200  0.57320900  0.88891700  1
  C  C1  1  0.76410000  0.42507700  0.60947200  1
  C  C2  1  0.23972600  0.12277200  0.40407300  1
  C  C3  1  0.23590000  0.42507700  0.10947200  1
  C  C4  1  0.73433800  0.57320900  0.38891700  1
  C  C5  1  0.76027400  0.12277200  0.90407300  1
  Ni  Ni6  1  0.25542500  0.99237600  0.00581200  1
  Ni  Ni7  1  0.74457500  0.99237600  0.50581200  1
  Ni  Ni8  1  0.75303800  0.50072900  0.00608200  1
  Ni  Ni9  1  0.24696200  0.50072900  0.50608200  1
  Cu  Cu10  1  0.30469000  0.16680900  0.74722600  1
  Cu  Cu11  1  0.80845800  0.82368400  0.74856800  1
  Cu  Cu12  1  0.69531000  0.16680900  0.24722600  1
  Cu  Cu13  1  0.19154200  0.82368400  0.24856800  1
  C  C14  1  0.01130500  0.25990800  0.00771900  1
  C  C15  1  0.50282000  0.76899400  0.48017300  1
  C  C16  1  0.01250000  0.76042700  0.97983000  1
  C  C17  1  0.51083100  0.25804800  0.51152200  1
  C  C18  1  0.49718000  0.76899400  0.98017300  1
  C  C19  1  0.98869500  0.25990800  0.50771900  1
  C  C20  1  0.48916900  0.25804800  0.01152200  1
  C  C21  1  0.98750000  0.76042700  0.47983000  1
  C  C22  1  0.23462300  0.18987800  0.86471800  1
  C  C23  1  0.73312200  0.80179300  0.63373900  1
  C  C24  1  0.77626300  0.42309500  0.13574800  1
  C  C25  1  0.27153300  0.57092500  0.36249700  1
  C  C26  1  0.26687800  0.80179300  0.13373900  1
  C  C27  1  0.76537700  0.18987800  0.36471800  1
  C  C28  1  0.72846700  0.57092500  0.86249700  1
  C  C29  1  0.22373700  0.42309500  0.63574800  1
  C  C30  1  0.15337600  0.86293800  0.75337400  1
  C  C31  1  0.66289500  0.13463000  0.75198100  1
  C  C32  1  0.84662400  0.86293800  0.25337400  1
  C  C33  1  0.33710500  0.13463000  0.25198100  1
