# generated using pymatgen
data_CuNiC10
_symmetry_space_group_name_H-M   'P 1'
_cell_length_a   8.60322800
_cell_length_b   8.60322800
_cell_length_c   10.39135100
_cell_angle_alpha   90.00000000
_cell_angle_beta   90.00000000
_cell_angle_gamma   90.00000000
_symmetry_Int_Tables_number   1
_chemical_formula_structural   CuNiC10
_chemical_formula_sum   'Cu4 Ni4 C40'
_cell_volume   769.12137267
_cell_formula_units_Z   4
loop_
 _symmetry_equiv_pos_site_id
 _symmetry_equiv_pos_as_xyz
  1  'x, y, z'
loop_
 _atom_site_type_symbol
 _atom_site_label
 _atom_site_symmetry_multiplicity
 _atom_site_fract_x
 _atom_site_fract_y
 _atom_site_fract_z
 _atom_site_occupancy
  C  C0  1  0.17516900  0.63796400  0.04734100  1
  C  C1  1  0.36203600  0.17516900  0.29734100  1
  C  C2  1  0.82483100  0.36203600  0.54734100  1
  C  C3  1  0.63796400  0.82483100  0.79734100  1
  C  C4  1  0.36926400  0.58473100  0.28900200  1
  C  C5  1  0.32084800  0.89647200  0.58893200  1
  C  C6  1  0.63073600  0.41526900  0.78900200  1
  C  C7  1  0.67915200  0.10352800  0.08893200  1
  C  C8  1  0.89647200  0.67915200  0.33893200  1
  C  C9  1  0.41526900  0.36926400  0.53900200  1
  C  C10  1  0.58473100  0.63073600  0.03900200  1
  C  C11  1  0.10352800  0.32084800  0.83893200  1
  Ni  Ni12  1  0.75400800  0.15067900  0.28773600  1
  Ni  Ni13  1  0.15067900  0.24599200  0.03773600  1
  Ni  Ni14  1  0.24599200  0.84932100  0.78773600  1
  Ni  Ni15  1  0.84932100  0.75400800  0.53773600  1
  Cu  Cu16  1  0.93042800  0.12180500  0.78697700  1
  Cu  Cu17  1  0.12180500  0.06957200  0.53697700  1
  Cu  Cu18  1  0.87819500  0.93042800  0.03697700  1
  Cu  Cu19  1  0.06957200  0.87819500  0.28697700  1
  C  C20  1  0.38776700  0.42400900  0.35573800  1
  C  C21  1  0.13630700  0.37432800  0.14068300  1
  C  C22  1  0.74630400  0.97806100  0.99153800  1
  C  C23  1  0.57599100  0.38776700  0.60573800  1
  C  C24  1  0.17647800  0.69090600  0.81069200  1
  C  C25  1  0.42400900  0.61223300  0.10573800  1
  C  C26  1  0.82917400  0.05835600  0.71727400  1
  C  C27  1  0.82502800  0.63864100  0.41084000  1
  C  C28  1  0.94164400  0.82917400  0.96727400  1
  C  C29  1  0.36135900  0.82502800  0.66084000  1
  C  C30  1  0.30909400  0.17647800  0.06069200  1
  C  C31  1  0.32187200  0.36479100  0.47715700  1
  C  C32  1  0.69090600  0.82352200  0.56069200  1
  C  C33  1  0.61223300  0.57599100  0.85573800  1
  C  C34  1  0.36479100  0.67812800  0.22715700  1
  C  C35  1  0.62567200  0.13630700  0.39068300  1
  C  C36  1  0.97806100  0.25369600  0.74153800  1
  C  C37  1  0.05835600  0.17082600  0.46727400  1
  C  C38  1  0.63864100  0.17497200  0.16084000  1
  C  C39  1  0.67812800  0.63520900  0.97715700  1
  C  C40  1  0.25369600  0.02193900  0.49153800  1
  C  C41  1  0.37432800  0.86369300  0.89068300  1
  C  C42  1  0.86369300  0.62567200  0.64068300  1
  C  C43  1  0.17497200  0.36135900  0.91084000  1
  C  C44  1  0.02193900  0.74630400  0.24153800  1
  C  C45  1  0.63520900  0.32187200  0.72715700  1
  C  C46  1  0.82352200  0.30909400  0.31069200  1
  C  C47  1  0.17082600  0.94164400  0.21727400  1
