# generated using pymatgen
data_Cu18Ni3C
_symmetry_space_group_name_H-M   'P 1'
_cell_length_a   9.31057200
_cell_length_b   10.68979900
_cell_length_c   14.51599930
_cell_angle_alpha   83.96340268
_cell_angle_beta   90.00000000
_cell_angle_gamma   90.00000000
_symmetry_Int_Tables_number   1
_chemical_formula_structural   Cu18Ni3C
_chemical_formula_sum   'Cu72 Ni12 C4'
_cell_volume   1436.73920865
_cell_formula_units_Z   4
loop_
 _symmetry_equiv_pos_site_id
 _symmetry_equiv_pos_as_xyz
  1  'x, y, z'
loop_
 _atom_site_type_symbol
 _atom_site_label
 _atom_site_symmetry_multiplicity
 _atom_site_fract_x
 _atom_site_fract_y
 _atom_site_fract_z
 _atom_site_occupancy
  C  C0  1  0.00000000  0.50000000  0.50000000  1
  C  C1  1  0.50000000  0.00000000  0.50000000  1
  C  C2  1  0.00000000  0.00000000  0.00000000  1
  C  C3  1  0.50000000  0.50000000  0.00000000  1
  Ni  Ni4  1  0.81791700  0.79240600  0.30139400  1
  Ni  Ni5  1  0.18208300  0.20759400  0.69860600  1
  Ni  Ni6  1  0.31791700  0.70759400  0.69860600  1
  Ni  Ni7  1  0.68208300  0.29240600  0.30139400  1
  Ni  Ni8  1  0.20767200  0.71458200  0.22210600  1
  Ni  Ni9  1  0.79232800  0.28541800  0.77789400  1
  Ni  Ni10  1  0.70767200  0.78541800  0.77789400  1
  Ni  Ni11  1  0.29232800  0.21458200  0.22210600  1
  Ni  Ni12  1  0.51711000  0.88403100  0.18220200  1
  Ni  Ni13  1  0.48289000  0.11596900  0.81779800  1
  Ni  Ni14  1  0.01711000  0.61596900  0.81779800  1
  Ni  Ni15  1  0.98289000  0.38403100  0.18220200  1
  Cu  Cu16  1  0.49514400  0.99741400  0.19019700  1
  Cu  Cu17  1  0.50485600  0.00258600  0.80980300  1
  Cu  Cu18  1  0.99514400  0.50258600  0.80980300  1
  Cu  Cu19  1  0.00485600  0.49741400  0.19019700  1
  Cu  Cu20  1  0.84707500  0.65452900  0.03606600  1
  Cu  Cu21  1  0.15292500  0.34547100  0.96393400  1
  Cu  Cu22  1  0.34707500  0.84547100  0.96393400  1
  Cu  Cu23  1  0.65292500  0.15452900  0.03606600  1
  Cu  Cu24  1  0.80106900  0.78401900  0.38759200  1
  Cu  Cu25  1  0.19893100  0.21598100  0.61240800  1
  Cu  Cu26  1  0.30106900  0.71598100  0.61240800  1
  Cu  Cu27  1  0.69893100  0.28401900  0.38759200  1
  Cu  Cu28  1  0.83142300  0.69582000  0.26082200  1
  Cu  Cu29  1  0.16857700  0.30418000  0.73917800  1
  Cu  Cu30  1  0.33142300  0.80418000  0.73917800  1
  Cu  Cu31  1  0.66857700  0.19582000  0.26082200  1
  Cu  Cu32  1  0.47384100  0.50329400  0.41094300  1
  Cu  Cu33  1  0.52615900  0.49670600  0.58905700  1
  Cu  Cu34  1  0.97384100  0.99670600  0.58905700  1
  Cu  Cu35  1  0.02615900  0.00329400  0.41094300  1
  Cu  Cu36  1  0.63294700  0.59830200  0.06114700  1
  Cu  Cu37  1  0.36705300  0.40169800  0.93885300  1
  Cu  Cu38  1  0.13294700  0.90169800  0.93885300  1
  Cu  Cu39  1  0.86705300  0.09830200  0.06114700  1
  Cu  Cu40  1  0.75007700  0.87737100  0.72489000  1
  Cu  Cu41  1  0.24992300  0.12262900  0.27511000  1
  Cu  Cu42  1  0.25007700  0.62262900  0.27511000  1
  Cu  Cu43  1  0.74992300  0.37737100  0.72489000  1
  Cu  Cu44  1  0.55298800  0.85061300  0.10528900  1
  Cu  Cu45  1  0.44701200  0.14938700  0.89471100  1
  Cu  Cu46  1  0.05298800  0.64938700  0.89471100  1
  Cu  Cu47  1  0.94701200  0.35061300  0.10528900  1
  Cu  Cu48  1  0.64776300  0.69410700  0.74654400  1
  Cu  Cu49  1  0.35223700  0.30589300  0.25345600  1
  Cu  Cu50  1  0.14776300  0.80589300  0.25345600  1
  Cu  Cu51  1  0.85223700  0.19410700  0.74654400  1
  Cu  Cu52  1  0.56636100  0.84900300  0.55311200  1
  Cu  Cu53  1  0.43363900  0.15099700  0.44688800  1
  Cu  Cu54  1  0.06636100  0.65099700  0.44688800  1
  Cu  Cu55  1  0.93363900  0.34900300  0.55311200  1
  Cu  Cu56  1  0.91523100  0.84858300  0.05012500  1
  Cu  Cu57  1  0.08476900  0.15141700  0.94987500  1
  Cu  Cu58  1  0.41523100  0.65141700  0.94987500  1
  Cu  Cu59  1  0.58476900  0.34858300  0.05012500  1
  Cu  Cu60  1  0.59238200  0.57149700  0.53706400  1
  Cu  Cu61  1  0.40761800  0.42850300  0.46293600  1
  Cu  Cu62  1  0.09238200  0.92850300  0.46293600  1
  Cu  Cu63  1  0.90761800  0.07149700  0.53706400  1
  Cu  Cu64  1  0.22571800  0.71610900  0.13626100  1
  Cu  Cu65  1  0.77428200  0.28389100  0.86373900  1
  Cu  Cu66  1  0.72571800  0.78389100  0.86373900  1
  Cu  Cu67  1  0.27428200  0.21610900  0.13626100  1
  Cu  Cu68  1  0.83620200  0.51899800  0.42666900  1
  Cu  Cu69  1  0.16379800  0.48100200  0.57333100  1
  Cu  Cu70  1  0.33620200  0.98100200  0.57333100  1
  Cu  Cu71  1  0.66379800  0.01899800  0.42666900  1
  Cu  Cu72  1  0.86606900  0.58258800  0.56811800  1
  Cu  Cu73  1  0.13393100  0.41741200  0.43188200  1
  Cu  Cu74  1  0.36606900  0.91741200  0.43188200  1
  Cu  Cu75  1  0.63393100  0.08258800  0.56811800  1
  Cu  Cu76  1  0.50375000  0.80337400  0.25093900  1
  Cu  Cu77  1  0.49625000  0.19662600  0.74906100  1
  Cu  Cu78  1  0.00375000  0.69662600  0.74906100  1
  Cu  Cu79  1  0.99625000  0.30337400  0.25093900  1
  Cu  Cu80  1  0.82088400  0.89893300  0.25617500  1
  Cu  Cu81  1  0.17911600  0.10106700  0.74382500  1
  Cu  Cu82  1  0.32088400  0.60106700  0.74382500  1
  Cu  Cu83  1  0.67911600  0.39893300  0.25617500  1
  Cu  Cu84  1  0.33983200  0.48424000  0.07459700  1
  Cu  Cu85  1  0.66016800  0.51576000  0.92540300  1
  Cu  Cu86  1  0.83983200  0.01576000  0.92540300  1
  Cu  Cu87  1  0.16016800  0.98424000  0.07459700  1
