# generated using pymatgen
data_Cu6NiC36
_symmetry_space_group_name_H-M   'P 1'
_cell_length_a   6.03901779
_cell_length_b   6.05451688
_cell_length_c   18.66779526
_cell_angle_alpha   60.05607337
_cell_angle_beta   61.21069414
_cell_angle_gamma   59.79997064
_symmetry_Int_Tables_number   1
_chemical_formula_structural   Cu6NiC36
_chemical_formula_sum   'Cu6 Ni1 C36'
_cell_volume   486.35584553
_cell_formula_units_Z   1
loop_
 _symmetry_equiv_pos_site_id
 _symmetry_equiv_pos_as_xyz
  1  'x, y, z'
loop_
 _atom_site_type_symbol
 _atom_site_label
 _atom_site_symmetry_multiplicity
 _atom_site_fract_x
 _atom_site_fract_y
 _atom_site_fract_z
 _atom_site_occupancy
  Ni  Ni0  1  0.00154282  0.01471125  0.82965822  1
  C  C1  1  0.99682954  0.49519212  0.17327667  1
  C  C2  1  0.48802429  0.49446467  0.17313434  1
  C  C3  1  0.00061694  0.50135199  0.49542641  1
  C  C4  1  0.48710509  0.00724954  0.17199531  1
  C  C5  1  0.50071786  0.49801668  0.33444232  1
  C  C6  1  0.50988483  0.50113357  0.49571783  1
  C  C7  1  0.99719491  0.50581983  0.83341286  1
  C  C8  1  0.51229850  0.99196668  0.49542187  1
  C  C9  1  0.50165036  0.01338511  0.82823913  1
  C  C10  1  0.50472448  0.48770305  0.66680800  1
  C  C11  1  0.50010936  0.50499118  0.83307055  1
  C  C12  1  0.85565098  0.82512707  0.98768534  1
  Cu  Cu13  1  0.11710178  0.12636695  0.04487641  1
  Cu  Cu14  1  0.12634225  0.12255907  0.37582420  1
  Cu  Cu15  1  0.49103651  0.50159942  0.00207479  1
  Cu  Cu16  1  0.15150981  0.14616138  0.67780930  1
  Cu  Cu17  1  0.87583870  0.87475150  0.29156451  1
  Cu  Cu18  1  0.88050925  0.86233185  0.62519196  1
  C  C19  1  0.24329277  0.26358860  0.09228270  1
  C  C20  1  0.25709875  0.25366179  0.24472904  1
  C  C21  1  0.24751197  0.72215920  0.09235007  1
  C  C22  1  0.71202107  0.26598719  0.09158143  1
  C  C23  1  0.27611855  0.73280796  0.25144083  1
  C  C24  1  0.26941432  0.25644008  0.41778082  1
  C  C25  1  0.73793187  0.27745884  0.25011239  1
  C  C26  1  0.71245150  0.73557060  0.11205079  1
  C  C27  1  0.25558498  0.71742928  0.42058972  1
  C  C28  1  0.28006863  0.26213969  0.55898594  1
  C  C29  1  0.73413355  0.73414548  0.25212185  1
  C  C30  1  0.72378402  0.26423812  0.41963133  1
  C  C31  1  0.28919993  0.72394318  0.57747482  1
  C  C32  1  0.23585643  0.26527505  0.75211205  1
  C  C33  1  0.75512683  0.27384590  0.57711850  1
  C  C34  1  0.74116061  0.74264129  0.42491684  1
  C  C35  1  0.25773927  0.27800109  0.90396335  1
  C  C36  1  0.24831876  0.74663521  0.75323484  1
  C  C37  1  0.73796046  0.73556710  0.57860819  1
  C  C38  1  0.74490548  0.26138818  0.75166185  1
  C  C39  1  0.26449110  0.76117936  0.90542253  1
  C  C40  1  0.74205323  0.73523473  0.75936170  1
  C  C41  1  0.75877650  0.25527598  0.90862949  1
  C  C42  1  0.76588614  0.76050519  0.90391991  1
