# generated using pymatgen
data_Cu6NiC24
_symmetry_space_group_name_H-M   'P 1'
_cell_length_a   5.70269445
_cell_length_b   5.98852681
_cell_length_c   15.04668128
_cell_angle_alpha   83.50763614
_cell_angle_beta   90.17382868
_cell_angle_gamma   118.80281970
_symmetry_Int_Tables_number   1
_chemical_formula_structural   Cu6NiC24
_chemical_formula_sum   'Cu6 Ni1 C24'
_cell_volume   446.61331480
_cell_formula_units_Z   1
loop_
 _symmetry_equiv_pos_site_id
 _symmetry_equiv_pos_as_xyz
  1  'x, y, z'
loop_
 _atom_site_type_symbol
 _atom_site_label
 _atom_site_symmetry_multiplicity
 _atom_site_fract_x
 _atom_site_fract_y
 _atom_site_fract_z
 _atom_site_occupancy
  C  C0  1  0.00633008  0.99391285  0.75040373  1
  C  C1  1  0.05282168  0.15390650  0.27935184  1
  C  C2  1  0.31080694  0.61863203  0.89960600  1
  C  C3  1  0.34961158  0.68855775  0.59030996  1
  C  C4  1  0.61879092  0.22416338  0.05757864  1
  C  C5  1  0.70182587  0.42026598  0.42384082  1
  Ni  Ni6  1  0.85317325  0.71507300  0.17125819  1
  Cu  Cu7  1  0.94903824  0.89741539  0.99277767  1
  Cu  Cu8  1  0.02592167  0.05194015  0.50478627  1
  Cu  Cu9  1  0.34122069  0.69038717  0.16090619  1
  Cu  Cu10  1  0.37569830  0.76456612  0.34922217  1
  Cu  Cu11  1  0.65278295  0.30511466  0.83754809  1
  Cu  Cu12  1  0.67262810  0.34155401  0.65304089  1
  C  C13  1  0.22340685  0.42230529  0.44131957  1
  C  C14  1  0.58938957  0.67070748  0.06913638  1
  C  C15  1  0.82971415  0.68069543  0.56580967  1
  C  C16  1  0.31807225  0.06529565  0.92300545  1
  C  C17  1  0.06133995  0.66032588  0.07195743  1
  C  C18  1  0.16073839  0.91020628  0.40835534  1
  C  C19  1  0.87120785  0.15876400  0.91201171  1
  C  C20  1  0.88820213  0.18544234  0.59951078  1
  C  C21  1  0.69023816  0.97149143  0.42939046  1
  C  C22  1  0.04444765  0.08799819  0.10111759  1
  C  C23  1  0.35638087  0.13195195  0.57692975  1
  C  C24  1  0.80061603  0.63310080  0.89935360  1
  C  C25  1  0.49566981  0.45838785  0.74200218  1
  C  C26  1  0.55135401  0.61843555  0.26522883  1
  C  C27  1  0.52571027  0.03473172  0.75222255  1
  C  C28  1  0.96324100  0.49038329  0.74330223  1
  C  C29  1  0.49700275  0.01328580  0.23869674  1
  C  C30  1  0.05595005  0.60767206  0.26412628  1
