# generated using pymatgen
data_CuNiC6
_symmetry_space_group_name_H-M   'P 1'
_cell_length_a   7.45381700
_cell_length_b   8.01012700
_cell_length_c   12.01452100
_cell_angle_alpha   90.00000000
_cell_angle_beta   90.00000000
_cell_angle_gamma   90.00000000
_symmetry_Int_Tables_number   1
_chemical_formula_structural   CuNiC6
_chemical_formula_sum   'Cu4 Ni4 C24'
_cell_volume   717.33924079
_cell_formula_units_Z   4
loop_
 _symmetry_equiv_pos_site_id
 _symmetry_equiv_pos_as_xyz
  1  'x, y, z'
loop_
 _atom_site_type_symbol
 _atom_site_label
 _atom_site_symmetry_multiplicity
 _atom_site_fract_x
 _atom_site_fract_y
 _atom_site_fract_z
 _atom_site_occupancy
  Ni  Ni0  1  0.97921500  0.75249500  0.93154900  1
  Ni  Ni1  1  0.52078500  0.24750500  0.43154900  1
  Ni  Ni2  1  0.02078500  0.25249500  0.56845100  1
  Ni  Ni3  1  0.47921500  0.74750500  0.06845100  1
  Cu  Cu4  1  0.02394500  0.75149000  0.57426700  1
  Cu  Cu5  1  0.47605500  0.24851000  0.07426700  1
  Cu  Cu6  1  0.97605500  0.25149000  0.92573300  1
  Cu  Cu7  1  0.52394500  0.74851000  0.42573300  1
  C  C8  1  0.42942300  0.49834200  0.75554100  1
  C  C9  1  0.07057700  0.50165800  0.25554100  1
  C  C10  1  0.57057700  0.99834200  0.74445900  1
  C  C11  1  0.92942300  0.00165800  0.24445900  1
  C  C12  1  0.66468900  0.28910600  0.65163100  1
  C  C13  1  0.83531100  0.71089400  0.15163100  1
  C  C14  1  0.33531100  0.78910600  0.84836900  1
  C  C15  1  0.16468900  0.21089400  0.34836900  1
  C  C16  1  0.33614200  0.20789900  0.85175100  1
  C  C17  1  0.16385800  0.79210100  0.35175100  1
  C  C18  1  0.66385800  0.70789900  0.64824900  1
  C  C19  1  0.83614200  0.29210100  0.14824900  1
  C  C20  1  0.30166200  0.50298000  0.53450500  1
  C  C21  1  0.19833800  0.49702000  0.03450500  1
  C  C22  1  0.69833800  0.00298000  0.96549500  1
  C  C23  1  0.80166200  0.99702000  0.46549500  1
  C  C24  1  0.67149700  0.49448700  0.93661800  1
  C  C25  1  0.82850300  0.50551300  0.43661800  1
  C  C26  1  0.32850300  0.99448700  0.56338200  1
  C  C27  1  0.17149700  0.00551300  0.06338200  1
  C  C28  1  0.04004000  0.50068000  0.75022600  1
  C  C29  1  0.45996000  0.49932000  0.25022600  1
  C  C30  1  0.95996000  0.00068000  0.74977400  1
  C  C31  1  0.54004000  0.99932000  0.24977400  1
