# generated using pymatgen
data_Cu8Ni2C9
_symmetry_space_group_name_H-M   'P 1'
_cell_length_a   12.85151200
_cell_length_b   7.55112100
_cell_length_c   14.96676038
_cell_angle_alpha   76.48533753
_cell_angle_beta   90.00000000
_cell_angle_gamma   90.00000000
_symmetry_Int_Tables_number   1
_chemical_formula_structural   Cu8Ni2C9
_chemical_formula_sum   'Cu16 Ni4 C18'
_cell_volume   1412.20673928
_cell_formula_units_Z   2
loop_
 _symmetry_equiv_pos_site_id
 _symmetry_equiv_pos_as_xyz
  1  'x, y, z'
loop_
 _atom_site_type_symbol
 _atom_site_label
 _atom_site_symmetry_multiplicity
 _atom_site_fract_x
 _atom_site_fract_y
 _atom_site_fract_z
 _atom_site_occupancy
  C  C0  1  0.50000000  0.50000000  0.50000000  1
  C  C1  1  0.00000000  0.50000000  0.00000000  1
  Ni  Ni2  1  0.54833800  0.77583300  0.93562300  1
  Ni  Ni3  1  0.04833800  0.22416700  0.56437700  1
  Ni  Ni4  1  0.45166200  0.22416700  0.06437700  1
  Ni  Ni5  1  0.95166200  0.77583300  0.43562300  1
  Cu  Cu6  1  0.34319400  0.89129700  0.04448500  1
  Cu  Cu7  1  0.84319400  0.10870300  0.45551500  1
  Cu  Cu8  1  0.65680600  0.10870300  0.95551500  1
  Cu  Cu9  1  0.15680600  0.89129700  0.54448500  1
  Cu  Cu10  1  0.63386100  0.52593400  0.09825000  1
  Cu  Cu11  1  0.13386100  0.47406600  0.40175000  1
  Cu  Cu12  1  0.36613900  0.47406600  0.90175000  1
  Cu  Cu13  1  0.86613900  0.52593400  0.59825000  1
  Cu  Cu14  1  0.67080800  0.73008700  0.77848700  1
  Cu  Cu15  1  0.17080800  0.26991300  0.72151300  1
  Cu  Cu16  1  0.32919200  0.26991300  0.22151300  1
  Cu  Cu17  1  0.82919200  0.73008700  0.27848700  1
  Cu  Cu18  1  0.43176300  0.14954600  0.62710200  1
  Cu  Cu19  1  0.93176300  0.85045400  0.87289800  1
  Cu  Cu20  1  0.56823700  0.85045400  0.37289800  1
  Cu  Cu21  1  0.06823700  0.14954600  0.12710200  1
  C  C22  1  0.47853400  0.34935200  0.66364100  1
  C  C23  1  0.97853400  0.65064800  0.83635900  1
  C  C24  1  0.52146600  0.65064800  0.33635900  1
  C  C25  1  0.02146600  0.34935200  0.16364100  1
  C  C26  1  0.62623600  0.72007700  0.47928000  1
  C  C27  1  0.12623600  0.27992300  0.02072000  1
  C  C28  1  0.37376400  0.27992300  0.52072000  1
  C  C29  1  0.87376400  0.72007700  0.97928000  1
  C  C30  1  0.40903600  0.73087700  0.50260500  1
  C  C31  1  0.90903600  0.26912300  0.99739500  1
  C  C32  1  0.59096400  0.26912300  0.49739500  1
  C  C33  1  0.09096400  0.73087700  0.00260500  1
  C  C34  1  0.57211400  0.11051300  0.56552000  1
  C  C35  1  0.07211400  0.88948700  0.93448000  1
  C  C36  1  0.42788600  0.88948700  0.43448000  1
  C  C37  1  0.92788600  0.11051300  0.06552000  1
