# generated using pymatgen
data_Cu(NiC19)2
_symmetry_space_group_name_H-M   'P 1'
_cell_length_a   7.27385096
_cell_length_b   7.27385096
_cell_length_c   11.81045200
_cell_angle_alpha   75.99939410
_cell_angle_beta   75.99939410
_cell_angle_gamma   85.71101656
_symmetry_Int_Tables_number   1
_chemical_formula_structural   Cu(NiC19)2
_chemical_formula_sum   'Cu1 Ni2 C38'
_cell_volume   588.21556736
_cell_formula_units_Z   1
loop_
 _symmetry_equiv_pos_site_id
 _symmetry_equiv_pos_as_xyz
  1  'x, y, z'
loop_
 _atom_site_type_symbol
 _atom_site_label
 _atom_site_symmetry_multiplicity
 _atom_site_fract_x
 _atom_site_fract_y
 _atom_site_fract_z
 _atom_site_occupancy
  C  C0  1  0.00219500  0.49943600  0.99879300  1
  C  C1  1  0.50056400  0.99780500  0.00120700  1
  C  C2  1  0.81800300  0.82357900  0.45387100  1
  C  C3  1  0.17642100  0.18199700  0.54612900  1
  Ni  Ni4  1  0.95509000  0.95114800  0.12765700  1
  Ni  Ni5  1  0.04885200  0.04491000  0.87234300  1
  Cu  Cu6  1  0.60599000  0.39401000  0.50000000  1
  C  C7  1  0.19469300  0.19897200  0.24434400  1
  C  C8  1  0.80102800  0.80530700  0.75565600  1
  C  C9  1  0.62657200  0.62175400  0.23868500  1
  C  C10  1  0.37824600  0.37342800  0.76131500  1
  C  C11  1  0.19389500  0.58829500  0.28580800  1
  C  C12  1  0.59671500  0.19861500  0.28337700  1
  C  C13  1  0.80138500  0.40328500  0.71662300  1
  C  C14  1  0.41170500  0.80610500  0.71419200  1
  C  C15  1  0.13239000  0.86761000  0.00000000  1
  C  C16  1  0.87035900  0.12964100  0.00000000  1
  C  C17  1  0.09198600  0.09958600  0.38065000  1
  C  C18  1  0.90041400  0.90801400  0.61935000  1
  C  C19  1  0.76352700  0.76708000  0.13024500  1
  C  C20  1  0.23292000  0.23647300  0.86975500  1
  C  C21  1  0.17840800  0.47708700  0.42241800  1
  C  C22  1  0.51457000  0.20582600  0.42314400  1
  C  C23  1  0.79417400  0.48543000  0.57685600  1
  C  C24  1  0.52291400  0.82159200  0.57758200  1
  C  C25  1  0.16218900  0.43439600  0.20723600  1
  C  C26  1  0.42915000  0.15980000  0.21899400  1
  C  C27  1  0.84020000  0.57085000  0.78100600  1
  C  C28  1  0.56560400  0.83781100  0.79276400  1
  C  C29  1  0.68493600  0.40972500  0.20737500  1
  C  C30  1  0.40926300  0.67822400  0.21936900  1
  C  C31  1  0.32177600  0.59073700  0.78063100  1
  C  C32  1  0.59027500  0.31506400  0.79262500  1
  C  C33  1  0.04189100  0.76247900  0.26701600  1
  C  C34  1  0.76066500  0.03674700  0.26852000  1
  C  C35  1  0.96325300  0.23933500  0.73148000  1
  C  C36  1  0.23752100  0.95810900  0.73298400  1
  C  C37  1  0.65424800  0.62210900  0.36964400  1
  C  C38  1  0.37789100  0.34575200  0.63035600  1
  C  C39  1  0.13572600  0.13360500  0.13556800  1
  C  C40  1  0.86639500  0.86427400  0.86443200  1
