# generated using pymatgen
data_Cu4NiC9
_symmetry_space_group_name_H-M   'P 1'
_cell_length_a   8.49001800
_cell_length_b   8.49001800
_cell_length_c   4.78758200
_cell_angle_alpha   90.00000000
_cell_angle_beta   90.00000000
_cell_angle_gamma   90.00000000
_symmetry_Int_Tables_number   1
_chemical_formula_structural   Cu4NiC9
_chemical_formula_sum   'Cu8 Ni2 C18'
_cell_volume   345.09085260
_cell_formula_units_Z   2
loop_
 _symmetry_equiv_pos_site_id
 _symmetry_equiv_pos_as_xyz
  1  'x, y, z'
loop_
 _atom_site_type_symbol
 _atom_site_label
 _atom_site_symmetry_multiplicity
 _atom_site_fract_x
 _atom_site_fract_y
 _atom_site_fract_z
 _atom_site_occupancy
  Ni  Ni0  1  0.00000000  0.50000000  0.90579400  1
  Ni  Ni1  1  0.50000000  0.00000000  0.09420600  1
  Cu  Cu2  1  0.91018700  0.78214000  0.38774900  1
  Cu  Cu3  1  0.78214000  0.08981300  0.61225100  1
  Cu  Cu4  1  0.28214000  0.58981300  0.38774900  1
  Cu  Cu5  1  0.41018700  0.28214000  0.61225100  1
  Cu  Cu6  1  0.08981300  0.21786000  0.38774900  1
  Cu  Cu7  1  0.71786000  0.41018700  0.38774900  1
  Cu  Cu8  1  0.58981300  0.71786000  0.61225100  1
  Cu  Cu9  1  0.21786000  0.91018700  0.61225100  1
  C  C10  1  0.00000000  0.00000000  0.50000000  1
  C  C11  1  0.50000000  0.50000000  0.50000000  1
  C  C12  1  0.27838500  0.93529800  0.95544100  1
  C  C13  1  0.56470200  0.77838500  0.95544100  1
  C  C14  1  0.43529800  0.22161500  0.95544100  1
  C  C15  1  0.72161500  0.06470200  0.95544100  1
  C  C16  1  0.22161500  0.56470200  0.04455900  1
  C  C17  1  0.93529800  0.72161500  0.04455900  1
  C  C18  1  0.06470200  0.27838500  0.04455900  1
  C  C19  1  0.77838500  0.43529800  0.04455900  1
  C  C20  1  0.89345700  0.29261300  0.53621800  1
  C  C21  1  0.20738700  0.39345700  0.53621800  1
  C  C22  1  0.79261300  0.60654300  0.53621800  1
  C  C23  1  0.10654300  0.70738700  0.53621800  1
  C  C24  1  0.39345700  0.79261300  0.46378200  1
  C  C25  1  0.29261300  0.10654300  0.46378200  1
  C  C26  1  0.70738700  0.89345700  0.46378200  1
  C  C27  1  0.60654300  0.20738700  0.46378200  1
