# generated using pymatgen
data_Cu3NiC2
_symmetry_space_group_name_H-M   'P 1'
_cell_length_a   5.79980906
_cell_length_b   5.79980906
_cell_length_c   5.79980986
_cell_angle_alpha   65.97685459
_cell_angle_beta   65.97685459
_cell_angle_gamma   65.97685744
_symmetry_Int_Tables_number   1
_chemical_formula_structural   Cu3NiC2
_chemical_formula_sum   'Cu6 Ni2 C4'
_cell_volume   155.79818780
_cell_formula_units_Z   2
loop_
 _symmetry_equiv_pos_site_id
 _symmetry_equiv_pos_as_xyz
  1  'x, y, z'
loop_
 _atom_site_type_symbol
 _atom_site_label
 _atom_site_symmetry_multiplicity
 _atom_site_fract_x
 _atom_site_fract_y
 _atom_site_fract_z
 _atom_site_occupancy
  C  C0  1  0.50000000  0.50000000  0.50000000  1
  C  C1  1  0.50000000  0.00000000  0.50000000  1
  C  C2  1  0.50000000  0.50000000  0.00000000  1
  C  C3  1  0.00000000  0.50000000  0.50000000  1
  Ni  Ni4  1  0.80655800  0.80655800  0.80655800  1
  Ni  Ni5  1  0.19344200  0.19344200  0.19344200  1
  Cu  Cu6  1  0.73328100  0.33379600  0.73328100  1
  Cu  Cu7  1  0.73328100  0.73328100  0.33379600  1
  Cu  Cu8  1  0.33379600  0.73328100  0.73328100  1
  Cu  Cu9  1  0.26671900  0.66620400  0.26671900  1
  Cu  Cu10  1  0.26671900  0.26671900  0.66620400  1
  Cu  Cu11  1  0.66620400  0.26671900  0.26671900  1
