# generated using pymatgen
data_Cu(Ni2C11)2
_symmetry_space_group_name_H-M   'P 1'
_cell_length_a   10.04964083
_cell_length_b   10.01691892
_cell_length_c   9.80488183
_cell_angle_alpha   60.91718434
_cell_angle_beta   60.58351647
_cell_angle_gamma   58.49929919
_symmetry_Int_Tables_number   1
_chemical_formula_structural   Cu(Ni2C11)2
_chemical_formula_sum   'Cu2 Ni8 C44'
_cell_volume   697.21036015
_cell_formula_units_Z   2
loop_
 _symmetry_equiv_pos_site_id
 _symmetry_equiv_pos_as_xyz
  1  'x, y, z'
loop_
 _atom_site_type_symbol
 _atom_site_label
 _atom_site_symmetry_multiplicity
 _atom_site_fract_x
 _atom_site_fract_y
 _atom_site_fract_z
 _atom_site_occupancy
  C  C0  1  0.78701900  0.21298100  0.21298100  1
  C  C1  1  0.54084000  0.95916000  0.95916000  1
  C  C2  1  0.21442700  0.78557300  0.21442700  1
  C  C3  1  0.78557300  0.21442700  0.78557300  1
  C  C4  1  0.78900700  0.78900700  0.21099300  1
  C  C5  1  0.21298100  0.78701900  0.78701900  1
  C  C6  1  0.21099300  0.21099300  0.78900700  1
  C  C7  1  0.95916000  0.54084000  0.54084000  1
  C  C8  1  0.37208200  0.37856700  0.87579600  1
  C  C9  1  0.37856700  0.37208200  0.37355500  1
  C  C10  1  0.37355500  0.87579600  0.37856700  1
  C  C11  1  0.87579600  0.37355500  0.37208200  1
  Ni  Ni12  1  0.58871800  0.23014300  0.58848300  1
  Ni  Ni13  1  0.59265600  0.58848300  0.23014300  1
  Ni  Ni14  1  0.23014300  0.58871800  0.59265600  1
  Ni  Ni15  1  0.58848300  0.59265600  0.58871800  1
  Ni  Ni16  1  0.52424300  0.15810000  0.15400200  1
  Ni  Ni17  1  0.16365400  0.15400200  0.15810000  1
  Ni  Ni18  1  0.15810000  0.52424300  0.16365400  1
  Ni  Ni19  1  0.15400200  0.16365400  0.52424300  1
  Cu  Cu20  1  0.00000000  0.00000000  0.00000000  1
  Cu  Cu21  1  0.75000000  0.75000000  0.75000000  1
  C  C22  1  0.51877900  0.27496100  0.01379400  1
  C  C23  1  0.72293600  0.23301100  0.47322700  1
  C  C24  1  0.57082500  0.47322700  0.23301100  1
  C  C25  1  0.27496100  0.51877900  0.19246600  1
  C  C26  1  0.72937300  0.56670300  0.23737700  1
  C  C27  1  0.18424500  0.93559400  0.94037700  1
  C  C28  1  0.93978500  0.94037700  0.93559400  1
  C  C29  1  0.47725400  0.73691600  0.21771000  1
  C  C30  1  0.56812000  0.21771000  0.73691600  1
  C  C31  1  0.21771000  0.56812000  0.47725400  1
  C  C32  1  0.73691600  0.47725400  0.56812000  1
  C  C33  1  0.93559400  0.18424500  0.93978500  1
  C  C34  1  0.94037700  0.93978500  0.18424500  1
  C  C35  1  0.53229600  0.01625700  0.17582500  1
  C  C36  1  0.27562200  0.17582500  0.01625700  1
  C  C37  1  0.56670300  0.72937300  0.46654700  1
  C  C38  1  0.19246600  0.01379400  0.27496100  1
  C  C39  1  0.23301100  0.72293600  0.57082500  1
  C  C40  1  0.47322700  0.57082500  0.72293600  1
  C  C41  1  0.81003900  0.80828200  0.56612200  1
  C  C42  1  0.81555700  0.56612200  0.80828200  1
  C  C43  1  0.01873100  0.26853800  0.18337000  1
  C  C44  1  0.52936100  0.18337000  0.26853800  1
  C  C45  1  0.18337000  0.52936100  0.01873100  1
  C  C46  1  0.26853800  0.01873100  0.52936100  1
  C  C47  1  0.80828200  0.81003900  0.81555700  1
  C  C48  1  0.56612200  0.81555700  0.81003900  1
  C  C49  1  0.01379400  0.19246600  0.51877900  1
  C  C50  1  0.46654700  0.23737700  0.56670300  1
  C  C51  1  0.17582500  0.27562200  0.53229600  1
  C  C52  1  0.01625700  0.53229600  0.27562200  1
  C  C53  1  0.23737700  0.46654700  0.72937300  1
