# generated using pymatgen
data_Cu2NiC14
_symmetry_space_group_name_H-M   'P 1'
_cell_length_a   9.99511830
_cell_length_b   9.99511830
_cell_length_c   12.97184700
_cell_angle_alpha   90.00000000
_cell_angle_beta   90.00000000
_cell_angle_gamma   143.68779296
_symmetry_Int_Tables_number   1
_chemical_formula_structural   Cu2NiC14
_chemical_formula_sum   'Cu4 Ni2 C28'
_cell_volume   767.42333919
_cell_formula_units_Z   2
loop_
 _symmetry_equiv_pos_site_id
 _symmetry_equiv_pos_as_xyz
  1  'x, y, z'
loop_
 _atom_site_type_symbol
 _atom_site_label
 _atom_site_symmetry_multiplicity
 _atom_site_fract_x
 _atom_site_fract_y
 _atom_site_fract_z
 _atom_site_occupancy
  C  C0  1  0.06383200  0.40726800  0.37457700  1
  C  C1  1  0.59273200  0.93616800  0.62542300  1
  C  C2  1  0.09273200  0.43616800  0.87457700  1
  C  C3  1  0.56383200  0.90726800  0.12542300  1
  C  C4  1  0.93616800  0.59273200  0.62542300  1
  C  C5  1  0.40726800  0.06383200  0.37457700  1
  C  C6  1  0.90726800  0.56383200  0.12542300  1
  C  C7  1  0.43616800  0.09273200  0.87457700  1
  Ni  Ni8  1  0.50000000  0.50000000  0.50000000  1
  Ni  Ni9  1  0.00000000  0.00000000  0.00000000  1
  Cu  Cu10  1  0.85626200  0.85626200  0.32595600  1
  Cu  Cu11  1  0.14373800  0.14373800  0.67404400  1
  Cu  Cu12  1  0.64373800  0.64373800  0.82595600  1
  Cu  Cu13  1  0.35626200  0.35626200  0.17404400  1
  C  C14  1  0.23027500  0.23027500  0.34313100  1
  C  C15  1  0.76972500  0.76972500  0.65686900  1
  C  C16  1  0.26972500  0.26972500  0.84313100  1
  C  C17  1  0.73027500  0.73027500  0.15686900  1
  C  C18  1  0.82533200  0.62479600  0.39572200  1
  C  C19  1  0.37520400  0.17466800  0.60427800  1
  C  C20  1  0.87520400  0.67466800  0.89572200  1
  C  C21  1  0.32533200  0.12479600  0.10427800  1
  C  C22  1  0.17466800  0.37520400  0.60427800  1
  C  C23  1  0.62479600  0.82533200  0.39572200  1
  C  C24  1  0.12479600  0.32533200  0.10427800  1
  C  C25  1  0.67466800  0.87520400  0.89572200  1
  C  C26  1  0.74758800  0.25241200  0.50000000  1
  C  C27  1  0.24758800  0.75241200  0.00000000  1
  C  C28  1  0.25241200  0.74758800  0.50000000  1
  C  C29  1  0.75241200  0.24758800  0.00000000  1
  C  C30  1  0.23437200  0.73437200  0.25000000  1
  C  C31  1  0.26562800  0.76562800  0.75000000  1
  C  C32  1  0.76562800  0.26562800  0.75000000  1
  C  C33  1  0.73437200  0.23437200  0.25000000  1
