# generated using pymatgen
data_Cu2Ni7C12
_symmetry_space_group_name_H-M   'P 1'
_cell_length_a   9.20891500
_cell_length_b   10.36512000
_cell_length_c   12.00807569
_cell_angle_alpha   70.09373497
_cell_angle_beta   90.00000000
_cell_angle_gamma   90.00000000
_symmetry_Int_Tables_number   1
_chemical_formula_structural   Cu2Ni7C12
_chemical_formula_sum   'Cu8 Ni28 C48'
_cell_volume   1077.70518983
_cell_formula_units_Z   4
loop_
 _symmetry_equiv_pos_site_id
 _symmetry_equiv_pos_as_xyz
  1  'x, y, z'
loop_
 _atom_site_type_symbol
 _atom_site_label
 _atom_site_symmetry_multiplicity
 _atom_site_fract_x
 _atom_site_fract_y
 _atom_site_fract_z
 _atom_site_occupancy
  C  C0  1  0.79700900  0.30750900  0.20723900  1
  C  C1  1  0.70299100  0.30750900  0.70723900  1
  C  C2  1  0.20299100  0.69249100  0.79276100  1
  C  C3  1  0.29700900  0.69249100  0.29276100  1
  C  C4  1  0.09189500  0.27162300  0.05305400  1
  C  C5  1  0.40810500  0.27162300  0.55305400  1
  C  C6  1  0.90810500  0.72837700  0.94694600  1
  C  C7  1  0.59189500  0.72837700  0.44694600  1
  C  C8  1  0.01873800  0.30578000  0.79208700  1
  C  C9  1  0.48126200  0.30578000  0.29208700  1
  C  C10  1  0.98126200  0.69422000  0.20791300  1
  C  C11  1  0.51873800  0.69422000  0.70791300  1
  C  C12  1  0.27194300  0.38323700  0.12808900  1
  C  C13  1  0.22805700  0.38323700  0.62808900  1
  C  C14  1  0.72805700  0.61676300  0.87191100  1
  C  C15  1  0.77194300  0.61676300  0.37191100  1
  C  C16  1  0.10985000  0.46938700  0.09406200  1
  C  C17  1  0.39015000  0.46938700  0.59406200  1
  C  C18  1  0.89015000  0.53061300  0.90593800  1
  C  C19  1  0.60985000  0.53061300  0.40593800  1
  C  C20  1  0.01935200  0.51388500  0.64970800  1
  C  C21  1  0.48064800  0.51388500  0.14970800  1
  C  C22  1  0.98064800  0.48611500  0.35029200  1
  C  C23  1  0.51935200  0.48611500  0.85029200  1
  C  C24  1  0.73354300  0.69818400  0.60974100  1
  C  C25  1  0.76645700  0.69818400  0.10974100  1
  C  C26  1  0.26645700  0.30181600  0.39025900  1
  C  C27  1  0.23354300  0.30181600  0.89025900  1
  C  C28  1  0.02222700  0.14383400  0.70400300  1
  C  C29  1  0.47777300  0.14383400  0.20400300  1
  C  C30  1  0.97777300  0.85616600  0.29599700  1
  C  C31  1  0.52222700  0.85616600  0.79599700  1
  C  C32  1  0.06640600  0.07168000  0.85081800  1
  C  C33  1  0.43359400  0.07168000  0.35081800  1
  C  C34  1  0.93359400  0.92832000  0.14918200  1
  C  C35  1  0.56640600  0.92832000  0.64918200  1
  C  C36  1  0.17417300  0.05030600  0.08184600  1
  C  C37  1  0.32582700  0.05030600  0.58184600  1
  C  C38  1  0.82582700  0.94969400  0.91815400  1
  C  C39  1  0.67417300  0.94969400  0.41815400  1
  C  C40  1  0.21370900  0.10398700  0.20189900  1
  C  C41  1  0.28629100  0.10398700  0.70189900  1
  C  C42  1  0.78629100  0.89601300  0.79810100  1
  C  C43  1  0.71370900  0.89601300  0.29810100  1
  C  C44  1  0.81135400  0.22132400  0.97967100  1
  C  C45  1  0.68864600  0.22132400  0.47967100  1
  C  C46  1  0.18864600  0.77867600  0.02032900  1
  C  C47  1  0.31135400  0.77867600  0.52032900  1
  Ni  Ni48  1  0.91496000  0.28338800  0.06117400  1
  Ni  Ni49  1  0.58504000  0.28338800  0.56117400  1
  Ni  Ni50  1  0.08504000  0.71661200  0.93882600  1
  Ni  Ni51  1  0.41496000  0.71661200  0.43882600  1
  Ni  Ni52  1  0.85172400  0.31183000  0.84370900  1
  Ni  Ni53  1  0.64827600  0.31183000  0.34370900  1
  Ni  Ni54  1  0.14827600  0.68817000  0.15629100  1
  Ni  Ni55  1  0.35172400  0.68817000  0.65629100  1
  Ni  Ni56  1  0.12565000  0.30598400  0.90881600  1
  Ni  Ni57  1  0.37435000  0.30598400  0.40881600  1
  Ni  Ni58  1  0.87435000  0.69401600  0.09118400  1
  Ni  Ni59  1  0.62565000  0.69401600  0.59118400  1
  Ni  Ni60  1  0.15829300  0.37564900  0.11418200  1
  Ni  Ni61  1  0.34170700  0.37564900  0.61418200  1
  Ni  Ni62  1  0.84170700  0.62435100  0.88581800  1
  Ni  Ni63  1  0.65829300  0.62435100  0.38581800  1
  Ni  Ni64  1  0.05298900  0.41512400  0.66862800  1
  Ni  Ni65  1  0.44701100  0.41512400  0.16862800  1
  Ni  Ni66  1  0.94701100  0.58487600  0.33137200  1
  Ni  Ni67  1  0.55298900  0.58487600  0.83137200  1
  Ni  Ni68  1  0.06653700  0.15803500  0.77674700  1
  Ni  Ni69  1  0.43346300  0.15803500  0.27674700  1
  Ni  Ni70  1  0.93346300  0.84196500  0.22325300  1
  Ni  Ni71  1  0.56653700  0.84196500  0.72325300  1
  Ni  Ni72  1  0.17498400  0.12668500  0.11808700  1
  Ni  Ni73  1  0.32501600  0.12668500  0.61808700  1
  Ni  Ni74  1  0.82501600  0.87331500  0.88191300  1
  Ni  Ni75  1  0.67498400  0.87331500  0.38191300  1
  Cu  Cu76  1  0.84893400  0.07586700  0.00523100  1
  Cu  Cu77  1  0.65106600  0.07586700  0.50523100  1
  Cu  Cu78  1  0.15106600  0.92413300  0.99476900  1
  Cu  Cu79  1  0.34893400  0.92413300  0.49476900  1
  Cu  Cu80  1  0.66214200  0.24809100  0.00233500  1
  Cu  Cu81  1  0.83785800  0.24809100  0.50233500  1
  Cu  Cu82  1  0.33785800  0.75190900  0.99766500  1
  Cu  Cu83  1  0.16214200  0.75190900  0.49766500  1
