# generated using pymatgen
data_Cu5NiC3
_symmetry_space_group_name_H-M   'P 1'
_cell_length_a   8.95240800
_cell_length_b   8.98038000
_cell_length_c   12.26451100
_cell_angle_alpha   90.00000000
_cell_angle_beta   90.00000000
_cell_angle_gamma   90.00000000
_symmetry_Int_Tables_number   1
_chemical_formula_structural   Cu5NiC3
_chemical_formula_sum   'Cu20 Ni4 C12'
_cell_volume   986.01794223
_cell_formula_units_Z   4
loop_
 _symmetry_equiv_pos_site_id
 _symmetry_equiv_pos_as_xyz
  1  'x, y, z'
loop_
 _atom_site_type_symbol
 _atom_site_label
 _atom_site_symmetry_multiplicity
 _atom_site_fract_x
 _atom_site_fract_y
 _atom_site_fract_z
 _atom_site_occupancy
  C  C0  1  0.61678700  0.50895500  0.32272000  1
  C  C1  1  0.88321300  0.99104500  0.82272000  1
  C  C2  1  0.38321300  0.00895500  0.67728000  1
  C  C3  1  0.11678700  0.49104500  0.17728000  1
  C  C4  1  0.38321300  0.49104500  0.67728000  1
  C  C5  1  0.11678700  0.00895500  0.17728000  1
  C  C6  1  0.61678700  0.99104500  0.32272000  1
  C  C7  1  0.88321300  0.50895500  0.82272000  1
  C  C8  1  0.82801000  0.75000000  0.09478800  1
  C  C9  1  0.67199000  0.75000000  0.59478800  1
  C  C10  1  0.17199000  0.25000000  0.90521200  1
  C  C11  1  0.32801000  0.25000000  0.40521200  1
  Ni  Ni12  1  0.46827400  0.75000000  0.01696100  1
  Ni  Ni13  1  0.03172600  0.75000000  0.51696100  1
  Ni  Ni14  1  0.53172600  0.25000000  0.98303900  1
  Ni  Ni15  1  0.96827400  0.25000000  0.48303900  1
  Cu  Cu16  1  0.68232400  0.54735500  0.05532400  1
  Cu  Cu17  1  0.81767600  0.95264500  0.55532400  1
  Cu  Cu18  1  0.31767600  0.04735500  0.94467600  1
  Cu  Cu19  1  0.18232400  0.45264500  0.44467600  1
  Cu  Cu20  1  0.31767600  0.45264500  0.94467600  1
  Cu  Cu21  1  0.18232400  0.04735500  0.44467600  1
  Cu  Cu22  1  0.68232400  0.95264500  0.05532400  1
  Cu  Cu23  1  0.81767600  0.54735500  0.55532400  1
  Cu  Cu24  1  0.37344800  0.75000000  0.21451400  1
  Cu  Cu25  1  0.12655200  0.75000000  0.71451400  1
  Cu  Cu26  1  0.62655200  0.25000000  0.78548600  1
  Cu  Cu27  1  0.87344800  0.25000000  0.28548600  1
  Cu  Cu28  1  0.88301500  0.75000000  0.27348000  1
  Cu  Cu29  1  0.61698500  0.75000000  0.77348000  1
  Cu  Cu30  1  0.11698500  0.25000000  0.72652000  1
  Cu  Cu31  1  0.38301500  0.25000000  0.22652000  1
  Cu  Cu32  1  0.46604000  0.75000000  0.49580200  1
  Cu  Cu33  1  0.03396000  0.75000000  0.99580200  1
  Cu  Cu34  1  0.53396000  0.25000000  0.50419800  1
  Cu  Cu35  1  0.96604000  0.25000000  0.00419800  1
