# generated using pymatgen
data_Cu3Ni2C15
_symmetry_space_group_name_H-M   'P 1'
_cell_length_a   11.33365541
_cell_length_b   11.33365541
_cell_length_c   11.33365541
_cell_angle_alpha   109.47122063
_cell_angle_beta   109.47122063
_cell_angle_gamma   109.47122063
_symmetry_Int_Tables_number   1
_chemical_formula_structural   Cu3Ni2C15
_chemical_formula_sum   'Cu12 Ni8 C60'
_cell_volume   1120.69677287
_cell_formula_units_Z   4
loop_
 _symmetry_equiv_pos_site_id
 _symmetry_equiv_pos_as_xyz
  1  'x, y, z'
loop_
 _atom_site_type_symbol
 _atom_site_label
 _atom_site_symmetry_multiplicity
 _atom_site_fract_x
 _atom_site_fract_y
 _atom_site_fract_z
 _atom_site_occupancy
  C  C0  1  0.25000000  0.37500000  0.12500000  1
  C  C1  1  0.75000000  0.62500000  0.87500000  1
  C  C2  1  0.75000000  0.12500000  0.37500000  1
  C  C3  1  0.12500000  0.25000000  0.37500000  1
  C  C4  1  0.37500000  0.75000000  0.12500000  1
  C  C5  1  0.25000000  0.87500000  0.62500000  1
  C  C6  1  0.87500000  0.75000000  0.62500000  1
  C  C7  1  0.62500000  0.25000000  0.87500000  1
  C  C8  1  0.37500000  0.12500000  0.25000000  1
  C  C9  1  0.62500000  0.87500000  0.75000000  1
  C  C10  1  0.12500000  0.37500000  0.75000000  1
  C  C11  1  0.87500000  0.62500000  0.25000000  1
  Ni  Ni12  1  0.00000000  0.00000000  0.00000000  1
  Ni  Ni13  1  0.50000000  0.00000000  0.50000000  1
  Ni  Ni14  1  0.00000000  0.50000000  0.50000000  1
  Ni  Ni15  1  0.50000000  0.00000000  0.00000000  1
  Ni  Ni16  1  0.50000000  0.50000000  0.00000000  1
  Ni  Ni17  1  0.50000000  0.50000000  0.50000000  1
  Ni  Ni18  1  0.00000000  0.00000000  0.50000000  1
  Ni  Ni19  1  0.00000000  0.50000000  0.00000000  1
  Cu  Cu20  1  0.25000000  0.62500000  0.37500000  1
  Cu  Cu21  1  0.75000000  0.37500000  0.62500000  1
  Cu  Cu22  1  0.75000000  0.87500000  0.12500000  1
  Cu  Cu23  1  0.37500000  0.25000000  0.62500000  1
  Cu  Cu24  1  0.62500000  0.75000000  0.37500000  1
  Cu  Cu25  1  0.25000000  0.12500000  0.87500000  1
  Cu  Cu26  1  0.12500000  0.75000000  0.87500000  1
  Cu  Cu27  1  0.87500000  0.25000000  0.12500000  1
  Cu  Cu28  1  0.62500000  0.37500000  0.25000000  1
  Cu  Cu29  1  0.37500000  0.62500000  0.75000000  1
  Cu  Cu30  1  0.87500000  0.12500000  0.75000000  1
  Cu  Cu31  1  0.12500000  0.87500000  0.25000000  1
  C  C32  1  0.47511000  0.37497600  0.28840000  1
  C  C33  1  0.52489000  0.62502400  0.71160000  1
  C  C34  1  0.58657600  0.18671000  0.21160000  1
  C  C35  1  0.91342400  0.12502400  0.60013300  1
  C  C36  1  0.28840000  0.47511000  0.37497600  1
  C  C37  1  0.31329000  0.91342400  0.28840000  1
  C  C38  1  0.41342400  0.81329000  0.78840000  1
  C  C39  1  0.08657600  0.87497600  0.39986700  1
  C  C40  1  0.71160000  0.52489000  0.62502400  1
  C  C41  1  0.68671000  0.08657600  0.71160000  1
  C  C42  1  0.02489000  0.31329000  0.89986700  1
  C  C43  1  0.21160000  0.58657600  0.18671000  1
  C  C44  1  0.12502400  0.02489000  0.21160000  1
  C  C45  1  0.97511000  0.68671000  0.10013300  1
  C  C46  1  0.78840000  0.41342400  0.81329000  1
  C  C47  1  0.87497600  0.97511000  0.78840000  1
  C  C48  1  0.60013300  0.91342400  0.12502400  1
  C  C49  1  0.18671000  0.47511000  0.60013300  1
  C  C50  1  0.39986700  0.08657600  0.87497600  1
  C  C51  1  0.81329000  0.52489000  0.39986700  1
  C  C52  1  0.89986700  0.02489000  0.31329000  1
  C  C53  1  0.37497600  0.58657600  0.89986700  1
  C  C54  1  0.10013300  0.97511000  0.68671000  1
  C  C55  1  0.62502400  0.41342400  0.10013300  1
  C  C56  1  0.37497600  0.28840000  0.47511000  1
  C  C57  1  0.58657600  0.89986700  0.37497600  1
  C  C58  1  0.62502400  0.71160000  0.52489000  1
  C  C59  1  0.41342400  0.10013300  0.62502400  1
  C  C60  1  0.12502400  0.60013300  0.91342400  1
  C  C61  1  0.02489000  0.21160000  0.12502400  1
  C  C62  1  0.87497600  0.39986700  0.08657600  1
  C  C63  1  0.97511000  0.78840000  0.87497600  1
  C  C64  1  0.31329000  0.89986700  0.02489000  1
  C  C65  1  0.91342400  0.28840000  0.31329000  1
  C  C66  1  0.68671000  0.10013300  0.97511000  1
  C  C67  1  0.08657600  0.71160000  0.68671000  1
  C  C68  1  0.18671000  0.21160000  0.58657600  1
  C  C69  1  0.47511000  0.60013300  0.18671000  1
  C  C70  1  0.81329000  0.78840000  0.41342400  1
  C  C71  1  0.52489000  0.39986700  0.81329000  1
  C  C72  1  0.28840000  0.31329000  0.91342400  1
  C  C73  1  0.71160000  0.68671000  0.08657600  1
  C  C74  1  0.21160000  0.12502400  0.02489000  1
  C  C75  1  0.78840000  0.87497600  0.97511000  1
  C  C76  1  0.89986700  0.37497600  0.58657600  1
  C  C77  1  0.10013300  0.62502400  0.41342400  1
  C  C78  1  0.60013300  0.18671000  0.47511000  1
  C  C79  1  0.39986700  0.81329000  0.52489000  1
