# generated using pymatgen
data_Cu3(NiC3)4
_symmetry_space_group_name_H-M   'P 1'
_cell_length_a   7.37398600
_cell_length_b   7.59949283
_cell_length_c   9.44194727
_cell_angle_alpha   80.18258675
_cell_angle_beta   85.25820036
_cell_angle_gamma   72.05771351
_symmetry_Int_Tables_number   1
_chemical_formula_structural   Cu3(NiC3)4
_chemical_formula_sum   'Cu6 Ni8 C24'
_cell_volume   495.75301339
_cell_formula_units_Z   2
loop_
 _symmetry_equiv_pos_site_id
 _symmetry_equiv_pos_as_xyz
  1  'x, y, z'
loop_
 _atom_site_type_symbol
 _atom_site_label
 _atom_site_symmetry_multiplicity
 _atom_site_fract_x
 _atom_site_fract_y
 _atom_site_fract_z
 _atom_site_occupancy
  C  C0  1  0.77021300  0.33775000  0.32761000  1
  C  C1  1  0.22978700  0.66225000  0.67239000  1
  Ni  Ni2  1  0.67107900  0.41861100  0.02687000  1
  Ni  Ni3  1  0.32892100  0.58138900  0.97313000  1
  Ni  Ni4  1  0.68992100  0.20215600  0.05345900  1
  Ni  Ni5  1  0.31007900  0.79784400  0.94654100  1
  Ni  Ni6  1  0.98217500  0.93202000  0.36832500  1
  Ni  Ni7  1  0.01782500  0.06798000  0.63167500  1
  Ni  Ni8  1  0.80732500  0.95517700  0.26746000  1
  Ni  Ni9  1  0.19267500  0.04482300  0.73254000  1
  Cu  Cu10  1  0.59751000  0.16310900  0.70006500  1
  Cu  Cu11  1  0.40249000  0.83689100  0.29993500  1
  Cu  Cu12  1  0.76416600  0.60060200  0.63445400  1
  Cu  Cu13  1  0.23583400  0.39939800  0.36554600  1
  Cu  Cu14  1  0.83232100  0.73865600  0.01913600  1
  Cu  Cu15  1  0.16767900  0.26134400  0.98086400  1
  C  C16  1  0.78607000  0.21812300  0.57215000  1
  C  C17  1  0.21393000  0.78187700  0.42785000  1
  C  C18  1  0.49719200  0.40838500  0.73132200  1
  C  C19  1  0.50280800  0.59161500  0.26867800  1
  C  C20  1  0.74520100  0.07318300  0.85598600  1
  C  C21  1  0.25479900  0.92681700  0.14401400  1
  C  C22  1  0.80333900  0.57633100  0.44246600  1
  C  C23  1  0.19666100  0.42366900  0.55753400  1
  C  C24  1  0.52004200  0.76105200  0.61613000  1
  C  C25  1  0.47995800  0.23894800  0.38387000  1
  C  C26  1  0.89551500  0.76959000  0.63853700  1
  C  C27  1  0.10448500  0.23041000  0.36146300  1
  C  C28  1  0.92285300  0.52456700  0.15327400  1
  C  C29  1  0.07714700  0.47543300  0.84672600  1
  C  C30  1  0.66014500  0.66946500  0.93191500  1
  C  C31  1  0.33985500  0.33053500  0.06808500  1
  C  C32  1  0.68263900  0.89027200  0.14500900  1
  C  C33  1  0.31736100  0.10972800  0.85499100  1
  C  C34  1  0.72948500  0.29840800  0.08875500  1
  C  C35  1  0.27051500  0.70159200  0.91124500  1
  C  C36  1  0.86451700  0.02113600  0.32457900  1
  C  C37  1  0.13548300  0.97886400  0.67542100  1
