# generated using pymatgen
data_Cu2Ni2C11
_symmetry_space_group_name_H-M   'P 1'
_cell_length_a   8.36936400
_cell_length_b   5.60430200
_cell_length_c   17.40416600
_cell_angle_alpha   90.00000000
_cell_angle_beta   90.00000000
_cell_angle_gamma   90.00000000
_symmetry_Int_Tables_number   1
_chemical_formula_structural   Cu2Ni2C11
_chemical_formula_sum   'Cu8 Ni8 C44'
_cell_volume   816.33271914
_cell_formula_units_Z   4
loop_
 _symmetry_equiv_pos_site_id
 _symmetry_equiv_pos_as_xyz
  1  'x, y, z'
loop_
 _atom_site_type_symbol
 _atom_site_label
 _atom_site_symmetry_multiplicity
 _atom_site_fract_x
 _atom_site_fract_y
 _atom_site_fract_z
 _atom_site_occupancy
  C  C0  1  0.45187000  0.75000000  0.76787600  1
  C  C1  1  0.95187000  0.75000000  0.73212400  1
  C  C2  1  0.54813000  0.25000000  0.23212400  1
  C  C3  1  0.04813000  0.25000000  0.26787600  1
  C  C4  1  0.58866600  0.25000000  0.63533300  1
  C  C5  1  0.08866600  0.25000000  0.86466700  1
  C  C6  1  0.41133400  0.75000000  0.36466700  1
  C  C7  1  0.91133400  0.75000000  0.13533300  1
  Ni  Ni8  1  0.78080400  0.75000000  0.93898000  1
  Ni  Ni9  1  0.28080400  0.75000000  0.56102000  1
  Ni  Ni10  1  0.21919600  0.25000000  0.06102000  1
  Ni  Ni11  1  0.71919600  0.25000000  0.43898000  1
  Ni  Ni12  1  0.50000000  0.00000000  0.00000000  1
  Ni  Ni13  1  0.00000000  0.50000000  0.50000000  1
  Ni  Ni14  1  0.50000000  0.50000000  0.00000000  1
  Ni  Ni15  1  0.00000000  0.00000000  0.50000000  1
  Cu  Cu16  1  0.68904000  0.25000000  0.85278900  1
  Cu  Cu17  1  0.18904000  0.25000000  0.64721100  1
  Cu  Cu18  1  0.31096000  0.75000000  0.14721100  1
  Cu  Cu19  1  0.81096000  0.75000000  0.35278900  1
  Cu  Cu20  1  0.16992200  0.75000000  0.94070900  1
  Cu  Cu21  1  0.66992200  0.75000000  0.55929100  1
  Cu  Cu22  1  0.83007800  0.25000000  0.05929100  1
  Cu  Cu23  1  0.33007800  0.25000000  0.44070900  1
  C  C24  1  0.59832800  0.25000000  0.76718400  1
  C  C25  1  0.09832800  0.25000000  0.73281600  1
  C  C26  1  0.40167200  0.75000000  0.23281600  1
  C  C27  1  0.90167200  0.75000000  0.26718400  1
  C  C28  1  0.80995100  0.00166200  0.86677700  1
  C  C29  1  0.30995100  0.49833800  0.63322300  1
  C  C30  1  0.19004900  0.50166200  0.13322300  1
  C  C31  1  0.69004900  0.99833800  0.36677700  1
  C  C32  1  0.19004900  0.99833800  0.13322300  1
  C  C33  1  0.69004900  0.50166200  0.36677700  1
  C  C34  1  0.80995100  0.49833800  0.86677700  1
  C  C35  1  0.30995100  0.00166200  0.63322300  1
  C  C36  1  0.54106400  0.25000000  0.92512200  1
  C  C37  1  0.04106400  0.25000000  0.57487800  1
  C  C38  1  0.45893600  0.75000000  0.07487800  1
  C  C39  1  0.95893600  0.75000000  0.42512200  1
  C  C40  1  0.27216600  0.00155400  0.97459500  1
  C  C41  1  0.77216600  0.49844600  0.52540500  1
  C  C42  1  0.72783400  0.50155400  0.02540500  1
  C  C43  1  0.22783400  0.99844600  0.47459500  1
  C  C44  1  0.72783400  0.99844600  0.02540500  1
  C  C45  1  0.22783400  0.50155400  0.47459500  1
  C  C46  1  0.27216600  0.49844600  0.97459500  1
  C  C47  1  0.77216600  0.00155400  0.52540500  1
  C  C48  1  0.16986500  0.75000000  0.84434700  1
  C  C49  1  0.66986500  0.75000000  0.65565300  1
  C  C50  1  0.83013500  0.25000000  0.15565300  1
  C  C51  1  0.33013500  0.25000000  0.34434700  1
  C  C52  1  0.98357100  0.75000000  0.97977000  1
  C  C53  1  0.48357100  0.75000000  0.52023000  1
  C  C54  1  0.01642900  0.25000000  0.02023000  1
  C  C55  1  0.51642900  0.25000000  0.47977000  1
  C  C56  1  0.55888500  0.75000000  0.93802200  1
  C  C57  1  0.05888500  0.75000000  0.56197800  1
  C  C58  1  0.44111500  0.25000000  0.06197800  1
  C  C59  1  0.94111500  0.25000000  0.43802200  1
