# generated using pymatgen
data_Cu4Ni4C7
_symmetry_space_group_name_H-M   'P 1'
_cell_length_a   13.17087700
_cell_length_b   7.15798300
_cell_length_c   7.75864195
_cell_angle_alpha   69.34700980
_cell_angle_beta   90.00000000
_cell_angle_gamma   90.00000000
_symmetry_Int_Tables_number   1
_chemical_formula_structural   Cu4Ni4C7
_chemical_formula_sum   'Cu16 Ni16 C28'
_cell_volume   684.45256155
_cell_formula_units_Z   4
loop_
 _symmetry_equiv_pos_site_id
 _symmetry_equiv_pos_as_xyz
  1  'x, y, z'
loop_
 _atom_site_type_symbol
 _atom_site_label
 _atom_site_symmetry_multiplicity
 _atom_site_fract_x
 _atom_site_fract_y
 _atom_site_fract_z
 _atom_site_occupancy
  C  C0  1  0.35804900  0.65525800  0.98788100  1
  C  C1  1  0.85804900  0.34474200  0.51211900  1
  C  C2  1  0.64195100  0.34474200  0.01211900  1
  C  C3  1  0.14195100  0.65525800  0.48788100  1
  C  C4  1  0.38553100  0.60459800  0.20818800  1
  C  C5  1  0.88553100  0.39540200  0.29181200  1
  C  C6  1  0.61446900  0.39540200  0.79181200  1
  C  C7  1  0.11446900  0.60459800  0.70818800  1
  C  C8  1  0.28351000  0.73742100  0.11780700  1
  C  C9  1  0.78351000  0.26257900  0.38219300  1
  C  C10  1  0.71649000  0.26257900  0.88219300  1
  C  C11  1  0.21649000  0.73742100  0.61780700  1
  C  C12  1  0.37030800  0.05800400  0.32356900  1
  C  C13  1  0.87030800  0.94199600  0.17643100  1
  C  C14  1  0.62969200  0.94199600  0.67643100  1
  C  C15  1  0.12969200  0.05800400  0.82356900  1
  C  C16  1  0.43771900  0.26818900  0.25282300  1
  C  C17  1  0.93771900  0.73181100  0.24717700  1
  C  C18  1  0.56228100  0.73181100  0.74717700  1
  C  C19  1  0.06228100  0.26818900  0.75282300  1
  C  C20  1  0.39607500  0.17002000  0.10165000  1
  C  C21  1  0.89607500  0.82998000  0.39835000  1
  C  C22  1  0.60392500  0.82998000  0.89835000  1
  C  C23  1  0.10392500  0.17002000  0.60165000  1
  C  C24  1  0.24222300  0.35675400  0.18523100  1
  C  C25  1  0.74222300  0.64324600  0.31476900  1
  C  C26  1  0.75777700  0.64324600  0.81476900  1
  C  C27  1  0.25777700  0.35675400  0.68523100  1
  Ni  Ni28  1  0.16524900  0.09889700  0.24987000  1
  Ni  Ni29  1  0.66524900  0.90110300  0.25013000  1
  Ni  Ni30  1  0.83475100  0.90110300  0.75013000  1
  Ni  Ni31  1  0.33475100  0.09889700  0.74987000  1
  Ni  Ni32  1  0.11642900  0.52524100  0.15266500  1
  Ni  Ni33  1  0.61642900  0.47475900  0.34733500  1
  Ni  Ni34  1  0.88357100  0.47475900  0.84733500  1
  Ni  Ni35  1  0.38357100  0.52524100  0.65266500  1
  Ni  Ni36  1  0.32719200  0.61919900  0.11670800  1
  Ni  Ni37  1  0.82719200  0.38080100  0.38329200  1
  Ni  Ni38  1  0.67280800  0.38080100  0.88329200  1
  Ni  Ni39  1  0.17280800  0.61919900  0.61670800  1
  Ni  Ni40  1  0.37745600  0.19402600  0.22103200  1
  Ni  Ni41  1  0.87745600  0.80597400  0.27896800  1
  Ni  Ni42  1  0.62254400  0.80597400  0.77896800  1
  Ni  Ni43  1  0.12254400  0.19402600  0.72103200  1
  Cu  Cu44  1  0.08955400  0.06380400  0.35291900  1
  Cu  Cu45  1  0.58955400  0.93619600  0.14708100  1
  Cu  Cu46  1  0.91044600  0.93619600  0.64708100  1
  Cu  Cu47  1  0.41044600  0.06380400  0.85291900  1
  Cu  Cu48  1  0.19723000  0.96948700  0.18758400  1
  Cu  Cu49  1  0.69723000  0.03051300  0.31241600  1
  Cu  Cu50  1  0.80277000  0.03051300  0.81241600  1
  Cu  Cu51  1  0.30277000  0.96948700  0.68758400  1
  Cu  Cu52  1  0.05926000  0.50660300  0.28769200  1
  Cu  Cu53  1  0.55926000  0.49339700  0.21230800  1
  Cu  Cu54  1  0.94074000  0.49339700  0.71230800  1
  Cu  Cu55  1  0.44074000  0.50660300  0.78769200  1
  Cu  Cu56  1  0.09908300  0.65683400  0.99998000  1
  Cu  Cu57  1  0.59908300  0.34316600  0.50002000  1
  Cu  Cu58  1  0.90091700  0.34316600  0.00002000  1
  Cu  Cu59  1  0.40091700  0.65683400  0.49998000  1
