# generated using pymatgen
data_Cu(NiC5)4
_symmetry_space_group_name_H-M   'P 1'
_cell_length_a   5.88360100
_cell_length_b   5.95084737
_cell_length_c   24.28171966
_cell_angle_alpha   96.61879162
_cell_angle_beta   89.98413623
_cell_angle_gamma   119.62203100
_symmetry_Int_Tables_number   1
_chemical_formula_structural   Cu(NiC5)4
_chemical_formula_sum   'Cu2 Ni8 C40'
_cell_volume   732.53987236
_cell_formula_units_Z   2
loop_
 _symmetry_equiv_pos_site_id
 _symmetry_equiv_pos_as_xyz
  1  'x, y, z'
loop_
 _atom_site_type_symbol
 _atom_site_label
 _atom_site_symmetry_multiplicity
 _atom_site_fract_x
 _atom_site_fract_y
 _atom_site_fract_z
 _atom_site_occupancy
  Ni  Ni0  1  0.12031700  0.94035300  0.29988900  1
  Ni  Ni1  1  0.52023800  0.53835300  0.50207800  1
  Ni  Ni2  1  0.92085200  0.13754000  0.70364600  1
  Ni  Ni3  1  0.32309300  0.73977900  0.90588400  1
  Ni  Ni4  1  0.72201400  0.34109900  0.10305000  1
  Ni  Ni5  1  0.82017000  0.23846100  0.40111000  1
  Ni  Ni6  1  0.22033200  0.83765800  0.60290400  1
  Ni  Ni7  1  0.62039500  0.43693200  0.80449000  1
  Cu  Cu8  1  0.02365500  0.04407300  0.00446700  1
  Cu  Cu9  1  0.42461400  0.64517800  0.20230300  1
  C  C10  1  0.10546100  0.05498000  0.15612600  1
  C  C11  1  0.50153700  0.64554800  0.35497000  1
  C  C12  1  0.90158400  0.24561300  0.55742300  1
  C  C13  1  0.30218300  0.84553400  0.75871100  1
  C  C14  1  0.70565700  0.45411800  0.95983400  1
  C  C15  1  0.20095400  0.94577000  0.45690900  1
  C  C16  1  0.60167100  0.54534400  0.65794400  1
  C  C17  1  0.00294200  0.14158800  0.86159200  1
  C  C18  1  0.40092600  0.74428000  0.05730800  1
  C  C19  1  0.79920600  0.34715200  0.25294300  1
  C  C20  1  0.28099400  0.26137700  0.24473400  1
  C  C21  1  0.68370000  0.85304800  0.44516200  1
  C  C22  1  0.08457600  0.45144400  0.64646900  1
  C  C23  1  0.48104700  0.04835300  0.84818100  1
  C  C24  1  0.87851800  0.65554800  0.04729900  1
  C  C25  1  0.43597600  0.02866800  0.35556500  1
  C  C26  1  0.83732800  0.62782500  0.55804900  1
  C  C27  1  0.23925300  0.22733900  0.75902400  1
  C  C28  1  0.64983400  0.83564800  0.95956200  1
  C  C29  1  0.04508200  0.43467100  0.15683300  1
  C  C30  1  0.92156100  0.05422300  0.34256100  1
  C  C31  1  0.32000200  0.65650800  0.54382900  1
  C  C32  1  0.71946900  0.25585300  0.74510800  1
  C  C33  1  0.12342500  0.85829300  0.94825900  1
  C  C34  1  0.52453100  0.45577600  0.14612200  1
  C  C35  1  0.75447700  0.74976400  0.24161700  1
  C  C36  1  0.17886400  0.35618100  0.44326100  1
  C  C37  1  0.58096600  0.95638900  0.64437500  1
  C  C38  1  0.97866600  0.55227700  0.84766700  1
  C  C39  1  0.35421600  0.14586800  0.04489300  1
  C  C40  1  0.25715500  0.72988900  0.25200200  1
  C  C41  1  0.64878400  0.32847200  0.45708300  1
  C  C42  1  0.04822700  0.92757500  0.65861000  1
  C  C43  1  0.44535200  0.52643600  0.85995700  1
  C  C44  1  0.85458900  0.12737000  0.05432000  1
  C  C45  1  0.91758300  0.55330100  0.34355000  1
  C  C46  1  0.31348400  0.15201600  0.54587100  1
  C  C47  1  0.71403000  0.75054600  0.74729800  1
  C  C48  1  0.11758000  0.33434000  0.95219200  1
  C  C49  1  0.51875200  0.93503100  0.14922500  1
