# generated using pymatgen
data_Cu3Ni3C23
_symmetry_space_group_name_H-M   'P 1'
_cell_length_a   5.63716603
_cell_length_b   5.63716603
_cell_length_c   13.88676600
_cell_angle_alpha   90.00000000
_cell_angle_beta   90.00000000
_cell_angle_gamma   120.00000039
_symmetry_Int_Tables_number   1
_chemical_formula_structural   Cu3Ni3C23
_chemical_formula_sum   'Cu3 Ni3 C23'
_cell_volume   382.16719110
_cell_formula_units_Z   1
loop_
 _symmetry_equiv_pos_site_id
 _symmetry_equiv_pos_as_xyz
  1  'x, y, z'
loop_
 _atom_site_type_symbol
 _atom_site_label
 _atom_site_symmetry_multiplicity
 _atom_site_fract_x
 _atom_site_fract_y
 _atom_site_fract_z
 _atom_site_occupancy
  C  C0  1  0.00000000  0.00000000  0.98856200  1
  C  C1  1  0.66666700  0.33333300  0.16901600  1
  C  C2  1  0.00000000  0.00000000  0.49752900  1
  Ni  Ni3  1  0.66666700  0.33333300  0.91053000  1
  Ni  Ni4  1  0.33333300  0.66666700  0.06473800  1
  Ni  Ni5  1  0.00000000  0.00000000  0.73975000  1
  Cu  Cu6  1  0.00000000  0.00000000  0.25550600  1
  Cu  Cu7  1  0.66666700  0.33333300  0.42180000  1
  Cu  Cu8  1  0.33333300  0.66666700  0.58586100  1
  C  C9  1  0.33333300  0.66666700  0.29681500  1
  C  C10  1  0.66666700  0.33333300  0.70002200  1
  C  C11  1  0.82542700  0.17457300  0.82736400  1
  C  C12  1  0.50336500  0.49663500  0.50333500  1
  C  C13  1  0.16351200  0.83648800  0.66653100  1
  C  C14  1  0.83029800  0.16970200  0.33694800  1
  C  C15  1  0.50192800  0.49807200  0.00225900  1
  C  C16  1  0.17354700  0.82645300  0.17574300  1
  C  C17  1  0.67297500  0.83648800  0.66653100  1
  C  C18  1  0.33940300  0.16970200  0.33694800  1
  C  C19  1  0.99326900  0.49663500  0.50333500  1
  C  C20  1  0.65290600  0.82645300  0.17574300  1
  C  C21  1  0.34914500  0.17457300  0.82736400  1
  C  C22  1  0.99614500  0.49807200  0.00225900  1
  C  C23  1  0.82542700  0.65085500  0.82736400  1
  C  C24  1  0.50336500  0.00673100  0.50333500  1
  C  C25  1  0.16351200  0.32702500  0.66653100  1
  C  C26  1  0.83029800  0.66059700  0.33694800  1
  C  C27  1  0.50192800  0.00385500  0.00225900  1
  C  C28  1  0.17354700  0.34709400  0.17574300  1
