# generated using pymatgen
data_CuNiC16
_symmetry_space_group_name_H-M   'P 1'
_cell_length_a   5.31854308
_cell_length_b   5.31854308
_cell_length_c   7.51199984
_cell_angle_alpha   90.00000000
_cell_angle_beta   90.00000000
_cell_angle_gamma   90.73426783
_symmetry_Int_Tables_number   1
_chemical_formula_structural   CuNiC16
_chemical_formula_sum   'Cu1 Ni1 C16'
_cell_volume   212.47374338
_cell_formula_units_Z   1
loop_
 _symmetry_equiv_pos_site_id
 _symmetry_equiv_pos_as_xyz
  1  'x, y, z'
loop_
 _atom_site_type_symbol
 _atom_site_label
 _atom_site_symmetry_multiplicity
 _atom_site_fract_x
 _atom_site_fract_y
 _atom_site_fract_z
 _atom_site_occupancy
  Ni  Ni0  1  0.98833129  0.98833129  0.50000000  1
  Cu  Cu1  1  0.51368864  0.51368864  0.00000000  1
  C  C2  1  0.49423111  0.00047590  0.75204049  1
  C  C3  1  0.49423111  0.00047590  0.24795951  1
  C  C4  1  0.00047590  0.49423111  0.24795951  1
  C  C5  1  0.00047590  0.49423111  0.75204049  1
  C  C6  1  0.77281938  0.22930639  0.75525549  1
  C  C7  1  0.22930639  0.77281938  0.75525549  1
  C  C8  1  0.22930639  0.77281938  0.24474451  1
  C  C9  1  0.77281938  0.22930639  0.24474451  1
  C  C10  1  0.72254648  0.72254648  0.72635830  1
  C  C11  1  0.28225185  0.28225185  0.78406428  1
  C  C12  1  0.28225185  0.28225185  0.21593572  1
  C  C13  1  0.72254648  0.72254648  0.27364170  1
  C  C14  1  0.52091483  0.96304874  0.00000000  1
  C  C15  1  0.48119335  0.02786093  0.50000000  1
  C  C16  1  0.96304874  0.52091483  0.00000000  1
  C  C17  1  0.02786093  0.48119335  0.50000000  1
