# generated using pymatgen
data_CuNi2C11
_symmetry_space_group_name_H-M   'P 1'
_cell_length_a   6.41488600
_cell_length_b   7.91773900
_cell_length_c   10.05922278
_cell_angle_alpha   89.33635080
_cell_angle_beta   90.00000000
_cell_angle_gamma   90.00000000
_symmetry_Int_Tables_number   1
_chemical_formula_structural   CuNi2C11
_chemical_formula_sum   'Cu2 Ni4 C22'
_cell_volume   510.88766511
_cell_formula_units_Z   2
loop_
 _symmetry_equiv_pos_site_id
 _symmetry_equiv_pos_as_xyz
  1  'x, y, z'
loop_
 _atom_site_type_symbol
 _atom_site_label
 _atom_site_symmetry_multiplicity
 _atom_site_fract_x
 _atom_site_fract_y
 _atom_site_fract_z
 _atom_site_occupancy
  C  C0  1  0.50000000  0.50000000  0.00000000  1
  C  C1  1  0.50000000  0.50000000  0.50000000  1
  C  C2  1  0.00000000  0.50000000  0.00000000  1
  C  C3  1  0.25000000  0.69832400  0.75043300  1
  C  C4  1  0.75000000  0.30167600  0.24956700  1
  C  C5  1  0.00000000  0.50000000  0.50000000  1
  Ni  Ni6  1  0.25000000  0.85799000  0.04510600  1
  Ni  Ni7  1  0.75000000  0.14201000  0.95489400  1
  Ni  Ni8  1  0.25000000  0.85425300  0.44309900  1
  Ni  Ni9  1  0.75000000  0.14574700  0.55690100  1
  Cu  Cu10  1  0.75000000  0.60695300  0.83130300  1
  Cu  Cu11  1  0.25000000  0.39304700  0.16869700  1
  C  C12  1  0.75000000  0.45772100  0.11092400  1
  C  C13  1  0.75000000  0.11279100  0.12648500  1
  C  C14  1  0.25000000  0.88497400  0.61167400  1
  C  C15  1  0.46424600  0.73033000  0.07337400  1
  C  C16  1  0.53304000  0.27664700  0.57477100  1
  C  C17  1  0.96696000  0.27664700  0.57477100  1
  C  C18  1  0.25000000  0.54227900  0.88907600  1
  C  C19  1  0.03575400  0.73033000  0.07337400  1
  C  C20  1  0.03304000  0.72335300  0.42522900  1
  C  C21  1  0.96424600  0.26967000  0.92662600  1
  C  C22  1  0.75000000  0.46095100  0.39665800  1
  C  C23  1  0.25000000  0.53904900  0.60334200  1
  C  C24  1  0.53575400  0.26967000  0.92662600  1
  C  C25  1  0.46696000  0.72335300  0.42522900  1
  C  C26  1  0.25000000  0.88720900  0.87351500  1
  C  C27  1  0.75000000  0.11502600  0.38832600  1
