# generated using pymatgen
data_Cu4Ni9C
_symmetry_space_group_name_H-M   'P 1'
_cell_length_a   7.92021689
_cell_length_b   7.92021689
_cell_length_c   7.92021689
_cell_angle_alpha   121.51467855
_cell_angle_beta   121.51467855
_cell_angle_gamma   87.39592889
_symmetry_Int_Tables_number   1
_chemical_formula_structural   Cu4Ni9C
_chemical_formula_sum   'Cu8 Ni18 C2'
_cell_volume   342.88659395
_cell_formula_units_Z   2
loop_
 _symmetry_equiv_pos_site_id
 _symmetry_equiv_pos_as_xyz
  1  'x, y, z'
loop_
 _atom_site_type_symbol
 _atom_site_label
 _atom_site_symmetry_multiplicity
 _atom_site_fract_x
 _atom_site_fract_y
 _atom_site_fract_z
 _atom_site_occupancy
  C  C0  1  0.75000000  0.75000000  0.00000000  1
  C  C1  1  0.25000000  0.25000000  0.00000000  1
  Ni  Ni2  1  0.69029200  0.44972000  0.50000000  1
  Ni  Ni3  1  0.44972000  0.94972000  0.75942800  1
  Ni  Ni4  1  0.19029200  0.69029200  0.24057200  1
  Ni  Ni5  1  0.55028000  0.05028000  0.24057200  1
  Ni  Ni6  1  0.94972000  0.19029200  0.50000000  1
  Ni  Ni7  1  0.19910500  0.93068800  0.12979300  1
  Ni  Ni8  1  0.80089500  0.06931200  0.87020700  1
  Ni  Ni9  1  0.43068800  0.69910500  0.12979300  1
  Ni  Ni10  1  0.56931200  0.30089500  0.87020700  1
  Ni  Ni11  1  0.69910500  0.56931200  0.26841700  1
  Ni  Ni12  1  0.30089500  0.43068800  0.73158300  1
  Ni  Ni13  1  0.93068800  0.80089500  0.73158300  1
  Ni  Ni14  1  0.30970800  0.55028000  0.50000000  1
  Ni  Ni15  1  0.80970800  0.30970800  0.75942800  1
  Ni  Ni16  1  0.00000000  0.50000000  0.50000000  1
  Ni  Ni17  1  0.50000000  0.00000000  0.50000000  1
  Ni  Ni18  1  0.06931200  0.19910500  0.26841700  1
  Ni  Ni19  1  0.05028000  0.80970800  0.50000000  1
  Cu  Cu20  1  0.29049300  0.79049300  0.83719800  1
  Cu  Cu21  1  0.04670500  0.54670500  0.83719800  1
  Cu  Cu22  1  0.54670500  0.70950700  0.50000000  1
  Cu  Cu23  1  0.79049300  0.95329500  0.50000000  1
  Cu  Cu24  1  0.45329500  0.29049300  0.50000000  1
  Cu  Cu25  1  0.95329500  0.45329500  0.16280200  1
  Cu  Cu26  1  0.70950700  0.20950700  0.16280200  1
  Cu  Cu27  1  0.20950700  0.04670500  0.50000000  1
