# generated using pymatgen
data_CuNiC11
_symmetry_space_group_name_H-M   'P 1'
_cell_length_a   8.52246200
_cell_length_b   10.10304400
_cell_length_c   10.59117756
_cell_angle_alpha   120.30159228
_cell_angle_beta   90.00000000
_cell_angle_gamma   90.00000000
_symmetry_Int_Tables_number   1
_chemical_formula_structural   CuNiC11
_chemical_formula_sum   'Cu4 Ni4 C44'
_cell_volume   787.34363392
_cell_formula_units_Z   4
loop_
 _symmetry_equiv_pos_site_id
 _symmetry_equiv_pos_as_xyz
  1  'x, y, z'
loop_
 _atom_site_type_symbol
 _atom_site_label
 _atom_site_symmetry_multiplicity
 _atom_site_fract_x
 _atom_site_fract_y
 _atom_site_fract_z
 _atom_site_occupancy
  Ni  Ni0  1  0.67765800  0.96997900  0.69020500  1
  Ni  Ni1  1  0.32234200  0.03002100  0.30979500  1
  Ni  Ni2  1  0.17765800  0.53002100  0.80979500  1
  Ni  Ni3  1  0.82234200  0.46997900  0.19020500  1
  Cu  Cu4  1  0.63152300  0.71853900  0.96975700  1
  Cu  Cu5  1  0.36847700  0.28146100  0.03024300  1
  Cu  Cu6  1  0.13152300  0.78146100  0.53024300  1
  Cu  Cu7  1  0.86847700  0.21853900  0.46975700  1
  C  C8  1  0.86532000  0.87233700  0.31563200  1
  C  C9  1  0.13468000  0.12766300  0.68436800  1
  C  C10  1  0.36532000  0.62766300  0.18436800  1
  C  C11  1  0.63468000  0.37233700  0.81563200  1
  C  C12  1  0.80221000  0.60137800  0.60818300  1
  C  C13  1  0.19779000  0.39862200  0.39181700  1
  C  C14  1  0.30221000  0.89862200  0.89181700  1
  C  C15  1  0.69779000  0.10137800  0.10818300  1
  C  C16  1  0.98647500  0.97124800  0.30275600  1
  C  C17  1  0.01352500  0.02875200  0.69724400  1
  C  C18  1  0.48647500  0.52875200  0.19724400  1
  C  C19  1  0.51352500  0.47124800  0.80275600  1
  C  C20  1  0.79264100  0.76275300  0.17405900  1
  C  C21  1  0.20735900  0.23724700  0.82594100  1
  C  C22  1  0.29264100  0.73724700  0.32594100  1
  C  C23  1  0.70735900  0.26275300  0.67405900  1
  C  C24  1  0.69707300  0.68026800  0.73969800  1
  C  C25  1  0.30292700  0.31973200  0.26030200  1
  C  C26  1  0.19707300  0.81973200  0.76030200  1
  C  C27  1  0.80292700  0.18026800  0.23969800  1
  C  C28  1  0.88791000  0.77080000  0.93341900  1
  C  C29  1  0.11209000  0.22920000  0.06658100  1
  C  C30  1  0.38791000  0.72920000  0.56658100  1
  C  C31  1  0.61209000  0.27080000  0.43341900  1
  C  C32  1  0.74541800  0.98170500  0.42067400  1
  C  C33  1  0.25458200  0.01829500  0.57932600  1
  C  C34  1  0.24541800  0.51829500  0.07932600  1
  C  C35  1  0.75458200  0.48170500  0.92067400  1
  C  C36  1  0.20834000  0.97098200  0.02771700  1
  C  C37  1  0.79166000  0.02901800  0.97228300  1
  C  C38  1  0.70834000  0.52901800  0.47228300  1
  C  C39  1  0.29166000  0.47098200  0.52771700  1
  C  C40  1  0.40386200  0.77722300  0.88767100  1
  C  C41  1  0.59613800  0.22277700  0.11232900  1
  C  C42  1  0.90386200  0.72277700  0.61232900  1
  C  C43  1  0.09613800  0.27722300  0.38767100  1
  C  C44  1  0.60308800  0.98354300  0.11926400  1
  C  C45  1  0.39691200  0.01645700  0.88073600  1
  C  C46  1  0.10308800  0.51645700  0.38073600  1
  C  C47  1  0.89691200  0.48354300  0.61926400  1
  C  C48  1  0.93559500  0.78076100  0.37596300  1
  C  C49  1  0.06440500  0.21923900  0.62403700  1
  C  C50  1  0.43559500  0.71923900  0.12403700  1
  C  C51  1  0.56440500  0.28076100  0.87596300  1
