# generated using pymatgen
data_Cu(NiC9)3
_symmetry_space_group_name_H-M   'P 1'
_cell_length_a   7.27406605
_cell_length_b   7.27406605
_cell_length_c   17.50285500
_cell_angle_alpha   90.00000000
_cell_angle_beta   90.00000000
_cell_angle_gamma   120.00000043
_symmetry_Int_Tables_number   1
_chemical_formula_structural   Cu(NiC9)3
_chemical_formula_sum   'Cu2 Ni6 C54'
_cell_volume   802.03626327
_cell_formula_units_Z   2
loop_
 _symmetry_equiv_pos_site_id
 _symmetry_equiv_pos_as_xyz
  1  'x, y, z'
loop_
 _atom_site_type_symbol
 _atom_site_label
 _atom_site_symmetry_multiplicity
 _atom_site_fract_x
 _atom_site_fract_y
 _atom_site_fract_z
 _atom_site_occupancy
  Ni  Ni0  1  0.66666700  0.33333300  0.86772400  1
  Ni  Ni1  1  0.33333300  0.66666700  0.13227600  1
  Ni  Ni2  1  0.33333300  0.66666700  0.36772400  1
  Ni  Ni3  1  0.66666700  0.33333300  0.63227600  1
  Ni  Ni4  1  0.00000000  0.00000000  0.75000000  1
  Ni  Ni5  1  0.00000000  0.00000000  0.25000000  1
  Cu  Cu6  1  0.00000000  0.00000000  0.00000000  1
  Cu  Cu7  1  0.00000000  0.00000000  0.50000000  1
  C  C8  1  0.55017600  0.83496300  0.91820900  1
  C  C9  1  0.44982400  0.16503700  0.08179100  1
  C  C10  1  0.28478700  0.44982400  0.91820900  1
  C  C11  1  0.44982400  0.16503700  0.41820900  1
  C  C12  1  0.71521300  0.55017600  0.08179100  1
  C  C13  1  0.55017600  0.83496300  0.58179100  1
  C  C14  1  0.16503700  0.71521300  0.91820900  1
  C  C15  1  0.71521300  0.55017600  0.41820900  1
  C  C16  1  0.83496300  0.28478700  0.08179100  1
  C  C17  1  0.28478700  0.44982400  0.58179100  1
  C  C18  1  0.83496300  0.28478700  0.41820900  1
  C  C19  1  0.16503700  0.71521300  0.58179100  1
  C  C20  1  0.50484900  0.62215400  0.75000000  1
  C  C21  1  0.49515100  0.37784600  0.25000000  1
  C  C22  1  0.11730500  0.49515100  0.75000000  1
  C  C23  1  0.88269500  0.50484900  0.25000000  1
  C  C24  1  0.37784600  0.88269500  0.75000000  1
  C  C25  1  0.62215400  0.11730500  0.25000000  1
  C  C26  1  0.54203400  0.83304700  0.75000000  1
  C  C27  1  0.45796600  0.16695300  0.25000000  1
  C  C28  1  0.29101300  0.45796600  0.75000000  1
  C  C29  1  0.70898700  0.54203400  0.25000000  1
  C  C30  1  0.16695300  0.70898700  0.75000000  1
  C  C31  1  0.83304700  0.29101300  0.25000000  1
  C  C32  1  0.91994800  0.33279500  0.75000000  1
  C  C33  1  0.08005200  0.66720500  0.25000000  1
  C  C34  1  0.41284700  0.08005200  0.75000000  1
  C  C35  1  0.58715300  0.91994800  0.25000000  1
  C  C36  1  0.66720500  0.58715300  0.75000000  1
  C  C37  1  0.33279500  0.41284700  0.25000000  1
  C  C38  1  0.74982700  0.99506800  0.91907400  1
  C  C39  1  0.25017300  0.00493200  0.08092600  1
  C  C40  1  0.24524100  0.25017300  0.91907400  1
  C  C41  1  0.25017300  0.00493200  0.41907400  1
  C  C42  1  0.75475900  0.74982700  0.08092600  1
  C  C43  1  0.74982700  0.99506800  0.58092600  1
  C  C44  1  0.00493200  0.75475900  0.91907400  1
  C  C45  1  0.75475900  0.74982700  0.41907400  1
  C  C46  1  0.99506800  0.24524100  0.08092600  1
  C  C47  1  0.24524100  0.25017300  0.58092600  1
  C  C48  1  0.99506800  0.24524100  0.41907400  1
  C  C49  1  0.00493200  0.75475900  0.58092600  1
  C  C50  1  0.49672400  0.61985600  0.91807300  1
  C  C51  1  0.50327600  0.38014400  0.08192700  1
  C  C52  1  0.12313200  0.50327600  0.91807300  1
  C  C53  1  0.50327600  0.38014400  0.41807300  1
  C  C54  1  0.87686800  0.49672400  0.08192700  1
  C  C55  1  0.49672400  0.61985600  0.58192700  1
  C  C56  1  0.38014400  0.87686800  0.91807300  1
  C  C57  1  0.87686800  0.49672400  0.41807300  1
  C  C58  1  0.61985600  0.12313200  0.08192700  1
  C  C59  1  0.12313200  0.50327600  0.58192700  1
  C  C60  1  0.61985600  0.12313200  0.41807300  1
  C  C61  1  0.38014400  0.87686800  0.58192700  1
