# generated using pymatgen
data_Cu8Ni5C3
_symmetry_space_group_name_H-M   'P 1'
_cell_length_a   8.16398700
_cell_length_b   8.56190000
_cell_length_c   25.49276900
_cell_angle_alpha   90.00000000
_cell_angle_beta   90.00000000
_cell_angle_gamma   90.00000000
_symmetry_Int_Tables_number   1
_chemical_formula_structural   Cu8Ni5C3
_chemical_formula_sum   'Cu32 Ni20 C12'
_cell_volume   1781.92518612
_cell_formula_units_Z   4
loop_
 _symmetry_equiv_pos_site_id
 _symmetry_equiv_pos_as_xyz
  1  'x, y, z'
loop_
 _atom_site_type_symbol
 _atom_site_label
 _atom_site_symmetry_multiplicity
 _atom_site_fract_x
 _atom_site_fract_y
 _atom_site_fract_z
 _atom_site_occupancy
  C  C0  1  0.25000000  0.76205900  0.08009000  1
  C  C1  1  0.25000000  0.73794100  0.58009000  1
  C  C2  1  0.75000000  0.23794100  0.91991000  1
  C  C3  1  0.75000000  0.26205900  0.41991000  1
  C  C4  1  0.25000000  0.81960000  0.84105400  1
  C  C5  1  0.25000000  0.68040000  0.34105400  1
  C  C6  1  0.75000000  0.18040000  0.15894600  1
  C  C7  1  0.75000000  0.31960000  0.65894600  1
  Ni  Ni8  1  0.25000000  0.99102900  0.88602900  1
  Ni  Ni9  1  0.25000000  0.50897100  0.38602900  1
  Ni  Ni10  1  0.75000000  0.00897100  0.11397100  1
  Ni  Ni11  1  0.75000000  0.49102900  0.61397100  1
  Ni  Ni12  1  0.09367100  0.95555700  0.78492900  1
  Ni  Ni13  1  0.40632900  0.54444300  0.28492900  1
  Ni  Ni14  1  0.59367100  0.04444300  0.21507100  1
  Ni  Ni15  1  0.90632900  0.45555700  0.71507100  1
  Ni  Ni16  1  0.90632900  0.04444300  0.21507100  1
  Ni  Ni17  1  0.59367100  0.45555700  0.71507100  1
  Ni  Ni18  1  0.40632900  0.95555700  0.78492900  1
  Ni  Ni19  1  0.09367100  0.54444300  0.28492900  1
  Ni  Ni20  1  0.11729900  0.66728300  0.88299500  1
  Ni  Ni21  1  0.38270100  0.83271700  0.38299500  1
  Ni  Ni22  1  0.61729900  0.33271700  0.11700500  1
  Ni  Ni23  1  0.88270100  0.16728300  0.61700500  1
  Ni  Ni24  1  0.88270100  0.33271700  0.11700500  1
  Ni  Ni25  1  0.61729900  0.16728300  0.61700500  1
  Ni  Ni26  1  0.38270100  0.66728300  0.88299500  1
  Ni  Ni27  1  0.11729900  0.83271700  0.38299500  1
  Cu  Cu28  1  0.25000000  0.49980300  0.06144700  1
  Cu  Cu29  1  0.25000000  0.00019700  0.56144700  1
  Cu  Cu30  1  0.75000000  0.50019700  0.93855300  1
  Cu  Cu31  1  0.75000000  0.99980300  0.43855300  1
  Cu  Cu32  1  0.05120200  0.72243300  0.14249300  1
  Cu  Cu33  1  0.44879800  0.77756700  0.64249300  1
  Cu  Cu34  1  0.55120200  0.27756700  0.85750700  1
  Cu  Cu35  1  0.94879800  0.22243300  0.35750700  1
  Cu  Cu36  1  0.94879800  0.27756700  0.85750700  1
  Cu  Cu37  1  0.55120200  0.22243300  0.35750700  1
  Cu  Cu38  1  0.44879800  0.72243300  0.14249300  1
  Cu  Cu39  1  0.05120200  0.77756700  0.64249300  1
  Cu  Cu40  1  0.05125600  0.80181900  0.01767300  1
  Cu  Cu41  1  0.44874400  0.69818100  0.51767300  1
  Cu  Cu42  1  0.55125600  0.19818100  0.98232700  1
  Cu  Cu43  1  0.94874400  0.30181900  0.48232700  1
  Cu  Cu44  1  0.94874400  0.19818100  0.98232700  1
  Cu  Cu45  1  0.55125600  0.30181900  0.48232700  1
  Cu  Cu46  1  0.44874400  0.80181900  0.01767300  1
  Cu  Cu47  1  0.05125600  0.69818100  0.51767300  1
  Cu  Cu48  1  0.25000000  0.02463600  0.09953300  1
  Cu  Cu49  1  0.25000000  0.47536400  0.59953300  1
  Cu  Cu50  1  0.75000000  0.97536400  0.90046700  1
  Cu  Cu51  1  0.75000000  0.52463600  0.40046700  1
  Cu  Cu52  1  0.25000000  0.63113700  0.77107000  1
  Cu  Cu53  1  0.25000000  0.86886300  0.27107000  1
  Cu  Cu54  1  0.75000000  0.36886300  0.22893000  1
  Cu  Cu55  1  0.75000000  0.13113700  0.72893000  1
  Cu  Cu56  1  0.75000000  0.98379200  0.24198900  1
  Cu  Cu57  1  0.75000000  0.51620800  0.74198900  1
  Cu  Cu58  1  0.25000000  0.01620800  0.75801100  1
  Cu  Cu59  1  0.25000000  0.48379200  0.25801100  1
  C  C60  1  0.25000000  0.59126400  0.90151400  1
  C  C61  1  0.25000000  0.90873600  0.40151400  1
  C  C62  1  0.75000000  0.40873600  0.09848600  1
  C  C63  1  0.75000000  0.09126400  0.59848600  1
