# generated using pymatgen
data_Cu5Ni3C4
_symmetry_space_group_name_H-M   'P 1'
_cell_length_a   2.98721000
_cell_length_b   2.98721000
_cell_length_c   14.57903600
_cell_angle_alpha   90.00000000
_cell_angle_beta   90.00000000
_cell_angle_gamma   90.00000000
_symmetry_Int_Tables_number   1
_chemical_formula_structural   Cu5Ni3C4
_chemical_formula_sum   'Cu5 Ni3 C4'
_cell_volume   130.09491368
_cell_formula_units_Z   1
loop_
 _symmetry_equiv_pos_site_id
 _symmetry_equiv_pos_as_xyz
  1  'x, y, z'
loop_
 _atom_site_type_symbol
 _atom_site_label
 _atom_site_symmetry_multiplicity
 _atom_site_fract_x
 _atom_site_fract_y
 _atom_site_fract_z
 _atom_site_occupancy
  Ni  Ni0  1  0.00000000  0.00000000  0.67655500  1
  Ni  Ni1  1  0.50000000  0.50000000  0.49401200  1
  Ni  Ni2  1  0.50000000  0.50000000  0.00496800  1
  Cu  Cu3  1  0.00000000  0.00000000  0.37483600  1
  Cu  Cu4  1  0.00000000  0.00000000  0.88222100  1
  Cu  Cu5  1  0.50000000  0.50000000  0.28604700  1
  Cu  Cu6  1  0.50000000  0.50000000  0.79557400  1
  Cu  Cu7  1  0.00000000  0.00000000  0.17264100  1
  C  C8  1  0.00000000  0.00000000  0.02370800  1
  C  C9  1  0.00000000  0.00000000  0.51862300  1
  C  C10  1  0.50000000  0.50000000  0.15759200  1
  C  C11  1  0.50000000  0.50000000  0.65322200  1
