# generated using pymatgen
data_CuNiC7
_symmetry_space_group_name_H-M   'P 1'
_cell_length_a   8.85586743
_cell_length_b   8.85586743
_cell_length_c   4.73795400
_cell_angle_alpha   90.00000000
_cell_angle_beta   90.00000000
_cell_angle_gamma   119.99999573
_symmetry_Int_Tables_number   1
_chemical_formula_structural   CuNiC7
_chemical_formula_sum   'Cu3 Ni3 C21'
_cell_volume   321.79826883
_cell_formula_units_Z   3
loop_
 _symmetry_equiv_pos_site_id
 _symmetry_equiv_pos_as_xyz
  1  'x, y, z'
loop_
 _atom_site_type_symbol
 _atom_site_label
 _atom_site_symmetry_multiplicity
 _atom_site_fract_x
 _atom_site_fract_y
 _atom_site_fract_z
 _atom_site_occupancy
  C  C0  1  0.00000000  0.00000000  0.00000000  1
  C  C1  1  0.33333300  0.66666700  0.50131000  1
  C  C2  1  0.66666700  0.33333300  0.49869000  1
  Ni  Ni3  1  0.35398800  0.35398800  0.00000000  1
  Ni  Ni4  1  0.00000000  0.64601200  0.00000000  1
  Ni  Ni5  1  0.64601200  0.00000000  0.00000000  1
  Cu  Cu6  1  0.68564900  0.68564900  0.50000000  1
  Cu  Cu7  1  0.00000000  0.31435100  0.50000000  1
  Cu  Cu8  1  0.31435100  0.00000000  0.50000000  1
  C  C9  1  0.53088200  0.10927300  0.72925600  1
  C  C10  1  0.57839100  0.46911800  0.72925600  1
  C  C11  1  0.89072700  0.42160900  0.72925600  1
  C  C12  1  0.42160900  0.89072700  0.27074400  1
  C  C13  1  0.46911800  0.57839100  0.27074400  1
  C  C14  1  0.10927300  0.53088200  0.27074400  1
  C  C15  1  0.21972700  0.78065600  0.72465700  1
  C  C16  1  0.56093000  0.78027300  0.72465700  1
  C  C17  1  0.21934400  0.43907000  0.72465700  1
  C  C18  1  0.43907000  0.21934400  0.27534300  1
  C  C19  1  0.78027300  0.56093000  0.27534300  1
  C  C20  1  0.78065600  0.21972700  0.27534300  1
  C  C21  1  0.22110700  0.10823400  0.75676600  1
  C  C22  1  0.88712700  0.77889300  0.75676600  1
  C  C23  1  0.89176600  0.11287300  0.75676600  1
  C  C24  1  0.11287300  0.89176600  0.24323400  1
  C  C25  1  0.77889300  0.88712700  0.24323400  1
  C  C26  1  0.10823400  0.22110700  0.24323400  1
