# generated using pymatgen
data_Cu8Ni3C
_symmetry_space_group_name_H-M   'P 1'
_cell_length_a   6.37611876
_cell_length_b   6.37611876
_cell_length_c   6.37611876
_cell_angle_alpha   114.20440510
_cell_angle_beta   114.20440510
_cell_angle_gamma   100.37055668
_symmetry_Int_Tables_number   1
_chemical_formula_structural   Cu8Ni3C
_chemical_formula_sum   'Cu8 Ni3 C1'
_cell_volume   195.85945456
_cell_formula_units_Z   1
loop_
 _symmetry_equiv_pos_site_id
 _symmetry_equiv_pos_as_xyz
  1  'x, y, z'
loop_
 _atom_site_type_symbol
 _atom_site_label
 _atom_site_symmetry_multiplicity
 _atom_site_fract_x
 _atom_site_fract_y
 _atom_site_fract_z
 _atom_site_occupancy
  C  C0  1  0.00000000  0.00000000  0.00000000  1
  Ni  Ni1  1  0.75000000  0.25000000  0.50000000  1
  Ni  Ni2  1  0.25000000  0.75000000  0.50000000  1
  Ni  Ni3  1  0.50000000  0.50000000  0.00000000  1
  Cu  Cu4  1  0.22122400  0.22122400  0.42253000  1
  Cu  Cu5  1  0.79869500  0.79869500  0.57747000  1
  Cu  Cu6  1  0.77877600  0.20130500  0.00000000  1
  Cu  Cu7  1  0.20130500  0.77877600  0.00000000  1
  Cu  Cu8  1  0.32796600  0.32796600  0.32105600  1
  Cu  Cu9  1  0.00691000  0.00691000  0.67894400  1
  Cu  Cu10  1  0.67203400  0.99309000  0.00000000  1
  Cu  Cu11  1  0.99309000  0.67203400  0.00000000  1
