# generated using pymatgen
data_Cu(NiC8)3
_symmetry_space_group_name_H-M   'P 1'
_cell_length_a   7.67367223
_cell_length_b   7.93873914
_cell_length_c   24.38351536
_cell_angle_alpha   91.39922951
_cell_angle_beta   90.00000000
_cell_angle_gamma   90.00000000
_symmetry_Int_Tables_number   1
_chemical_formula_structural   Cu(NiC8)3
_chemical_formula_sum   'Cu4 Ni12 C96'
_cell_volume   1484.98332319
_cell_formula_units_Z   4
loop_
 _symmetry_equiv_pos_site_id
 _symmetry_equiv_pos_as_xyz
  1  'x, y, z'
loop_
 _atom_site_type_symbol
 _atom_site_label
 _atom_site_symmetry_multiplicity
 _atom_site_fract_x
 _atom_site_fract_y
 _atom_site_fract_z
 _atom_site_occupancy
  Ni  Ni0  1  0.81628952  0.70761816  0.63440740  1
  Ni  Ni1  1  0.18371048  0.29238184  0.36559260  1
  Ni  Ni2  1  0.31628952  0.79238184  0.86559260  1
  Ni  Ni3  1  0.68371048  0.20761816  0.13440740  1
  Ni  Ni4  1  0.55785355  0.99870736  0.74515878  1
  Ni  Ni5  1  0.44214645  0.00129264  0.25484122  1
  Ni  Ni6  1  0.05785355  0.50129264  0.75484122  1
  Ni  Ni7  1  0.94214645  0.49870736  0.24515878  1
  Ni  Ni8  1  0.28976621  0.74200902  0.52569183  1
  Ni  Ni9  1  0.71023379  0.25799098  0.47430817  1
  Ni  Ni10  1  0.78976621  0.75799098  0.97430817  1
  Ni  Ni11  1  0.21023379  0.24200902  0.02569183  1
  Cu  Cu12  1  0.30579420  0.24263786  0.60967415  1
  Cu  Cu13  1  0.69420580  0.75736214  0.39032585  1
  Cu  Cu14  1  0.80579420  0.25736214  0.89032585  1
  Cu  Cu15  1  0.19420580  0.74263786  0.10967415  1
  C  C16  1  0.79838719  0.73523074  0.73523977  1
  C  C17  1  0.20161281  0.26476926  0.26476023  1
  C  C18  1  0.29838719  0.76476926  0.76476023  1
  C  C19  1  0.70161281  0.23523074  0.23523977  1
  C  C20  1  0.30221414  0.26090250  0.73025662  1
  C  C21  1  0.69778586  0.73909750  0.26974338  1
  C  C22  1  0.80221414  0.23909750  0.76974338  1
  C  C23  1  0.19778586  0.76090250  0.23025662  1
  C  C24  1  0.49214912  0.14545953  0.94605960  1
  C  C25  1  0.50785088  0.85454047  0.05394040  1
  C  C26  1  0.99214912  0.35454047  0.55394040  1
  C  C27  1  0.00785088  0.64545953  0.44605960  1
  C  C28  1  0.12861385  0.40033668  0.93617096  1
  C  C29  1  0.87138615  0.59966332  0.06382904  1
  C  C30  1  0.62861385  0.09966332  0.56382904  1
  C  C31  1  0.37138615  0.90033668  0.43617096  1
  C  C32  1  0.11434538  0.92401949  0.60638922  1
  C  C33  1  0.88565462  0.07598051  0.39361078  1
  C  C34  1  0.61434538  0.57598051  0.89361078  1
  C  C35  1  0.38565462  0.42401949  0.10638922  1
  C  C36  1  0.00745227  0.94474966  0.90279668  1
  C  C37  1  0.99254773  0.05525034  0.09720332  1
  C  C38  1  0.50745227  0.55525034  0.59720332  1
  C  C39  1  0.49254773  0.44474966  0.40279668  1
  C  C40  1  0.39712858  0.15510738  0.70240566  1
  C  C41  1  0.60287142  0.84489262  0.29759434  1
  C  C42  1  0.89712858  0.34489262  0.79759434  1
  C  C43  1  0.10287142  0.65510738  0.20240566  1
  C  C44  1  0.52398177  0.09151220  0.89738302  1
  C  C45  1  0.47601823  0.90848780  0.10261698  1
  C  C46  1  0.02398177  0.40848780  0.60261698  1
  C  C47  1  0.97601823  0.59151220  0.39738302  1
  C  C48  1  0.60459589  0.24532537  0.96812407  1
  C  C49  1  0.39540411  0.75467463  0.03187593  1
  C  C50  1  0.10459589  0.25467463  0.53187593  1
  C  C51  1  0.89540411  0.74532537  0.46812407  1
  C  C52  1  0.30024516  0.26856385  0.78045547  1
  C  C53  1  0.69975484  0.73143615  0.21954453  1
  C  C54  1  0.80024516  0.23143615  0.71954453  1
  C  C55  1  0.19975484  0.76856385  0.28045547  1
  C  C56  1  0.26324947  0.45625954  0.95728398  1
  C  C57  1  0.73675053  0.54374046  0.04271602  1
  C  C58  1  0.76324947  0.04374046  0.54271602  1
  C  C59  1  0.23675053  0.95625954  0.45728398  1
  C  C60  1  0.04841437  0.05467476  0.86794443  1
  C  C61  1  0.95158563  0.94532524  0.13205557  1
  C  C62  1  0.54841437  0.44532524  0.63205557  1
  C  C63  1  0.45158563  0.55467476  0.36794443  1
  C  C64  1  0.35764793  0.10271381  0.97086151  1
  C  C65  1  0.64235207  0.89728619  0.02913849  1
  C  C66  1  0.85764793  0.39728619  0.52913849  1
  C  C67  1  0.14235207  0.60271381  0.47086151  1
  C  C68  1  0.29597398  0.75440983  0.71393277  1
  C  C69  1  0.70402602  0.24559017  0.28606723  1
  C  C70  1  0.79597398  0.74559017  0.78606723  1
  C  C71  1  0.20402602  0.25440983  0.21393277  1
  C  C72  1  0.63591857  0.46974086  0.42948307  1
  C  C73  1  0.36408143  0.53025914  0.57051693  1
  C  C74  1  0.13591857  0.03025914  0.07051693  1
  C  C75  1  0.86408143  0.96974086  0.92948307  1
  C  C76  1  0.03277265  0.79029156  0.59946106  1
  C  C77  1  0.96722735  0.20970844  0.40053894  1
  C  C78  1  0.53277265  0.70970844  0.90053894  1
  C  C79  1  0.46722735  0.29029156  0.09946106  1
  C  C80  1  0.02443513  0.30442685  0.96466082  1
  C  C81  1  0.97556487  0.69557315  0.03533918  1
  C  C82  1  0.52443513  0.19557315  0.53533918  1
  C  C83  1  0.47556487  0.80442685  0.46466082  1
  C  C84  1  0.08166294  0.42732941  0.88743132  1
  C  C85  1  0.91833706  0.57267059  0.11256868  1
  C  C86  1  0.58166294  0.07267059  0.61256868  1
  C  C87  1  0.41833706  0.92732941  0.38743132  1
  C  C88  1  0.20846687  0.35915361  0.70058520  1
  C  C89  1  0.79153313  0.64084639  0.29941480  1
  C  C90  1  0.70846687  0.14084639  0.79941480  1
  C  C91  1  0.29153313  0.85915361  0.20058520  1
  C  C92  1  0.59896651  0.68034313  0.58827125  1
  C  C93  1  0.40103349  0.31965687  0.41172875  1
  C  C94  1  0.09896651  0.81965687  0.91172875  1
  C  C95  1  0.90103349  0.18034313  0.08827125  1
  C  C96  1  0.06414088  0.04497770  0.63727686  1
  C  C97  1  0.93585912  0.95502230  0.36272314  1
  C  C98  1  0.56414088  0.45502230  0.86272314  1
  C  C99  1  0.43585912  0.54497770  0.13727686  1
  C  C100  1  0.25966626  0.94468595  0.58054227  1
  C  C101  1  0.74033374  0.05531405  0.41945773  1
  C  C102  1  0.75966626  0.55531405  0.91945773  1
  C  C103  1  0.24033374  0.44468595  0.08054227  1
  C  C104  1  0.39147482  0.87502054  0.79077869  1
  C  C105  1  0.60852518  0.12497946  0.20922131  1
  C  C106  1  0.89147482  0.62497946  0.70922131  1
  C  C107  1  0.10852518  0.37502054  0.29077869  1
  C  C108  1  0.70901082  0.83338423  0.70519418  1
  C  C109  1  0.29098918  0.16661577  0.29480582  1
  C  C110  1  0.20901082  0.66661577  0.79480582  1
  C  C111  1  0.79098918  0.33338423  0.20519418  1
