# generated using pymatgen
data_Cu3(NiC2)2
_symmetry_space_group_name_H-M   'P 1'
_cell_length_a   3.71563500
_cell_length_b   11.06076400
_cell_length_c   12.74595300
_cell_angle_alpha   90.00000000
_cell_angle_beta   90.00000000
_cell_angle_gamma   90.00000000
_symmetry_Int_Tables_number   1
_chemical_formula_structural   Cu3(NiC2)2
_chemical_formula_sum   'Cu12 Ni8 C16'
_cell_volume   523.83014088
_cell_formula_units_Z   4
loop_
 _symmetry_equiv_pos_site_id
 _symmetry_equiv_pos_as_xyz
  1  'x, y, z'
loop_
 _atom_site_type_symbol
 _atom_site_label
 _atom_site_symmetry_multiplicity
 _atom_site_fract_x
 _atom_site_fract_y
 _atom_site_fract_z
 _atom_site_occupancy
  C  C0  1  0.25000000  0.41751000  0.38393700  1
  C  C1  1  0.25000000  0.08249000  0.88393700  1
  C  C2  1  0.75000000  0.58249000  0.61606300  1
  C  C3  1  0.75000000  0.91751000  0.11606300  1
  C  C4  1  0.25000000  0.27529900  0.62751300  1
  C  C5  1  0.25000000  0.22470100  0.12751300  1
  C  C6  1  0.75000000  0.72470100  0.37248700  1
  C  C7  1  0.75000000  0.77529900  0.87248700  1
  C  C8  1  0.75000000  0.11123400  0.38543500  1
  C  C9  1  0.75000000  0.38876600  0.88543500  1
  C  C10  1  0.25000000  0.88876600  0.61456500  1
  C  C11  1  0.25000000  0.61123400  0.11456500  1
  C  C12  1  0.75000000  0.08156200  0.70957000  1
  C  C13  1  0.75000000  0.41843800  0.20957000  1
  C  C14  1  0.25000000  0.91843800  0.29043000  1
  C  C15  1  0.25000000  0.58156200  0.79043000  1
  Ni  Ni16  1  0.25000000  0.46748600  0.73294900  1
  Ni  Ni17  1  0.25000000  0.03251400  0.23294900  1
  Ni  Ni18  1  0.75000000  0.53251400  0.26705100  1
  Ni  Ni19  1  0.75000000  0.96748600  0.76705100  1
  Ni  Ni20  1  0.75000000  0.19961500  0.76148800  1
  Ni  Ni21  1  0.75000000  0.30038500  0.26148800  1
  Ni  Ni22  1  0.25000000  0.80038500  0.23851200  1
  Ni  Ni23  1  0.25000000  0.69961500  0.73851200  1
  Cu  Cu24  1  0.25000000  0.60972700  0.46678000  1
  Cu  Cu25  1  0.25000000  0.89027300  0.96678000  1
  Cu  Cu26  1  0.75000000  0.39027300  0.53322000  1
  Cu  Cu27  1  0.75000000  0.10972700  0.03322000  1
  Cu  Cu28  1  0.25000000  0.21070500  0.44610400  1
  Cu  Cu29  1  0.25000000  0.28929500  0.94610400  1
  Cu  Cu30  1  0.75000000  0.78929500  0.55389600  1
  Cu  Cu31  1  0.75000000  0.71070500  0.05389600  1
  Cu  Cu32  1  0.75000000  0.07861300  0.59597900  1
  Cu  Cu33  1  0.75000000  0.42138700  0.09597900  1
  Cu  Cu34  1  0.25000000  0.92138700  0.40402100  1
  Cu  Cu35  1  0.25000000  0.57861300  0.90402100  1
