# generated using pymatgen
data_Cu2(NiC20)3
_symmetry_space_group_name_H-M   'P 1'
_cell_length_a   3.85692026
_cell_length_b   19.62160803
_cell_length_c   11.87861246
_cell_angle_alpha   90.00000000
_cell_angle_beta   90.00000000
_cell_angle_gamma   90.00000000
_symmetry_Int_Tables_number   1
_chemical_formula_structural   Cu2(NiC20)3
_chemical_formula_sum   'Cu2 Ni3 C60'
_cell_volume   898.96124562
_cell_formula_units_Z   1
loop_
 _symmetry_equiv_pos_site_id
 _symmetry_equiv_pos_as_xyz
  1  'x, y, z'
loop_
 _atom_site_type_symbol
 _atom_site_label
 _atom_site_symmetry_multiplicity
 _atom_site_fract_x
 _atom_site_fract_y
 _atom_site_fract_z
 _atom_site_occupancy
  C  C0  1  0.50000000  0.09991748  0.17925385  1
  C  C1  1  0.50000000  0.30007063  0.17977789  1
  C  C2  1  0.50000000  0.49992937  0.17977789  1
  C  C3  1  0.50000000  0.70008252  0.17925385  1
  C  C4  1  0.50000000  0.90000000  0.17897959  1
  C  C5  1  0.50000000  0.09991748  0.82074615  1
  C  C6  1  0.50000000  0.30007063  0.82022211  1
  C  C7  1  0.50000000  0.49992937  0.82022211  1
  C  C8  1  0.50000000  0.70008252  0.82074615  1
  C  C9  1  0.50000000  0.90000000  0.82102041  1
  Ni  Ni10  1  0.50000000  0.10040369  0.50000000  1
  Ni  Ni11  1  0.50000000  0.69959631  0.50000000  1
  Ni  Ni12  1  0.50000000  0.90000000  0.50000000  1
  Cu  Cu13  1  0.50000000  0.30025783  0.50000000  1
  Cu  Cu14  1  0.50000000  0.49974217  0.50000000  1
  C  C15  1  0.00000000  0.00016933  0.35070698  1
  C  C16  1  0.00000000  0.20061327  0.35110386  1
  C  C17  1  0.00000000  0.40000000  0.35211286  1
  C  C18  1  0.00000000  0.59938673  0.35110386  1
  C  C19  1  0.00000000  0.79983067  0.35070698  1
  C  C20  1  0.00000000  0.00016933  0.64929302  1
  C  C21  1  0.00000000  0.20061327  0.64889614  1
  C  C22  1  0.00000000  0.40000000  0.64788714  1
  C  C23  1  0.00000000  0.59938673  0.64889614  1
  C  C24  1  0.00000000  0.79983067  0.64929302  1
  C  C25  1  0.00000000  0.00006968  0.00000000  1
  C  C26  1  0.00000000  0.20012981  0.00000000  1
  C  C27  1  0.00000000  0.40000000  0.00000000  1
  C  C28  1  0.00000000  0.59987019  0.00000000  1
  C  C29  1  0.00000000  0.79993032  0.00000000  1
  C  C30  1  0.00000000  0.99997229  0.15877320  1
  C  C31  1  0.00000000  0.20012518  0.15886992  1
  C  C32  1  0.00000000  0.40000000  0.15895923  1
  C  C33  1  0.00000000  0.59987482  0.15886992  1
  C  C34  1  0.00000000  0.80002771  0.15877320  1
  C  C35  1  0.00000000  0.99997229  0.84122680  1
  C  C36  1  0.00000000  0.20012518  0.84113008  1
  C  C37  1  0.00000000  0.40000000  0.84104077  1
  C  C38  1  0.00000000  0.59987482  0.84113008  1
  C  C39  1  0.00000000  0.80002771  0.84122680  1
  C  C40  1  0.00000000  0.10044960  0.37577453  1
  C  C41  1  0.00000000  0.30039860  0.37850408  1
  C  C42  1  0.00000000  0.49960140  0.37850408  1
  C  C43  1  0.00000000  0.69955040  0.37577453  1
  C  C44  1  0.00000000  0.90000000  0.37579062  1
  C  C45  1  0.00000000  0.10044960  0.62422547  1
  C  C46  1  0.00000000  0.30039860  0.62149592  1
  C  C47  1  0.00000000  0.49960140  0.62149592  1
  C  C48  1  0.00000000  0.69955040  0.62422547  1
  C  C49  1  0.00000000  0.90000000  0.62420938  1
  C  C50  1  0.00000000  0.10006773  0.00000000  1
  C  C51  1  0.00000000  0.30008818  0.00000000  1
  C  C52  1  0.00000000  0.49991182  0.00000000  1
  C  C53  1  0.00000000  0.69993227  0.00000000  1
  C  C54  1  0.00000000  0.90000000  0.00000000  1
  C  C55  1  0.50000000  0.00025089  0.37730075  1
  C  C56  1  0.50000000  0.20138861  0.37853390  1
  C  C57  1  0.50000000  0.40000000  0.37978730  1
  C  C58  1  0.50000000  0.59861139  0.37853390  1
  C  C59  1  0.50000000  0.79974911  0.37730075  1
  C  C60  1  0.50000000  0.00025089  0.62269925  1
  C  C61  1  0.50000000  0.20138861  0.62146610  1
  C  C62  1  0.50000000  0.40000000  0.62021270  1
  C  C63  1  0.50000000  0.59861139  0.62146610  1
  C  C64  1  0.50000000  0.79974911  0.62269925  1
