# generated using pymatgen
data_CuNi149
_symmetry_space_group_name_H-M   'P 1'
_cell_length_a   15.90719282
_cell_length_b   15.90719820
_cell_length_c   15.59195195
_cell_angle_alpha   90.00000000
_cell_angle_beta   90.00000000
_cell_angle_gamma   120.00001359
_symmetry_Int_Tables_number   1
_chemical_formula_structural   CuNi149
_chemical_formula_sum   'Cu1 Ni149'
_cell_volume   3416.79008055
_cell_formula_units_Z   1
loop_
 _symmetry_equiv_pos_site_id
 _symmetry_equiv_pos_as_xyz
  1  'x, y, z'
loop_
 _atom_site_type_symbol
 _atom_site_label
 _atom_site_symmetry_multiplicity
 _atom_site_fract_x
 _atom_site_fract_y
 _atom_site_fract_z
 _atom_site_occupancy
  Ni  Ni0  1  0.19945051  0.00065643  0.00000000  1
  Ni  Ni1  1  0.80120591  0.00065643  0.00000000  1
  Ni  Ni2  1  0.19945051  0.19879409  0.00000000  1
  Ni  Ni3  1  0.99934357  0.19879409  0.00000000  1
  Ni  Ni4  1  0.39956409  0.19978155  0.00000000  1
  Ni  Ni5  1  0.80021845  0.19978155  0.00000000  1
  Ni  Ni6  1  0.59993081  0.19986162  0.00000000  1
  Ni  Ni7  1  0.19960082  0.39920264  0.00000000  1
  Ni  Ni8  1  0.39985284  0.39992063  0.00000000  1
  Ni  Ni9  1  0.00006779  0.39992163  0.00000000  1
  Ni  Ni10  1  0.59993081  0.40006919  0.00000000  1
  Ni  Ni11  1  0.80013838  0.40006919  0.00000000  1
  Ni  Ni12  1  0.40004622  0.59995378  0.00000000  1
  Ni  Ni13  1  0.19990756  0.59995378  0.00000000  1
  Ni  Ni14  1  0.00006779  0.60014616  0.00000000  1
  Ni  Ni15  1  0.60007937  0.60014716  0.00000000  1
  Ni  Ni16  1  0.80021845  0.60043591  0.00000000  1
  Ni  Ni17  1  0.40004622  0.80009244  0.00000000  1
  Ni  Ni18  1  0.19960082  0.80039818  0.00000000  1
  Ni  Ni19  1  0.60079736  0.80039918  0.00000000  1
  Ni  Ni20  1  0.99934357  0.80054849  0.00000000  1
  Ni  Ni21  1  0.80120591  0.80054949  0.00000000  1
  Ni  Ni22  1  0.39985284  0.99993221  0.00000000  1
  Ni  Ni23  1  0.60007937  0.99993221  0.00000000  1
  Ni  Ni24  1  0.06639305  0.13278610  0.16601345  1
  Ni  Ni25  1  0.86721390  0.93360695  0.16601345  1
  Ni  Ni26  1  0.06639305  0.93360695  0.16601345  1
  Ni  Ni27  1  0.26637044  0.33281093  0.16640243  1
  Ni  Ni28  1  0.06644150  0.33281093  0.16640243  1
  Ni  Ni29  1  0.06644150  0.73362956  0.16640243  1
  Ni  Ni30  1  0.66718907  0.73362956  0.16640243  1
  Ni  Ni31  1  0.66718907  0.93355950  0.16640243  1
  Ni  Ni32  1  0.26637044  0.93355950  0.16640243  1
  Ni  Ni33  1  0.46682092  0.13334886  0.16656278  1
  Ni  Ni34  1  0.66652794  0.13334886  0.16656278  1
  Ni  Ni35  1  0.46682092  0.33347206  0.16656278  1
  Ni  Ni36  1  0.86665114  0.33347206  0.16656278  1
  Ni  Ni37  1  0.66652794  0.53317908  0.16656278  1
  Ni  Ni38  1  0.86665114  0.53317908  0.16656278  1
  Ni  Ni39  1  0.66666600  0.33333300  0.16662244  1
  Ni  Ni40  1  0.46664426  0.53335474  0.16659942  1
  Ni  Ni41  1  0.06671048  0.53335574  0.16659942  1
  Ni  Ni42  1  0.46664426  0.93328952  0.16659942  1
  Ni  Ni43  1  0.26657300  0.53314800  0.16665896  1
  Ni  Ni44  1  0.26657300  0.73342600  0.16665896  1
  Ni  Ni45  1  0.46685200  0.73342600  0.16665896  1
  Ni  Ni46  1  0.86634374  0.13365626  0.16716328  1
  Ni  Ni47  1  0.26731253  0.13365626  0.16716328  1
  Ni  Ni48  1  0.86634374  0.73268747  0.16716328  1
  Ni  Ni49  1  0.00000000  0.00000000  0.33291635  1
  Ni  Ni50  1  0.19981660  0.99996325  0.33326190  1
  Ni  Ni51  1  0.80014665  0.99996325  0.33326190  1
  Ni  Ni52  1  0.00003675  0.19985335  0.33326190  1
  Ni  Ni53  1  0.19981660  0.19985335  0.33326190  1
  Ni  Ni54  1  0.80014665  0.80018340  0.33326190  1
  Ni  Ni55  1  0.00003675  0.80018340  0.33326190  1
  Ni  Ni56  1  0.39987289  0.00003345  0.33322033  1
  Ni  Ni57  1  0.60016056  0.00003345  0.33322033  1
  Ni  Ni58  1  0.99996655  0.39983944  0.33322033  1
  Ni  Ni59  1  0.39987289  0.39984044  0.33322033  1
  Ni  Ni60  1  0.99996655  0.60012611  0.33322033  1
  Ni  Ni61  1  0.60016056  0.60012611  0.33322033  1
  Ni  Ni62  1  0.19995723  0.39991446  0.33322904  1
  Ni  Ni63  1  0.19995723  0.80004277  0.33322904  1
  Ni  Ni64  1  0.60008454  0.80004277  0.33322904  1
  Ni  Ni65  1  0.60000749  0.20001498  0.33327962  1
  Ni  Ni66  1  0.60000749  0.39999251  0.33327962  1
  Ni  Ni67  1  0.79998502  0.39999251  0.33327962  1
  Ni  Ni68  1  0.79998038  0.20001962  0.33339657  1
  Ni  Ni69  1  0.40003925  0.20001962  0.33339657  1
  Ni  Ni70  1  0.79998038  0.59996075  0.33339657  1
  Ni  Ni71  1  0.40000424  0.59999576  0.33340934  1
  Ni  Ni72  1  0.19999252  0.59999676  0.33340934  1
  Ni  Ni73  1  0.40000424  0.80000748  0.33340934  1
  Ni  Ni74  1  0.06663468  0.13326937  0.50000000  1
  Ni  Ni75  1  0.86669154  0.13330846  0.50000000  1
  Ni  Ni76  1  0.26661592  0.13330846  0.50000000  1
  Ni  Ni77  1  0.46674976  0.13332491  0.50000000  1
  Ni  Ni78  1  0.66657616  0.13332491  0.50000000  1
  Ni  Ni79  1  0.26670903  0.33326950  0.50000000  1
  Ni  Ni80  1  0.06656048  0.33326950  0.50000000  1
  Ni  Ni81  1  0.66666600  0.33333300  0.50000000  1
  Ni  Ni82  1  0.86667509  0.33342384  0.50000000  1
  Ni  Ni83  1  0.46674976  0.33342484  0.50000000  1
  Ni  Ni84  1  0.86667509  0.53325024  0.50000000  1
  Ni  Ni85  1  0.66657616  0.53325124  0.50000000  1
  Ni  Ni86  1  0.46671824  0.53328176  0.50000000  1
  Ni  Ni87  1  0.06656451  0.53328276  0.50000000  1
  Ni  Ni88  1  0.26662001  0.53324102  0.50000000  1
  Ni  Ni89  1  0.06656048  0.73329097  0.50000000  1
  Ni  Ni90  1  0.66673050  0.73329097  0.50000000  1
  Ni  Ni91  1  0.26662001  0.73337899  0.50000000  1
  Ni  Ni92  1  0.46675998  0.73337999  0.50000000  1
  Ni  Ni93  1  0.86669154  0.73338308  0.50000000  1
  Ni  Ni94  1  0.86673063  0.93336532  0.50000000  1
  Ni  Ni95  1  0.06663468  0.93336532  0.50000000  1
  Ni  Ni96  1  0.66673050  0.93343952  0.50000000  1
  Ni  Ni97  1  0.26670903  0.93343952  0.50000000  1
  Ni  Ni98  1  0.46671824  0.93343649  0.50000000  1
  Ni  Ni99  1  0.40000424  0.59999576  0.66659066  1
  Ni  Ni100  1  0.19999252  0.59999676  0.66659066  1
  Ni  Ni101  1  0.40000424  0.80000748  0.66659066  1
  Ni  Ni102  1  0.79998038  0.20001962  0.66660343  1
  Ni  Ni103  1  0.40003925  0.20001962  0.66660343  1
  Ni  Ni104  1  0.79998038  0.59996075  0.66660343  1
  Ni  Ni105  1  0.60000749  0.20001498  0.66672038  1
  Ni  Ni106  1  0.60000749  0.39999251  0.66672038  1
  Ni  Ni107  1  0.79998502  0.39999251  0.66672038  1
  Ni  Ni108  1  0.19995723  0.39991446  0.66676996  1
  Ni  Ni109  1  0.19995723  0.80004277  0.66676996  1
  Ni  Ni110  1  0.60008454  0.80004277  0.66676996  1
  Ni  Ni111  1  0.39987289  0.00003345  0.66677967  1
  Ni  Ni112  1  0.60016056  0.00003345  0.66677967  1
  Ni  Ni113  1  0.99996655  0.39983944  0.66677967  1
  Ni  Ni114  1  0.39987289  0.39984044  0.66677967  1
  Ni  Ni115  1  0.99996655  0.60012611  0.66677967  1
  Ni  Ni116  1  0.60016056  0.60012611  0.66677967  1
  Ni  Ni117  1  0.19981660  0.99996325  0.66673810  1
  Ni  Ni118  1  0.80014665  0.99996325  0.66673810  1
  Ni  Ni119  1  0.00003675  0.19985335  0.66673810  1
  Ni  Ni120  1  0.19981660  0.19985335  0.66673810  1
  Ni  Ni121  1  0.80014665  0.80018340  0.66673810  1
  Ni  Ni122  1  0.00003675  0.80018340  0.66673810  1
  Ni  Ni123  1  0.00000000  0.00000000  0.66708365  1
  Ni  Ni124  1  0.86634374  0.13365626  0.83283672  1
  Ni  Ni125  1  0.26731253  0.13365626  0.83283672  1
  Ni  Ni126  1  0.86634374  0.73268747  0.83283672  1
  Ni  Ni127  1  0.26657300  0.53314800  0.83334104  1
  Ni  Ni128  1  0.26657300  0.73342600  0.83334104  1
  Ni  Ni129  1  0.46685200  0.73342600  0.83334104  1
  Ni  Ni130  1  0.46664426  0.53335474  0.83340058  1
  Ni  Ni131  1  0.06671048  0.53335574  0.83340058  1
  Ni  Ni132  1  0.46664426  0.93328952  0.83340058  1
  Ni  Ni133  1  0.66666600  0.33333300  0.83337756  1
  Ni  Ni134  1  0.46682092  0.13334886  0.83343722  1
  Ni  Ni135  1  0.66652794  0.13334886  0.83343722  1
  Ni  Ni136  1  0.46682092  0.33347206  0.83343722  1
  Ni  Ni137  1  0.86665114  0.33347206  0.83343722  1
  Ni  Ni138  1  0.66652794  0.53317908  0.83343722  1
  Ni  Ni139  1  0.86665114  0.53317908  0.83343722  1
  Ni  Ni140  1  0.26637044  0.33281093  0.83359757  1
  Ni  Ni141  1  0.06644150  0.33281093  0.83359757  1
  Ni  Ni142  1  0.06644150  0.73362956  0.83359757  1
  Ni  Ni143  1  0.66718907  0.73362956  0.83359757  1
  Ni  Ni144  1  0.66718907  0.93355950  0.83359757  1
  Ni  Ni145  1  0.26637044  0.93355950  0.83359757  1
  Ni  Ni146  1  0.06639305  0.13278610  0.83398655  1
  Ni  Ni147  1  0.86721390  0.93360695  0.83398655  1
  Ni  Ni148  1  0.06639305  0.93360695  0.83398655  1
  Cu  Cu149  1  0.00000000  0.00000000  0.00000000  1
