# generated using pymatgen
data_CuNi3C10
_symmetry_space_group_name_H-M   'P 1'
_cell_length_a   7.83953200
_cell_length_b   8.98022100
_cell_length_c   10.27011700
_cell_angle_alpha   90.00000000
_cell_angle_beta   90.00000000
_cell_angle_gamma   90.00000000
_symmetry_Int_Tables_number   1
_chemical_formula_structural   CuNi3C10
_chemical_formula_sum   'Cu4 Ni12 C40'
_cell_volume   723.02373292
_cell_formula_units_Z   4
loop_
 _symmetry_equiv_pos_site_id
 _symmetry_equiv_pos_as_xyz
  1  'x, y, z'
loop_
 _atom_site_type_symbol
 _atom_site_label
 _atom_site_symmetry_multiplicity
 _atom_site_fract_x
 _atom_site_fract_y
 _atom_site_fract_z
 _atom_site_occupancy
  C  C0  1  0.31172300  0.08375300  0.74685000  1
  C  C1  1  0.31172300  0.91624700  0.25315000  1
  C  C2  1  0.81172300  0.08375300  0.75315000  1
  C  C3  1  0.81172300  0.91624700  0.24685000  1
  Ni  Ni4  1  0.06808800  0.20482100  0.43766800  1
  Ni  Ni5  1  0.06808800  0.79517900  0.56233200  1
  Ni  Ni6  1  0.56808800  0.20482100  0.06233200  1
  Ni  Ni7  1  0.56808800  0.79517900  0.93766800  1
  Ni  Ni8  1  0.07680900  0.19672300  0.06164500  1
  Ni  Ni9  1  0.07680900  0.80327700  0.93835500  1
  Ni  Ni10  1  0.57680900  0.19672300  0.43835500  1
  Ni  Ni11  1  0.57680900  0.80327700  0.56164500  1
  Ni  Ni12  1  0.06428300  0.56915400  0.25323800  1
  Ni  Ni13  1  0.06428300  0.43084600  0.74676200  1
  Ni  Ni14  1  0.56428300  0.56915400  0.24676200  1
  Ni  Ni15  1  0.56428300  0.43084600  0.75323800  1
  Cu  Cu16  1  0.81059200  0.50000000  0.00000000  1
  Cu  Cu17  1  0.31059200  0.50000000  0.50000000  1
  Cu  Cu18  1  0.30407400  0.50000000  0.00000000  1
  Cu  Cu19  1  0.80407400  0.50000000  0.50000000  1
  C  C20  1  0.08951300  0.72512400  0.12284800  1
  C  C21  1  0.08951300  0.27487600  0.87715200  1
  C  C22  1  0.58951300  0.72512400  0.37715200  1
  C  C23  1  0.58951300  0.27487600  0.62284800  1
  C  C24  1  0.30548100  0.14659100  0.05811900  1
  C  C25  1  0.30548100  0.85340900  0.94188100  1
  C  C26  1  0.80548100  0.14659100  0.44188100  1
  C  C27  1  0.80548100  0.85340900  0.55811900  1
  C  C28  1  0.05469600  0.14816800  0.25129800  1
  C  C29  1  0.05469600  0.85183200  0.74870200  1
  C  C30  1  0.55469600  0.14816800  0.24870200  1
  C  C31  1  0.55469600  0.85183200  0.75129800  1
  C  C32  1  0.12344800  0.41598700  0.11330600  1
  C  C33  1  0.12344800  0.58401300  0.88669400  1
  C  C34  1  0.62344800  0.41598700  0.38669400  1
  C  C35  1  0.62344800  0.58401300  0.61330600  1
  C  C36  1  0.01491200  0.27506700  0.61878300  1
  C  C37  1  0.01491200  0.72493300  0.38121700  1
  C  C38  1  0.51491200  0.27506700  0.88121700  1
  C  C39  1  0.51491200  0.72493300  0.11878300  1
  C  C40  1  0.30147400  0.27784700  0.44795900  1
  C  C41  1  0.30147400  0.72215300  0.55204100  1
  C  C42  1  0.80147400  0.27784700  0.05204100  1
  C  C43  1  0.80147400  0.72215300  0.94795900  1
  C  C44  1  0.48164800  0.41599600  0.11507200  1
  C  C45  1  0.48164800  0.58400400  0.88492800  1
  C  C46  1  0.98164800  0.41599600  0.38492800  1
  C  C47  1  0.98164800  0.58400400  0.61507200  1
  C  C48  1  0.30352600  0.55708600  0.31590600  1
  C  C49  1  0.30352600  0.44291400  0.68409400  1
  C  C50  1  0.80352600  0.55708600  0.18409400  1
  C  C51  1  0.80352600  0.44291400  0.81590600  1
  C  C52  1  0.99333700  0.00000000  0.00000000  1
  C  C53  1  0.49333700  0.00000000  0.50000000  1
  C  C54  1  0.61659500  0.00000000  0.00000000  1
  C  C55  1  0.11659500  0.00000000  0.50000000  1
