# generated using pymatgen
data_Cu2Ni4C13
_symmetry_space_group_name_H-M   'P 1'
_cell_length_a   6.14441800
_cell_length_b   8.22726400
_cell_length_c   12.32419800
_cell_angle_alpha   90.00000000
_cell_angle_beta   90.00000000
_cell_angle_gamma   90.00000000
_symmetry_Int_Tables_number   1
_chemical_formula_structural   Cu2Ni4C13
_chemical_formula_sum   'Cu4 Ni8 C26'
_cell_volume   623.00976407
_cell_formula_units_Z   2
loop_
 _symmetry_equiv_pos_site_id
 _symmetry_equiv_pos_as_xyz
  1  'x, y, z'
loop_
 _atom_site_type_symbol
 _atom_site_label
 _atom_site_symmetry_multiplicity
 _atom_site_fract_x
 _atom_site_fract_y
 _atom_site_fract_z
 _atom_site_occupancy
  Ni  Ni0  1  0.72658000  0.23789700  0.86745800  1
  Ni  Ni1  1  0.72658000  0.76210300  0.86745800  1
  Ni  Ni2  1  0.22658000  0.76210300  0.13254200  1
  Ni  Ni3  1  0.22658000  0.23789700  0.13254200  1
  Ni  Ni4  1  0.24387900  0.22897500  0.60712000  1
  Ni  Ni5  1  0.24387900  0.77102500  0.60712000  1
  Ni  Ni6  1  0.74387900  0.77102500  0.39288000  1
  Ni  Ni7  1  0.74387900  0.22897500  0.39288000  1
  Cu  Cu8  1  0.74345800  0.50000000  0.62500500  1
  Cu  Cu9  1  0.24345800  0.50000000  0.37499500  1
  Cu  Cu10  1  0.22445400  0.00000000  0.87434800  1
  Cu  Cu11  1  0.72445400  0.00000000  0.12565200  1
  C  C12  1  0.73098400  0.00000000  0.63816900  1
  C  C13  1  0.23098400  0.00000000  0.36183100  1
  C  C14  1  0.22061400  0.50000000  0.84108900  1
  C  C15  1  0.72061400  0.50000000  0.15891100  1
  C  C16  1  0.52393100  0.50000000  0.48475900  1
  C  C17  1  0.02393100  0.50000000  0.51524100  1
  C  C18  1  0.75532200  0.22844000  0.62819600  1
  C  C19  1  0.75532200  0.77156000  0.62819600  1
  C  C20  1  0.25532200  0.77156000  0.37180400  1
  C  C21  1  0.25532200  0.22844000  0.37180400  1
  C  C22  1  0.23238100  0.29217000  0.89615800  1
  C  C23  1  0.23238100  0.70783000  0.89615800  1
  C  C24  1  0.73238100  0.70783000  0.10384200  1
  C  C25  1  0.73238100  0.29217000  0.10384200  1
  C  C26  1  0.45811400  0.50000000  0.75083700  1
  C  C27  1  0.95811400  0.50000000  0.24916300  1
  C  C28  1  0.44398500  0.50000000  0.21352100  1
  C  C29  1  0.94398500  0.50000000  0.78647900  1
  C  C30  1  0.49850200  0.00000000  0.75461200  1
  C  C31  1  0.99850200  0.00000000  0.24538800  1
  C  C32  1  0.47970900  0.00000000  0.26366500  1
  C  C33  1  0.97970900  0.00000000  0.73633500  1
  C  C34  1  0.44110900  0.00000000  0.01524500  1
  C  C35  1  0.94110900  0.00000000  0.98475500  1
  C  C36  1  0.53881500  0.00000000  0.51944600  1
  C  C37  1  0.03881500  0.00000000  0.48055400  1
