# generated using pymatgen
data_Cu2Ni6C23
_symmetry_space_group_name_H-M   'P 1'
_cell_length_a   7.23988100
_cell_length_b   7.28407216
_cell_length_c   7.74530611
_cell_angle_alpha   75.66370277
_cell_angle_beta   75.97500838
_cell_angle_gamma   86.14591833
_symmetry_Int_Tables_number   1
_chemical_formula_structural   Cu2Ni6C23
_chemical_formula_sum   'Cu2 Ni6 C23'
_cell_volume   383.92724698
_cell_formula_units_Z   1
loop_
 _symmetry_equiv_pos_site_id
 _symmetry_equiv_pos_as_xyz
  1  'x, y, z'
loop_
 _atom_site_type_symbol
 _atom_site_label
 _atom_site_symmetry_multiplicity
 _atom_site_fract_x
 _atom_site_fract_y
 _atom_site_fract_z
 _atom_site_occupancy
  Ni  Ni0  1  0.65877900  0.14293200  0.38208900  1
  Ni  Ni1  1  0.16643000  0.63347200  0.38513400  1
  Ni  Ni2  1  0.84632800  0.33250100  0.62440100  1
  Ni  Ni3  1  0.36071800  0.82835300  0.61709400  1
  Ni  Ni4  1  0.50686600  0.49780200  0.99861200  1
  Ni  Ni5  1  0.02742100  0.98002400  0.99828100  1
  Cu  Cu6  1  0.18621500  0.19244000  0.23840000  1
  Cu  Cu7  1  0.71119100  0.66207400  0.24199900  1
  C  C8  1  0.83740900  0.77885900  0.74999900  1
  C  C9  1  0.30437700  0.30975600  0.76535100  1
  C  C10  1  0.59100500  0.01336100  0.99682300  1
  C  C11  1  0.24917100  0.97929100  0.79452200  1
  C  C12  1  0.74426500  0.49103600  0.79879600  1
  C  C13  1  0.63996100  0.38275100  0.20227400  1
  C  C14  1  0.14399900  0.87491700  0.20464200  1
  C  C15  1  0.89183200  0.57615600  0.41838100  1
  C  C16  1  0.38912200  0.07518300  0.41364100  1
  C  C17  1  0.58848400  0.28805000  0.59057000  1
  C  C18  1  0.10022400  0.78360800  0.58434100  1
  C  C19  1  0.55517200  0.75204600  0.00370500  1
  C  C20  1  0.07520500  0.23670000  0.99437900  1
  C  C21  1  0.92416100  0.74594500  0.98751700  1
  C  C22  1  0.44142100  0.23598300  0.99516600  1
  C  C23  1  0.63283300  0.89284400  0.59146200  1
  C  C24  1  0.12647700  0.38888500  0.58953200  1
  C  C25  1  0.91280600  0.18792100  0.41855400  1
  C  C26  1  0.42364600  0.68607500  0.41215400  1
  C  C27  1  0.26746200  0.48940100  0.19994200  1
  C  C28  1  0.75503900  0.99546700  0.19411000  1
  C  C29  1  0.84830400  0.09545200  0.80955000  1
  C  C30  1  0.36602800  0.58756300  0.79857900  1
