# generated using pymatgen
data_Cu8Ni21
_symmetry_space_group_name_H-M   'P 1'
_cell_length_a   10.70356197
_cell_length_b   10.70356197
_cell_length_c   10.70356197
_cell_angle_alpha   104.67800612
_cell_angle_beta   104.67800612
_cell_angle_gamma   119.55288805
_symmetry_Int_Tables_number   1
_chemical_formula_structural   Cu8Ni21
_chemical_formula_sum   'Cu16 Ni42'
_cell_volume   921.72759265
_cell_formula_units_Z   2
loop_
 _symmetry_equiv_pos_site_id
 _symmetry_equiv_pos_as_xyz
  1  'x, y, z'
loop_
 _atom_site_type_symbol
 _atom_site_label
 _atom_site_symmetry_multiplicity
 _atom_site_fract_x
 _atom_site_fract_y
 _atom_site_fract_z
 _atom_site_occupancy
  Ni  Ni0  1  0.00000000  0.00000000  0.00000000  1
  Ni  Ni1  1  0.25000000  0.75000000  0.50000000  1
  Ni  Ni2  1  0.68970300  0.54661200  0.03562200  1
  Ni  Ni3  1  0.79661200  0.26099000  0.35690900  1
  Ni  Ni4  1  0.90408100  0.43970300  0.64309100  1
  Ni  Ni5  1  0.51099000  0.65408100  0.96437800  1
  Ni  Ni6  1  0.56029700  0.20338800  0.46437800  1
  Ni  Ni7  1  0.45338800  0.48901000  0.14309100  1
  Ni  Ni8  1  0.34591900  0.31029700  0.85690900  1
  Ni  Ni9  1  0.73901000  0.09591900  0.53562200  1
  Ni  Ni10  1  0.63821200  0.80359400  0.33883400  1
  Ni  Ni11  1  0.05359400  0.21476000  0.66538200  1
  Ni  Ni12  1  0.54937800  0.38821200  0.33461800  1
  Ni  Ni13  1  0.46476000  0.29937800  0.66116600  1
  Ni  Ni14  1  0.61178800  0.94640600  0.16116600  1
  Ni  Ni15  1  0.19640600  0.53524000  0.83461800  1
  Ni  Ni16  1  0.70062200  0.36178800  0.16538200  1
  Ni  Ni17  1  0.78524000  0.45062200  0.83883400  1
  Ni  Ni18  1  0.76478700  0.75779300  0.57221000  1
  Ni  Ni19  1  0.00779300  0.93558400  0.49300600  1
  Ni  Ni20  1  0.44257700  0.51478700  0.50699400  1
  Ni  Ni21  1  0.18558400  0.19257700  0.42779000  1
  Ni  Ni22  1  0.48521300  0.99220700  0.92779000  1
  Ni  Ni23  1  0.24220700  0.81441600  0.00699400  1
  Ni  Ni24  1  0.80742300  0.23521300  0.99300600  1
  Ni  Ni25  1  0.06441600  0.55742300  0.07221000  1
  Ni  Ni26  1  0.98882500  0.76198600  0.79127300  1
  Ni  Ni27  1  0.01198600  0.72071300  0.27316100  1
  Ni  Ni28  1  0.44755200  0.73882500  0.72683900  1
  Ni  Ni29  1  0.97071300  0.19755200  0.20872700  1
  Ni  Ni30  1  0.26117500  0.98801400  0.70872700  1
  Ni  Ni31  1  0.23801400  0.02928700  0.22683900  1
  Ni  Ni32  1  0.80244800  0.01117500  0.77316100  1
  Ni  Ni33  1  0.27928700  0.55244800  0.29127300  1
  Ni  Ni34  1  0.70095400  0.67973000  0.83420900  1
  Ni  Ni35  1  0.92973000  0.59552100  0.47877600  1
  Ni  Ni36  1  0.11674500  0.45095400  0.52122400  1
  Ni  Ni37  1  0.84552100  0.86674500  0.16579100  1
  Ni  Ni38  1  0.54904600  0.07027000  0.66579100  1
  Ni  Ni39  1  0.32027000  0.15447900  0.02122400  1
  Ni  Ni40  1  0.13325500  0.29904600  0.97877600  1
  Ni  Ni41  1  0.40447900  0.88325500  0.33420900  1
  Cu  Cu42  1  0.53583900  0.81232300  0.53749800  1
  Cu  Cu43  1  0.06232300  0.02482400  0.77648300  1
  Cu  Cu44  1  0.24834100  0.28583900  0.22351700  1
  Cu  Cu45  1  0.27482400  0.99834100  0.46250200  1
  Cu  Cu46  1  0.71416100  0.93767700  0.96250200  1
  Cu  Cu47  1  0.18767700  0.72517600  0.72351700  1
  Cu  Cu48  1  0.00165900  0.46416100  0.27648300  1
  Cu  Cu49  1  0.97517600  0.75165900  0.03749800  1
  Cu  Cu50  1  0.49302100  0.10708500  0.18603900  1
  Cu  Cu51  1  0.35708500  0.67104700  0.11406400  1
  Cu  Cu52  1  0.55698300  0.24302100  0.88593600  1
  Cu  Cu53  1  0.92104700  0.30698300  0.81396100  1
  Cu  Cu54  1  0.75697900  0.64291500  0.31396100  1
  Cu  Cu55  1  0.89291500  0.07895300  0.38593600  1
  Cu  Cu56  1  0.69301700  0.50697900  0.61406400  1
  Cu  Cu57  1  0.32895300  0.44301700  0.68603900  1
