# generated using pymatgen
data_CuNi7C32
_symmetry_space_group_name_H-M   'P 1'
_cell_length_a   7.80905960
_cell_length_b   7.80905960
_cell_length_c   7.80906000
_cell_angle_alpha   89.99870815
_cell_angle_beta   89.99870815
_cell_angle_gamma   89.99871335
_symmetry_Int_Tables_number   1
_chemical_formula_structural   CuNi7C32
_chemical_formula_sum   'Cu1 Ni7 C32'
_cell_volume   476.20750423
_cell_formula_units_Z   1
loop_
 _symmetry_equiv_pos_site_id
 _symmetry_equiv_pos_as_xyz
  1  'x, y, z'
loop_
 _atom_site_type_symbol
 _atom_site_label
 _atom_site_symmetry_multiplicity
 _atom_site_fract_x
 _atom_site_fract_y
 _atom_site_fract_z
 _atom_site_occupancy
  Ni  Ni0  1  0.74983900  0.25018700  0.74983900  1
  Ni  Ni1  1  0.74984400  0.25015800  0.25015800  1
  Ni  Ni2  1  0.74983900  0.74983900  0.25018700  1
  Ni  Ni3  1  0.25015800  0.25015800  0.74984400  1
  Ni  Ni4  1  0.25005000  0.25005000  0.25005000  1
  Ni  Ni5  1  0.25018700  0.74983900  0.74983900  1
  Ni  Ni6  1  0.25015800  0.74984400  0.25015800  1
  Cu  Cu7  1  0.75007800  0.75007800  0.75007800  1
  C  C8  1  0.50047800  0.50047800  0.50047800  1
  C  C9  1  0.50049800  0.99949900  0.99949900  1
  C  C10  1  0.50047800  0.99945700  0.50047800  1
  C  C11  1  0.50047800  0.50047800  0.99945700  1
  C  C12  1  0.99953700  0.99953700  0.99953700  1
  C  C13  1  0.99949900  0.99949900  0.50049800  1
  C  C14  1  0.99949900  0.50049800  0.99949900  1
  C  C15  1  0.99945700  0.50047800  0.50047800  1
  C  C16  1  0.74941900  0.99794300  0.99794300  1
  C  C17  1  0.75099200  0.99796500  0.50203300  1
  C  C18  1  0.75099200  0.50203300  0.99796500  1
  C  C19  1  0.74747400  0.50198200  0.50198200  1
  C  C20  1  0.25062400  0.99964200  0.99964200  1
  C  C21  1  0.24897900  0.99965400  0.50039500  1
  C  C22  1  0.24897900  0.50039500  0.99965400  1
  C  C23  1  0.25240700  0.50041700  0.50041700  1
  C  C24  1  0.50039500  0.24897900  0.99965400  1
  C  C25  1  0.50041700  0.25240700  0.50041700  1
  C  C26  1  0.50203300  0.75099200  0.99796500  1
  C  C27  1  0.50198200  0.74747400  0.50198200  1
  C  C28  1  0.99964200  0.25062400  0.99964200  1
  C  C29  1  0.99965400  0.24897900  0.50039500  1
  C  C30  1  0.99794300  0.74941900  0.99794300  1
  C  C31  1  0.99796500  0.75099200  0.50203300  1
  C  C32  1  0.50203300  0.99796500  0.75099200  1
  C  C33  1  0.50039500  0.99965400  0.24897900  1
  C  C34  1  0.50198200  0.50198200  0.74747400  1
  C  C35  1  0.50041700  0.50041700  0.25240700  1
  C  C36  1  0.99794300  0.99794300  0.74941900  1
  C  C37  1  0.99964200  0.99964200  0.25062400  1
  C  C38  1  0.99796500  0.50203300  0.75099200  1
  C  C39  1  0.99965400  0.50039500  0.24897900  1
