# generated using pymatgen
data_CuNi3C32
_symmetry_space_group_name_H-M   'P 1'
_cell_length_a   8.72539642
_cell_length_b   8.72539642
_cell_length_c   8.72539640
_cell_angle_alpha   59.35461433
_cell_angle_beta   59.35461433
_cell_angle_gamma   59.35461253
_symmetry_Int_Tables_number   1
_chemical_formula_structural   CuNi3C32
_chemical_formula_sum   'Cu1 Ni3 C32'
_cell_volume   462.82103314
_cell_formula_units_Z   1
loop_
 _symmetry_equiv_pos_site_id
 _symmetry_equiv_pos_as_xyz
  1  'x, y, z'
loop_
 _atom_site_type_symbol
 _atom_site_label
 _atom_site_symmetry_multiplicity
 _atom_site_fract_x
 _atom_site_fract_y
 _atom_site_fract_z
 _atom_site_occupancy
  Ni  Ni0  1  0.35509700  0.35509700  0.35509700  1
  Ni  Ni1  1  0.14522000  0.14522000  0.14522000  1
  Ni  Ni2  1  0.64597500  0.64597500  0.64597500  1
  Cu  Cu3  1  0.85686000  0.85686000  0.85686000  1
  C  C4  1  0.00001400  0.00001400  0.00001400  1
  C  C5  1  0.49969900  0.49969900  0.49969900  1
  C  C6  1  0.75078900  0.04220100  0.45733000  1
  C  C7  1  0.04220100  0.45733000  0.75078900  1
  C  C8  1  0.45733000  0.75078900  0.04220100  1
  C  C9  1  0.54288200  0.25016500  0.95863300  1
  C  C10  1  0.95863300  0.54288200  0.25016500  1
  C  C11  1  0.25016500  0.95863300  0.54288200  1
  C  C12  1  0.87706100  0.50020200  0.69516000  1
  C  C13  1  0.50020200  0.69516000  0.87706100  1
  C  C14  1  0.69516000  0.87706100  0.50020200  1
  C  C15  1  0.91606600  0.05826500  0.26292900  1
  C  C16  1  0.80301500  0.01006100  0.61360200  1
  C  C17  1  0.58245200  0.23332100  0.43374000  1
  C  C18  1  0.05826500  0.26292900  0.91606600  1
  C  C19  1  0.23332100  0.43374000  0.58245200  1
  C  C20  1  0.37822300  0.19468000  0.00142400  1
  C  C21  1  0.43374000  0.58245200  0.23332100  1
  C  C22  1  0.73349300  0.08789700  0.94494300  1
  C  C23  1  0.00142400  0.37822300  0.19468000  1
  C  C24  1  0.01006100  0.61360200  0.80301500  1
  C  C25  1  0.26292900  0.91606600  0.05826500  1
  C  C26  1  0.55660600  0.41845600  0.76794900  1
  C  C27  1  0.61360200  0.80301500  0.01006100  1
  C  C28  1  0.76794900  0.55660600  0.41845600  1
  C  C29  1  0.94494300  0.73349300  0.08789700  1
  C  C30  1  0.41845600  0.76794900  0.55660600  1
  C  C31  1  0.19468000  0.00142400  0.37822300  1
  C  C32  1  0.08789700  0.94494300  0.73349300  1
  C  C33  1  0.30837700  0.12188900  0.49533800  1
  C  C34  1  0.49533800  0.30837700  0.12188900  1
  C  C35  1  0.12188900  0.49533800  0.30837700  1
