# generated using pymatgen
data_Cu8Ni2C3
_symmetry_space_group_name_H-M   'P 1'
_cell_length_a   10.10268100
_cell_length_b   10.10268100
_cell_length_c   16.52966300
_cell_angle_alpha   90.00000000
_cell_angle_beta   90.00000000
_cell_angle_gamma   90.00000000
_symmetry_Int_Tables_number   1
_chemical_formula_structural   Cu8Ni2C3
_chemical_formula_sum   'Cu64 Ni16 C24'
_cell_volume   1687.08622518
_cell_formula_units_Z   8
loop_
 _symmetry_equiv_pos_site_id
 _symmetry_equiv_pos_as_xyz
  1  'x, y, z'
loop_
 _atom_site_type_symbol
 _atom_site_label
 _atom_site_symmetry_multiplicity
 _atom_site_fract_x
 _atom_site_fract_y
 _atom_site_fract_z
 _atom_site_occupancy
  C  C0  1  0.04659500  0.24742600  0.00427100  1
  C  C1  1  0.95340500  0.75257400  0.50427100  1
  C  C2  1  0.24742600  0.95340500  0.75427100  1
  C  C3  1  0.75257400  0.04659500  0.25427100  1
  C  C4  1  0.67477300  0.14672100  0.83299200  1
  C  C5  1  0.32522700  0.85327900  0.33299200  1
  C  C6  1  0.14672100  0.32522700  0.58299200  1
  C  C7  1  0.85327900  0.67477300  0.08299200  1
  C  C8  1  0.34604000  0.41557300  0.79973600  1
  C  C9  1  0.65396000  0.58442700  0.29973600  1
  C  C10  1  0.41557300  0.65396000  0.54973600  1
  C  C11  1  0.58442700  0.34604000  0.04973600  1
  C  C12  1  0.90489500  0.82698200  0.85419800  1
  C  C13  1  0.09510500  0.17301800  0.35419800  1
  C  C14  1  0.82698200  0.09510500  0.60419800  1
  C  C15  1  0.17301800  0.90489500  0.10419800  1
  C  C16  1  0.50461400  0.75643800  0.89868300  1
  C  C17  1  0.49538600  0.24356200  0.39868300  1
  C  C18  1  0.75643800  0.49538600  0.64868300  1
  C  C19  1  0.24356200  0.50461400  0.14868300  1
  C  C20  1  0.99338800  0.48527800  0.83052200  1
  C  C21  1  0.00661200  0.51472200  0.33052200  1
  C  C22  1  0.48527800  0.00661200  0.58052200  1
  C  C23  1  0.51472200  0.99338800  0.08052200  1
  Ni  Ni24  1  0.01403100  0.22362700  0.79025200  1
  Ni  Ni25  1  0.98596900  0.77637300  0.29025200  1
  Ni  Ni26  1  0.22362700  0.98596900  0.54025200  1
  Ni  Ni27  1  0.77637300  0.01403100  0.04025200  1
  Ni  Ni28  1  0.73019400  0.51101500  0.86552900  1
  Ni  Ni29  1  0.26980600  0.48898500  0.36552900  1
  Ni  Ni30  1  0.51101500  0.26980600  0.61552900  1
  Ni  Ni31  1  0.48898500  0.73019400  0.11552900  1
  Ni  Ni32  1  0.15706200  0.59968500  0.94699300  1
  Ni  Ni33  1  0.84293800  0.40031500  0.44699300  1
  Ni  Ni34  1  0.59968500  0.84293800  0.69699300  1
  Ni  Ni35  1  0.40031500  0.15706200  0.19699300  1
  Ni  Ni36  1  0.38076000  0.09984600  0.94584600  1
  Ni  Ni37  1  0.61924000  0.90015400  0.44584600  1
  Ni  Ni38  1  0.09984600  0.61924000  0.69584600  1
  Ni  Ni39  1  0.90015400  0.38076000  0.19584600  1
  Cu  Cu40  1  0.01094600  0.34395400  0.85350500  1
  Cu  Cu41  1  0.98905400  0.65604600  0.35350500  1
  Cu  Cu42  1  0.34395400  0.98905400  0.60350500  1
  Cu  Cu43  1  0.65604600  0.01094600  0.10350500  1
  Cu  Cu44  1  0.91517200  0.25126900  0.72722200  1
  Cu  Cu45  1  0.08482800  0.74873100  0.22722200  1
  Cu  Cu46  1  0.25126900  0.08482800  0.47722200  1
  Cu  Cu47  1  0.74873100  0.91517200  0.97722200  1
  Cu  Cu48  1  0.97866400  0.10881500  0.84070300  1
  Cu  Cu49  1  0.02133600  0.89118500  0.34070300  1
  Cu  Cu50  1  0.10881500  0.02133600  0.59070300  1
  Cu  Cu51  1  0.89118500  0.97866400  0.09070300  1
  Cu  Cu52  1  0.14951800  0.21689000  0.75845500  1
  Cu  Cu53  1  0.85048200  0.78311000  0.25845500  1
  Cu  Cu54  1  0.21689000  0.85048200  0.50845500  1
  Cu  Cu55  1  0.78311000  0.14951800  0.00845500  1
  Cu  Cu56  1  0.85550400  0.51714600  0.80580400  1
  Cu  Cu57  1  0.14449600  0.48285400  0.30580400  1
  Cu  Cu58  1  0.51714600  0.14449600  0.55580400  1
  Cu  Cu59  1  0.48285400  0.85550400  0.05580400  1
  Cu  Cu60  1  0.61812300  0.52167900  0.80922500  1
  Cu  Cu61  1  0.38187700  0.47832100  0.30922500  1
  Cu  Cu62  1  0.52167900  0.38187700  0.55922500  1
  Cu  Cu63  1  0.47832100  0.61812300  0.05922500  1
  Cu  Cu64  1  0.73436600  0.38481900  0.90923500  1
  Cu  Cu65  1  0.26563400  0.61518100  0.40923500  1
  Cu  Cu66  1  0.38481900  0.26563400  0.65923500  1
  Cu  Cu67  1  0.61518100  0.73436600  0.15923500  1
  Cu  Cu68  1  0.74098700  0.62571300  0.92009500  1
  Cu  Cu69  1  0.25901300  0.37428700  0.42009500  1
  Cu  Cu70  1  0.62571300  0.25901300  0.67009500  1
  Cu  Cu71  1  0.37428700  0.74098700  0.17009500  1
  Cu  Cu72  1  0.02050400  0.57004000  0.90145300  1
  Cu  Cu73  1  0.97949600  0.42996000  0.40145300  1
  Cu  Cu74  1  0.57004000  0.97949600  0.65145300  1
  Cu  Cu75  1  0.42996000  0.02050400  0.15145300  1
  Cu  Cu76  1  0.24672900  0.66181100  0.88844400  1
  Cu  Cu77  1  0.75327100  0.33818900  0.38844400  1
  Cu  Cu78  1  0.66181100  0.75327100  0.63844400  1
  Cu  Cu79  1  0.33818900  0.24672900  0.13844400  1
  Cu  Cu80  1  0.11211000  0.69051000  0.01108300  1
  Cu  Cu81  1  0.88789000  0.30949000  0.51108300  1
  Cu  Cu82  1  0.69051000  0.88789000  0.76108300  1
  Cu  Cu83  1  0.30949000  0.11211000  0.26108300  1
  Cu  Cu84  1  0.20712600  0.47303200  0.97760300  1
  Cu  Cu85  1  0.79287400  0.52696800  0.47760300  1
  Cu  Cu86  1  0.47303200  0.79287400  0.72760300  1
  Cu  Cu87  1  0.52696800  0.20712600  0.22760300  1
  Cu  Cu88  1  0.25260500  0.06534900  0.98167600  1
  Cu  Cu89  1  0.74739500  0.93465100  0.48167600  1
  Cu  Cu90  1  0.06534900  0.74739500  0.73167600  1
  Cu  Cu91  1  0.93465100  0.25260500  0.23167600  1
  Cu  Cu92  1  0.49299900  0.08482900  0.01254600  1
  Cu  Cu93  1  0.50700100  0.91517100  0.51254600  1
  Cu  Cu94  1  0.08482900  0.50700100  0.76254600  1
  Cu  Cu95  1  0.91517100  0.49299900  0.26254600  1
  Cu  Cu96  1  0.39527200  0.23935700  0.92304400  1
  Cu  Cu97  1  0.60472800  0.76064300  0.42304400  1
  Cu  Cu98  1  0.23935700  0.60472800  0.67304400  1
  Cu  Cu99  1  0.76064300  0.39527200  0.17304400  1
  Cu  Cu100  1  0.41866300  0.00981500  0.87963600  1
  Cu  Cu101  1  0.58133700  0.99018500  0.37963600  1
  Cu  Cu102  1  0.00981500  0.58133700  0.62963600  1
  Cu  Cu103  1  0.99018500  0.41866300  0.12963600  1
