# generated using pymatgen
data_CuNi2C3
_symmetry_space_group_name_H-M   'P 1'
_cell_length_a   3.93708100
_cell_length_b   9.93011600
_cell_length_c   10.30454200
_cell_angle_alpha   90.00000000
_cell_angle_beta   90.00000000
_cell_angle_gamma   90.00000000
_symmetry_Int_Tables_number   1
_chemical_formula_structural   CuNi2C3
_chemical_formula_sum   'Cu4 Ni8 C12'
_cell_volume   402.86298416
_cell_formula_units_Z   4
loop_
 _symmetry_equiv_pos_site_id
 _symmetry_equiv_pos_as_xyz
  1  'x, y, z'
loop_
 _atom_site_type_symbol
 _atom_site_label
 _atom_site_symmetry_multiplicity
 _atom_site_fract_x
 _atom_site_fract_y
 _atom_site_fract_z
 _atom_site_occupancy
  C  C0  1  0.25000000  0.67741800  0.02056400  1
  C  C1  1  0.75000000  0.82258200  0.52056400  1
  C  C2  1  0.25000000  0.17741800  0.47943600  1
  C  C3  1  0.75000000  0.32258200  0.97943600  1
  C  C4  1  0.25000000  0.52757700  0.66112700  1
  C  C5  1  0.75000000  0.47242300  0.33887300  1
  C  C6  1  0.25000000  0.02757700  0.83887300  1
  C  C7  1  0.75000000  0.97242300  0.16112700  1
  C  C8  1  0.25000000  0.72931500  0.32700300  1
  C  C9  1  0.75000000  0.27068500  0.67299700  1
  C  C10  1  0.25000000  0.22931500  0.17299700  1
  C  C11  1  0.75000000  0.77068500  0.82700300  1
  Ni  Ni12  1  0.25000000  0.64821200  0.43318300  1
  Ni  Ni13  1  0.75000000  0.35178800  0.56681700  1
  Ni  Ni14  1  0.25000000  0.14821200  0.06681700  1
  Ni  Ni15  1  0.75000000  0.18374300  0.77213800  1
  Ni  Ni16  1  0.25000000  0.31625700  0.27213800  1
  Ni  Ni17  1  0.75000000  0.68374300  0.72786200  1
  Ni  Ni18  1  0.25000000  0.81625700  0.22786200  1
  Ni  Ni19  1  0.75000000  0.85178800  0.93318300  1
  Cu  Cu20  1  0.75000000  0.54558800  0.10176000  1
  Cu  Cu21  1  0.75000000  0.04558800  0.39824000  1
  Cu  Cu22  1  0.25000000  0.45441200  0.89824000  1
  Cu  Cu23  1  0.25000000  0.95441200  0.60176000  1
