# generated using pymatgen
data_Cu4Ni18C5
_symmetry_space_group_name_H-M   'P 1'
_cell_length_a   7.67144034
_cell_length_b   7.67144034
_cell_length_c   6.39662871
_cell_angle_alpha   65.57718727
_cell_angle_beta   65.57718727
_cell_angle_gamma   80.14673791
_symmetry_Int_Tables_number   1
_chemical_formula_structural   Cu4Ni18C5
_chemical_formula_sum   'Cu4 Ni18 C5'
_cell_volume   312.09232345
_cell_formula_units_Z   1
loop_
 _symmetry_equiv_pos_site_id
 _symmetry_equiv_pos_as_xyz
  1  'x, y, z'
loop_
 _atom_site_type_symbol
 _atom_site_label
 _atom_site_symmetry_multiplicity
 _atom_site_fract_x
 _atom_site_fract_y
 _atom_site_fract_z
 _atom_site_occupancy
  C  C0  1  0.75476600  0.75476600  0.86717700  1
  C  C1  1  0.24523400  0.24523400  0.13282300  1
  Ni  Ni2  1  0.42018500  0.67290100  0.75751800  1
  Ni  Ni3  1  0.67290100  0.42018500  0.75751800  1
  Ni  Ni4  1  0.92225200  0.32454900  0.93066500  1
  Ni  Ni5  1  0.32454900  0.92225200  0.93066500  1
  Ni  Ni6  1  0.83372700  0.07558700  0.35732700  1
  Ni  Ni7  1  0.07558700  0.83372700  0.35732700  1
  Ni  Ni8  1  0.16893600  0.58493900  0.67675900  1
  Ni  Ni9  1  0.58493900  0.16893600  0.67675900  1
  Ni  Ni10  1  0.57981500  0.32709900  0.24248200  1
  Ni  Ni11  1  0.32709900  0.57981500  0.24248200  1
  Ni  Ni12  1  0.07774800  0.67545100  0.06933500  1
  Ni  Ni13  1  0.67545100  0.07774800  0.06933500  1
  Ni  Ni14  1  0.16627300  0.92441300  0.64267300  1
  Ni  Ni15  1  0.92441300  0.16627300  0.64267300  1
  Ni  Ni16  1  0.83106400  0.41506100  0.32324100  1
  Ni  Ni17  1  0.41506100  0.83106400  0.32324100  1
  Ni  Ni18  1  0.75180000  0.75180000  0.38073900  1
  Ni  Ni19  1  0.24820000  0.24820000  0.61926100  1
  Cu  Cu20  1  0.00000000  0.00000000  0.00000000  1
  Cu  Cu21  1  0.50000000  0.00000000  0.50000000  1
  Cu  Cu22  1  0.00000000  0.50000000  0.50000000  1
  Cu  Cu23  1  0.50000000  0.50000000  0.50000000  1
  C  C24  1  0.50000000  0.00000000  0.00000000  1
  C  C25  1  0.00000000  0.50000000  0.00000000  1
  C  C26  1  0.50000000  0.50000000  0.00000000  1
