# generated using pymatgen
data_CuNiC10
_symmetry_space_group_name_H-M   'P 1'
_cell_length_a   7.63164400
_cell_length_b   7.63164400
_cell_length_c   6.04682900
_cell_angle_alpha   90.00000000
_cell_angle_beta   90.00000000
_cell_angle_gamma   90.00000000
_symmetry_Int_Tables_number   1
_chemical_formula_structural   CuNiC10
_chemical_formula_sum   'Cu2 Ni2 C20'
_cell_volume   352.17935501
_cell_formula_units_Z   2
loop_
 _symmetry_equiv_pos_site_id
 _symmetry_equiv_pos_as_xyz
  1  'x, y, z'
loop_
 _atom_site_type_symbol
 _atom_site_label
 _atom_site_symmetry_multiplicity
 _atom_site_fract_x
 _atom_site_fract_y
 _atom_site_fract_z
 _atom_site_occupancy
  Ni  Ni0  1  0.00000000  0.50000000  0.75000000  1
  Ni  Ni1  1  0.50000000  0.00000000  0.25000000  1
  Cu  Cu2  1  0.00000000  0.50000000  0.25000000  1
  Cu  Cu3  1  0.50000000  0.00000000  0.75000000  1
  C  C4  1  0.22173700  0.27826300  0.75000000  1
  C  C5  1  0.77826300  0.72173700  0.75000000  1
  C  C6  1  0.72173700  0.22173700  0.25000000  1
  C  C7  1  0.27826300  0.77826300  0.25000000  1
  C  C8  1  0.18431800  0.41263000  0.92723900  1
  C  C9  1  0.81568200  0.58737000  0.92723900  1
  C  C10  1  0.68431800  0.08737000  0.42723900  1
  C  C11  1  0.31568200  0.91263000  0.42723900  1
  C  C12  1  0.58737000  0.18431800  0.07276100  1
  C  C13  1  0.41263000  0.81568200  0.07276100  1
  C  C14  1  0.08737000  0.31568200  0.57276100  1
  C  C15  1  0.91263000  0.68431800  0.57276100  1
  C  C16  1  0.20561500  0.09939400  0.84270400  1
  C  C17  1  0.79438500  0.90060600  0.84270400  1
  C  C18  1  0.70561500  0.40060600  0.34270400  1
  C  C19  1  0.29438500  0.59939400  0.34270400  1
  C  C20  1  0.09939400  0.79438500  0.15729600  1
  C  C21  1  0.90060600  0.20561500  0.15729600  1
  C  C22  1  0.59939400  0.70561500  0.65729600  1
  C  C23  1  0.40060600  0.29438500  0.65729600  1
