# generated using pymatgen
data_CuNiC7
_symmetry_space_group_name_H-M   'P 1'
_cell_length_a   7.55990563
_cell_length_b   7.55990563
_cell_length_c   7.55990563
_cell_angle_alpha   120.72648777
_cell_angle_beta   120.46787197
_cell_angle_gamma   88.96887784
_symmetry_Int_Tables_number   1
_chemical_formula_structural   CuNiC7
_chemical_formula_sum   'Cu2 Ni2 C14'
_cell_volume   302.70328306
_cell_formula_units_Z   2
loop_
 _symmetry_equiv_pos_site_id
 _symmetry_equiv_pos_as_xyz
  1  'x, y, z'
loop_
 _atom_site_type_symbol
 _atom_site_label
 _atom_site_symmetry_multiplicity
 _atom_site_fract_x
 _atom_site_fract_y
 _atom_site_fract_z
 _atom_site_occupancy
  C  C0  1  0.62093200  0.37093200  0.25000000  1
  C  C1  1  0.37906800  0.62906800  0.75000000  1
  Ni  Ni2  1  0.00000000  0.00000000  0.50000000  1
  Ni  Ni3  1  0.00000000  0.50000000  0.00000000  1
  Cu  Cu4  1  0.50000000  0.00000000  0.50000000  1
  Cu  Cu5  1  0.00000000  0.00000000  0.00000000  1
  C  C6  1  0.06093500  0.31093500  0.75000000  1
  C  C7  1  0.67151700  0.92151700  0.75000000  1
  C  C8  1  0.06516700  0.33204400  0.13917500  1
  C  C9  1  0.69286900  0.92599200  0.36082500  1
  C  C10  1  0.69286900  0.33204400  0.76687700  1
  C  C11  1  0.06516700  0.92599200  0.73312300  1
  C  C12  1  0.93906500  0.68906500  0.25000000  1
  C  C13  1  0.32848300  0.07848300  0.25000000  1
  C  C14  1  0.93483300  0.66795600  0.86082500  1
  C  C15  1  0.30713100  0.07400800  0.63917500  1
  C  C16  1  0.30713100  0.66795600  0.23312300  1
  C  C17  1  0.93483300  0.07400800  0.26687700  1
