# generated using pymatgen
data_Cu2Ni11C10
_symmetry_space_group_name_H-M   'P 1'
_cell_length_a   7.45161389
_cell_length_b   7.45161389
_cell_length_c   20.52567762
_cell_angle_alpha   86.26437136
_cell_angle_beta   86.26437136
_cell_angle_gamma   58.75534296
_symmetry_Int_Tables_number   1
_chemical_formula_structural   Cu2Ni11C10
_chemical_formula_sum   'Cu8 Ni44 C40'
_cell_volume   971.68793694
_cell_formula_units_Z   4
loop_
 _symmetry_equiv_pos_site_id
 _symmetry_equiv_pos_as_xyz
  1  'x, y, z'
loop_
 _atom_site_type_symbol
 _atom_site_label
 _atom_site_symmetry_multiplicity
 _atom_site_fract_x
 _atom_site_fract_y
 _atom_site_fract_z
 _atom_site_occupancy
  C  C0  1  0.17717200  0.24231800  0.57057300  1
  C  C1  1  0.75768200  0.82282800  0.92942700  1
  C  C2  1  0.82282800  0.75768200  0.42942700  1
  C  C3  1  0.24231800  0.17717200  0.07057300  1
  C  C4  1  0.14951700  0.48603300  0.58991700  1
  C  C5  1  0.51396700  0.85048300  0.91008300  1
  C  C6  1  0.85048300  0.51396700  0.41008300  1
  C  C7  1  0.48603300  0.14951700  0.08991700  1
  C  C8  1  0.87914900  0.68014300  0.59053900  1
  C  C9  1  0.31985700  0.12085100  0.90946100  1
  C  C10  1  0.12085100  0.31985700  0.40946100  1
  C  C11  1  0.68014300  0.87914900  0.09053900  1
  C  C12  1  0.73961400  0.55707100  0.57167100  1
  C  C13  1  0.44292900  0.26038600  0.92832900  1
  C  C14  1  0.26038600  0.44292900  0.42832900  1
  C  C15  1  0.55707100  0.73961400  0.07167100  1
  C  C16  1  0.92380200  0.28679500  0.55918600  1
  C  C17  1  0.71320500  0.07619800  0.94081400  1
  C  C18  1  0.07619800  0.71320500  0.44081400  1
  C  C19  1  0.28679500  0.92380200  0.05918600  1
  C  C20  1  0.00518000  0.56457000  0.66481300  1
  C  C21  1  0.43543000  0.99482000  0.83518700  1
  C  C22  1  0.99482000  0.43543000  0.33518700  1
  C  C23  1  0.56457000  0.00518000  0.16481300  1
  C  C24  1  0.75098900  0.60945700  0.65382400  1
  C  C25  1  0.39054300  0.24901100  0.84617600  1
  C  C26  1  0.24901100  0.39054300  0.34617600  1
  C  C27  1  0.60945700  0.75098900  0.15382400  1
  C  C28  1  0.77861200  0.36674300  0.63447100  1
  C  C29  1  0.63325700  0.22138800  0.86552900  1
  C  C30  1  0.22138800  0.63325700  0.36552900  1
  C  C31  1  0.36674300  0.77861200  0.13447100  1
  C  C32  1  0.04953800  0.17278400  0.63365300  1
  C  C33  1  0.82721600  0.95046200  0.86634700  1
  C  C34  1  0.95046200  0.82721600  0.36634700  1
  C  C35  1  0.17278400  0.04953800  0.13365300  1
  C  C36  1  0.94290900  0.37134000  0.69233600  1
  C  C37  1  0.62866000  0.05709100  0.80766400  1
  C  C38  1  0.05709100  0.62866000  0.30766400  1
  C  C39  1  0.37134000  0.94290900  0.19233600  1
  Ni  Ni40  1  0.33399000  0.12004600  0.54244500  1
  Ni  Ni41  1  0.87995400  0.66601000  0.95755500  1
  Ni  Ni42  1  0.66601000  0.87995400  0.45755500  1
  Ni  Ni43  1  0.12004600  0.33399000  0.04244500  1
  Ni  Ni44  1  0.28921900  0.51358400  0.57372700  1
  Ni  Ni45  1  0.48641600  0.71078100  0.92627300  1
  Ni  Ni46  1  0.71078100  0.48641600  0.42627300  1
  Ni  Ni47  1  0.51358400  0.28921900  0.07372700  1
  Ni  Ni48  1  0.82587900  0.85372700  0.57105700  1
  Ni  Ni49  1  0.14627300  0.17412100  0.92894300  1
  Ni  Ni50  1  0.17412100  0.14627300  0.42894300  1
  Ni  Ni51  1  0.85372700  0.82587900  0.07105700  1
  Ni  Ni52  1  0.58948500  0.64908000  0.53899900  1
  Ni  Ni53  1  0.35092000  0.41051500  0.96100100  1
  Ni  Ni54  1  0.41051500  0.35092000  0.46100100  1
  Ni  Ni55  1  0.64908000  0.58948500  0.03899900  1
  Ni  Ni56  1  0.90020300  0.19514000  0.51855700  1
  Ni  Ni57  1  0.80486000  0.09979700  0.98144300  1
  Ni  Ni58  1  0.09979700  0.80486000  0.48144300  1
  Ni  Ni59  1  0.19514000  0.90020300  0.01855700  1
  Ni  Ni60  1  0.31745400  0.22205000  0.67363800  1
  Ni  Ni61  1  0.77795000  0.68254600  0.82636200  1
  Ni  Ni62  1  0.68254600  0.77795000  0.32636200  1
  Ni  Ni63  1  0.22205000  0.31745400  0.17363800  1
  Ni  Ni64  1  0.05421700  0.64644300  0.70181000  1
  Ni  Ni65  1  0.35355700  0.94578300  0.79819000  1
  Ni  Ni66  1  0.94578300  0.35355700  0.29819000  1
  Ni  Ni67  1  0.64644300  0.05421700  0.20181000  1
  Ni  Ni68  1  0.60033000  0.74141200  0.68253500  1
  Ni  Ni69  1  0.25858800  0.39967000  0.81746500  1
  Ni  Ni70  1  0.39967000  0.25858800  0.31746500  1
  Ni  Ni71  1  0.74141200  0.60033000  0.18253500  1
  Ni  Ni72  1  0.64832600  0.32312700  0.64925400  1
  Ni  Ni73  1  0.67687300  0.35167400  0.85074600  1
  Ni  Ni74  1  0.35167400  0.67687300  0.35074600  1
  Ni  Ni75  1  0.32312700  0.64832600  0.14925400  1
  Ni  Ni76  1  0.12788700  0.99255400  0.64986000  1
  Ni  Ni77  1  0.00744600  0.87211300  0.85014000  1
  Ni  Ni78  1  0.87211300  0.00744600  0.35014000  1
  Ni  Ni79  1  0.99255400  0.12788700  0.14986000  1
  Ni  Ni80  1  0.95064600  0.32223700  0.74897800  1
  Ni  Ni81  1  0.67776300  0.04935400  0.75102200  1
  Ni  Ni82  1  0.04935400  0.67776300  0.25102200  1
  Ni  Ni83  1  0.32223700  0.95064600  0.24897800  1
  Cu  Cu84  1  0.98706500  0.47649000  0.53652300  1
  Cu  Cu85  1  0.52351000  0.01293500  0.96347700  1
  Cu  Cu86  1  0.01293500  0.52351000  0.46347700  1
  Cu  Cu87  1  0.47649000  0.98706500  0.03652300  1
  Cu  Cu88  1  0.17032400  0.30650700  0.64859100  1
  Cu  Cu89  1  0.69349300  0.82967600  0.85140900  1
  Cu  Cu90  1  0.82967600  0.69349300  0.35140900  1
  Cu  Cu91  1  0.30650700  0.17032400  0.14859100  1
