# generated using pymatgen
data_Cu5Ni2C25
_symmetry_space_group_name_H-M   'P 1'
_cell_length_a   5.86121600
_cell_length_b   5.90380446
_cell_length_c   8.63389243
_cell_angle_alpha   88.58054356
_cell_angle_beta   70.66049840
_cell_angle_gamma   87.29763203
_symmetry_Int_Tables_number   1
_chemical_formula_structural   Cu5Ni2C25
_chemical_formula_sum   'Cu5 Ni2 C25'
_cell_volume   281.57755136
_cell_formula_units_Z   1
loop_
 _symmetry_equiv_pos_site_id
 _symmetry_equiv_pos_as_xyz
  1  'x, y, z'
loop_
 _atom_site_type_symbol
 _atom_site_label
 _atom_site_symmetry_multiplicity
 _atom_site_fract_x
 _atom_site_fract_y
 _atom_site_fract_z
 _atom_site_occupancy
  C  C0  1  0.86905000  0.25908200  0.26648100  1
  C  C1  1  0.00000000  0.00000000  0.50000000  1
  C  C2  1  0.35992700  0.25860900  0.26697000  1
  C  C3  1  0.50000000  0.00000000  0.50000000  1
  C  C4  1  0.64007300  0.74139100  0.73303000  1
  C  C5  1  0.13095000  0.74091800  0.73351900  1
  C  C6  1  0.25449300  0.50186400  0.99384000  1
  C  C7  1  0.74550700  0.49813600  0.00616000  1
  C  C8  1  0.00000000  0.50000000  0.50000000  1
  Ni  Ni9  1  0.75014400  0.99841400  0.99739700  1
  Ni  Ni10  1  0.24985600  0.00158600  0.00260300  1
  Cu  Cu11  1  0.87300500  0.74449400  0.25520900  1
  Cu  Cu12  1  0.12699500  0.25550600  0.74479100  1
  Cu  Cu13  1  0.36175700  0.74179400  0.25877800  1
  Cu  Cu14  1  0.50000000  0.50000000  0.50000000  1
  Cu  Cu15  1  0.63824300  0.25820600  0.74122200  1
  C  C16  1  0.64386000  0.98098200  0.23234700  1
  C  C17  1  0.73621800  0.72696400  0.48268500  1
  C  C18  1  0.14582900  0.99683100  0.23995700  1
  C  C19  1  0.26791500  0.74332600  0.48656300  1
  C  C20  1  0.40449600  0.49480900  0.73926500  1
  C  C21  1  0.88443500  0.47891200  0.75966000  1
  C  C22  1  0.99310000  0.22009900  0.99431600  1
  C  C23  1  0.49648700  0.22207100  0.99229700  1
  C  C24  1  0.11556500  0.52108800  0.24034000  1
  C  C25  1  0.26378200  0.27303600  0.51731500  1
  C  C26  1  0.59550400  0.50519100  0.26073500  1
  C  C27  1  0.73208500  0.25667400  0.51343700  1
  C  C28  1  0.85417100  0.00316900  0.76004300  1
  C  C29  1  0.35614000  0.01901800  0.76765300  1
  C  C30  1  0.50351300  0.77792900  0.00770300  1
  C  C31  1  0.00690000  0.77990100  0.00568400  1
