# generated using pymatgen
data_CuNi4C19
_symmetry_space_group_name_H-M   'P 1'
_cell_length_a   2.97119012
_cell_length_b   15.16827192
_cell_length_c   9.91410405
_cell_angle_alpha   78.27780693
_cell_angle_beta   92.70413046
_cell_angle_gamma   92.42875432
_symmetry_Int_Tables_number   1
_chemical_formula_structural   CuNi4C19
_chemical_formula_sum   'Cu2 Ni8 C38'
_cell_volume   436.75568777
_cell_formula_units_Z   2
loop_
 _symmetry_equiv_pos_site_id
 _symmetry_equiv_pos_as_xyz
  1  'x, y, z'
loop_
 _atom_site_type_symbol
 _atom_site_label
 _atom_site_symmetry_multiplicity
 _atom_site_fract_x
 _atom_site_fract_y
 _atom_site_fract_z
 _atom_site_occupancy
  C  C0  1  0.50000500  0.16666400  0.00000200  1
  C  C1  1  0.00000600  0.66666800  0.00000100  1
  C  C2  1  0.97956400  0.09292800  0.24077000  1
  C  C3  1  0.48371200  0.59295900  0.24109400  1
  C  C4  1  0.02042200  0.24040300  0.75923400  1
  C  C5  1  0.51627700  0.74037700  0.75890600  1
  C  C6  1  0.49625600  0.08778700  0.75581500  1
  C  C7  1  0.98925700  0.58864300  0.75445000  1
  C  C8  1  0.50375200  0.24554300  0.24419000  1
  C  C9  1  0.01074500  0.74469200  0.24554900  1
  C  C10  1  0.01013300  0.41682200  0.25392800  1
  C  C11  1  0.50653600  0.91659000  0.25292400  1
  C  C12  1  0.49344900  0.41674300  0.74707500  1
  C  C13  1  0.98986700  0.91651100  0.74607100  1
  Ni  Ni14  1  0.00991500  0.00491500  0.99647100  1
  Ni  Ni15  1  0.50849400  0.50513300  0.99604200  1
  Ni  Ni16  1  0.99008900  0.32841500  0.00354300  1
  Ni  Ni17  1  0.49151000  0.82819800  0.00396500  1
  Ni  Ni18  1  0.48413900  0.00023600  0.49760200  1
  Ni  Ni19  1  0.99854500  0.50275800  0.49793800  1
  Ni  Ni20  1  0.51587800  0.33309600  0.50239200  1
  Ni  Ni21  1  0.00141100  0.83058100  0.50205500  1
  Cu  Cu22  1  0.49997500  0.66666800  0.49999600  1
  Cu  Cu23  1  0.00000600  0.16666600  0.50000500  1
  C  C24  1  0.53152900  0.03332600  0.10814100  1
  C  C25  1  0.03088300  0.53335000  0.10779700  1
  C  C26  1  0.46848100  0.30000300  0.89186300  1
  C  C27  1  0.96915500  0.79998600  0.89219900  1
  C  C28  1  0.94792300  0.04699600  0.61438600  1
  C  C29  1  0.46103700  0.54941400  0.61291100  1
  C  C30  1  0.05208600  0.28633500  0.38561400  1
  C  C31  1  0.53893000  0.78392100  0.38708400  1
  C  C32  1  0.98843000  0.21850900  0.11761500  1
  C  C33  1  0.49217100  0.71822600  0.11775700  1
  C  C34  1  0.01157800  0.11482000  0.88238900  1
  C  C35  1  0.50785700  0.61510900  0.88224200  1
  C  C36  1  0.51598800  0.21215400  0.61774000  1
  C  C37  1  0.97054400  0.71075200  0.61740900  1
  C  C38  1  0.48402300  0.12118000  0.38226100  1
  C  C39  1  0.02942300  0.62258400  0.38258700  1
  C  C40  1  0.51110900  0.37495700  0.10539200  1
  C  C41  1  0.01140800  0.87470100  0.10621700  1
  C  C42  1  0.98862000  0.45863200  0.89378400  1
  C  C43  1  0.48891100  0.95837500  0.89460800  1
  C  C44  1  0.97024600  0.38210100  0.61916900  1
  C  C45  1  0.45908800  0.87990900  0.61907500  1
  C  C46  1  0.54089200  0.45342600  0.38091500  1
  C  C47  1  0.02974600  0.95123600  0.38082300  1
