# generated using pymatgen
data_Cu3Ni9C
_symmetry_space_group_name_H-M   'P 1'
_cell_length_a   6.79781268
_cell_length_b   6.79781268
_cell_length_c   6.71135141
_cell_angle_alpha   82.15998682
_cell_angle_beta   82.15998682
_cell_angle_gamma   136.27268315
_symmetry_Int_Tables_number   1
_chemical_formula_structural   Cu3Ni9C
_chemical_formula_sum   'Cu3 Ni9 C1'
_cell_volume   199.47346766
_cell_formula_units_Z   1
loop_
 _symmetry_equiv_pos_site_id
 _symmetry_equiv_pos_as_xyz
  1  'x, y, z'
loop_
 _atom_site_type_symbol
 _atom_site_label
 _atom_site_symmetry_multiplicity
 _atom_site_fract_x
 _atom_site_fract_y
 _atom_site_fract_z
 _atom_site_occupancy
  C  C0  1  0.00000000  0.00000000  0.00000000  1
  Ni  Ni1  1  0.28960200  0.51704900  0.21523400  1
  Ni  Ni2  1  0.71039800  0.48295100  0.78476600  1
  Ni  Ni3  1  0.48295100  0.71039800  0.78476600  1
  Ni  Ni4  1  0.51704900  0.28960200  0.21523400  1
  Ni  Ni5  1  0.35426500  0.99959400  0.66241100  1
  Ni  Ni6  1  0.64573500  0.00040600  0.33758900  1
  Ni  Ni7  1  0.00040600  0.64573500  0.33758900  1
  Ni  Ni8  1  0.99959400  0.35426500  0.66241100  1
  Ni  Ni9  1  0.00000000  0.00000000  0.50000000  1
  Cu  Cu10  1  0.50000000  0.50000000  0.50000000  1
  Cu  Cu11  1  0.00000000  0.50000000  0.00000000  1
  Cu  Cu12  1  0.50000000  0.00000000  0.00000000  1
