# generated using pymatgen
data_Cu3NiC8
_symmetry_space_group_name_H-M   'P 1'
_cell_length_a   6.31823022
_cell_length_b   6.31823022
_cell_length_c   6.55492700
_cell_angle_alpha   90.00000000
_cell_angle_beta   90.00000000
_cell_angle_gamma   92.58753466
_symmetry_Int_Tables_number   1
_chemical_formula_structural   Cu3NiC8
_chemical_formula_sum   'Cu3 Ni1 C8'
_cell_volume   261.40610543
_cell_formula_units_Z   1
loop_
 _symmetry_equiv_pos_site_id
 _symmetry_equiv_pos_as_xyz
  1  'x, y, z'
loop_
 _atom_site_type_symbol
 _atom_site_label
 _atom_site_symmetry_multiplicity
 _atom_site_fract_x
 _atom_site_fract_y
 _atom_site_fract_z
 _atom_site_occupancy
  C  C0  1  0.61790300  0.38209700  0.50000000  1
  C  C1  1  0.26486500  0.73513500  0.19230400  1
  C  C2  1  0.26486500  0.73513500  0.80769600  1
  C  C3  1  0.09205100  0.90794900  0.30597300  1
  C  C4  1  0.09205100  0.90794900  0.69402700  1
  C  C5  1  0.96706600  0.03293400  0.00000000  1
  Ni  Ni6  1  0.08673400  0.91326600  0.00000000  1
  Cu  Cu7  1  0.63082700  0.87131100  0.50000000  1
  Cu  Cu8  1  0.12868900  0.36917300  0.50000000  1
  Cu  Cu9  1  0.62133000  0.37867000  0.00000000  1
  C  C10  1  0.15341000  0.84659000  0.17683500  1
  C  C11  1  0.15341000  0.84659000  0.82316500  1
