# generated using pymatgen
data_Cu2(NiC5)3
_symmetry_space_group_name_H-M   'P 1'
_cell_length_a   10.23457813
_cell_length_b   10.23457850
_cell_length_c   10.23457742
_cell_angle_alpha   106.32332702
_cell_angle_beta   111.06772585
_cell_angle_gamma   111.06773174
_symmetry_Int_Tables_number   1
_chemical_formula_structural   Cu2(NiC5)3
_chemical_formula_sum   'Cu8 Ni12 C60'
_cell_volume   823.39935804
_cell_formula_units_Z   4
loop_
 _symmetry_equiv_pos_site_id
 _symmetry_equiv_pos_as_xyz
  1  'x, y, z'
loop_
 _atom_site_type_symbol
 _atom_site_label
 _atom_site_symmetry_multiplicity
 _atom_site_fract_x
 _atom_site_fract_y
 _atom_site_fract_z
 _atom_site_occupancy
  Ni  Ni0  1  0.37762800  0.75000000  0.12762800  1
  Ni  Ni1  1  0.12237200  0.25000000  0.37237200  1
  Ni  Ni2  1  0.37762800  0.12762800  0.25000000  1
  Ni  Ni3  1  0.12237200  0.37237200  0.75000000  1
  Ni  Ni4  1  0.87762800  0.75000000  0.62762800  1
  Ni  Ni5  1  0.75000000  0.12500000  0.37500000  1
  Ni  Ni6  1  0.75000000  0.62500000  0.87500000  1
  Ni  Ni7  1  0.62237200  0.25000000  0.87237200  1
  Ni  Ni8  1  0.25000000  0.87500000  0.62500000  1
  Ni  Ni9  1  0.87762800  0.62762800  0.25000000  1
  Ni  Ni10  1  0.62237200  0.87237200  0.75000000  1
  Ni  Ni11  1  0.25000000  0.37500000  0.12500000  1
  Cu  Cu12  1  0.00000000  0.00000000  0.00000000  1
  Cu  Cu13  1  0.00000000  0.50000000  0.00000000  1
  Cu  Cu14  1  0.00000000  0.00000000  0.50000000  1
  Cu  Cu15  1  0.00000000  0.50000000  0.50000000  1
  Cu  Cu16  1  0.50000000  0.00000000  0.50000000  1
  Cu  Cu17  1  0.50000000  0.50000000  0.00000000  1
  Cu  Cu18  1  0.50000000  0.50000000  0.50000000  1
  Cu  Cu19  1  0.50000000  0.00000000  0.00000000  1
  C  C20  1  0.25000000  0.12500000  0.87500000  1
  C  C21  1  0.75000000  0.87500000  0.12500000  1
  C  C22  1  0.37708600  0.25000000  0.62708600  1
  C  C23  1  0.62291400  0.37291400  0.25000000  1
  C  C24  1  0.12291400  0.75000000  0.87291400  1
  C  C25  1  0.87708600  0.12708600  0.75000000  1
  C  C26  1  0.75000000  0.37500000  0.62500000  1
  C  C27  1  0.37708600  0.62708600  0.75000000  1
  C  C28  1  0.12291400  0.87291400  0.25000000  1
  C  C29  1  0.87708600  0.25000000  0.12708600  1
  C  C30  1  0.62291400  0.75000000  0.37291400  1
  C  C31  1  0.25000000  0.62500000  0.37500000  1
  C  C32  1  0.29312200  0.48566500  0.38418600  1
  C  C33  1  0.02843500  0.30404000  0.89649200  1
  C  C34  1  0.12615600  0.60567900  0.91709100  1
  C  C35  1  0.20687800  0.59106300  0.19254300  1
  C  C36  1  0.20687800  0.11581400  0.01433500  1
  C  C37  1  0.59245200  0.19596000  0.22439600  1
  C  C38  1  0.60147900  0.19254300  0.48566500  1
  C  C39  1  0.18858700  0.20906400  0.58290900  1
  C  C40  1  0.89852100  0.38418600  0.59106300  1
  C  C41  1  0.31141300  0.91709100  0.29093600  1
  C  C42  1  0.90754800  0.27560400  0.30404000  1
  C  C43  1  0.02843500  0.22439600  0.13194300  1
  C  C44  1  0.18858700  0.47952300  0.60567900  1
  C  C45  1  0.59245200  0.89649200  0.36805700  1
  C  C46  1  0.12615600  0.02047700  0.20906400  1
  C  C47  1  0.47156500  0.60350800  0.19596000  1
  C  C48  1  0.37384400  0.58290900  0.89432100  1
  C  C49  1  0.89852100  0.01433500  0.30745700  1
  C  C50  1  0.60147900  0.90893700  0.11581400  1
  C  C51  1  0.10147900  0.61581400  0.40893700  1
  C  C52  1  0.90754800  0.13194300  0.60350800  1
  C  C53  1  0.37384400  0.29093600  0.47952300  1
  C  C54  1  0.31141300  0.89432100  0.02047700  1
  C  C55  1  0.29312200  0.30745700  0.90893700  1
  C  C56  1  0.70687800  0.51433500  0.61581400  1
  C  C57  1  0.97156500  0.69596000  0.10350800  1
  C  C58  1  0.87384400  0.39432100  0.08290900  1
  C  C59  1  0.79312200  0.40893700  0.80745700  1
  C  C60  1  0.79312200  0.88418600  0.98566500  1
  C  C61  1  0.40754800  0.80404000  0.77560400  1
  C  C62  1  0.39852100  0.80745700  0.51433500  1
  C  C63  1  0.81141300  0.79093600  0.41709100  1
  C  C64  1  0.70687800  0.69254300  0.09106300  1
  C  C65  1  0.68858700  0.10567900  0.97952300  1
  C  C66  1  0.62615600  0.70906400  0.52047700  1
  C  C67  1  0.52843500  0.63194300  0.72439600  1
  C  C68  1  0.09245200  0.86805700  0.39649200  1
  C  C69  1  0.39852100  0.09106300  0.88418600  1
  C  C70  1  0.10147900  0.98566500  0.69254300  1
  C  C71  1  0.62615600  0.41709100  0.10567900  1
  C  C72  1  0.52843500  0.39649200  0.80404000  1
  C  C73  1  0.87384400  0.97952300  0.79093600  1
  C  C74  1  0.40754800  0.10350800  0.63194300  1
  C  C75  1  0.81141300  0.52047700  0.39432100  1
  C  C76  1  0.97156500  0.77560400  0.86805700  1
  C  C77  1  0.09245200  0.72439600  0.69596000  1
  C  C78  1  0.68858700  0.08290900  0.70906400  1
  C  C79  1  0.47156500  0.36805700  0.27560400  1
