# generated using pymatgen
data_CuNiC16
_symmetry_space_group_name_H-M   'P 1'
_cell_length_a   5.48580316
_cell_length_b   5.48580316
_cell_length_c   7.82422430
_cell_angle_alpha   90.00000000
_cell_angle_beta   90.00000000
_cell_angle_gamma   90.03258891
_symmetry_Int_Tables_number   1
_chemical_formula_structural   CuNiC16
_chemical_formula_sum   'Cu1 Ni1 C16'
_cell_volume   235.46245236
_cell_formula_units_Z   1
loop_
 _symmetry_equiv_pos_site_id
 _symmetry_equiv_pos_as_xyz
  1  'x, y, z'
loop_
 _atom_site_type_symbol
 _atom_site_label
 _atom_site_symmetry_multiplicity
 _atom_site_fract_x
 _atom_site_fract_y
 _atom_site_fract_z
 _atom_site_occupancy
  Ni  Ni0  1  0.00632977  0.99367023  0.50000000  1
  Cu  Cu1  1  0.48574743  0.51425257  -0.00000000  1
  C  C2  1  0.50258290  0.00539274  0.25848530  1
  C  C3  1  0.50258290  0.00539274  0.74151470  1
  C  C4  1  0.99460726  0.49741710  0.74151470  1
  C  C5  1  0.99460726  0.49741710  0.25848530  1
  C  C6  1  0.25713637  0.25588041  0.22884813  1
  C  C7  1  0.74411959  0.74286363  0.22884813  1
  C  C8  1  0.74411959  0.74286363  0.77115187  1
  C  C9  1  0.25713637  0.25588041  0.77115187  1
  C  C10  1  0.26082304  0.73917696  0.24097696  1
  C  C11  1  0.73842650  0.26157350  0.21791917  1
  C  C12  1  0.73842650  0.26157350  0.78208083  1
  C  C13  1  0.26082304  0.73917696  0.75902304  1
  C  C14  1  0.48813612  0.97283392  -0.00000000  1
  C  C15  1  0.50906378  0.00643449  0.50000000  1
  C  C16  1  0.02716608  0.51186388  -0.00000000  1
  C  C17  1  0.99356551  0.49093622  0.50000000  1
