# generated using pymatgen
data_Cu2Ni2C
_symmetry_space_group_name_H-M   'P 1'
_cell_length_a   2.77525800
_cell_length_b   4.62835900
_cell_length_c   7.25337100
_cell_angle_alpha   90.00000000
_cell_angle_beta   90.00000000
_cell_angle_gamma   90.00000000
_symmetry_Int_Tables_number   1
_chemical_formula_structural   Cu2Ni2C
_chemical_formula_sum   'Cu4 Ni4 C2'
_cell_volume   93.16875510
_cell_formula_units_Z   2
loop_
 _symmetry_equiv_pos_site_id
 _symmetry_equiv_pos_as_xyz
  1  'x, y, z'
loop_
 _atom_site_type_symbol
 _atom_site_label
 _atom_site_symmetry_multiplicity
 _atom_site_fract_x
 _atom_site_fract_y
 _atom_site_fract_z
 _atom_site_occupancy
  C  C0  1  0.50000000  0.50000000  0.50000000  1
  C  C1  1  0.00000000  0.00000000  0.00000000  1
  Ni  Ni2  1  0.50000000  0.88465500  0.72970300  1
  Ni  Ni3  1  0.50000000  0.11534500  0.27029700  1
  Ni  Ni4  1  0.00000000  0.61534500  0.22970300  1
  Ni  Ni5  1  0.00000000  0.38465500  0.77029700  1
  Cu  Cu6  1  0.50000000  0.78435600  0.22006900  1
  Cu  Cu7  1  0.50000000  0.21564400  0.77993100  1
  Cu  Cu8  1  0.00000000  0.71564400  0.72006900  1
  Cu  Cu9  1  0.00000000  0.28435600  0.27993100  1
