# generated using pymatgen
data_Cu8NiC16
_symmetry_space_group_name_H-M   'P 1'
_cell_length_a   6.76963943
_cell_length_b   5.62167451
_cell_length_c   7.22142920
_cell_angle_alpha   83.42966701
_cell_angle_beta   93.85376444
_cell_angle_gamma   89.90773000
_symmetry_Int_Tables_number   1
_chemical_formula_structural   Cu8NiC16
_chemical_formula_sum   'Cu8 Ni1 C16'
_cell_volume   272.38949783
_cell_formula_units_Z   1
loop_
 _symmetry_equiv_pos_site_id
 _symmetry_equiv_pos_as_xyz
  1  'x, y, z'
loop_
 _atom_site_type_symbol
 _atom_site_label
 _atom_site_symmetry_multiplicity
 _atom_site_fract_x
 _atom_site_fract_y
 _atom_site_fract_z
 _atom_site_occupancy
  Ni  Ni0  1  0.56314300  0.98448100  0.98268600  1
  Cu  Cu1  1  0.36189900  0.36950300  0.12633900  1
  Cu  Cu2  1  0.13645300  0.69252400  0.38482600  1
  Cu  Cu3  1  0.90758600  0.18919800  0.14798500  1
  Cu  Cu4  1  0.37719300  0.13133100  0.62211600  1
  Cu  Cu5  1  0.11562300  0.83663000  0.87670300  1
  Cu  Cu6  1  0.64824300  0.88481100  0.41145700  1
  Cu  Cu7  1  0.60786500  0.57466500  0.84172900  1
  Cu  Cu8  1  0.88818900  0.35036000  0.63907300  1
  C  C9  1  0.16696500  0.11853600  0.08600700  1
  C  C10  1  0.15828300  0.61830300  0.10795500  1
  C  C11  1  0.56046500  0.61129700  0.09327500  1
  C  C12  1  0.07592800  0.60826900  0.64556100  1
  C  C13  1  0.36524100  0.91401900  0.43271400  1
  C  C14  1  0.09409300  0.10280600  0.67734500  1
  C  C15  1  0.61473000  0.14169500  0.20055200  1
  C  C16  1  0.39949900  0.83808300  0.79803400  1
  C  C17  1  0.66251400  0.12067600  0.59407400  1
  C  C18  1  0.91056800  0.89878700  0.32528500  1
  C  C19  1  0.43488100  0.31141900  0.84315700  1
  C  C20  1  0.67722200  0.59546700  0.58995100  1
  C  C21  1  0.82628700  0.35277700  0.89460800  1
  C  C22  1  0.33297900  0.40552100  0.42274400  1
  C  C23  1  0.93114400  0.39418900  0.36988200  1
  C  C24  1  0.81300800  0.84750700  0.90594300  1
