# generated using pymatgen
data_Cu6Ni5C18
_symmetry_space_group_name_H-M   'P 1'
_cell_length_a   6.56730447
_cell_length_b   6.56730447
_cell_length_c   30.44172905
_cell_angle_alpha   96.19236113
_cell_angle_beta   96.19236113
_cell_angle_gamma   90.00000000
_symmetry_Int_Tables_number   1
_chemical_formula_structural   Cu6Ni5C18
_chemical_formula_sum   'Cu12 Ni10 C36'
_cell_volume   1297.56992714
_cell_formula_units_Z   2
loop_
 _symmetry_equiv_pos_site_id
 _symmetry_equiv_pos_as_xyz
  1  'x, y, z'
loop_
 _atom_site_type_symbol
 _atom_site_label
 _atom_site_symmetry_multiplicity
 _atom_site_fract_x
 _atom_site_fract_y
 _atom_site_fract_z
 _atom_site_occupancy
  Ni  Ni0  1  0.36229672  0.36229672  0.72459344  1
  Ni  Ni1  1  0.63770328  0.63770328  0.27540656  1
  Ni  Ni2  1  0.88770328  0.38770328  0.77540656  1
  Ni  Ni3  1  0.61229672  0.11229672  0.22459344  1
  Ni  Ni4  1  0.08725449  0.08725449  0.17450898  1
  Ni  Ni5  1  0.91274551  0.91274551  0.82549102  1
  Ni  Ni6  1  0.16274551  0.66274551  0.32549102  1
  Ni  Ni7  1  0.33725449  0.83725449  0.67450898  1
  Ni  Ni8  1  0.00000000  -0.00000000  -0.00000000  1
  Ni  Ni9  1  0.25000000  0.75000000  0.50000000  1
  Cu  Cu10  1  0.45522665  0.45522665  0.91045330  1
  Cu  Cu11  1  0.54477335  0.54477335  0.08954670  1
  Cu  Cu12  1  0.79477335  0.29477335  0.58954670  1
  Cu  Cu13  1  0.70522665  0.20522665  0.41045330  1
  Cu  Cu14  1  0.27267604  0.27267604  0.54535209  1
  Cu  Cu15  1  0.72732396  0.72732396  0.45464791  1
  Cu  Cu16  1  0.97732396  0.47732396  0.95464791  1
  Cu  Cu17  1  0.52267604  0.02267604  0.04535209  1
  Cu  Cu18  1  0.18443551  0.18443551  0.36887102  1
  Cu  Cu19  1  0.81556449  0.81556449  0.63112898  1
  Cu  Cu20  1  0.06556449  0.56556449  0.13112898  1
  Cu  Cu21  1  0.43443551  0.93443551  0.86887102  1
  C  C22  1  0.47411744  0.38963767  0.47162609  1
  C  C23  1  0.99750865  0.08198842  0.47162609  1
  C  C24  1  0.91801158  0.52588256  0.52837391  1
  C  C25  1  0.77588256  0.66801158  0.02837391  1
  C  C26  1  0.61036233  0.00249135  0.52837391  1
  C  C27  1  0.25249135  0.36036233  0.02837391  1
  C  C28  1  0.33198842  0.74750865  0.97162609  1
  C  C29  1  0.63963767  0.22411744  0.97162609  1
  C  C30  1  0.27319593  0.37500000  0.25000000  1
  C  C31  1  0.97680407  0.87500000  0.25000000  1
  C  C32  1  0.12500000  0.72680407  0.75000000  1
  C  C33  1  0.62500000  0.02319593  0.75000000  1
  C  C34  1  0.48195246  0.62535944  0.58320895  1
  C  C35  1  0.10125650  0.95784951  0.58320895  1
  C  C36  1  0.04215049  0.51804754  0.41679105  1
  C  C37  1  0.76804754  0.79215049  0.91679105  1
  C  C38  1  0.37464056  0.89874350  0.41679105  1
  C  C39  1  0.14874350  0.12464056  0.91679105  1
  C  C40  1  0.20784951  0.85125650  0.08320895  1
  C  C41  1  0.87535944  0.23195246  0.08320895  1
  C  C42  1  0.41104998  0.25811758  0.13511165  1
  C  C43  1  0.72406167  0.87699407  0.13511165  1
  C  C44  1  0.12300593  0.58895002  0.86488835  1
  C  C45  1  0.83895002  0.87300593  0.36488835  1
  C  C46  1  0.74188242  0.27593833  0.86488835  1
  C  C47  1  0.52593833  0.49188242  0.36488835  1
  C  C48  1  0.12699407  0.47406167  0.63511165  1
  C  C49  1  0.50811758  0.16104998  0.63511165  1
  C  C50  1  0.55042174  0.62790711  0.80814571  1
  C  C51  1  0.25772397  0.18023861  0.80814571  1
  C  C52  1  0.81976139  0.44957826  0.19185429  1
  C  C53  1  0.69957826  0.56976139  0.69185429  1
  C  C54  1  0.37209289  0.74227603  0.19185429  1
  C  C55  1  0.99227603  0.12209289  0.69185429  1
  C  C56  1  0.43023861  0.00772397  0.30814571  1
  C  C57  1  0.87790711  0.30042174  0.30814571  1
