# generated using pymatgen
data_Cu2Ni4C5
_symmetry_space_group_name_H-M   'P 1'
_cell_length_a   3.58600400
_cell_length_b   8.06366400
_cell_length_c   18.08444100
_cell_angle_alpha   90.00000000
_cell_angle_beta   90.00000000
_cell_angle_gamma   90.00000000
_symmetry_Int_Tables_number   1
_chemical_formula_structural   Cu2Ni4C5
_chemical_formula_sum   'Cu4 Ni8 C10'
_cell_volume   522.93568839
_cell_formula_units_Z   2
loop_
 _symmetry_equiv_pos_site_id
 _symmetry_equiv_pos_as_xyz
  1  'x, y, z'
loop_
 _atom_site_type_symbol
 _atom_site_label
 _atom_site_symmetry_multiplicity
 _atom_site_fract_x
 _atom_site_fract_y
 _atom_site_fract_z
 _atom_site_occupancy
  C  C0  1  0.00000000  0.50000000  0.50000000  1
  C  C1  1  0.00000000  0.00000000  0.00000000  1
  C  C2  1  0.00000000  0.73869400  0.28044400  1
  C  C3  1  0.00000000  0.26130600  0.71955700  1
  C  C4  1  0.00000000  0.76130600  0.78044300  1
  C  C5  1  0.00000000  0.23869400  0.21955600  1
  C  C6  1  0.00000000  0.61187100  0.08276400  1
  C  C7  1  0.00000000  0.38812900  0.91723600  1
  C  C8  1  0.00000000  0.88812900  0.58276400  1
  C  C9  1  0.00000000  0.11187100  0.41723600  1
  Ni  Ni10  1  0.50000000  0.71312500  0.93138200  1
  Ni  Ni11  1  0.50000000  0.28687500  0.06861800  1
  Ni  Ni12  1  0.50000000  0.78687500  0.43138200  1
  Ni  Ni13  1  0.50000000  0.21312500  0.56861800  1
  Ni  Ni14  1  0.50000000  0.58300900  0.64840200  1
  Ni  Ni15  1  0.50000000  0.41699100  0.35159800  1
  Ni  Ni16  1  0.50000000  0.91699100  0.14840200  1
  Ni  Ni17  1  0.50000000  0.08300900  0.85159800  1
  Cu  Cu18  1  0.50000000  0.52366200  0.19677200  1
  Cu  Cu19  1  0.50000000  0.47633800  0.80322800  1
  Cu  Cu20  1  0.50000000  0.97633800  0.69677200  1
  Cu  Cu21  1  0.50000000  0.02366200  0.30322800  1
