# generated using pymatgen
data_Cu(Ni3C2)4
_symmetry_space_group_name_H-M   'P 1'
_cell_length_a   10.31524816
_cell_length_b   10.31524816
_cell_length_c   7.83784400
_cell_angle_alpha   90.00000000
_cell_angle_beta   90.00000000
_cell_angle_gamma   120.00000103
_symmetry_Int_Tables_number   1
_chemical_formula_structural   Cu(Ni3C2)4
_chemical_formula_sum   'Cu2 Ni24 C16'
_cell_volume   722.24842516
_cell_formula_units_Z   2
loop_
 _symmetry_equiv_pos_site_id
 _symmetry_equiv_pos_as_xyz
  1  'x, y, z'
loop_
 _atom_site_type_symbol
 _atom_site_label
 _atom_site_symmetry_multiplicity
 _atom_site_fract_x
 _atom_site_fract_y
 _atom_site_fract_z
 _atom_site_occupancy
  C  C0  1  0.33333300  0.66666700  0.99889300  1
  C  C1  1  0.66666700  0.33333300  0.49889300  1
  C  C2  1  0.66666700  0.33333300  0.00114800  1
  C  C3  1  0.33333300  0.66666700  0.50114800  1
  C  C4  1  0.75964300  0.74130100  0.75001400  1
  C  C5  1  0.98165800  0.24035700  0.75001400  1
  C  C6  1  0.25869900  0.01834200  0.75001400  1
  C  C7  1  0.24035700  0.25869900  0.25001400  1
  C  C8  1  0.01834200  0.75964300  0.25001400  1
  C  C9  1  0.74130100  0.98165800  0.25001400  1
  C  C10  1  0.59821500  0.96768500  0.74988300  1
  C  C11  1  0.36947000  0.40178500  0.74988300  1
  C  C12  1  0.03231500  0.63053000  0.74988300  1
  C  C13  1  0.40178500  0.03231500  0.24988300  1
  C  C14  1  0.63053000  0.59821500  0.24988300  1
  C  C15  1  0.96768500  0.36947000  0.24988300  1
  Ni  Ni16  1  0.65933500  0.14018800  0.74999200  1
  Ni  Ni17  1  0.48085300  0.34066500  0.74999200  1
  Ni  Ni18  1  0.85981200  0.51914700  0.74999200  1
  Ni  Ni19  1  0.34066500  0.85981200  0.24999200  1
  Ni  Ni20  1  0.51914700  0.65933500  0.24999200  1
  Ni  Ni21  1  0.14018800  0.48085300  0.24999200  1
  Ni  Ni22  1  0.42328100  0.88230400  0.75013100  1
  Ni  Ni23  1  0.45902300  0.57671900  0.75013100  1
  Ni  Ni24  1  0.11769600  0.54097700  0.75013100  1
  Ni  Ni25  1  0.57671900  0.11769600  0.25013100  1
  Ni  Ni26  1  0.54097700  0.42328100  0.25013100  1
  Ni  Ni27  1  0.88230400  0.45902300  0.25013100  1
  Ni  Ni28  1  0.65354100  0.92105300  0.91131000  1
  Ni  Ni29  1  0.26751200  0.34645900  0.91131000  1
  Ni  Ni30  1  0.07894700  0.73248800  0.91131000  1
  Ni  Ni31  1  0.34645900  0.07894700  0.41131000  1
  Ni  Ni32  1  0.73248800  0.65354100  0.41131000  1
  Ni  Ni33  1  0.92105300  0.26751200  0.41131000  1
  Ni  Ni34  1  0.34703400  0.07921600  0.08846600  1
  Ni  Ni35  1  0.73218200  0.65296600  0.08846600  1
  Ni  Ni36  1  0.92078400  0.26781800  0.08846600  1
  Ni  Ni37  1  0.65296600  0.92078400  0.58846600  1
  Ni  Ni38  1  0.26781800  0.34703400  0.58846600  1
  Ni  Ni39  1  0.07921600  0.73218200  0.58846600  1
  Cu  Cu40  1  0.00000000  0.00000000  0.71938100  1
  Cu  Cu41  1  0.00000000  0.00000000  0.21938100  1
