# generated using pymatgen
data_Cu21Ni3C10
_symmetry_space_group_name_H-M   'P 1'
_cell_length_a   10.25500512
_cell_length_b   10.25915892
_cell_length_c   18.31293268
_cell_angle_alpha   90.06286031
_cell_angle_beta   89.72565673
_cell_angle_gamma   119.77149106
_symmetry_Int_Tables_number   1
_chemical_formula_structural   Cu21Ni3C10
_chemical_formula_sum   'Cu42 Ni6 C20'
_cell_volume   1672.34597770
_cell_formula_units_Z   2
loop_
 _symmetry_equiv_pos_site_id
 _symmetry_equiv_pos_as_xyz
  1  'x, y, z'
loop_
 _atom_site_type_symbol
 _atom_site_label
 _atom_site_symmetry_multiplicity
 _atom_site_fract_x
 _atom_site_fract_y
 _atom_site_fract_z
 _atom_site_occupancy
  C  C0  1  0.86857445  0.64506841  0.08224746  1
  C  C1  1  0.86263672  0.63952331  0.75106100  1
  C  C2  1  0.22272988  0.86414614  0.25020074  1
  C  C3  1  0.21806439  0.86065093  0.58266152  1
  C  C4  1  0.63781797  0.77633670  0.25324856  1
  C  C5  1  0.64402251  0.77837029  0.58359360  1
  C  C6  1  0.64065553  0.77631124  0.91634257  1
  C  C7  1  0.35652608  0.21949860  0.08474630  1
  C  C8  1  0.35842024  0.22430214  0.41569554  1
  C  C9  1  0.36101814  0.22338875  0.75271193  1
  C  C10  1  0.77992648  0.13942147  0.08212416  1
  C  C11  1  0.77688008  0.13533047  0.41587576  1
  C  C12  1  0.13436484  0.35890246  0.58319645  1
  C  C13  1  0.13396852  0.35733133  0.91565013  1
  C  C14  1  0.00101139  0.00745855  0.23039923  1
  C  C15  1  0.00111985  0.00023539  0.56390518  1
  C  C16  1  0.00312882  0.99807499  0.89825175  1
  C  C17  1  0.00070595  0.99966662  0.06390612  1
  C  C18  1  0.99901862  0.99679206  0.39847607  1
  C  C19  1  0.99402496  0.00138571  0.73052734  1
  Ni  Ni20  1  0.66818563  0.33547013  0.28017751  1
  Ni  Ni21  1  0.66661354  0.32815104  0.61091526  1
  Ni  Ni22  1  0.66703144  0.33402117  0.94403332  1
  Ni  Ni23  1  0.33098262  0.66187723  0.11112400  1
  Ni  Ni24  1  0.33379788  0.66710407  0.44412016  1
  Ni  Ni25  1  0.33146422  0.66761084  0.78025820  1
  Cu  Cu26  1  0.57553047  0.48584419  0.00098462  1
  Cu  Cu27  1  0.56635043  0.48086269  0.32931582  1
  Cu  Cu28  1  0.57624770  0.48405108  0.66516602  1
  Cu  Cu29  1  0.48493809  0.90803718  0.16477157  1
  Cu  Cu30  1  0.48535299  0.90895740  0.50001230  1
  Cu  Cu31  1  0.49194778  0.90882170  0.83073673  1
  Cu  Cu32  1  0.91095019  0.42715157  0.99800601  1
  Cu  Cu33  1  0.90851068  0.41724438  0.33124426  1
  Cu  Cu34  1  0.91326956  0.43286975  0.66335800  1
  Cu  Cu35  1  0.09006717  0.57925729  0.16720436  1
  Cu  Cu36  1  0.09053153  0.57504878  0.49734491  1
  Cu  Cu37  1  0.08562213  0.56735220  0.82962337  1
  Cu  Cu38  1  0.51854900  0.09305324  0.99731689  1
  Cu  Cu39  1  0.51195210  0.08841408  0.33153866  1
  Cu  Cu40  1  0.51059798  0.08811294  0.66866654  1
  Cu  Cu41  1  0.43351521  0.51836864  0.16557090  1
  Cu  Cu42  1  0.42663453  0.51643164  0.49855498  1
  Cu  Cu43  1  0.42367282  0.51273289  0.83165360  1
  Cu  Cu44  1  0.33356136  0.66696841  0.31591359  1
  Cu  Cu45  1  0.33304609  0.66672979  0.64977764  1
  Cu  Cu46  1  0.33417469  0.66613281  0.98175608  1
  Cu  Cu47  1  0.66636008  0.33376646  0.14962077  1
  Cu  Cu48  1  0.66757928  0.33203719  0.48154567  1
  Cu  Cu49  1  0.66805437  0.33504035  0.81589609  1
  Cu  Cu50  1  0.84070845  0.10576501  0.23991984  1
  Cu  Cu51  1  0.83987036  0.10168810  0.56905648  1
  Cu  Cu52  1  0.83943291  0.09652463  0.90915178  1
  Cu  Cu53  1  0.73766808  0.84028150  0.07200255  1
  Cu  Cu54  1  0.73946710  0.83989751  0.40439798  1
  Cu  Cu55  1  0.73536800  0.84263162  0.74005177  1
  Cu  Cu56  1  0.10348412  0.26259997  0.06849926  1
  Cu  Cu57  1  0.09897086  0.25818619  0.40851656  1
  Cu  Cu58  1  0.10422903  0.26224504  0.73737455  1
  Cu  Cu59  1  0.89832944  0.74332941  0.23449369  1
  Cu  Cu60  1  0.89917829  0.74018682  0.57467582  1
  Cu  Cu61  1  0.89745323  0.73817863  0.90460016  1
  Cu  Cu62  1  0.26191012  0.15910456  0.23902994  1
  Cu  Cu63  1  0.26444201  0.16086550  0.57136620  1
  Cu  Cu64  1  0.26039398  0.15888713  0.90640342  1
  Cu  Cu65  1  0.16173691  0.89941505  0.07399327  1
  Cu  Cu66  1  0.15991753  0.89956744  0.40709882  1
  Cu  Cu67  1  0.15773254  0.90092919  0.73531672  1
