# generated using pymatgen
data_CuNiC8
_symmetry_space_group_name_H-M   'P 1'
_cell_length_a   5.58097555
_cell_length_b   11.28325200
_cell_length_c   7.90922055
_cell_angle_alpha   90.00108753
_cell_angle_beta   90.04793550
_cell_angle_gamma   90.00002250
_symmetry_Int_Tables_number   1
_chemical_formula_structural   CuNiC8
_chemical_formula_sum   'Cu4 Ni4 C32'
_cell_volume   498.05573075
_cell_formula_units_Z   4
loop_
 _symmetry_equiv_pos_site_id
 _symmetry_equiv_pos_as_xyz
  1  'x, y, z'
loop_
 _atom_site_type_symbol
 _atom_site_label
 _atom_site_symmetry_multiplicity
 _atom_site_fract_x
 _atom_site_fract_y
 _atom_site_fract_z
 _atom_site_occupancy
  C  C0  1  0.00793500  0.23034800  0.25077300  1
  C  C1  1  0.00789300  0.73015800  0.25083600  1
  C  C2  1  0.99197300  0.26983300  0.74917900  1
  C  C3  1  0.99216900  0.76955800  0.74922700  1
  C  C4  1  0.49218000  0.48040000  0.24925200  1
  C  C5  1  0.49196000  0.98021400  0.24916500  1
  C  C6  1  0.50793700  0.01972600  0.75080200  1
  C  C7  1  0.50786800  0.51975800  0.75077400  1
  Ni  Ni8  1  0.99994500  0.99992400  0.00000400  1
  Ni  Ni9  1  0.00003500  0.50002700  0.99998300  1
  Ni  Ni10  1  0.49998400  0.25002800  0.49999500  1
  Ni  Ni11  1  0.50003200  0.75002700  0.49999500  1
  Cu  Cu12  1  0.99999500  0.49998900  0.50000400  1
  Cu  Cu13  1  0.49996300  0.75001600  0.00002300  1
  Cu  Cu14  1  0.00000800  0.99997800  0.50000000  1
  Cu  Cu15  1  0.50001300  0.24999700  0.99999100  1
  C  C16  1  0.91771500  0.01038300  0.24252700  1
  C  C17  1  0.91797200  0.51025700  0.24253300  1
  C  C18  1  0.08208100  0.48990400  0.75745600  1
  C  C19  1  0.08224800  0.98949200  0.75748100  1
  C  C20  1  0.58220000  0.26050600  0.25746100  1
  C  C21  1  0.58213600  0.76018000  0.25746500  1
  C  C22  1  0.41776100  0.23967200  0.74253500  1
  C  C23  1  0.41793200  0.73962700  0.74254200  1
  C  C24  1  0.20210100  0.35862700  0.04455000  1
  C  C25  1  0.20194200  0.85853900  0.04476400  1
  C  C26  1  0.79803500  0.14140600  0.95524800  1
  C  C27  1  0.79791700  0.64143100  0.95547400  1
  C  C28  1  0.29799700  0.10861900  0.45525900  1
  C  C29  1  0.29784600  0.60859400  0.45542000  1
  C  C30  1  0.70206800  0.39143400  0.54471200  1
  C  C31  1  0.70210100  0.89134800  0.54465000  1
  C  C32  1  0.28154900  0.10153000  0.04249400  1
  C  C33  1  0.28145600  0.60163300  0.04246800  1
  C  C34  1  0.71857300  0.39842700  0.95744100  1
  C  C35  1  0.71844700  0.89840100  0.95755900  1
  C  C36  1  0.21854700  0.35164000  0.45762900  1
  C  C37  1  0.21855600  0.85157200  0.45747500  1
  C  C38  1  0.78151800  0.14845100  0.54249300  1
  C  C39  1  0.78141500  0.64834400  0.54236200  1
