# generated using pymatgen
data_Cu(NiC3)3
_symmetry_space_group_name_H-M   'P 1'
_cell_length_a   7.40539300
_cell_length_b   7.01104600
_cell_length_c   10.26027004
_cell_angle_alpha   86.38192532
_cell_angle_beta   90.00000000
_cell_angle_gamma   90.00000000
_symmetry_Int_Tables_number   1
_chemical_formula_structural   Cu(NiC3)3
_chemical_formula_sum   'Cu4 Ni12 C36'
_cell_volume   531.64685642
_cell_formula_units_Z   4
loop_
 _symmetry_equiv_pos_site_id
 _symmetry_equiv_pos_as_xyz
  1  'x, y, z'
loop_
 _atom_site_type_symbol
 _atom_site_label
 _atom_site_symmetry_multiplicity
 _atom_site_fract_x
 _atom_site_fract_y
 _atom_site_fract_z
 _atom_site_occupancy
  C  C0  1  0.00000000  0.00000000  0.00000000  1
  C  C1  1  0.00000000  0.50000000  0.00000000  1
  C  C2  1  0.50000000  0.00000000  0.50000000  1
  C  C3  1  0.25065400  0.75605200  0.24566300  1
  C  C4  1  0.74934600  0.24394800  0.75433700  1
  C  C5  1  0.25065400  0.24394800  0.75433700  1
  C  C6  1  0.74934600  0.75605200  0.24566300  1
  Ni  Ni7  1  0.00000000  0.01199700  0.69578700  1
  Ni  Ni8  1  0.50000000  0.52625700  0.18468900  1
  Ni  Ni9  1  0.78137200  0.81047500  0.49317200  1
  Ni  Ni10  1  0.29338300  0.31142800  0.99173600  1
  Ni  Ni11  1  0.21862800  0.81047500  0.49317200  1
  Ni  Ni12  1  0.70661700  0.31142800  0.99173600  1
  Ni  Ni13  1  0.00000000  0.98800300  0.30421300  1
  Ni  Ni14  1  0.50000000  0.47374300  0.81531100  1
  Ni  Ni15  1  0.21862800  0.18952500  0.50682800  1
  Ni  Ni16  1  0.70661700  0.68857200  0.00826400  1
  Ni  Ni17  1  0.78137200  0.18952500  0.50682800  1
  Ni  Ni18  1  0.29338300  0.68857200  0.00826400  1
  Cu  Cu19  1  0.00000000  0.61270000  0.69110500  1
  Cu  Cu20  1  0.50000000  0.12947600  0.18946100  1
  Cu  Cu21  1  0.00000000  0.38730000  0.30889500  1
  Cu  Cu22  1  0.50000000  0.87052400  0.81053900  1
  C  C23  1  0.00000000  0.13033100  0.74273100  1
  C  C24  1  0.50000000  0.65007400  0.22584300  1
  C  C25  1  0.68287500  0.83649400  0.42967600  1
  C  C26  1  0.18661800  0.32116300  0.93394700  1
  C  C27  1  0.31712500  0.83649400  0.42967600  1
  C  C28  1  0.81338200  0.32116300  0.93394700  1
  C  C29  1  0.00000000  0.86966900  0.25726900  1
  C  C30  1  0.50000000  0.34992600  0.77415700  1
  C  C31  1  0.31712500  0.16350600  0.57032400  1
  C  C32  1  0.81338200  0.67883700  0.06605300  1
  C  C33  1  0.68287500  0.16350600  0.57032400  1
  C  C34  1  0.18661800  0.67883700  0.06605300  1
  C  C35  1  0.00000000  0.78490000  0.60101100  1
  C  C36  1  0.50000000  0.30272600  0.09879700  1
  C  C37  1  0.00000000  0.21510000  0.39898900  1
  C  C38  1  0.50000000  0.69727400  0.90120300  1
  C  C39  1  0.00000000  0.67084500  0.82896900  1
  C  C40  1  0.50000000  0.18374900  0.32622000  1
  C  C41  1  0.83499000  0.49725700  0.66789000  1
  C  C42  1  0.33477100  0.01438500  0.16270300  1
  C  C43  1  0.16501000  0.49725700  0.66789000  1
  C  C44  1  0.66522900  0.01438500  0.16270300  1
  C  C45  1  0.00000000  0.32915500  0.17103100  1
  C  C46  1  0.50000000  0.81625100  0.67378000  1
  C  C47  1  0.16501000  0.50274300  0.33211000  1
  C  C48  1  0.66522900  0.98561500  0.83729700  1
  C  C49  1  0.83499000  0.50274300  0.33211000  1
  C  C50  1  0.33477100  0.98561500  0.83729700  1
  C  C51  1  0.50000000  0.50000000  0.50000000  1
