# generated using pymatgen
data_Cu6Ni2C9
_symmetry_space_group_name_H-M   'P 1'
_cell_length_a   7.35876500
_cell_length_b   7.50356300
_cell_length_c   20.84197600
_cell_angle_alpha   90.00000000
_cell_angle_beta   90.00000000
_cell_angle_gamma   90.00000000
_symmetry_Int_Tables_number   1
_chemical_formula_structural   Cu6Ni2C9
_chemical_formula_sum   'Cu24 Ni8 C36'
_cell_volume   1150.83048800
_cell_formula_units_Z   4
loop_
 _symmetry_equiv_pos_site_id
 _symmetry_equiv_pos_as_xyz
  1  'x, y, z'
loop_
 _atom_site_type_symbol
 _atom_site_label
 _atom_site_symmetry_multiplicity
 _atom_site_fract_x
 _atom_site_fract_y
 _atom_site_fract_z
 _atom_site_occupancy
  C  C0  1  0.69173700  0.26394300  0.07747500  1
  C  C1  1  0.30826300  0.73605700  0.57747500  1
  C  C2  1  0.80826300  0.26394300  0.57747500  1
  C  C3  1  0.19173700  0.73605700  0.07747500  1
  C  C4  1  0.50865000  0.99822300  0.32300600  1
  C  C5  1  0.49135000  0.00177700  0.82300600  1
  C  C6  1  0.99135000  0.99822300  0.82300600  1
  C  C7  1  0.00865000  0.00177700  0.32300600  1
  C  C8  1  0.26148000  0.75738600  0.42068500  1
  C  C9  1  0.73852000  0.24261400  0.92068500  1
  C  C10  1  0.23852000  0.75738600  0.92068500  1
  C  C11  1  0.76148000  0.24261400  0.42068500  1
  C  C12  1  0.74919400  0.26528100  0.23463600  1
  C  C13  1  0.25080600  0.73471900  0.73463600  1
  C  C14  1  0.75080600  0.26528100  0.73463600  1
  C  C15  1  0.24919400  0.73471900  0.23463600  1
  Ni  Ni16  1  0.23816100  0.20334000  0.97836000  1
  Ni  Ni17  1  0.76183900  0.79666000  0.47836000  1
  Ni  Ni18  1  0.26183900  0.20334000  0.47836000  1
  Ni  Ni19  1  0.73816100  0.79666000  0.97836000  1
  Ni  Ni20  1  0.24990600  0.23746300  0.17428200  1
  Ni  Ni21  1  0.75009400  0.76253700  0.67428200  1
  Ni  Ni22  1  0.25009400  0.23746300  0.67428200  1
  Ni  Ni23  1  0.74990600  0.76253700  0.17428200  1
  C  C24  1  0.00686000  0.50741900  0.05849100  1
  C  C25  1  0.99314000  0.49258100  0.55849100  1
  C  C26  1  0.49314000  0.50741900  0.55849100  1
  C  C27  1  0.50686000  0.49258100  0.05849100  1
  C  C28  1  0.02717300  0.98743100  0.09446300  1
  C  C29  1  0.97282700  0.01256900  0.59446300  1
  C  C30  1  0.47282700  0.98743100  0.59446300  1
  C  C31  1  0.52717300  0.01256900  0.09446300  1
  Cu  Cu32  1  0.58012400  0.15399900  0.24875300  1
  Cu  Cu33  1  0.41987600  0.84600100  0.74875300  1
  Cu  Cu34  1  0.91987600  0.15399900  0.74875300  1
  Cu  Cu35  1  0.08012400  0.84600100  0.24875300  1
  Cu  Cu36  1  0.92428700  0.19442100  0.26404800  1
  Cu  Cu37  1  0.07571300  0.80557900  0.76404800  1
  Cu  Cu38  1  0.57571300  0.19442100  0.76404800  1
  Cu  Cu39  1  0.42428700  0.80557900  0.26404800  1
  Cu  Cu40  1  0.43785200  0.84564800  0.39863400  1
  Cu  Cu41  1  0.56214800  0.15435200  0.89863400  1
  Cu  Cu42  1  0.06214800  0.84564800  0.89863400  1
  Cu  Cu43  1  0.93785200  0.15435200  0.39863400  1
  Cu  Cu44  1  0.59463400  0.19261800  0.38161000  1
  Cu  Cu45  1  0.40536600  0.80738200  0.88161000  1
  Cu  Cu46  1  0.90536600  0.19261800  0.88161000  1
  Cu  Cu47  1  0.09463400  0.80738200  0.38161000  1
  Cu  Cu48  1  0.27396000  0.69821600  0.16271700  1
  Cu  Cu49  1  0.72604000  0.30178400  0.66271700  1
  Cu  Cu50  1  0.22604000  0.69821600  0.66271700  1
  Cu  Cu51  1  0.77396000  0.30178400  0.16271700  1
  Cu  Cu52  1  0.77436700  0.21538100  0.99266600  1
  Cu  Cu53  1  0.22563300  0.78461900  0.49266600  1
  Cu  Cu54  1  0.72563300  0.21538100  0.49266600  1
  Cu  Cu55  1  0.27436700  0.78461900  0.99266600  1
  C  C56  1  0.21118600  0.55126100  0.91210700  1
  C  C57  1  0.78881400  0.44873900  0.41210700  1
  C  C58  1  0.28881400  0.55126100  0.41210700  1
  C  C59  1  0.71118600  0.44873900  0.91210700  1
  C  C60  1  0.75930300  0.89825100  0.32335700  1
  C  C61  1  0.24069700  0.10174900  0.82335700  1
  C  C62  1  0.74069700  0.89825100  0.82335700  1
  C  C63  1  0.25930300  0.10174900  0.32335700  1
  C  C64  1  0.21571100  0.54498100  0.26440100  1
  C  C65  1  0.78428900  0.45501900  0.76440100  1
  C  C66  1  0.28428900  0.54498100  0.76440100  1
  C  C67  1  0.71571100  0.45501900  0.26440100  1
