# generated using pymatgen
data_Cu2Ni2C5
_symmetry_space_group_name_H-M   'P 1'
_cell_length_a   3.76034300
_cell_length_b   5.34533300
_cell_length_c   10.25536000
_cell_angle_alpha   90.00000000
_cell_angle_beta   90.00000000
_cell_angle_gamma   90.00000000
_symmetry_Int_Tables_number   1
_chemical_formula_structural   Cu2Ni2C5
_chemical_formula_sum   'Cu4 Ni4 C10'
_cell_volume   206.13566420
_cell_formula_units_Z   2
loop_
 _symmetry_equiv_pos_site_id
 _symmetry_equiv_pos_as_xyz
  1  'x, y, z'
loop_
 _atom_site_type_symbol
 _atom_site_label
 _atom_site_symmetry_multiplicity
 _atom_site_fract_x
 _atom_site_fract_y
 _atom_site_fract_z
 _atom_site_occupancy
  Ni  Ni0  1  0.00000000  0.28025600  0.40123800  1
  Ni  Ni1  1  0.00000000  0.71974400  0.59876200  1
  Ni  Ni2  1  0.00000000  0.78025600  0.09876200  1
  Ni  Ni3  1  0.00000000  0.21974400  0.90123800  1
  Cu  Cu4  1  0.50000000  0.24154500  0.13534300  1
  Cu  Cu5  1  0.50000000  0.75845500  0.86465700  1
  Cu  Cu6  1  0.50000000  0.25845500  0.63534300  1
  Cu  Cu7  1  0.50000000  0.74154500  0.36465700  1
  C  C8  1  0.50000000  0.50000000  0.00000000  1
  C  C9  1  0.50000000  0.13466700  0.81392500  1
  C  C10  1  0.50000000  0.63466700  0.68607500  1
  C  C11  1  0.50000000  0.36533300  0.31392500  1
  C  C12  1  0.00000000  0.31335000  0.59877500  1
  C  C13  1  0.00000000  0.68665000  0.40122500  1
  C  C14  1  0.50000000  0.86533300  0.18607500  1
  C  C15  1  0.00000000  0.18665000  0.09877500  1
  C  C16  1  0.50000000  0.00000000  0.50000000  1
  C  C17  1  0.00000000  0.81335000  0.90122500  1
