# generated using pymatgen
data_Cu4NiC18
_symmetry_space_group_name_H-M   'P 1'
_cell_length_a   6.69675818
_cell_length_b   6.69675818
_cell_length_c   29.26266475
_cell_angle_alpha   86.90893321
_cell_angle_beta   86.90893321
_cell_angle_gamma   81.25618322
_symmetry_Int_Tables_number   1
_chemical_formula_structural   Cu4NiC18
_chemical_formula_sum   'Cu16 Ni4 C72'
_cell_volume   1293.80016009
_cell_formula_units_Z   4
loop_
 _symmetry_equiv_pos_site_id
 _symmetry_equiv_pos_as_xyz
  1  'x, y, z'
loop_
 _atom_site_type_symbol
 _atom_site_label
 _atom_site_symmetry_multiplicity
 _atom_site_fract_x
 _atom_site_fract_y
 _atom_site_fract_z
 _atom_site_occupancy
  C  C0  1  0.09776000  0.33802300  0.94770900  1
  C  C1  1  0.66197700  0.90224000  0.55229100  1
  C  C2  1  0.90224000  0.66197700  0.05229100  1
  C  C3  1  0.33802300  0.09776000  0.44770900  1
  C  C4  1  0.52887200  0.47112800  0.75000000  1
  C  C5  1  0.47112800  0.52887200  0.25000000  1
  C  C6  1  0.32508000  0.10190700  0.84827600  1
  C  C7  1  0.89809300  0.67492000  0.65172400  1
  C  C8  1  0.67492000  0.89809300  0.15172400  1
  C  C9  1  0.10190700  0.32508000  0.34827600  1
  C  C10  1  0.66157800  0.70519100  0.93653500  1
  C  C11  1  0.29480900  0.33842200  0.56346500  1
  C  C12  1  0.33842200  0.29480900  0.06346500  1
  C  C13  1  0.70519100  0.66157800  0.43653500  1
  C  C14  1  0.13247700  0.86752300  0.75000000  1
  C  C15  1  0.86752300  0.13247700  0.25000000  1
  Ni  Ni16  1  0.83905300  0.11533100  0.85508400  1
  Ni  Ni17  1  0.88466900  0.16094700  0.64491600  1
  Ni  Ni18  1  0.16094700  0.88466900  0.14491600  1
  Ni  Ni19  1  0.11533100  0.83905300  0.35508400  1
  Cu  Cu20  1  0.38281200  0.79191700  0.03556300  1
  Cu  Cu21  1  0.20808300  0.61718800  0.46443700  1
  Cu  Cu22  1  0.61718800  0.20808300  0.96443700  1
  Cu  Cu23  1  0.79191700  0.38281200  0.53556300  1
  Cu  Cu24  1  0.15475800  0.82411500  0.94267700  1
  Cu  Cu25  1  0.17588500  0.84524200  0.55732300  1
  Cu  Cu26  1  0.84524200  0.17588500  0.05732300  1
  Cu  Cu27  1  0.82411500  0.15475800  0.44267700  1
  Cu  Cu28  1  0.01153500  0.39382200  0.74798500  1
  Cu  Cu29  1  0.60617800  0.98846500  0.75201500  1
  Cu  Cu30  1  0.98846500  0.60617800  0.25201500  1
  Cu  Cu31  1  0.39382200  0.01153500  0.24798500  1
  Cu  Cu32  1  0.95079300  0.60912400  0.84016300  1
  Cu  Cu33  1  0.39087600  0.04920700  0.65983700  1
  Cu  Cu34  1  0.04920700  0.39087600  0.15983700  1
  Cu  Cu35  1  0.60912400  0.95079300  0.34016300  1
  C  C36  1  0.10420800  0.41926200  0.86546200  1
  C  C37  1  0.58073800  0.89579200  0.63453800  1
  C  C38  1  0.89579200  0.58073800  0.13453800  1
  C  C39  1  0.41926200  0.10420800  0.36546200  1
  C  C40  1  0.84123300  0.49745000  0.79388700  1
  C  C41  1  0.50255000  0.15876700  0.70611300  1
  C  C42  1  0.15876700  0.50255000  0.20611300  1
  C  C43  1  0.49745000  0.84123300  0.29388700  1
  C  C44  1  0.27338600  0.60229300  0.06282600  1
  C  C45  1  0.39770700  0.72661400  0.43717400  1
  C  C46  1  0.72661400  0.39770700  0.93717400  1
  C  C47  1  0.60229300  0.27338600  0.56282600  1
  C  C48  1  0.37404600  0.67495100  0.92642000  1
  C  C49  1  0.32504900  0.62595400  0.57358000  1
  C  C50  1  0.62595400  0.32504900  0.07358000  1
  C  C51  1  0.67495100  0.37404600  0.42642000  1
  C  C52  1  0.19845700  0.91433200  0.99772400  1
  C  C53  1  0.08566800  0.80154300  0.50227600  1
  C  C54  1  0.80154300  0.08566800  0.00227600  1
  C  C55  1  0.91433200  0.19845700  0.49772400  1
  C  C56  1  0.09883200  0.03666200  0.90944900  1
  C  C57  1  0.96333800  0.90116800  0.59055100  1
  C  C58  1  0.90116800  0.96333800  0.09055100  1
  C  C59  1  0.03666200  0.09883200  0.40944900  1
  C  C60  1  0.85407400  0.39942300  0.70419800  1
  C  C61  1  0.60057700  0.14592600  0.79580200  1
  C  C62  1  0.14592600  0.60057700  0.29580200  1
  C  C63  1  0.39942300  0.85407400  0.20419800  1
  C  C64  1  0.60535800  0.71642800  0.00587900  1
  C  C65  1  0.28357200  0.39464200  0.49412100  1
  C  C66  1  0.39464200  0.28357200  0.99412100  1
  C  C67  1  0.71642800  0.60535800  0.50587900  1
  C  C68  1  0.06474100  0.80722400  0.81621200  1
  C  C69  1  0.19277600  0.93525900  0.68378800  1
  C  C70  1  0.93525900  0.19277600  0.18378800  1
  C  C71  1  0.80722400  0.06474100  0.31621200  1
  C  C72  1  0.18361100  0.55842700  0.73936500  1
  C  C73  1  0.44157300  0.81638900  0.76063500  1
  C  C74  1  0.81638900  0.44157300  0.26063500  1
  C  C75  1  0.55842700  0.18361100  0.23936500  1
  C  C76  1  0.11790600  0.16029500  0.76871000  1
  C  C77  1  0.83970500  0.88209400  0.73129000  1
  C  C78  1  0.88209400  0.83970500  0.23129000  1
  C  C79  1  0.16029500  0.11790600  0.26871000  1
  C  C80  1  0.40184100  0.97562600  0.07299600  1
  C  C81  1  0.02437400  0.59815900  0.42700400  1
  C  C82  1  0.59815900  0.02437400  0.92700400  1
  C  C83  1  0.97562600  0.40184100  0.57299600  1
  C  C84  1  0.96299900  0.68391800  0.95401500  1
  C  C85  1  0.31608200  0.03700100  0.54598500  1
  C  C86  1  0.03700100  0.31608200  0.04598500  1
  C  C87  1  0.68391800  0.96299900  0.45401500  1
  C  C88  1  0.73838200  0.71908200  0.86966400  1
  C  C89  1  0.28091800  0.26161800  0.63033600  1
  C  C90  1  0.26161800  0.28091800  0.13033600  1
  C  C91  1  0.71908200  0.73838200  0.36966400  1
