# generated using pymatgen
data_CuNi2C7
_symmetry_space_group_name_H-M   'P 1'
_cell_length_a   5.32752300
_cell_length_b   5.15097900
_cell_length_c   9.09215121
_cell_angle_alpha   55.84325871
_cell_angle_beta   90.00000000
_cell_angle_gamma   90.00000000
_symmetry_Int_Tables_number   1
_chemical_formula_structural   CuNi2C7
_chemical_formula_sum   'Cu2 Ni4 C14'
_cell_volume   206.46775696
_cell_formula_units_Z   2
loop_
 _symmetry_equiv_pos_site_id
 _symmetry_equiv_pos_as_xyz
  1  'x, y, z'
loop_
 _atom_site_type_symbol
 _atom_site_label
 _atom_site_symmetry_multiplicity
 _atom_site_fract_x
 _atom_site_fract_y
 _atom_site_fract_z
 _atom_site_occupancy
  Ni  Ni0  1  0.94240700  0.23999400  0.75007000  1
  Ni  Ni1  1  0.44240700  0.76000600  0.74993000  1
  Ni  Ni2  1  0.55759300  0.23999400  0.25007000  1
  Ni  Ni3  1  0.05759300  0.76000600  0.24993000  1
  C  C4  1  0.50000000  0.00000000  0.00000000  1
  C  C5  1  0.00000000  0.00000000  0.50000000  1
  Cu  Cu6  1  0.50000000  0.50000000  0.50000000  1
  Cu  Cu7  1  0.00000000  0.50000000  0.00000000  1
  C  C8  1  0.43572000  0.62124600  0.24816200  1
  C  C9  1  0.18958900  0.89201200  0.93023000  1
  C  C10  1  0.18354900  0.24902300  0.56656300  1
  C  C11  1  0.68354900  0.75097700  0.93343700  1
  C  C12  1  0.68958900  0.10798800  0.56977000  1
  C  C13  1  0.93572000  0.37875400  0.25183800  1
  C  C14  1  0.06428000  0.62124600  0.74816200  1
  C  C15  1  0.31041100  0.89201200  0.43023000  1
  C  C16  1  0.31645100  0.24902300  0.06656300  1
  C  C17  1  0.81041100  0.10798800  0.06977000  1
  C  C18  1  0.81645100  0.75097700  0.43343700  1
  C  C19  1  0.56428000  0.37875400  0.75183800  1
