# generated using pymatgen
data_Cu4(NiC)3
_symmetry_space_group_name_H-M   'P 1'
_cell_length_a   6.28853800
_cell_length_b   6.28951442
_cell_length_c   18.38859176
_cell_angle_alpha   95.02206396
_cell_angle_beta   90.00000000
_cell_angle_gamma   90.00000000
_symmetry_Int_Tables_number   1
_chemical_formula_structural   Cu4(NiC)3
_chemical_formula_sum   'Cu16 Ni12 C12'
_cell_volume   724.51076040
_cell_formula_units_Z   4
loop_
 _symmetry_equiv_pos_site_id
 _symmetry_equiv_pos_as_xyz
  1  'x, y, z'
loop_
 _atom_site_type_symbol
 _atom_site_label
 _atom_site_symmetry_multiplicity
 _atom_site_fract_x
 _atom_site_fract_y
 _atom_site_fract_z
 _atom_site_occupancy
  C  C0  1  0.66542100  0.69706000  0.10213500  1
  C  C1  1  0.16542100  0.30294000  0.39786500  1
  C  C2  1  0.33457900  0.30294000  0.89786500  1
  C  C3  1  0.83457900  0.69706000  0.60213500  1
  C  C4  1  0.65038100  0.24688000  0.24939500  1
  C  C5  1  0.15038100  0.75312000  0.25060500  1
  C  C6  1  0.34961900  0.75312000  0.75060500  1
  C  C7  1  0.84961900  0.24688000  0.74939500  1
  C  C8  1  0.65454200  0.79613000  0.37009600  1
  C  C9  1  0.15454200  0.20387000  0.12990400  1
  C  C10  1  0.34545800  0.20387000  0.62990400  1
  C  C11  1  0.84545800  0.79613000  0.87009600  1
  Ni  Ni12  1  0.67611700  0.76763900  0.46335400  1
  Ni  Ni13  1  0.17611700  0.23236100  0.03664600  1
  Ni  Ni14  1  0.32388300  0.23236100  0.53664600  1
  Ni  Ni15  1  0.82388300  0.76763900  0.96335400  1
  Ni  Ni16  1  0.46828000  0.00188900  0.36604800  1
  Ni  Ni17  1  0.96828000  0.99811100  0.13395200  1
  Ni  Ni18  1  0.53172000  0.99811100  0.63395200  1
  Ni  Ni19  1  0.03172000  0.00188900  0.86604800  1
  Ni  Ni20  1  0.67558600  0.28726600  0.00940200  1
  Ni  Ni21  1  0.17558600  0.71273400  0.49059800  1
  Ni  Ni22  1  0.32441400  0.71273400  0.99059800  1
  Ni  Ni23  1  0.82441400  0.28726600  0.50940200  1
  Cu  Cu24  1  0.68057800  0.78606800  0.25584900  1
  Cu  Cu25  1  0.18057800  0.21393100  0.24415100  1
  Cu  Cu26  1  0.31942200  0.21393100  0.74415100  1
  Cu  Cu27  1  0.81942200  0.78606800  0.75584900  1
  Cu  Cu28  1  0.86907900  0.55039800  0.34537100  1
  Cu  Cu29  1  0.36907900  0.44960200  0.15462900  1
  Cu  Cu30  1  0.13092100  0.44960200  0.65462900  1
  Cu  Cu31  1  0.63092100  0.55039800  0.84537100  1
  Cu  Cu32  1  0.44533700  0.56614000  0.34612500  1
  Cu  Cu33  1  0.94533700  0.43386000  0.15387500  1
  Cu  Cu34  1  0.55466300  0.43386000  0.65387500  1
  Cu  Cu35  1  0.05466300  0.56614000  0.84612500  1
  Cu  Cu36  1  0.90783600  0.97684700  0.36419400  1
  Cu  Cu37  1  0.40783600  0.02315300  0.13580600  1
  Cu  Cu38  1  0.09216400  0.02315300  0.63580600  1
  Cu  Cu39  1  0.59216400  0.97684700  0.86419400  1
