# generated using pymatgen
data_CuNiC8
_symmetry_space_group_name_H-M   'P 1'
_cell_length_a   8.68164452
_cell_length_b   8.65252172
_cell_length_c   8.48530605
_cell_angle_alpha   90.00000000
_cell_angle_beta   90.00000000
_cell_angle_gamma   90.00000000
_symmetry_Int_Tables_number   1
_chemical_formula_structural   CuNiC8
_chemical_formula_sum   'Cu4 Ni4 C32'
_cell_volume   637.40021922
_cell_formula_units_Z   4
loop_
 _symmetry_equiv_pos_site_id
 _symmetry_equiv_pos_as_xyz
  1  'x, y, z'
loop_
 _atom_site_type_symbol
 _atom_site_label
 _atom_site_symmetry_multiplicity
 _atom_site_fract_x
 _atom_site_fract_y
 _atom_site_fract_z
 _atom_site_occupancy
  C  C0  1  -0.00000000  -0.00000000  -0.00000000  1
  C  C1  1  0.50000000  0.50000000  0.50000000  1
  C  C2  1  0.50000000  -0.00000000  0.50000000  1
  C  C3  1  -0.00000000  0.50000000  0.00000000  1
  C  C4  1  -0.00000000  0.50000000  0.50000000  1
  C  C5  1  0.50000000  0.50000000  0.00000000  1
  C  C6  1  0.50000000  -0.00000000  -0.00000000  1
  C  C7  1  -0.00000000  -0.00000000  0.50000000  1
  Ni  Ni8  1  0.25000000  0.25000000  0.25000000  1
  Ni  Ni9  1  0.75000000  0.75000000  0.25000000  1
  Ni  Ni10  1  0.75000000  0.25000000  0.75000000  1
  Ni  Ni11  1  0.25000000  0.75000000  0.75000000  1
  Cu  Cu12  1  0.75000000  0.75000000  0.75000000  1
  Cu  Cu13  1  0.25000000  0.25000000  0.75000000  1
  Cu  Cu14  1  0.25000000  0.75000000  0.25000000  1
  Cu  Cu15  1  0.75000000  0.25000000  0.25000000  1
  C  C16  1  0.01226518  0.19521403  0.29686252  1
  C  C17  1  0.98773482  0.80478597  0.29686252  1
  C  C18  1  0.98773482  0.19521403  0.70313748  1
  C  C19  1  0.01226518  0.80478597  0.70313748  1
  C  C20  1  0.29661660  0.01236920  0.19461658  1
  C  C21  1  0.29661660  0.98763080  0.80538342  1
  C  C22  1  0.70338340  0.98763080  0.19461658  1
  C  C23  1  0.70338340  0.01236920  0.80538342  1
  C  C24  1  0.20601757  0.28702633  0.01383477  1
  C  C25  1  0.79398243  0.28702633  0.98616523  1
  C  C26  1  0.20601757  0.71297367  0.98616523  1
  C  C27  1  0.79398243  0.71297367  0.01383477  1
  C  C28  1  0.48773482  0.30478597  0.20313748  1
  C  C29  1  0.51226518  0.69521403  0.20313748  1
  C  C30  1  0.51226518  0.30478597  0.79686252  1
  C  C31  1  0.48773482  0.69521403  0.79686252  1
  C  C32  1  0.20338340  0.48763080  0.30538342  1
  C  C33  1  0.20338340  0.51236920  0.69461658  1
  C  C34  1  0.79661660  0.51236920  0.30538342  1
  C  C35  1  0.79661660  0.48763080  0.69461658  1
  C  C36  1  0.29398243  0.21297367  0.48616523  1
  C  C37  1  0.70601757  0.21297367  0.51383477  1
  C  C38  1  0.29398243  0.78702633  0.51383477  1
  C  C39  1  0.70601757  0.78702633  0.48616523  1
