# generated using pymatgen
data_Cu15(NiC)2
_symmetry_space_group_name_H-M   'P 1'
_cell_length_a   8.19534900
_cell_length_b   8.36790253
_cell_length_c   8.36790253
_cell_angle_alpha   120.11123100
_cell_angle_beta   90.00000000
_cell_angle_gamma   90.00000000
_symmetry_Int_Tables_number   1
_chemical_formula_structural   Cu15(NiC)2
_chemical_formula_sum   'Cu30 Ni4 C4'
_cell_volume   496.41334071
_cell_formula_units_Z   2
loop_
 _symmetry_equiv_pos_site_id
 _symmetry_equiv_pos_as_xyz
  1  'x, y, z'
loop_
 _atom_site_type_symbol
 _atom_site_label
 _atom_site_symmetry_multiplicity
 _atom_site_fract_x
 _atom_site_fract_y
 _atom_site_fract_z
 _atom_site_occupancy
  C  C0  1  0.75000000  0.00012400  0.99987600  1
  C  C1  1  0.25000000  0.99987600  0.00012400  1
  C  C2  1  0.25000000  0.66711300  0.33288700  1
  C  C3  1  0.75000000  0.33288700  0.66711300  1
  Ni  Ni4  1  0.59562100  0.66693600  0.33306400  1
  Ni  Ni5  1  0.40437900  0.33306400  0.66693600  1
  Ni  Ni6  1  0.09562100  0.33306400  0.66693600  1
  Ni  Ni7  1  0.90437900  0.66693600  0.33306400  1
  Cu  Cu8  1  0.50000000  0.50000000  0.00000000  1
  Cu  Cu9  1  0.50000000  0.50000000  0.50000000  1
  Cu  Cu10  1  0.50000000  0.00000000  0.50000000  1
  Cu  Cu11  1  0.00000000  0.50000000  0.00000000  1
  Cu  Cu12  1  0.00000000  0.50000000  0.50000000  1
  Cu  Cu13  1  0.00000000  0.00000000  0.50000000  1
  Cu  Cu14  1  0.75000000  0.67257400  0.04694400  1
  Cu  Cu15  1  0.75000000  0.37421600  0.32737800  1
  Cu  Cu16  1  0.75000000  0.95331000  0.62572800  1
  Cu  Cu17  1  0.75000000  0.37427200  0.04669000  1
  Cu  Cu18  1  0.75000000  0.95305600  0.32742600  1
  Cu  Cu19  1  0.75000000  0.67262200  0.62578400  1
  Cu  Cu20  1  0.25000000  0.32742600  0.95305600  1
  Cu  Cu21  1  0.25000000  0.62578400  0.67262200  1
  Cu  Cu22  1  0.25000000  0.04669000  0.37427200  1
  Cu  Cu23  1  0.25000000  0.62572800  0.95331000  1
  Cu  Cu24  1  0.25000000  0.04694400  0.67257400  1
  Cu  Cu25  1  0.25000000  0.32737800  0.37421600  1
  Cu  Cu26  1  0.47466600  0.83778700  0.67490100  1
  Cu  Cu27  1  0.47429600  0.83735800  0.16264200  1
  Cu  Cu28  1  0.47466600  0.32509900  0.16221300  1
  Cu  Cu29  1  0.52533400  0.16221300  0.32509900  1
  Cu  Cu30  1  0.52570400  0.16264200  0.83735800  1
  Cu  Cu31  1  0.52533400  0.67490100  0.83778700  1
  Cu  Cu32  1  0.97466600  0.16221300  0.32509900  1
  Cu  Cu33  1  0.97429600  0.16264200  0.83735800  1
  Cu  Cu34  1  0.97466600  0.67490100  0.83778700  1
  Cu  Cu35  1  0.02533400  0.83778700  0.67490100  1
  Cu  Cu36  1  0.02570400  0.83735800  0.16264200  1
  Cu  Cu37  1  0.02533400  0.32509900  0.16221300  1
