# generated using pymatgen
data_Cu(NiC8)2
_symmetry_space_group_name_H-M   'P 1'
_cell_length_a   24.19465700
_cell_length_b   10.35955100
_cell_length_c   11.64937501
_cell_angle_alpha   59.34280421
_cell_angle_beta   90.00000000
_cell_angle_gamma   90.00000000
_symmetry_Int_Tables_number   1
_chemical_formula_structural   Cu(NiC8)2
_chemical_formula_sum   'Cu8 Ni16 C128'
_cell_volume   2511.76701017
_cell_formula_units_Z   8
loop_
 _symmetry_equiv_pos_site_id
 _symmetry_equiv_pos_as_xyz
  1  'x, y, z'
loop_
 _atom_site_type_symbol
 _atom_site_label
 _atom_site_symmetry_multiplicity
 _atom_site_fract_x
 _atom_site_fract_y
 _atom_site_fract_z
 _atom_site_occupancy
  C  C0  1  0.89150200  0.85658000  0.04876500  1
  C  C1  1  0.60849800  0.85658000  0.54876500  1
  C  C2  1  0.10849800  0.14342000  0.95123500  1
  C  C3  1  0.39150200  0.14342000  0.45123500  1
  C  C4  1  0.75436100  0.59110000  0.97579000  1
  C  C5  1  0.74563900  0.59110000  0.47579000  1
  C  C6  1  0.24563900  0.40890000  0.02421000  1
  C  C7  1  0.25436100  0.40890000  0.52421000  1
  C  C8  1  0.57734700  0.63558300  0.28705800  1
  C  C9  1  0.92265300  0.63558300  0.78705800  1
  C  C10  1  0.42265300  0.36441700  0.71294200  1
  C  C11  1  0.07734700  0.36441700  0.21294200  1
  C  C12  1  0.53714300  0.32231700  0.17898900  1
  C  C13  1  0.96285700  0.32231700  0.67898900  1
  C  C14  1  0.46285700  0.67768300  0.82101100  1
  C  C15  1  0.03714300  0.67768300  0.32101100  1
  C  C16  1  0.60448500  0.79453900  0.91532800  1
  C  C17  1  0.89551500  0.79453900  0.41532800  1
  C  C18  1  0.39551500  0.20546100  0.08467200  1
  C  C19  1  0.10448500  0.20546100  0.58467200  1
  C  C20  1  0.70826900  0.91516100  0.04010000  1
  C  C21  1  0.79173100  0.91516100  0.54010000  1
  C  C22  1  0.29173100  0.08483900  0.95990000  1
  C  C23  1  0.20826900  0.08483900  0.45990000  1
  C  C24  1  0.69608200  0.29964500  0.89964900  1
  C  C25  1  0.80391800  0.29964500  0.39964900  1
  C  C26  1  0.30391800  0.70035500  0.10035100  1
  C  C27  1  0.19608200  0.70035500  0.60035100  1
  C  C28  1  0.58700000  0.42650500  0.67595100  1
  C  C29  1  0.91300000  0.42650500  0.17595100  1
  C  C30  1  0.41300000  0.57349500  0.32404900  1
  C  C31  1  0.08700000  0.57349500  0.82404900  1
  C  C32  1  0.53988700  0.13976600  0.63357700  1
  C  C33  1  0.96011300  0.13976600  0.13357700  1
  C  C34  1  0.46011300  0.86023400  0.36642300  1
  C  C35  1  0.03988700  0.86023400  0.86642300  1
  Ni  Ni36  1  0.84862900  0.16706800  0.76598700  1
  Ni  Ni37  1  0.65137100  0.16706800  0.26598700  1
  Ni  Ni38  1  0.15137100  0.83293200  0.23401300  1
  Ni  Ni39  1  0.34862900  0.83293200  0.73401300  1
  Ni  Ni40  1  0.85413400  0.04703100  0.72571200  1
  Ni  Ni41  1  0.64586600  0.04703100  0.22571200  1
  Ni  Ni42  1  0.14586600  0.95296900  0.27428800  1
  Ni  Ni43  1  0.35413400  0.95296900  0.77428800  1
  Ni  Ni44  1  0.62898800  0.28607100  0.40446900  1
  Ni  Ni45  1  0.87101200  0.28607100  0.90446900  1
  Ni  Ni46  1  0.37101200  0.71392900  0.59553100  1
  Ni  Ni47  1  0.12898800  0.71392900  0.09553100  1
  Ni  Ni48  1  0.67282400  0.38632300  0.29810000  1
  Ni  Ni49  1  0.82717600  0.38632300  0.79810000  1
  Ni  Ni50  1  0.32717600  0.61367700  0.70190000  1
  Ni  Ni51  1  0.17282400  0.61367700  0.20190000  1
  Cu  Cu52  1  0.68743000  0.13906500  0.68621000  1
  Cu  Cu53  1  0.81257000  0.13906500  0.18621000  1
  Cu  Cu54  1  0.31257000  0.86093500  0.31379000  1
  Cu  Cu55  1  0.18743000  0.86093500  0.81379000  1
  Cu  Cu56  1  0.56721500  0.08806400  0.98269600  1
  Cu  Cu57  1  0.93278500  0.08806400  0.48269600  1
  Cu  Cu58  1  0.43278500  0.91193600  0.01730400  1
  Cu  Cu59  1  0.06721500  0.91193600  0.51730400  1
  C  C60  1  0.63475000  0.14115600  0.58836700  1
  C  C61  1  0.86525000  0.14115600  0.08836700  1
  C  C62  1  0.36525000  0.85884400  0.41163300  1
  C  C63  1  0.13475000  0.85884400  0.91163300  1
  C  C64  1  0.67204100  0.29135300  0.70502400  1
  C  C65  1  0.82795900  0.29135300  0.20502400  1
  C  C66  1  0.32795900  0.70864700  0.29497600  1
  C  C67  1  0.17204100  0.70864700  0.79497600  1
  C  C68  1  0.87275700  0.08684700  0.77572600  1
  C  C69  1  0.62724300  0.08684700  0.27572600  1
  C  C70  1  0.12724300  0.91315300  0.22427400  1
  C  C71  1  0.37275700  0.91315300  0.72427400  1
  C  C72  1  0.66760600  0.98642000  0.84282800  1
  C  C73  1  0.83239400  0.98642000  0.34282800  1
  C  C74  1  0.33239400  0.01358000  0.15717200  1
  C  C75  1  0.16760600  0.01358000  0.65717200  1
  C  C76  1  0.55619600  0.91214200  0.01285400  1
  C  C77  1  0.94380400  0.91214200  0.51285400  1
  C  C78  1  0.44380400  0.08785800  0.98714600  1
  C  C79  1  0.05619600  0.08785800  0.48714600  1
  C  C80  1  0.63801600  0.08756600  0.01264500  1
  C  C81  1  0.86198400  0.08756600  0.51264500  1
  C  C82  1  0.36198400  0.91243400  0.98735500  1
  C  C83  1  0.13801600  0.91243400  0.48735500  1
  C  C84  1  0.56352300  0.18954200  0.80611000  1
  C  C85  1  0.93647700  0.18954200  0.30611000  1
  C  C86  1  0.43647700  0.81045800  0.19389000  1
  C  C87  1  0.06352300  0.81045800  0.69389000  1
  C  C88  1  0.69959800  0.30663200  0.04611300  1
  C  C89  1  0.80040200  0.30663200  0.54611300  1
  C  C90  1  0.30040200  0.69336800  0.95388700  1
  C  C91  1  0.19959800  0.69336800  0.45388700  1
  C  C92  1  0.73773900  0.12114100  0.94465300  1
  C  C93  1  0.76226100  0.12114100  0.44465300  1
  C  C94  1  0.26226100  0.87885900  0.05534700  1
  C  C95  1  0.23773900  0.87885900  0.55534700  1
  C  C96  1  0.55972200  0.93145100  0.76161900  1
  C  C97  1  0.94027800  0.93145100  0.26161900  1
  C  C98  1  0.44027800  0.06854900  0.23838100  1
  C  C99  1  0.05972200  0.06854900  0.73838100  1
  C  C100  1  0.55700300  0.35089500  0.56453500  1
  C  C101  1  0.94299700  0.35089500  0.06453500  1
  C  C102  1  0.44299700  0.64910500  0.43546500  1
  C  C103  1  0.05700300  0.64910500  0.93546500  1
  C  C104  1  0.62310800  0.57818900  0.54555900  1
  C  C105  1  0.87689200  0.57818900  0.04555900  1
  C  C106  1  0.37689200  0.42181100  0.45444100  1
  C  C107  1  0.12310800  0.42181100  0.95444100  1
  C  C108  1  0.65403300  0.76204900  0.06094900  1
  C  C109  1  0.84596700  0.76204900  0.56094900  1
  C  C110  1  0.34596700  0.23795100  0.93905100  1
  C  C111  1  0.15403300  0.23795100  0.43905100  1
  C  C112  1  0.53444200  0.14120200  0.48350300  1
  C  C113  1  0.96555800  0.14120200  0.98350300  1
  C  C114  1  0.46555800  0.85879800  0.51649700  1
  C  C115  1  0.03444200  0.85879800  0.01649700  1
  C  C116  1  0.55660200  0.64962100  0.00717000  1
  C  C117  1  0.94339800  0.64962100  0.50717000  1
  C  C118  1  0.44339800  0.35037900  0.99283000  1
  C  C119  1  0.05660200  0.35037900  0.49283000  1
  C  C120  1  0.52863500  0.51052200  0.69870500  1
  C  C121  1  0.97136500  0.51052200  0.19870500  1
  C  C122  1  0.47136500  0.48947800  0.30129500  1
  C  C123  1  0.02863500  0.48947800  0.80129500  1
  C  C124  1  0.62538600  0.39898900  0.83357500  1
  C  C125  1  0.87461400  0.39898900  0.33357500  1
  C  C126  1  0.37461400  0.60101100  0.16642500  1
  C  C127  1  0.12538600  0.60101100  0.66642500  1
  C  C128  1  0.64405200  0.71947100  0.83834300  1
  C  C129  1  0.85594800  0.71947100  0.33834300  1
  C  C130  1  0.35594800  0.28052900  0.16165700  1
  C  C131  1  0.14405200  0.28052900  0.66165700  1
  C  C132  1  0.47047400  0.13433400  0.67701300  1
  C  C133  1  0.02952600  0.13433400  0.17701300  1
  C  C134  1  0.52952600  0.86566600  0.32298700  1
  C  C135  1  0.97047400  0.86566600  0.82298700  1
  C  C136  1  0.74594400  0.43389800  0.79917000  1
  C  C137  1  0.75405600  0.43389800  0.29917000  1
  C  C138  1  0.25405600  0.56610200  0.20083000  1
  C  C139  1  0.24594400  0.56610200  0.70083000  1
  C  C140  1  0.76864800  0.83554900  0.02176100  1
  C  C141  1  0.73135200  0.83554900  0.52176100  1
  C  C142  1  0.23135200  0.16445100  0.97823900  1
  C  C143  1  0.26864800  0.16445100  0.47823900  1
  C  C144  1  0.70886700  0.86834200  0.20697000  1
  C  C145  1  0.79113300  0.86834200  0.70697000  1
  C  C146  1  0.29113300  0.13165800  0.79303000  1
  C  C147  1  0.20886700  0.13165800  0.29303000  1
  C  C148  1  0.63343300  0.36001000  0.30861100  1
  C  C149  1  0.86656700  0.36001000  0.80861100  1
  C  C150  1  0.36656700  0.63999000  0.69138900  1
  C  C151  1  0.13343300  0.63999000  0.19138900  1
