# generated using pymatgen
data_Cu3(NiC)2
_symmetry_space_group_name_H-M   'P 1'
_cell_length_a   15.72712500
_cell_length_b   15.72712500
_cell_length_c   9.29185400
_cell_angle_alpha   90.00000000
_cell_angle_beta   90.00000000
_cell_angle_gamma   90.00000000
_symmetry_Int_Tables_number   1
_chemical_formula_structural   Cu3(NiC)2
_chemical_formula_sum   'Cu60 Ni40 C40'
_cell_volume   2298.27003343
_cell_formula_units_Z   20
loop_
 _symmetry_equiv_pos_site_id
 _symmetry_equiv_pos_as_xyz
  1  'x, y, z'
loop_
 _atom_site_type_symbol
 _atom_site_label
 _atom_site_symmetry_multiplicity
 _atom_site_fract_x
 _atom_site_fract_y
 _atom_site_fract_z
 _atom_site_occupancy
  C  C0  1  0.43426800  0.56573200  0.75000000  1
  C  C1  1  0.58895800  0.58895800  0.00000000  1
  C  C2  1  0.60585400  0.03181900  0.42522400  1
  C  C3  1  0.61334500  0.67600100  0.66498800  1
  C  C4  1  0.32399900  0.38665500  0.83501200  1
  C  C5  1  0.46818100  0.10585400  0.67522400  1
  C  C6  1  0.02942100  0.25922800  0.33235300  1
  C  C7  1  0.82118600  0.67777000  0.58960700  1
  C  C8  1  0.32223000  0.17881400  0.91039300  1
  C  C9  1  0.67881400  0.17777000  0.66039300  1
  C  C10  1  0.17881400  0.32223000  0.08960700  1
  C  C11  1  0.47057900  0.75922800  0.91764700  1
  C  C12  1  0.39414600  0.96818100  0.92522400  1
  C  C13  1  0.17600100  0.88665500  0.41498800  1
  C  C14  1  0.97057900  0.74077200  0.83235300  1
  C  C15  1  0.25922800  0.02942100  0.66764700  1
  C  C16  1  0.11334500  0.82399900  0.08501200  1
  C  C17  1  0.96818100  0.39414600  0.07477600  1
  C  C18  1  0.82223000  0.32118600  0.83960700  1
  C  C19  1  0.53181900  0.89414600  0.17522400  1
  C  C20  1  0.74077200  0.97057900  0.16764700  1
  C  C21  1  0.91104200  0.08895800  0.25000000  1
  C  C22  1  0.82399900  0.11334500  0.91498800  1
  C  C23  1  0.67600100  0.61334500  0.33501200  1
  C  C24  1  0.75922800  0.47057900  0.08235300  1
  C  C25  1  0.24077200  0.52942100  0.58235300  1
  C  C26  1  0.56573200  0.43426800  0.25000000  1
  C  C27  1  0.52942100  0.24077200  0.41764700  1
  C  C28  1  0.03181900  0.60585400  0.57477600  1
  C  C29  1  0.67777000  0.82118600  0.41039300  1
  C  C30  1  0.38665500  0.32399900  0.16498800  1
  C  C31  1  0.89414600  0.53181900  0.82477600  1
  C  C32  1  0.41104200  0.41104200  0.50000000  1
  C  C33  1  0.88665500  0.17600100  0.58501200  1
  C  C34  1  0.32118600  0.82223000  0.16039300  1
  C  C35  1  0.08895800  0.91104200  0.75000000  1
  C  C36  1  0.06573200  0.06573200  0.50000000  1
  C  C37  1  0.93426800  0.93426800  0.00000000  1
  C  C38  1  0.17777000  0.67881400  0.33960700  1
  C  C39  1  0.10585400  0.46818100  0.32477600  1
  Ni  Ni40  1  0.25508500  0.25508500  0.50000000  1
  Ni  Ni41  1  0.24491500  0.75508500  0.75000000  1
  Ni  Ni42  1  0.64986300  0.52532500  0.17083900  1
  Ni  Ni43  1  0.20146500  0.79853500  0.25000000  1
  Ni  Ni44  1  0.36057100  0.07151100  0.79467000  1
  Ni  Ni45  1  0.86335000  0.45176800  0.43311600  1
  Ni  Ni46  1  0.95176800  0.63665000  0.18311600  1
  Ni  Ni47  1  0.13942900  0.57151100  0.45533000  1
  Ni  Ni48  1  0.29853500  0.29853500  0.00000000  1
  Ni  Ni49  1  0.57151100  0.13942900  0.54467000  1
  Ni  Ni50  1  0.66689200  0.45805700  0.64939600  1
  Ni  Ni51  1  0.02532500  0.85013700  0.92083900  1
  Ni  Ni52  1  0.14986300  0.97467500  0.57916100  1
  Ni  Ni53  1  0.54194300  0.33310800  0.85060400  1
  Ni  Ni54  1  0.95805700  0.83310800  0.39939600  1
  Ni  Ni55  1  0.63942900  0.92848900  0.29467000  1
  Ni  Ni56  1  0.74491500  0.74491500  0.00000000  1
  Ni  Ni57  1  0.04194300  0.16689200  0.89939600  1
  Ni  Ni58  1  0.63665000  0.95176800  0.81688400  1
  Ni  Ni59  1  0.45805700  0.66689200  0.35060400  1
  Ni  Ni60  1  0.45176800  0.86335000  0.56688400  1
  Ni  Ni61  1  0.16689200  0.04194300  0.10060400  1
  Ni  Ni62  1  0.52532500  0.64986300  0.82916100  1
  Ni  Ni63  1  0.04823200  0.36335000  0.68311600  1
  Ni  Ni64  1  0.33310800  0.54194300  0.14939600  1
  Ni  Ni65  1  0.97467500  0.14986300  0.42083900  1
  Ni  Ni66  1  0.36335000  0.04823200  0.31688400  1
  Ni  Ni67  1  0.42848900  0.86057100  0.04467000  1
  Ni  Ni68  1  0.47467500  0.35013700  0.32916100  1
  Ni  Ni69  1  0.13665000  0.54823200  0.93311600  1
  Ni  Ni70  1  0.85013700  0.02532500  0.07916100  1
  Ni  Ni71  1  0.70146500  0.70146500  0.50000000  1
  Ni  Ni72  1  0.54823200  0.13665000  0.06688400  1
  Ni  Ni73  1  0.79853500  0.20146500  0.75000000  1
  Ni  Ni74  1  0.35013700  0.47467500  0.67083900  1
  Ni  Ni75  1  0.92848900  0.63942900  0.70533000  1
  Ni  Ni76  1  0.86057100  0.42848900  0.95533000  1
  Ni  Ni77  1  0.75508500  0.24491500  0.25000000  1
  Ni  Ni78  1  0.07151100  0.36057100  0.20533000  1
  Ni  Ni79  1  0.83310800  0.95805700  0.60060400  1
  Cu  Cu80  1  0.86260700  0.39695700  0.33263000  1
  Cu  Cu81  1  0.63739300  0.89695700  0.91737000  1
  Cu  Cu82  1  0.24175900  0.81061600  0.85063000  1
  Cu  Cu83  1  0.61458900  0.30300900  0.87288800  1
  Cu  Cu84  1  0.80300900  0.88541100  0.62288800  1
  Cu  Cu85  1  0.36260700  0.10304300  0.41737000  1
  Cu  Cu86  1  0.00464900  0.69701600  0.19525500  1
  Cu  Cu87  1  0.30123800  0.69876200  0.75000000  1
  Cu  Cu88  1  0.99535100  0.30298400  0.69525500  1
  Cu  Cu89  1  0.10304300  0.36260700  0.58263000  1
  Cu  Cu90  1  0.19701600  0.49535100  0.94525500  1
  Cu  Cu91  1  0.89695700  0.63739300  0.08263000  1
  Cu  Cu92  1  0.07528600  0.54673700  0.02194300  1
  Cu  Cu93  1  0.19699100  0.11458900  0.12288800  1
  Cu  Cu94  1  0.81061600  0.24175900  0.14937000  1
  Cu  Cu95  1  0.69876200  0.30123800  0.25000000  1
  Cu  Cu96  1  0.31061600  0.25824100  0.60063000  1
  Cu  Cu97  1  0.48563800  0.60408300  0.42504200  1
  Cu  Cu98  1  0.49535100  0.19701600  0.05474500  1
  Cu  Cu99  1  0.98563800  0.89591700  0.32495800  1
  Cu  Cu100  1  0.74175900  0.68938400  0.89937000  1
  Cu  Cu101  1  0.80298400  0.50464900  0.44525500  1
  Cu  Cu102  1  0.68938400  0.74175900  0.10063000  1
  Cu  Cu103  1  0.92471400  0.45326300  0.52194300  1
  Cu  Cu104  1  0.10408300  0.01436200  0.17504200  1
  Cu  Cu105  1  0.69861500  0.50667000  0.74610500  1
  Cu  Cu106  1  0.00667000  0.80138500  0.49610500  1
  Cu  Cu107  1  0.60304300  0.13739300  0.16737000  1
  Cu  Cu108  1  0.51436200  0.39591700  0.92504200  1
  Cu  Cu109  1  0.30298400  0.99535100  0.30474500  1
  Cu  Cu110  1  0.39591700  0.51436200  0.07495800  1
  Cu  Cu111  1  0.80123800  0.80123800  0.00000000  1
  Cu  Cu112  1  0.99333000  0.19861500  0.99610500  1
  Cu  Cu113  1  0.30300900  0.61458900  0.12711200  1
  Cu  Cu114  1  0.01436200  0.10408300  0.82495800  1
  Cu  Cu115  1  0.45326300  0.92471400  0.47805700  1
  Cu  Cu116  1  0.13739300  0.60304300  0.83263000  1
  Cu  Cu117  1  0.49333000  0.30138500  0.75389500  1
  Cu  Cu118  1  0.57528600  0.95326300  0.72805700  1
  Cu  Cu119  1  0.04673700  0.42471400  0.77194300  1
  Cu  Cu120  1  0.38541100  0.69699100  0.37288800  1
  Cu  Cu121  1  0.54673700  0.07528600  0.97805700  1
  Cu  Cu122  1  0.19861500  0.99333000  0.00389500  1
  Cu  Cu123  1  0.50667000  0.69861500  0.25389500  1
  Cu  Cu124  1  0.18938400  0.75824100  0.64937000  1
  Cu  Cu125  1  0.25824100  0.31061600  0.39937000  1
  Cu  Cu126  1  0.88541100  0.80300900  0.37711200  1
  Cu  Cu127  1  0.30138500  0.49333000  0.24610500  1
  Cu  Cu128  1  0.95326300  0.57528600  0.27194300  1
  Cu  Cu129  1  0.19876200  0.19876200  0.50000000  1
  Cu  Cu130  1  0.42471400  0.04673700  0.22805700  1
  Cu  Cu131  1  0.69699100  0.38541100  0.62711200  1
  Cu  Cu132  1  0.50464900  0.80298400  0.55474500  1
  Cu  Cu133  1  0.89591700  0.98563800  0.67504200  1
  Cu  Cu134  1  0.39695700  0.86260700  0.66737000  1
  Cu  Cu135  1  0.80138500  0.00667000  0.50389500  1
  Cu  Cu136  1  0.69701600  0.00464900  0.80474500  1
  Cu  Cu137  1  0.11458900  0.19699100  0.87711200  1
  Cu  Cu138  1  0.75824100  0.18938400  0.35063000  1
  Cu  Cu139  1  0.60408300  0.48563800  0.57495800  1
