# generated using pymatgen
data_Cu2Ni8C5
_symmetry_space_group_name_H-M   'P 1'
_cell_length_a   8.44747700
_cell_length_b   11.63805700
_cell_length_c   17.50739600
_cell_angle_alpha   90.00000000
_cell_angle_beta   90.00000000
_cell_angle_gamma   90.00000000
_symmetry_Int_Tables_number   1
_chemical_formula_structural   Cu2Ni8C5
_chemical_formula_sum   'Cu8 Ni32 C20'
_cell_volume   1721.19094673
_cell_formula_units_Z   4
loop_
 _symmetry_equiv_pos_site_id
 _symmetry_equiv_pos_as_xyz
  1  'x, y, z'
loop_
 _atom_site_type_symbol
 _atom_site_label
 _atom_site_symmetry_multiplicity
 _atom_site_fract_x
 _atom_site_fract_y
 _atom_site_fract_z
 _atom_site_occupancy
  C  C0  1  0.25000000  0.22127800  0.54526700  1
  C  C1  1  0.25000000  0.72127800  0.95473300  1
  C  C2  1  0.75000000  0.77872200  0.45473300  1
  C  C3  1  0.75000000  0.27872200  0.04526700  1
  Ni  Ni4  1  0.25000000  0.15909300  0.88906900  1
  Ni  Ni5  1  0.25000000  0.65909300  0.61093100  1
  Ni  Ni6  1  0.75000000  0.84090700  0.11093100  1
  Ni  Ni7  1  0.75000000  0.34090700  0.38906900  1
  Ni  Ni8  1  0.25000000  0.14857000  0.03278200  1
  Ni  Ni9  1  0.25000000  0.64857000  0.46721800  1
  Ni  Ni10  1  0.75000000  0.85143000  0.96721800  1
  Ni  Ni11  1  0.75000000  0.35143000  0.53278200  1
  Ni  Ni12  1  0.25000000  0.47833400  0.22552900  1
  Ni  Ni13  1  0.25000000  0.97833400  0.27447100  1
  Ni  Ni14  1  0.75000000  0.52166600  0.77447100  1
  Ni  Ni15  1  0.75000000  0.02166600  0.72552900  1
  Ni  Ni16  1  0.33164700  0.16396100  0.82029300  1
  Ni  Ni17  1  0.16835300  0.66396100  0.67970700  1
  Ni  Ni18  1  0.83164700  0.83603900  0.17970700  1
  Ni  Ni19  1  0.66835300  0.33603900  0.32029300  1
  Ni  Ni20  1  0.66835300  0.83603900  0.17970700  1
  Ni  Ni21  1  0.83164700  0.33603900  0.32029300  1
  Ni  Ni22  1  0.16835300  0.16396100  0.82029300  1
  Ni  Ni23  1  0.33164700  0.66396100  0.67970700  1
  Ni  Ni24  1  0.25000000  0.30460200  0.62644400  1
  Ni  Ni25  1  0.25000000  0.80460200  0.87355600  1
  Ni  Ni26  1  0.75000000  0.69539800  0.37355600  1
  Ni  Ni27  1  0.75000000  0.19539800  0.12644400  1
  Ni  Ni28  1  0.40257400  0.50811400  0.18803200  1
  Ni  Ni29  1  0.09742600  0.00811400  0.31196800  1
  Ni  Ni30  1  0.90257400  0.49188600  0.81196800  1
  Ni  Ni31  1  0.59742600  0.99188600  0.68803200  1
  Ni  Ni32  1  0.59742600  0.49188600  0.81196800  1
  Ni  Ni33  1  0.90257400  0.99188600  0.68803200  1
  Ni  Ni34  1  0.09742600  0.50811400  0.18803200  1
  Ni  Ni35  1  0.40257400  0.00811400  0.31196800  1
  Cu  Cu36  1  0.25000000  0.15315300  0.96457200  1
  Cu  Cu37  1  0.25000000  0.65315300  0.53542800  1
  Cu  Cu38  1  0.75000000  0.84684700  0.03542800  1
  Cu  Cu39  1  0.75000000  0.34684700  0.46457200  1
  Cu  Cu40  1  0.25000000  0.53246500  0.15372600  1
  Cu  Cu41  1  0.25000000  0.03246500  0.34627400  1
  Cu  Cu42  1  0.75000000  0.46753500  0.84627400  1
  Cu  Cu43  1  0.75000000  0.96753500  0.65372600  1
  C  C44  1  0.25000000  0.05012600  0.58440600  1
  C  C45  1  0.25000000  0.55012600  0.91559400  1
  C  C46  1  0.75000000  0.94987400  0.41559400  1
  C  C47  1  0.75000000  0.44987400  0.08440600  1
  C  C48  1  0.07933600  0.34685600  0.66792400  1
  C  C49  1  0.42066400  0.84685600  0.83207600  1
  C  C50  1  0.57933600  0.65314400  0.33207600  1
  C  C51  1  0.92066400  0.15314400  0.16792400  1
  C  C52  1  0.92066400  0.65314400  0.33207600  1
  C  C53  1  0.57933600  0.15314400  0.16792400  1
  C  C54  1  0.42066400  0.34685600  0.66792400  1
  C  C55  1  0.07933600  0.84685600  0.83207600  1
  C  C56  1  0.25000000  0.33551200  0.45077300  1
  C  C57  1  0.25000000  0.83551200  0.04922700  1
  C  C58  1  0.75000000  0.66448800  0.54922700  1
  C  C59  1  0.75000000  0.16448800  0.95077300  1
