# generated using pymatgen
data_Cu13Ni
_symmetry_space_group_name_H-M   'P 1'
_cell_length_a   8.62525033
_cell_length_b   8.62525033
_cell_length_c   8.62525033
_cell_angle_alpha   60.00000000
_cell_angle_beta   60.00000000
_cell_angle_gamma   60.00000000
_symmetry_Int_Tables_number   1
_chemical_formula_structural   Cu13Ni
_chemical_formula_sum   'Cu26 Ni2'
_cell_volume   453.73275058
_cell_formula_units_Z   2
loop_
 _symmetry_equiv_pos_site_id
 _symmetry_equiv_pos_as_xyz
  1  'x, y, z'
loop_
 _atom_site_type_symbol
 _atom_site_label
 _atom_site_symmetry_multiplicity
 _atom_site_fract_x
 _atom_site_fract_y
 _atom_site_fract_z
 _atom_site_occupancy
  Ni  Ni0  1  0.25000000  0.25000000  0.25000000  1
  Ni  Ni1  1  0.75000000  0.75000000  0.75000000  1
  Cu  Cu2  1  0.50000000  0.50000000  0.50000000  1
  Cu  Cu3  1  0.00000000  0.00000000  0.00000000  1
  Cu  Cu4  1  0.80203400  0.56125100  0.19796600  1
  Cu  Cu5  1  0.19796600  0.43874900  0.80203400  1
  Cu  Cu6  1  0.56125100  0.80203400  0.43874900  1
  Cu  Cu7  1  0.43874900  0.19796600  0.56125100  1
  Cu  Cu8  1  0.30203400  0.93874900  0.69796600  1
  Cu  Cu9  1  0.69796600  0.06125100  0.30203400  1
  Cu  Cu10  1  0.93874900  0.30203400  0.06125100  1
  Cu  Cu11  1  0.06125100  0.69796600  0.93874900  1
  Cu  Cu12  1  0.19796600  0.80203400  0.56125100  1
  Cu  Cu13  1  0.80203400  0.19796600  0.43874900  1
  Cu  Cu14  1  0.43874900  0.56125100  0.80203400  1
  Cu  Cu15  1  0.56125100  0.43874900  0.19796600  1
  Cu  Cu16  1  0.69796600  0.30203400  0.93874900  1
  Cu  Cu17  1  0.30203400  0.69796600  0.06125100  1
  Cu  Cu18  1  0.06125100  0.93874900  0.30203400  1
  Cu  Cu19  1  0.93874900  0.06125100  0.69796600  1
  Cu  Cu20  1  0.56125100  0.19796600  0.80203400  1
  Cu  Cu21  1  0.43874900  0.80203400  0.19796600  1
  Cu  Cu22  1  0.80203400  0.43874900  0.56125100  1
  Cu  Cu23  1  0.19796600  0.56125100  0.43874900  1
  Cu  Cu24  1  0.93874900  0.69796600  0.30203400  1
  Cu  Cu25  1  0.06125100  0.30203400  0.69796600  1
  Cu  Cu26  1  0.30203400  0.06125100  0.93874900  1
  Cu  Cu27  1  0.69796600  0.93874900  0.06125100  1
