# generated using pymatgen
data_Cu12Ni3C4
_symmetry_space_group_name_H-M   'P 1'
_cell_length_a   10.16578700
_cell_length_b   10.16578700
_cell_length_c   10.16578700
_cell_angle_alpha   90.00000000
_cell_angle_beta   90.00000000
_cell_angle_gamma   90.00000000
_symmetry_Int_Tables_number   1
_chemical_formula_structural   Cu12Ni3C4
_chemical_formula_sum   'Cu48 Ni12 C16'
_cell_volume   1050.56521659
_cell_formula_units_Z   4
loop_
 _symmetry_equiv_pos_site_id
 _symmetry_equiv_pos_as_xyz
  1  'x, y, z'
loop_
 _atom_site_type_symbol
 _atom_site_label
 _atom_site_symmetry_multiplicity
 _atom_site_fract_x
 _atom_site_fract_y
 _atom_site_fract_z
 _atom_site_occupancy
  C  C0  1  0.04822100  0.04822100  0.04822100  1
  C  C1  1  0.45177900  0.95177900  0.54822100  1
  C  C2  1  0.95177900  0.54822100  0.45177900  1
  C  C3  1  0.54822100  0.45177900  0.95177900  1
  C  C4  1  0.81726200  0.81726200  0.81726200  1
  C  C5  1  0.68273800  0.18273800  0.31726200  1
  C  C6  1  0.18273800  0.31726200  0.68273800  1
  C  C7  1  0.31726200  0.68273800  0.18273800  1
  C  C8  1  0.33541900  0.33541900  0.33541900  1
  C  C9  1  0.16458100  0.66458100  0.83541900  1
  C  C10  1  0.66458100  0.83541900  0.16458100  1
  C  C11  1  0.83541900  0.16458100  0.66458100  1
  C  C12  1  0.59712900  0.59712900  0.59712900  1
  C  C13  1  0.90287100  0.40287100  0.09712900  1
  C  C14  1  0.40287100  0.09712900  0.90287100  1
  C  C15  1  0.09712900  0.90287100  0.40287100  1
  Ni  Ni16  1  0.01864800  0.21595400  0.37585700  1
  Ni  Ni17  1  0.48135100  0.78404600  0.87585700  1
  Ni  Ni18  1  0.98135200  0.71595400  0.12414300  1
  Ni  Ni19  1  0.37585700  0.01864800  0.21595400  1
  Ni  Ni20  1  0.51864800  0.28404600  0.62414300  1
  Ni  Ni21  1  0.87585700  0.48135100  0.78404600  1
  Ni  Ni22  1  0.12414300  0.98135200  0.71595400  1
  Ni  Ni23  1  0.62414300  0.51864800  0.28404600  1
  Ni  Ni24  1  0.21595400  0.37585700  0.01864800  1
  Ni  Ni25  1  0.71595400  0.12414300  0.98135200  1
  Ni  Ni26  1  0.28404600  0.62414300  0.51864800  1
  Ni  Ni27  1  0.78404600  0.87585700  0.48135100  1
  Cu  Cu28  1  0.00953700  0.07611100  0.32995100  1
  Cu  Cu29  1  0.49046300  0.92388900  0.82995100  1
  Cu  Cu30  1  0.99046300  0.57611100  0.17004900  1
  Cu  Cu31  1  0.32995100  0.00953700  0.07611100  1
  Cu  Cu32  1  0.50953700  0.42388900  0.67004900  1
  Cu  Cu33  1  0.82995100  0.49046300  0.92388900  1
  Cu  Cu34  1  0.17004900  0.99046300  0.57611100  1
  Cu  Cu35  1  0.67004900  0.50953700  0.42388900  1
  Cu  Cu36  1  0.07611100  0.32995100  0.00953700  1
  Cu  Cu37  1  0.57611100  0.17004900  0.99046300  1
  Cu  Cu38  1  0.42388900  0.67004900  0.50953700  1
  Cu  Cu39  1  0.92388900  0.82995100  0.49046300  1
  Cu  Cu40  1  0.26592700  0.50043300  0.44180200  1
  Cu  Cu41  1  0.23407300  0.49956700  0.94180200  1
  Cu  Cu42  1  0.73407300  0.00043300  0.05819800  1
  Cu  Cu43  1  0.44180200  0.26592700  0.50043300  1
  Cu  Cu44  1  0.76592700  0.99956700  0.55819800  1
  Cu  Cu45  1  0.94180200  0.23407300  0.49956700  1
  Cu  Cu46  1  0.05819800  0.73407300  0.00043300  1
  Cu  Cu47  1  0.55819800  0.76592700  0.99956700  1
  Cu  Cu48  1  0.50043300  0.44180200  0.26592700  1
  Cu  Cu49  1  0.00043300  0.05819800  0.73407300  1
  Cu  Cu50  1  0.99956700  0.55819800  0.76592700  1
  Cu  Cu51  1  0.49956700  0.94180200  0.23407300  1
  Cu  Cu52  1  0.04101600  0.80279100  0.22527000  1
  Cu  Cu53  1  0.45898400  0.19720900  0.72527000  1
  Cu  Cu54  1  0.95898400  0.30279100  0.27473000  1
  Cu  Cu55  1  0.22527000  0.04101600  0.80279100  1
  Cu  Cu56  1  0.54101600  0.69720900  0.77473000  1
  Cu  Cu57  1  0.72527000  0.45898400  0.19720900  1
  Cu  Cu58  1  0.27473000  0.95898400  0.30279100  1
  Cu  Cu59  1  0.77473000  0.54101600  0.69720900  1
  Cu  Cu60  1  0.80279100  0.22527000  0.04101600  1
  Cu  Cu61  1  0.30279100  0.27473000  0.95898400  1
  Cu  Cu62  1  0.69720900  0.77473000  0.54101600  1
  Cu  Cu63  1  0.19720900  0.72527000  0.45898400  1
  Cu  Cu64  1  0.15746300  0.25321300  0.40151100  1
  Cu  Cu65  1  0.34253700  0.74678700  0.90151100  1
  Cu  Cu66  1  0.84253700  0.75321300  0.09848900  1
  Cu  Cu67  1  0.40151100  0.15746300  0.25321300  1
  Cu  Cu68  1  0.65746300  0.24678700  0.59848900  1
  Cu  Cu69  1  0.90151100  0.34253700  0.74678700  1
  Cu  Cu70  1  0.09848900  0.84253700  0.75321300  1
  Cu  Cu71  1  0.59848900  0.65746300  0.24678700  1
  Cu  Cu72  1  0.25321300  0.40151100  0.15746300  1
  Cu  Cu73  1  0.75321300  0.09848900  0.84253700  1
  Cu  Cu74  1  0.24678700  0.59848900  0.65746300  1
  Cu  Cu75  1  0.74678700  0.90151100  0.34253700  1
