# generated using pymatgen
data_Cu3NiC9
_symmetry_space_group_name_H-M   'P 1'
_cell_length_a   5.48460703
_cell_length_b   7.58080567
_cell_length_c   13.81838400
_cell_angle_alpha   90.00000000
_cell_angle_beta   90.00000000
_cell_angle_gamma   108.09625697
_symmetry_Int_Tables_number   1
_chemical_formula_structural   Cu3NiC9
_chemical_formula_sum   'Cu12 Ni4 C36'
_cell_volume   546.11828579
_cell_formula_units_Z   4
loop_
 _symmetry_equiv_pos_site_id
 _symmetry_equiv_pos_as_xyz
  1  'x, y, z'
loop_
 _atom_site_type_symbol
 _atom_site_label
 _atom_site_symmetry_multiplicity
 _atom_site_fract_x
 _atom_site_fract_y
 _atom_site_fract_z
 _atom_site_occupancy
  C  C0  1  0.50000000  0.00000000  0.00000000  1
  C  C1  1  0.00000000  0.50000000  0.50000000  1
  C  C2  1  0.50000000  0.50000000  0.00000000  1
  C  C3  1  0.00000000  0.00000000  0.50000000  1
  C  C4  1  0.05653900  0.18401400  0.89823000  1
  C  C5  1  0.55653900  0.68401400  0.60177000  1
  C  C6  1  0.94346100  0.81598600  0.10177000  1
  C  C7  1  0.44346100  0.31598600  0.39823000  1
  C  C8  1  0.93756200  0.32661800  0.27214800  1
  C  C9  1  0.43756300  0.82661800  0.22785200  1
  C  C10  1  0.06243700  0.67338200  0.72785200  1
  C  C11  1  0.56243800  0.17338200  0.77214800  1
  C  C12  1  0.12533200  0.39483300  0.17138300  1
  C  C13  1  0.62533200  0.89483300  0.32861700  1
  C  C14  1  0.87466800  0.60516700  0.82861700  1
  C  C15  1  0.37466800  0.10516700  0.67138300  1
  C  C16  1  0.93451300  0.17103900  0.18291900  1
  C  C17  1  0.43451300  0.67103900  0.31708100  1
  C  C18  1  0.06548700  0.82896100  0.81708100  1
  C  C19  1  0.56548700  0.32896100  0.68291900  1
  C  C20  1  0.80132900  0.33396900  0.16272400  1
  C  C21  1  0.30132900  0.83396900  0.33727600  1
  C  C22  1  0.19867100  0.66603100  0.83727600  1
  C  C23  1  0.69867100  0.16603100  0.66272400  1
  Ni  Ni24  1  0.95091100  0.30797500  0.19877300  1
  Ni  Ni25  1  0.45091100  0.80797500  0.30122700  1
  Ni  Ni26  1  0.04908900  0.69202500  0.80122700  1
  Ni  Ni27  1  0.54908900  0.19202500  0.69877300  1
  Cu  Cu28  1  0.78849200  0.95062500  0.10461500  1
  Cu  Cu29  1  0.28849200  0.45062500  0.39538500  1
  Cu  Cu30  1  0.21150800  0.04937500  0.89538500  1
  Cu  Cu31  1  0.71150800  0.54937500  0.60461500  1
  Cu  Cu32  1  0.14914100  0.34569800  0.96952800  1
  Cu  Cu33  1  0.64914100  0.84569800  0.53047200  1
  Cu  Cu34  1  0.85085900  0.65430200  0.03047200  1
  Cu  Cu35  1  0.35085900  0.15430200  0.46952800  1
  Cu  Cu36  1  0.76501100  0.09142800  0.90194300  1
  Cu  Cu37  1  0.26501100  0.59142900  0.59805700  1
  Cu  Cu38  1  0.23498900  0.90857100  0.09805700  1
  Cu  Cu39  1  0.73498900  0.40857100  0.40194300  1
  C  C40  1  0.60628300  0.46847400  0.87385200  1
  C  C41  1  0.10628300  0.96847400  0.62614800  1
  C  C42  1  0.39371700  0.53152600  0.12614800  1
  C  C43  1  0.89371700  0.03152600  0.37385200  1
  C  C44  1  0.08718800  0.27714400  0.79311900  1
  C  C45  1  0.58718800  0.77714400  0.70688100  1
  C  C46  1  0.91281200  0.72285600  0.20688100  1
  C  C47  1  0.41281200  0.22285600  0.29311900  1
  C  C48  1  0.57132000  0.24451000  0.05164100  1
  C  C49  1  0.07132000  0.74451000  0.44835900  1
  C  C50  1  0.42868000  0.75549000  0.94835900  1
  C  C51  1  0.92868000  0.25549000  0.55164100  1
