# generated using pymatgen
data_Cu14Ni2C3
_symmetry_space_group_name_H-M   'P 1'
_cell_length_a   5.70923647
_cell_length_b   10.02388515
_cell_length_c   10.58182800
_cell_angle_alpha   90.00000000
_cell_angle_beta   90.00000000
_cell_angle_gamma   102.57189521
_symmetry_Int_Tables_number   1
_chemical_formula_structural   Cu14Ni2C3
_chemical_formula_sum   'Cu28 Ni4 C6'
_cell_volume   591.06487606
_cell_formula_units_Z   2
loop_
 _symmetry_equiv_pos_site_id
 _symmetry_equiv_pos_as_xyz
  1  'x, y, z'
loop_
 _atom_site_type_symbol
 _atom_site_label
 _atom_site_symmetry_multiplicity
 _atom_site_fract_x
 _atom_site_fract_y
 _atom_site_fract_z
 _atom_site_occupancy
  C  C0  1  0.65993500  0.58911300  0.72115200  1
  C  C1  1  0.34006500  0.41088700  0.27884800  1
  C  C2  1  0.34006500  0.91088700  0.22115200  1
  C  C3  1  0.65993500  0.08911300  0.77884800  1
  C  C4  1  0.50000000  0.00000000  0.00000000  1
  C  C5  1  0.50000000  0.50000000  0.50000000  1
  Ni  Ni6  1  0.94360200  0.66814900  0.14380500  1
  Ni  Ni7  1  0.05639800  0.33185100  0.85619500  1
  Ni  Ni8  1  0.05639800  0.83185100  0.64380500  1
  Ni  Ni9  1  0.94360200  0.16814900  0.35619500  1
  Cu  Cu10  1  0.56660700  0.54610100  0.84382000  1
  Cu  Cu11  1  0.43339300  0.45389900  0.15618000  1
  Cu  Cu12  1  0.43339300  0.95389900  0.34382000  1
  Cu  Cu13  1  0.56660700  0.04610100  0.65618000  1
  Cu  Cu14  1  0.87018500  0.88790000  0.60828500  1
  Cu  Cu15  1  0.12981500  0.11210000  0.39171500  1
  Cu  Cu16  1  0.12981500  0.61210000  0.10828500  1
  Cu  Cu17  1  0.87018500  0.38790000  0.89171500  1
  Cu  Cu18  1  0.29370000  0.88193100  0.90623800  1
  Cu  Cu19  1  0.70630000  0.11806900  0.09376200  1
  Cu  Cu20  1  0.70630000  0.61806900  0.40623800  1
  Cu  Cu21  1  0.29370000  0.38193100  0.59376200  1
  Cu  Cu22  1  0.90665400  0.74099000  0.04113300  1
  Cu  Cu23  1  0.09334600  0.25901000  0.95886700  1
  Cu  Cu24  1  0.09334600  0.75901000  0.54113300  1
  Cu  Cu25  1  0.90665400  0.24099000  0.45886700  1
  Cu  Cu26  1  0.48811700  0.64348600  0.62301900  1
  Cu  Cu27  1  0.51188300  0.35651400  0.37698100  1
  Cu  Cu28  1  0.51188300  0.85651400  0.12301900  1
  Cu  Cu29  1  0.48811700  0.14348600  0.87698100  1
  Cu  Cu30  1  0.74550400  0.98382100  0.87685200  1
  Cu  Cu31  1  0.25449600  0.01617900  0.12314800  1
  Cu  Cu32  1  0.25449600  0.51617900  0.37685200  1
  Cu  Cu33  1  0.74550400  0.48382100  0.62314800  1
  Cu  Cu34  1  0.91799900  0.71096600  0.74069400  1
  Cu  Cu35  1  0.08200100  0.28903400  0.25930600  1
  Cu  Cu36  1  0.08200100  0.78903400  0.24069400  1
  Cu  Cu37  1  0.91799900  0.21096600  0.75930600  1
