# generated using pymatgen
data_Cu(NiC3)2
_symmetry_space_group_name_H-M   'P 1'
_cell_length_a   9.32685900
_cell_length_b   4.82003700
_cell_length_c   14.43860241
_cell_angle_alpha   89.96686920
_cell_angle_beta   90.00000000
_cell_angle_gamma   90.00000000
_symmetry_Int_Tables_number   1
_chemical_formula_structural   Cu(NiC3)2
_chemical_formula_sum   'Cu6 Ni12 C36'
_cell_volume   649.09889291
_cell_formula_units_Z   6
loop_
 _symmetry_equiv_pos_site_id
 _symmetry_equiv_pos_as_xyz
  1  'x, y, z'
loop_
 _atom_site_type_symbol
 _atom_site_label
 _atom_site_symmetry_multiplicity
 _atom_site_fract_x
 _atom_site_fract_y
 _atom_site_fract_z
 _atom_site_occupancy
  Ni  Ni0  1  0.67083600  0.00000000  0.00000000  1
  Ni  Ni1  1  0.99608700  0.00429600  0.33320300  1
  Ni  Ni2  1  0.99608700  0.99570400  0.66679700  1
  Ni  Ni3  1  0.49600000  0.50487000  0.16861700  1
  Ni  Ni4  1  0.49937300  0.50000000  0.50000000  1
  Ni  Ni5  1  0.49600000  0.49513000  0.83138300  1
  Ni  Ni6  1  0.84433700  0.49580900  0.16496200  1
  Ni  Ni7  1  0.83515000  0.50000000  0.50000000  1
  Ni  Ni8  1  0.84433700  0.50419100  0.83503800  1
  Ni  Ni9  1  0.33467400  0.00302600  0.33435100  1
  Ni  Ni10  1  0.33467400  0.99697400  0.66564900  1
  Ni  Ni11  1  0.31631800  0.00000000  0.00000000  1
  Cu  Cu12  1  0.00117500  0.00000000  0.00000000  1
  Cu  Cu13  1  0.66588300  0.99336700  0.33095500  1
  Cu  Cu14  1  0.16805800  0.49493700  0.16512000  1
  Cu  Cu15  1  0.16701000  0.50000000  0.50000000  1
  Cu  Cu16  1  0.16805800  0.50506300  0.83488000  1
  Cu  Cu17  1  0.66588300  0.00663300  0.66904500  1
  C  C18  1  0.16628600  0.18962200  0.27131600  1
  C  C19  1  0.16611200  0.18826200  0.60514300  1
  C  C20  1  0.18266800  0.19881100  0.93072800  1
  C  C21  1  0.84492600  0.20645500  0.26552300  1
  C  C22  1  0.84790200  0.20737200  0.59784100  1
  C  C23  1  0.81425800  0.20549500  0.93088100  1
  C  C24  1  0.48528400  0.20479100  0.26400100  1
  C  C25  1  0.48461900  0.20861600  0.59798800  1
  C  C26  1  0.50652600  0.19662900  0.93463000  1
  C  C27  1  0.98372900  0.30588100  0.09734000  1
  C  C28  1  0.98621800  0.29415300  0.43141800  1
  C  C29  1  0.98420500  0.28643000  0.76607900  1
  C  C30  1  0.66682100  0.29721200  0.10186600  1
  C  C31  1  0.35457900  0.29517600  0.09539300  1
  C  C32  1  0.66648600  0.31083800  0.43785300  1
  C  C33  1  0.66320300  0.32475800  0.77009500  1
  C  C34  1  0.34726600  0.29303600  0.43129600  1
  C  C35  1  0.34894400  0.29069400  0.76558800  1
  C  C36  1  0.66320300  0.67524200  0.22990500  1
  C  C37  1  0.34894400  0.70930600  0.23441200  1
  C  C38  1  0.66648600  0.68916200  0.56214700  1
  C  C39  1  0.34726600  0.70696400  0.56870400  1
  C  C40  1  0.66682100  0.70278800  0.89813400  1
  C  C41  1  0.35457900  0.70482400  0.90460700  1
  C  C42  1  0.98420500  0.71357000  0.23392100  1
  C  C43  1  0.98621800  0.70584700  0.56858200  1
  C  C44  1  0.98372900  0.69411900  0.90266000  1
  C  C45  1  0.50652600  0.80337100  0.06537000  1
  C  C46  1  0.48461900  0.79138400  0.40201200  1
  C  C47  1  0.48528400  0.79520900  0.73599900  1
  C  C48  1  0.81425800  0.79450500  0.06911900  1
  C  C49  1  0.84790200  0.79262800  0.40215900  1
  C  C50  1  0.84492600  0.79354500  0.73447700  1
  C  C51  1  0.18266800  0.80118900  0.06927200  1
  C  C52  1  0.16611200  0.81173800  0.39485700  1
  C  C53  1  0.16628600  0.81037800  0.72868400  1
