# generated using pymatgen
data_Cu5Ni3C32
_symmetry_space_group_name_H-M   'P 1'
_cell_length_a   7.98914200
_cell_length_b   8.03026700
_cell_length_c   8.03477300
_cell_angle_alpha   90.00000000
_cell_angle_beta   90.00000000
_cell_angle_gamma   90.00000000
_symmetry_Int_Tables_number   1
_chemical_formula_structural   Cu5Ni3C32
_chemical_formula_sum   'Cu5 Ni3 C32'
_cell_volume   515.47040673
_cell_formula_units_Z   1
loop_
 _symmetry_equiv_pos_site_id
 _symmetry_equiv_pos_as_xyz
  1  'x, y, z'
loop_
 _atom_site_type_symbol
 _atom_site_label
 _atom_site_symmetry_multiplicity
 _atom_site_fract_x
 _atom_site_fract_y
 _atom_site_fract_z
 _atom_site_occupancy
  C  C0  1  0.25575100  0.74700100  0.25281800  1
  C  C1  1  0.74424900  0.74700100  0.25281800  1
  C  C2  1  0.25575100  0.74700100  0.74718200  1
  C  C3  1  0.74424900  0.74700100  0.74718200  1
  C  C4  1  0.25744400  0.25376700  0.25380600  1
  C  C5  1  0.74255600  0.25376700  0.25380600  1
  C  C6  1  0.25744400  0.25376700  0.74619400  1
  C  C7  1  0.74255600  0.25376700  0.74619400  1
  Ni  Ni8  1  0.50000000  0.49776400  0.00000000  1
  Ni  Ni9  1  0.50000000  0.00175800  0.50000000  1
  Ni  Ni10  1  0.50000000  0.49721000  0.50000000  1
  Cu  Cu11  1  0.00000000  0.00198600  0.00000000  1
  Cu  Cu12  1  0.00000000  0.49691800  0.00000000  1
  Cu  Cu13  1  0.50000000  0.00329500  0.00000000  1
  Cu  Cu14  1  0.00000000  0.00277300  0.50000000  1
  Cu  Cu15  1  0.00000000  0.49741700  0.50000000  1
  C  C16  1  0.00000000  0.00537200  0.25407300  1
  C  C17  1  0.00000000  0.49434700  0.24286300  1
  C  C18  1  0.50000000  0.00636800  0.23808500  1
  C  C19  1  0.50000000  0.49284700  0.24888800  1
  C  C20  1  0.00000000  0.00537200  0.74592700  1
  C  C21  1  0.00000000  0.49434700  0.75713700  1
  C  C22  1  0.50000000  0.00636800  0.76191500  1
  C  C23  1  0.50000000  0.49284700  0.75111200  1
  C  C24  1  0.24452500  0.00480300  0.00000000  1
  C  C25  1  0.24174700  0.49443600  0.00000000  1
  C  C26  1  0.75547500  0.00480300  0.00000000  1
  C  C27  1  0.75825300  0.49443600  0.00000000  1
  C  C28  1  0.24173600  0.00515800  0.50000000  1
  C  C29  1  0.23798100  0.49409700  0.50000000  1
  C  C30  1  0.75826400  0.00515800  0.50000000  1
  C  C31  1  0.76201900  0.49409700  0.50000000  1
  C  C32  1  0.00000000  0.74450500  0.00000000  1
  C  C33  1  0.00000000  0.25294700  0.00000000  1
  C  C34  1  0.50000000  0.76425000  0.00000000  1
  C  C35  1  0.50000000  0.24021400  0.00000000  1
  C  C36  1  0.00000000  0.75822000  0.50000000  1
  C  C37  1  0.00000000  0.24372300  0.50000000  1
  C  C38  1  0.50000000  0.75058000  0.50000000  1
  C  C39  1  0.50000000  0.24851400  0.50000000  1
