# generated using pymatgen
data_CuNiC
_symmetry_space_group_name_H-M   'P 1'
_cell_length_a   4.33422200
_cell_length_b   6.88430400
_cell_length_c   7.59378400
_cell_angle_alpha   90.00000000
_cell_angle_beta   90.00000000
_cell_angle_gamma   90.00000000
_symmetry_Int_Tables_number   1
_chemical_formula_structural   CuNiC
_chemical_formula_sum   'Cu4 Ni4 C4'
_cell_volume   226.58410043
_cell_formula_units_Z   4
loop_
 _symmetry_equiv_pos_site_id
 _symmetry_equiv_pos_as_xyz
  1  'x, y, z'
loop_
 _atom_site_type_symbol
 _atom_site_label
 _atom_site_symmetry_multiplicity
 _atom_site_fract_x
 _atom_site_fract_y
 _atom_site_fract_z
 _atom_site_occupancy
  C  C0  1  0.75000000  0.49739700  0.79652800  1
  C  C1  1  0.25000000  0.00260300  0.29652800  1
  C  C2  1  0.75000000  0.99739700  0.70347200  1
  C  C3  1  0.25000000  0.50260300  0.20347200  1
  Ni  Ni4  1  0.25000000  0.69118600  0.59016900  1
  Ni  Ni5  1  0.25000000  0.19118600  0.90983100  1
  Ni  Ni6  1  0.75000000  0.30881400  0.40983100  1
  Ni  Ni7  1  0.75000000  0.80881400  0.09016900  1
  Cu  Cu8  1  0.25000000  0.79309700  0.91609200  1
  Cu  Cu9  1  0.25000000  0.29309700  0.58390800  1
  Cu  Cu10  1  0.75000000  0.70690300  0.41609200  1
  Cu  Cu11  1  0.75000000  0.20690300  0.08390800  1
