# generated using pymatgen
data_Cu(NiC4)2
_symmetry_space_group_name_H-M   'P 1'
_cell_length_a   13.33304700
_cell_length_b   6.95438300
_cell_length_c   11.04641545
_cell_angle_alpha   73.65362287
_cell_angle_beta   90.00000000
_cell_angle_gamma   90.00000000
_symmetry_Int_Tables_number   1
_chemical_formula_structural   Cu(NiC4)2
_chemical_formula_sum   'Cu8 Ni16 C64'
_cell_volume   982.85528726
_cell_formula_units_Z   8
loop_
 _symmetry_equiv_pos_site_id
 _symmetry_equiv_pos_as_xyz
  1  'x, y, z'
loop_
 _atom_site_type_symbol
 _atom_site_label
 _atom_site_symmetry_multiplicity
 _atom_site_fract_x
 _atom_site_fract_y
 _atom_site_fract_z
 _atom_site_occupancy
  C  C0  1  0.48617300  0.94158300  0.80876200  1
  C  C1  1  0.87409900  0.68096300  0.93459300  1
  C  C2  1  0.37409900  0.31903700  0.56540700  1
  C  C3  1  0.12590100  0.31903700  0.06540700  1
  C  C4  1  0.62590100  0.68096300  0.43459300  1
  C  C5  1  0.01382700  0.94158300  0.30876200  1
  C  C6  1  0.51382700  0.05841700  0.19123800  1
  C  C7  1  0.98617300  0.05841700  0.69123800  1
  Ni  Ni8  1  0.88349500  0.16253500  0.98846500  1
  Ni  Ni9  1  0.99852000  0.58937400  0.67598600  1
  Ni  Ni10  1  0.50148000  0.58937400  0.17598600  1
  Ni  Ni11  1  0.00148000  0.41062600  0.32401400  1
  Ni  Ni12  1  0.70637100  0.52597600  0.77075600  1
  Ni  Ni13  1  0.20637100  0.47402400  0.72924400  1
  Ni  Ni14  1  0.29362900  0.47402400  0.22924400  1
  Ni  Ni15  1  0.79362900  0.52597600  0.27075600  1
  Ni  Ni16  1  0.49852000  0.41062600  0.82401400  1
  Ni  Ni17  1  0.17525400  0.12353300  0.48468800  1
  Ni  Ni18  1  0.67525400  0.87646700  0.01531200  1
  Ni  Ni19  1  0.82474600  0.87646700  0.51531200  1
  Ni  Ni20  1  0.38349500  0.83746500  0.51153500  1
  Ni  Ni21  1  0.61650500  0.16253500  0.48846500  1
  Ni  Ni22  1  0.11650500  0.83746500  0.01153500  1
  Ni  Ni23  1  0.32474600  0.12353300  0.98468800  1
  Cu  Cu24  1  0.68671500  0.35882100  0.07675900  1
  Cu  Cu25  1  0.18671500  0.64117900  0.42324100  1
  Cu  Cu26  1  0.31328500  0.64117900  0.92324100  1
  Cu  Cu27  1  0.81328500  0.35882100  0.57675900  1
  Cu  Cu28  1  0.77671900  0.01891900  0.25770900  1
  Cu  Cu29  1  0.27671900  0.98108100  0.24229100  1
  Cu  Cu30  1  0.22328100  0.98108100  0.74229100  1
  Cu  Cu31  1  0.72328100  0.01891900  0.75770900  1
  C  C32  1  0.01335600  0.24861400  0.96966800  1
  C  C33  1  0.51335600  0.75138600  0.53033200  1
  C  C34  1  0.98664400  0.75138600  0.03033200  1
  C  C35  1  0.48664400  0.24861400  0.46966800  1
  C  C36  1  0.80428700  0.98579200  0.91958300  1
  C  C37  1  0.30428700  0.01420800  0.58041700  1
  C  C38  1  0.19571300  0.01420800  0.08041700  1
  C  C39  1  0.69571300  0.98579200  0.41958300  1
  C  C40  1  0.87960900  0.00155900  0.15418600  1
  C  C41  1  0.37960900  0.99844100  0.34581400  1
  C  C42  1  0.12039100  0.99844100  0.84581400  1
  C  C43  1  0.62039100  0.00155900  0.65418600  1
  C  C44  1  0.27499700  0.37834200  0.89932300  1
  C  C45  1  0.77499700  0.62165800  0.60067700  1
  C  C46  1  0.72500300  0.62165800  0.10067700  1
  C  C47  1  0.22500300  0.37834200  0.39932300  1
  C  C48  1  0.38105600  0.97197000  0.13580600  1
  C  C49  1  0.88105600  0.02803000  0.36419400  1
  C  C50  1  0.61894400  0.02803000  0.86419400  1
  C  C51  1  0.11894400  0.97197000  0.63580600  1
  C  C52  1  0.32570000  0.93649100  0.87910500  1
  C  C53  1  0.42955900  0.66055000  0.82928500  1
  C  C54  1  0.82570000  0.06350900  0.62089500  1
  C  C55  1  0.17430000  0.93649100  0.37910500  1
  C  C56  1  0.45512700  0.24463600  0.72868000  1
  C  C57  1  0.95512700  0.75536400  0.77132000  1
  C  C58  1  0.54487300  0.75536400  0.27132000  1
  C  C59  1  0.04487300  0.24463600  0.22868000  1
  C  C60  1  0.45484800  0.22557000  0.96999100  1
  C  C61  1  0.95484800  0.77443000  0.53000900  1
  C  C62  1  0.54515200  0.77443000  0.03000900  1
  C  C63  1  0.04515200  0.22557000  0.46999100  1
  C  C64  1  0.92134900  0.56591800  0.19305100  1
  C  C65  1  0.42134900  0.43408200  0.30694900  1
  C  C66  1  0.07865100  0.43408200  0.80694900  1
  C  C67  1  0.57865100  0.56591800  0.69305100  1
  C  C68  1  0.76451600  0.28723800  0.21725100  1
  C  C69  1  0.26451600  0.71276200  0.28274900  1
  C  C70  1  0.23548400  0.71276200  0.78274900  1
  C  C71  1  0.73548400  0.28723800  0.71725100  1
  C  C72  1  0.69511000  0.39795200  0.46152600  1
  C  C73  1  0.19511000  0.60204800  0.03847400  1
  C  C74  1  0.30489000  0.60204800  0.53847400  1
  C  C75  1  0.80489000  0.39795200  0.96152600  1
  C  C76  1  0.75329600  0.75177300  0.31599000  1
  C  C77  1  0.25329600  0.24822700  0.18401000  1
  C  C78  1  0.24670400  0.24822700  0.68401000  1
  C  C79  1  0.74670400  0.75177300  0.81599000  1
  C  C80  1  0.87824900  0.42483900  0.41760500  1
  C  C81  1  0.37824900  0.57516100  0.08239500  1
  C  C82  1  0.12175100  0.57516100  0.58239500  1
  C  C83  1  0.62175100  0.42483900  0.91760500  1
  C  C84  1  0.07044100  0.66055000  0.32928500  1
  C  C85  1  0.57044100  0.33945000  0.17071500  1
  C  C86  1  0.92955900  0.33945000  0.67071500  1
  C  C87  1  0.67430000  0.06350900  0.12089500  1
