# generated using pymatgen
data_CuNi2C3
_symmetry_space_group_name_H-M   'P 1'
_cell_length_a   5.33445779
_cell_length_b   5.47102825
_cell_length_c   4.92808900
_cell_angle_alpha   90.00000000
_cell_angle_beta   90.00000000
_cell_angle_gamma   120.85057671
_symmetry_Int_Tables_number   1
_chemical_formula_structural   CuNi2C3
_chemical_formula_sum   'Cu2 Ni4 C6'
_cell_volume   123.47581767
_cell_formula_units_Z   2
loop_
 _symmetry_equiv_pos_site_id
 _symmetry_equiv_pos_as_xyz
  1  'x, y, z'
loop_
 _atom_site_type_symbol
 _atom_site_label
 _atom_site_symmetry_multiplicity
 _atom_site_fract_x
 _atom_site_fract_y
 _atom_site_fract_z
 _atom_site_occupancy
  Ni  Ni0  1  0.37531200  0.34807400  0.49407700  1
  Ni  Ni1  1  0.62468800  0.97276200  0.49407700  1
  Ni  Ni2  1  0.62468800  0.65192600  0.99407700  1
  Ni  Ni3  1  0.37531200  0.02723800  0.99407700  1
  Cu  Cu4  1  0.00000000  0.59624400  0.49429200  1
  Cu  Cu5  1  0.00000000  0.40375600  0.99429200  1
  C  C6  1  0.31325300  0.31446100  0.86611900  1
  C  C7  1  0.68674700  0.00120800  0.86611900  1
  C  C8  1  0.68674700  0.68553900  0.36611900  1
  C  C9  1  0.31325300  0.99879200  0.36611900  1
  C  C10  1  0.00000000  0.75094800  0.87331600  1
  C  C11  1  0.00000000  0.24905200  0.37331600  1
