# generated using pymatgen
data_Cu2NiC5
_symmetry_space_group_name_H-M   'P 1'
_cell_length_a   8.66905434
_cell_length_b   8.66905434
_cell_length_c   8.66905434
_cell_angle_alpha   124.17207336
_cell_angle_beta   124.17207336
_cell_angle_gamma   82.91392126
_symmetry_Int_Tables_number   1
_chemical_formula_structural   Cu2NiC5
_chemical_formula_sum   'Cu4 Ni2 C10'
_cell_volume   428.03652467
_cell_formula_units_Z   2
loop_
 _symmetry_equiv_pos_site_id
 _symmetry_equiv_pos_as_xyz
  1  'x, y, z'
loop_
 _atom_site_type_symbol
 _atom_site_label
 _atom_site_symmetry_multiplicity
 _atom_site_fract_x
 _atom_site_fract_y
 _atom_site_fract_z
 _atom_site_occupancy
  C  C0  1  0.50000000  0.50000000  0.00000000  1
  C  C1  1  0.00000000  0.00000000  0.00000000  1
  C  C2  1  0.51482200  0.01482200  0.81397600  1
  C  C3  1  0.20084700  0.70084700  0.18602400  1
  C  C4  1  0.01482200  0.20084700  0.50000000  1
  C  C5  1  0.70084700  0.51482200  0.50000000  1
  C  C6  1  0.48517800  0.98517800  0.18602400  1
  C  C7  1  0.79915300  0.29915300  0.81397600  1
  C  C8  1  0.98517800  0.79915300  0.50000000  1
  C  C9  1  0.29915300  0.48517800  0.50000000  1
  Ni  Ni10  1  0.25000000  0.25000000  0.00000000  1
  Ni  Ni11  1  0.75000000  0.75000000  0.00000000  1
  Cu  Cu12  1  0.13621000  0.63621000  0.77241900  1
  Cu  Cu13  1  0.86379000  0.36379000  0.22758100  1
  Cu  Cu14  1  0.63621000  0.86379000  0.50000000  1
  Cu  Cu15  1  0.36379000  0.13621000  0.50000000  1
