# generated using pymatgen
data_Cu6Ni2C31
_symmetry_space_group_name_H-M   'P 1'
_cell_length_a   7.29520600
_cell_length_b   8.60601704
_cell_length_c   8.60610384
_cell_angle_alpha   120.00013406
_cell_angle_beta   90.00004991
_cell_angle_gamma   89.99993558
_symmetry_Int_Tables_number   1
_chemical_formula_structural   Cu6Ni2C31
_chemical_formula_sum   'Cu6 Ni2 C31'
_cell_volume   467.92515007
_cell_formula_units_Z   1
loop_
 _symmetry_equiv_pos_site_id
 _symmetry_equiv_pos_as_xyz
  1  'x, y, z'
loop_
 _atom_site_type_symbol
 _atom_site_label
 _atom_site_symmetry_multiplicity
 _atom_site_fract_x
 _atom_site_fract_y
 _atom_site_fract_z
 _atom_site_occupancy
  C  C0  1  0.50000000  0.00000000  0.00000000  1
  C  C1  1  0.32345400  0.11674900  0.36269500  1
  C  C2  1  0.32345100  0.63731100  0.75405600  1
  C  C3  1  0.32345700  0.24595100  0.88325500  1
  C  C4  1  0.67654600  0.88325100  0.63730500  1
  C  C5  1  0.67654900  0.36268900  0.24594400  1
  C  C6  1  0.67654300  0.75404900  0.11674500  1
  C  C7  1  0.30817900  0.80636300  0.29258800  1
  C  C8  1  0.30818100  0.70741300  0.51377500  1
  C  C9  1  0.30818000  0.48622600  0.19363800  1
  C  C10  1  0.69182100  0.19363700  0.70741200  1
  C  C11  1  0.69181900  0.29258700  0.48622500  1
  C  C12  1  0.69182000  0.51377400  0.80636200  1
  C  C13  1  0.09420200  0.91762100  0.31161700  1
  C  C14  1  0.09420400  0.68838300  0.60600400  1
  C  C15  1  0.09420100  0.39399800  0.08238000  1
  C  C16  1  0.90579800  0.08237900  0.68838300  1
  C  C17  1  0.90579600  0.31161700  0.39399600  1
  C  C18  1  0.90579900  0.60600200  0.91762000  1
  C  C19  1  0.18963400  0.77105300  0.09595100  1
  C  C20  1  0.18963300  0.90405400  0.67510300  1
  C  C21  1  0.18963500  0.32489600  0.22894500  1
  C  C22  1  0.81036600  0.22894700  0.90404900  1
  C  C23  1  0.81036700  0.09594600  0.32489700  1
  C  C24  1  0.81036500  0.67510400  0.77105500  1
  C  C25  1  0.22207600  0.86964300  0.23564000  1
  C  C26  1  0.22207500  0.76436000  0.63400500  1
  C  C27  1  0.22207600  0.36599600  0.13035600  1
  C  C28  1  0.77792400  0.13035700  0.76436000  1
  C  C29  1  0.77792500  0.23564000  0.36599500  1
  C  C30  1  0.77792400  0.63400400  0.86964400  1
  Ni  Ni31  1  0.28300800  0.33333400  0.66666700  1
  Ni  Ni32  1  0.71699200  0.66666600  0.33333300  1
  Cu  Cu33  1  0.31971900  0.01675500  0.23670900  1
  Cu  Cu34  1  0.31971900  0.76329300  0.78004500  1
  Cu  Cu35  1  0.31971800  0.21995500  0.98324500  1
  Cu  Cu36  1  0.68028100  0.98324500  0.76329100  1
  Cu  Cu37  1  0.68028100  0.23670700  0.21995500  1
  Cu  Cu38  1  0.68028200  0.78004500  0.01675500  1
