# generated using pymatgen
data_Cu16Ni2C15
_symmetry_space_group_name_H-M   'P 1'
_cell_length_a   9.24933300
_cell_length_b   9.62325000
_cell_length_c   16.17278000
_cell_angle_alpha   90.00000000
_cell_angle_beta   90.00000000
_cell_angle_gamma   90.00000000
_symmetry_Int_Tables_number   1
_chemical_formula_structural   Cu16Ni2C15
_chemical_formula_sum   'Cu64 Ni8 C60'
_cell_volume   1439.51721415
_cell_formula_units_Z   4
loop_
 _symmetry_equiv_pos_site_id
 _symmetry_equiv_pos_as_xyz
  1  'x, y, z'
loop_
 _atom_site_type_symbol
 _atom_site_label
 _atom_site_symmetry_multiplicity
 _atom_site_fract_x
 _atom_site_fract_y
 _atom_site_fract_z
 _atom_site_occupancy
  C  C0  1  0.35074300  0.12631900  0.09736800  1
  C  C1  1  0.64925700  0.87368100  0.90263200  1
  C  C2  1  0.85074300  0.37368100  0.90263200  1
  C  C3  1  0.64925700  0.87368100  0.59736800  1
  C  C4  1  0.14925700  0.62631900  0.09736800  1
  C  C5  1  0.35074300  0.12631900  0.40263200  1
  C  C6  1  0.14925700  0.62631900  0.40263200  1
  C  C7  1  0.85074300  0.37368100  0.59736800  1
  C  C8  1  0.02110900  0.33982000  0.25000000  1
  C  C9  1  0.97889100  0.66018000  0.75000000  1
  C  C10  1  0.52110900  0.16018000  0.75000000  1
  C  C11  1  0.47889100  0.83982000  0.25000000  1
  C  C12  1  0.10017300  0.12064400  0.59537600  1
  C  C13  1  0.89982700  0.87935600  0.40462400  1
  C  C14  1  0.60017300  0.37935600  0.40462400  1
  C  C15  1  0.89982700  0.87935600  0.09537600  1
  C  C16  1  0.39982700  0.62064400  0.59537600  1
  C  C17  1  0.10017300  0.12064400  0.90462400  1
  C  C18  1  0.39982700  0.62064400  0.90462400  1
  C  C19  1  0.60017300  0.37935600  0.09537600  1
  C  C20  1  0.23840800  0.05510800  0.65118100  1
  C  C21  1  0.76159200  0.94489200  0.34881900  1
  C  C22  1  0.73840800  0.44489200  0.34881900  1
  C  C23  1  0.76159200  0.94489200  0.15118100  1
  C  C24  1  0.26159200  0.55510800  0.65118100  1
  C  C25  1  0.23840800  0.05510800  0.84881900  1
  C  C26  1  0.26159200  0.55510800  0.84881900  1
  C  C27  1  0.73840800  0.44489200  0.15118100  1
  C  C28  1  0.30755900  0.48113100  0.56013100  1
  C  C29  1  0.69244100  0.51886900  0.43986900  1
  C  C30  1  0.80755900  0.01886900  0.43986900  1
  C  C31  1  0.69244100  0.51886900  0.06013100  1
  C  C32  1  0.19244100  0.98113100  0.56013100  1
  C  C33  1  0.30755900  0.48113100  0.93986900  1
  C  C34  1  0.19244100  0.98113100  0.93986900  1
  C  C35  1  0.80755900  0.01886900  0.06013100  1
  C  C36  1  0.58177800  0.52971300  0.14524100  1
  C  C37  1  0.41822200  0.47028700  0.85475900  1
  C  C38  1  0.08177800  0.97028700  0.85475900  1
  C  C39  1  0.41822200  0.47028700  0.64524100  1
  C  C40  1  0.91822200  0.02971300  0.14524100  1
  C  C41  1  0.58177800  0.52971300  0.35475900  1
  C  C42  1  0.91822200  0.02971300  0.35475900  1
  C  C43  1  0.08177800  0.97028700  0.64524100  1
  C  C44  1  0.17740900  0.05602400  0.25000000  1
  C  C45  1  0.82259100  0.94397600  0.75000000  1
  C  C46  1  0.67740900  0.44397600  0.75000000  1
  C  C47  1  0.32259100  0.55602400  0.25000000  1
  C  C48  1  0.05587700  0.29649500  0.04906400  1
  C  C49  1  0.94412300  0.70350500  0.95093600  1
  C  C50  1  0.55587700  0.20350500  0.95093600  1
  C  C51  1  0.94412300  0.70350500  0.54906400  1
  C  C52  1  0.44412300  0.79649500  0.04906400  1
  C  C53  1  0.05587700  0.29649500  0.45093600  1
  C  C54  1  0.44412300  0.79649500  0.45093600  1
  C  C55  1  0.55587700  0.20350500  0.54906400  1
  C  C56  1  0.59142600  0.14824000  0.25000000  1
  C  C57  1  0.40857400  0.85176000  0.75000000  1
  C  C58  1  0.09142600  0.35176000  0.75000000  1
  C  C59  1  0.90857400  0.64824000  0.25000000  1
  Ni  Ni60  1  0.15346400  0.03090200  0.61205900  1
  Ni  Ni61  1  0.84653600  0.96909800  0.38794100  1
  Ni  Ni62  1  0.65346400  0.46909800  0.38794100  1
  Ni  Ni63  1  0.84653600  0.96909800  0.11205900  1
  Ni  Ni64  1  0.34653600  0.53090200  0.61205900  1
  Ni  Ni65  1  0.15346400  0.03090200  0.88794100  1
  Ni  Ni66  1  0.34653600  0.53090200  0.88794100  1
  Ni  Ni67  1  0.65346400  0.46909800  0.11205900  1
  Cu  Cu68  1  0.15036400  0.17103200  0.05245700  1
  Cu  Cu69  1  0.84963600  0.82896800  0.94754300  1
  Cu  Cu70  1  0.65036400  0.32896800  0.94754300  1
  Cu  Cu71  1  0.84963600  0.82896800  0.55245700  1
  Cu  Cu72  1  0.34963600  0.67103200  0.05245700  1
  Cu  Cu73  1  0.15036400  0.17103200  0.44754300  1
  Cu  Cu74  1  0.34963600  0.67103200  0.44754300  1
  Cu  Cu75  1  0.65036400  0.32896800  0.55245700  1
  Cu  Cu76  1  0.13538300  0.42234100  0.02430200  1
  Cu  Cu77  1  0.86461700  0.57765900  0.97569800  1
  Cu  Cu78  1  0.63538300  0.07765900  0.97569800  1
  Cu  Cu79  1  0.86461700  0.57765900  0.52430200  1
  Cu  Cu80  1  0.36461700  0.92234100  0.02430200  1
  Cu  Cu81  1  0.13538300  0.42234100  0.47569800  1
  Cu  Cu82  1  0.36461700  0.92234100  0.47569800  1
  Cu  Cu83  1  0.63538300  0.07765900  0.52430200  1
  Cu  Cu84  1  0.47643700  0.18445900  0.62922600  1
  Cu  Cu85  1  0.52356300  0.81554100  0.37077400  1
  Cu  Cu86  1  0.97643700  0.31554100  0.37077400  1
  Cu  Cu87  1  0.52356300  0.81554100  0.12922600  1
  Cu  Cu88  1  0.02356300  0.68445900  0.62922600  1
  Cu  Cu89  1  0.47643700  0.18445900  0.87077400  1
  Cu  Cu90  1  0.02356300  0.68445900  0.87077400  1
  Cu  Cu91  1  0.97643700  0.31554100  0.12922600  1
  Cu  Cu92  1  0.73093300  0.21861300  0.25000000  1
  Cu  Cu93  1  0.26906700  0.78138700  0.75000000  1
  Cu  Cu94  1  0.23093300  0.28138700  0.75000000  1
  Cu  Cu95  1  0.76906700  0.71861300  0.25000000  1
  Cu  Cu96  1  0.18317700  0.21184400  0.25000000  1
  Cu  Cu97  1  0.81682300  0.78815600  0.75000000  1
  Cu  Cu98  1  0.68317700  0.28815600  0.75000000  1
  Cu  Cu99  1  0.31682300  0.71184400  0.25000000  1
  Cu  Cu100  1  0.44146200  0.24217300  0.01363900  1
  Cu  Cu101  1  0.55853800  0.75782700  0.98636100  1
  Cu  Cu102  1  0.94146200  0.25782700  0.98636100  1
  Cu  Cu103  1  0.55853800  0.75782700  0.51363900  1
  Cu  Cu104  1  0.05853800  0.74217300  0.01363900  1
  Cu  Cu105  1  0.44146200  0.24217300  0.48636100  1
  Cu  Cu106  1  0.05853800  0.74217300  0.48636100  1
  Cu  Cu107  1  0.94146200  0.25782700  0.51363900  1
  Cu  Cu108  1  0.87968000  0.49199500  0.25000000  1
  Cu  Cu109  1  0.12032000  0.50800500  0.75000000  1
  Cu  Cu110  1  0.37968000  0.00800500  0.75000000  1
  Cu  Cu111  1  0.62032000  0.99199500  0.25000000  1
  Cu  Cu112  1  0.51007300  0.18640200  0.17340700  1
  Cu  Cu113  1  0.48992700  0.81359800  0.82659300  1
  Cu  Cu114  1  0.01007300  0.31359800  0.82659300  1
  Cu  Cu115  1  0.48992700  0.81359800  0.67340700  1
  Cu  Cu116  1  0.98992700  0.68640200  0.17340700  1
  Cu  Cu117  1  0.51007300  0.18640200  0.32659300  1
  Cu  Cu118  1  0.98992700  0.68640200  0.32659300  1
  Cu  Cu119  1  0.01007300  0.31359800  0.67340700  1
  Cu  Cu120  1  0.02882200  0.00460900  0.25000000  1
  Cu  Cu121  1  0.97117800  0.99539100  0.75000000  1
  Cu  Cu122  1  0.52882200  0.49539100  0.75000000  1
  Cu  Cu123  1  0.47117800  0.50460900  0.25000000  1
  Cu  Cu124  1  0.24138600  0.50297900  0.17592000  1
  Cu  Cu125  1  0.75861400  0.49702100  0.82408000  1
  Cu  Cu126  1  0.74138600  0.99702100  0.82408000  1
  Cu  Cu127  1  0.75861400  0.49702100  0.67592000  1
  Cu  Cu128  1  0.25861400  0.00297900  0.17592000  1
  Cu  Cu129  1  0.24138600  0.50297900  0.32408000  1
  Cu  Cu130  1  0.25861400  0.00297900  0.32408000  1
  Cu  Cu131  1  0.74138600  0.99702100  0.67592000  1
