# generated using pymatgen
data_Cu3NiC7
_symmetry_space_group_name_H-M   'P 1'
_cell_length_a   4.45233800
_cell_length_b   9.24166200
_cell_length_c   12.03962400
_cell_angle_alpha   90.00000000
_cell_angle_beta   90.00000000
_cell_angle_gamma   90.00000000
_symmetry_Int_Tables_number   1
_chemical_formula_structural   Cu3NiC7
_chemical_formula_sum   'Cu12 Ni4 C28'
_cell_volume   495.39444371
_cell_formula_units_Z   4
loop_
 _symmetry_equiv_pos_site_id
 _symmetry_equiv_pos_as_xyz
  1  'x, y, z'
loop_
 _atom_site_type_symbol
 _atom_site_label
 _atom_site_symmetry_multiplicity
 _atom_site_fract_x
 _atom_site_fract_y
 _atom_site_fract_z
 _atom_site_occupancy
  C  C0  1  0.28004900  0.17595800  0.11323400  1
  C  C1  1  0.78004900  0.82404200  0.88676600  1
  C  C2  1  0.78004900  0.32404200  0.61323400  1
  C  C3  1  0.28004900  0.67595800  0.38676600  1
  Ni  Ni4  1  0.82652400  0.40807700  0.04202500  1
  Ni  Ni5  1  0.32652400  0.59192300  0.95797500  1
  Ni  Ni6  1  0.32652400  0.09192300  0.54202500  1
  Ni  Ni7  1  0.82652400  0.90807700  0.45797500  1
  Cu  Cu8  1  0.88086700  0.43048300  0.25440200  1
  Cu  Cu9  1  0.38086700  0.56951700  0.74559800  1
  Cu  Cu10  1  0.38086700  0.06951700  0.75440200  1
  Cu  Cu11  1  0.88086700  0.93048300  0.24559800  1
  Cu  Cu12  1  0.50276300  0.08321600  0.33623800  1
  Cu  Cu13  1  0.00276300  0.91678400  0.66376200  1
  Cu  Cu14  1  0.00276300  0.41678400  0.83623800  1
  Cu  Cu15  1  0.50276300  0.58321600  0.16376200  1
  Cu  Cu16  1  0.15877900  0.27748200  0.39478000  1
  Cu  Cu17  1  0.65877900  0.72251800  0.60522000  1
  Cu  Cu18  1  0.65877900  0.22251800  0.89478000  1
  Cu  Cu19  1  0.15877900  0.77748200  0.10522000  1
  C  C20  1  0.99277700  0.38260600  0.15823300  1
  C  C21  1  0.49277700  0.61739400  0.84176700  1
  C  C22  1  0.49277700  0.11739400  0.65823300  1
  C  C23  1  0.99277700  0.88260600  0.34176700  1
  C  C24  1  0.64045700  0.02968800  0.24120600  1
  C  C25  1  0.14045700  0.97031200  0.75879400  1
  C  C26  1  0.14045700  0.47031200  0.74120600  1
  C  C27  1  0.64045700  0.52968800  0.25879400  1
  C  C28  1  0.56228600  0.03671300  0.44122400  1
  C  C29  1  0.06228600  0.96328700  0.55877600  1
  C  C30  1  0.06228600  0.46328700  0.94122400  1
  C  C31  1  0.56228600  0.53671300  0.05877600  1
  C  C32  1  0.30369700  0.19517300  0.31232800  1
  C  C33  1  0.80369700  0.80482700  0.68767200  1
  C  C34  1  0.80369700  0.30482700  0.81232800  1
  C  C35  1  0.30369700  0.69517300  0.18767200  1
  C  C36  1  0.67940900  0.25647100  0.00259500  1
  C  C37  1  0.17940900  0.74352900  0.99740500  1
  C  C38  1  0.17940900  0.24352900  0.50259500  1
  C  C39  1  0.67940900  0.75647100  0.49740500  1
  C  C40  1  0.98619100  0.89559400  0.13919800  1
  C  C41  1  0.48619100  0.10440600  0.86080200  1
  C  C42  1  0.48619100  0.60440600  0.63919800  1
  C  C43  1  0.98619100  0.39559400  0.36080200  1
