# generated using pymatgen
data_Cu4NiC16
_symmetry_space_group_name_H-M   'P 1'
_cell_length_a   7.48363729
_cell_length_b   7.48363729
_cell_length_c   7.48363715
_cell_angle_alpha   60.83228823
_cell_angle_beta   60.83228823
_cell_angle_gamma   60.83229292
_symmetry_Int_Tables_number   1
_chemical_formula_structural   Cu4NiC16
_chemical_formula_sum   'Cu4 Ni1 C16'
_cell_volume   301.92470193
_cell_formula_units_Z   1
loop_
 _symmetry_equiv_pos_site_id
 _symmetry_equiv_pos_as_xyz
  1  'x, y, z'
loop_
 _atom_site_type_symbol
 _atom_site_label
 _atom_site_symmetry_multiplicity
 _atom_site_fract_x
 _atom_site_fract_y
 _atom_site_fract_z
 _atom_site_occupancy
  C  C0  1  0.00059600  0.49964700  0.49964700  1
  C  C1  1  0.49964700  0.49964700  0.00059600  1
  C  C2  1  0.49964700  0.00059600  0.49964700  1
  Ni  Ni3  1  0.49950000  0.49950000  0.49950000  1
  Cu  Cu4  1  0.99860300  0.99860300  0.99860300  1
  Cu  Cu5  1  0.50502200  0.99868900  0.99868900  1
  Cu  Cu6  1  0.99868900  0.99868900  0.50502200  1
  Cu  Cu7  1  0.99868900  0.50502200  0.99868900  1
  C  C8  1  0.83185400  0.42260000  0.42260000  1
  C  C9  1  0.42661100  0.82216900  0.82216900  1
  C  C10  1  0.42260000  0.42260000  0.83185400  1
  C  C11  1  0.82216900  0.82216900  0.42661100  1
  C  C12  1  0.82216900  0.42661100  0.82216900  1
  C  C13  1  0.42260000  0.83185400  0.42260000  1
  C  C14  1  0.17162600  0.57460800  0.57460800  1
  C  C15  1  0.57167900  0.17986100  0.17986100  1
  C  C16  1  0.57460800  0.57460800  0.17162600  1
  C  C17  1  0.17986100  0.17986100  0.57167900  1
  C  C18  1  0.17986100  0.57167900  0.17986100  1
  C  C19  1  0.57460800  0.17162600  0.57460800  1
  C  C20  1  0.12436100  0.12436100  0.12436100  1
