# generated using pymatgen
data_Cu2NiC21
_symmetry_space_group_name_H-M   'P 1'
_cell_length_a   5.38931413
_cell_length_b   7.01593557
_cell_length_c   19.62201933
_cell_angle_alpha   89.29294682
_cell_angle_beta   88.15881294
_cell_angle_gamma   67.41357459
_symmetry_Int_Tables_number   1
_chemical_formula_structural   Cu2NiC21
_chemical_formula_sum   'Cu4 Ni2 C42'
_cell_volume   684.67099972
_cell_formula_units_Z   2
loop_
 _symmetry_equiv_pos_site_id
 _symmetry_equiv_pos_as_xyz
  1  'x, y, z'
loop_
 _atom_site_type_symbol
 _atom_site_label
 _atom_site_symmetry_multiplicity
 _atom_site_fract_x
 _atom_site_fract_y
 _atom_site_fract_z
 _atom_site_occupancy
  Ni  Ni0  1  0.47532800  0.04934500  0.75000000  1
  Ni  Ni1  1  0.52467200  0.95065500  0.25000000  1
  Cu  Cu2  1  0.35316900  0.28722500  0.53263300  1
  Cu  Cu3  1  0.64683100  0.71277500  0.46736700  1
  Cu  Cu4  1  0.35960600  0.28722500  0.96736700  1
  Cu  Cu5  1  0.64039400  0.71277500  0.03263300  1
  C  C6  1  0.18758000  0.62484000  0.75000000  1
  C  C7  1  0.81242000  0.37516000  0.25000000  1
  C  C8  1  0.07211400  0.87746200  0.90478600  1
  C  C9  1  0.92788600  0.12253800  0.09521400  1
  C  C10  1  0.05042400  0.87746200  0.59521400  1
  C  C11  1  0.94957600  0.12253800  0.40478600  1
  C  C12  1  0.77172200  0.47087100  0.84915900  1
  C  C13  1  0.22827800  0.52912900  0.15084100  1
  C  C14  1  0.75740700  0.47087100  0.65084100  1
  C  C15  1  0.24259300  0.52912900  0.34915900  1
  C  C16  1  0.61523100  0.28548200  0.86215100  1
  C  C17  1  0.38476900  0.71451800  0.13784900  1
  C  C18  1  0.09928700  0.28548200  0.63784900  1
  C  C19  1  0.90071300  0.71451800  0.36215100  1
  C  C20  1  0.32339600  0.66010400  0.95495600  1
  C  C21  1  0.67660400  0.33989600  0.04504400  1
  C  C22  1  0.01650000  0.66010400  0.54504400  1
  C  C23  1  0.98350000  0.33989600  0.45495600  1
  C  C24  1  0.28178100  0.95554400  0.53765400  1
  C  C25  1  0.71821900  0.04445600  0.46234600  1
  C  C26  1  0.76267500  0.95554400  0.96234600  1
  C  C27  1  0.23732500  0.04445600  0.03765400  1
  C  C28  1  0.20517700  0.83327900  0.67909800  1
  C  C29  1  0.79482300  0.16672100  0.32090200  1
  C  C30  1  0.96154400  0.83327900  0.82090200  1
  C  C31  1  0.03845600  0.16672100  0.17909800  1
  C  C32  1  0.57687300  0.51727900  0.57028400  1
  C  C33  1  0.42312700  0.48272100  0.42971600  1
  C  C34  1  0.90584800  0.51727900  0.92971600  1
  C  C35  1  0.09415200  0.48272100  0.07028400  1
  C  C36  1  0.55636000  0.40345600  0.71498500  1
  C  C37  1  0.44364000  0.59654400  0.28501500  1
  C  C38  1  0.04018400  0.40345600  0.78501500  1
  C  C39  1  0.95981600  0.59654400  0.21498500  1
  C  C40  1  0.51203500  0.70225400  0.82221300  1
  C  C41  1  0.48796500  0.29774600  0.17778700  1
  C  C42  1  0.78571100  0.70225400  0.67778700  1
  C  C43  1  0.21428900  0.29774600  0.32221300  1
  C  C44  1  0.28233900  0.91465200  0.39066600  1
  C  C45  1  0.71766100  0.08534800  0.60933400  1
  C  C46  1  0.80300900  0.91465200  0.10933400  1
  C  C47  1  0.19699100  0.08534800  0.89066600  1
