# generated using pymatgen
data_Cu4Ni8C9
_symmetry_space_group_name_H-M   'P 1'
_cell_length_a   5.48385853
_cell_length_b   5.46012683
_cell_length_c   10.54578251
_cell_angle_alpha   90.83258408
_cell_angle_beta   76.22910146
_cell_angle_gamma   58.97351025
_symmetry_Int_Tables_number   1
_chemical_formula_structural   Cu4Ni8C9
_chemical_formula_sum   'Cu4 Ni8 C9'
_cell_volume   259.21580953
_cell_formula_units_Z   1
loop_
 _symmetry_equiv_pos_site_id
 _symmetry_equiv_pos_as_xyz
  1  'x, y, z'
loop_
 _atom_site_type_symbol
 _atom_site_label
 _atom_site_symmetry_multiplicity
 _atom_site_fract_x
 _atom_site_fract_y
 _atom_site_fract_z
 _atom_site_occupancy
  C  C0  1  0.04249700  0.47296700  0.50076900  1
  C  C1  1  0.14319900  0.42188000  0.25922300  1
  C  C2  1  0.12037200  0.92112000  0.77963500  1
  C  C3  1  0.35640500  0.35187400  0.96002800  1
  C  C4  1  0.64354000  0.19907100  0.53746600  1
  C  C5  1  0.36323400  0.83016800  0.46419900  1
  C  C6  1  0.81824800  0.09044700  0.22437000  1
  C  C7  1  0.63245600  0.68545700  0.03865500  1
  C  C8  1  0.82802000  0.58642700  0.74142800  1
  Ni  Ni9  1  0.45189200  0.12770400  0.37552000  1
  Ni  Ni10  1  0.54865500  0.36755000  0.12035900  1
  Ni  Ni11  1  0.24543000  0.57308600  0.62860800  1
  Ni  Ni12  1  0.77111600  0.41256500  0.38309900  1
  Ni  Ni13  1  0.44335900  0.64067100  0.87541300  1
  Ni  Ni14  1  0.94870200  0.67569900  0.12210600  1
  Ni  Ni15  1  0.97308900  0.18244300  0.62095800  1
  Ni  Ni16  1  0.74342300  0.93424200  0.88130900  1
  Cu  Cu17  1  0.23557400  0.05849000  0.13383300  1
  Cu  Cu18  1  0.07268200  0.78819000  0.37901400  1
  Cu  Cu19  1  0.04735700  0.31857200  0.87982900  1
  Cu  Cu20  1  0.59213600  0.85652100  0.61319900  1
