# generated using pymatgen
data_Cu5NiC3
_symmetry_space_group_name_H-M   'P 1'
_cell_length_a   3.71087400
_cell_length_b   6.80645800
_cell_length_c   27.62834332
_cell_angle_alpha   89.99128380
_cell_angle_beta   90.00000000
_cell_angle_gamma   90.00000000
_symmetry_Int_Tables_number   1
_chemical_formula_structural   Cu5NiC3
_chemical_formula_sum   'Cu20 Ni4 C12'
_cell_volume   697.83414636
_cell_formula_units_Z   4
loop_
 _symmetry_equiv_pos_site_id
 _symmetry_equiv_pos_as_xyz
  1  'x, y, z'
loop_
 _atom_site_type_symbol
 _atom_site_label
 _atom_site_symmetry_multiplicity
 _atom_site_fract_x
 _atom_site_fract_y
 _atom_site_fract_z
 _atom_site_occupancy
  C  C0  1  0.50000000  0.72834000  0.71956000  1
  C  C1  1  0.50000000  0.72653200  0.38659100  1
  C  C2  1  0.50000000  0.72691500  0.05332000  1
  C  C3  1  0.50000000  0.22814600  0.78065400  1
  C  C4  1  0.50000000  0.22893000  0.44620700  1
  C  C5  1  0.50000000  0.22861200  0.11325400  1
  C  C6  1  0.00000000  0.27153600  0.94561900  1
  C  C7  1  0.00000000  0.27092900  0.61102600  1
  C  C8  1  0.00000000  0.27155500  0.27884200  1
  C  C9  1  0.00000000  0.77112700  0.88845300  1
  C  C10  1  0.00000000  0.77114900  0.55533200  1
  C  C11  1  0.00000000  0.77159200  0.22154100  1
  Ni  Ni12  1  0.50000000  0.62764400  0.81846900  1
  Ni  Ni13  1  0.50000000  0.62600800  0.48523400  1
  Ni  Ni14  1  0.50000000  0.62612000  0.15184900  1
  Ni  Ni15  1  0.50000000  0.12754100  0.68142600  1
  Cu  Cu16  1  0.50000000  0.58338700  0.95093000  1
  Cu  Cu17  1  0.50000000  0.58340100  0.61748600  1
  Cu  Cu18  1  0.50000000  0.58352400  0.28396900  1
  Cu  Cu19  1  0.50000000  0.08300300  0.88300200  1
  Cu  Cu20  1  0.50000000  0.08350300  0.54904700  1
  Cu  Cu21  1  0.50000000  0.08333800  0.21621000  1
  Cu  Cu22  1  0.00000000  0.40453300  0.71553300  1
  Cu  Cu23  1  0.00000000  0.41399500  0.38266800  1
  Cu  Cu24  1  0.00000000  0.41404800  0.04953100  1
  Cu  Cu25  1  0.00000000  0.90537300  0.78445300  1
  Cu  Cu26  1  0.00000000  0.90635500  0.45129400  1
  Cu  Cu27  1  0.00000000  0.90690100  0.11783600  1
  Cu  Cu28  1  0.50000000  0.12268100  0.34763200  1
  Cu  Cu29  1  0.50000000  0.12243500  0.01435300  1
  Cu  Cu30  1  0.00000000  0.38639500  0.84716800  1
  Cu  Cu31  1  0.00000000  0.38506100  0.51327100  1
  Cu  Cu32  1  0.00000000  0.38569500  0.18029200  1
  Cu  Cu33  1  0.00000000  0.87904700  0.98576600  1
  Cu  Cu34  1  0.00000000  0.88567300  0.65309200  1
  Cu  Cu35  1  0.00000000  0.87897500  0.31909200  1
