# generated using pymatgen
data_Cu17Ni2C19
_symmetry_space_group_name_H-M   'P 1'
_cell_length_a   12.34887400
_cell_length_b   7.25297800
_cell_length_c   8.14851333
_cell_angle_alpha   82.21436536
_cell_angle_beta   90.00000000
_cell_angle_gamma   90.00000000
_symmetry_Int_Tables_number   1
_chemical_formula_structural   Cu17Ni2C19
_chemical_formula_sum   'Cu34 Ni4 C38'
_cell_volume   723.10295459
_cell_formula_units_Z   2
loop_
 _symmetry_equiv_pos_site_id
 _symmetry_equiv_pos_as_xyz
  1  'x, y, z'
loop_
 _atom_site_type_symbol
 _atom_site_label
 _atom_site_symmetry_multiplicity
 _atom_site_fract_x
 _atom_site_fract_y
 _atom_site_fract_z
 _atom_site_occupancy
  C  C0  1  0.25000000  0.25833200  0.22221400  1
  C  C1  1  0.75000000  0.74166800  0.77778600  1
  C  C2  1  0.18622400  0.04361800  0.92355900  1
  C  C3  1  0.68622400  0.95638200  0.07644100  1
  C  C4  1  0.81377600  0.95638200  0.07644100  1
  C  C5  1  0.31377600  0.04361800  0.92355900  1
  C  C6  1  0.94793500  0.69885200  0.02315400  1
  C  C7  1  0.44793500  0.30114800  0.97684600  1
  C  C8  1  0.05206500  0.30114800  0.97684600  1
  C  C9  1  0.55206500  0.69885200  0.02315400  1
  C  C10  1  0.87820200  0.51566000  0.07539400  1
  C  C11  1  0.37820200  0.48434000  0.92460600  1
  C  C12  1  0.12179800  0.48434000  0.92460600  1
  C  C13  1  0.62179800  0.51566000  0.07539400  1
  C  C14  1  0.18453400  0.68458900  0.12983400  1
  C  C15  1  0.68453400  0.31541100  0.87016600  1
  C  C16  1  0.81546600  0.31541100  0.87016600  1
  C  C17  1  0.31546600  0.68458900  0.12983400  1
  C  C18  1  0.09963100  0.53923600  0.39235500  1
  C  C19  1  0.59963100  0.46076400  0.60764500  1
  C  C20  1  0.90036900  0.46076400  0.60764500  1
  C  C21  1  0.40036900  0.53923600  0.39235500  1
  C  C22  1  0.06135300  0.33514200  0.46629900  1
  C  C23  1  0.56135300  0.66485800  0.53370100  1
  C  C24  1  0.93864700  0.66485800  0.53370100  1
  C  C25  1  0.43864700  0.33514200  0.46629900  1
  C  C26  1  0.84505500  0.37552200  0.33720400  1
  C  C27  1  0.34505500  0.62447800  0.66279600  1
  C  C28  1  0.15494500  0.62447800  0.66279600  1
  C  C29  1  0.65494500  0.37552200  0.33720400  1
  C  C30  1  0.90694300  0.23102900  0.24665200  1
  C  C31  1  0.40694300  0.76897100  0.75334800  1
  C  C32  1  0.09305700  0.76897100  0.75334800  1
  C  C33  1  0.59305700  0.23102900  0.24665200  1
  C  C34  1  0.18587300  0.06109700  0.58023000  1
  C  C35  1  0.68587300  0.93890300  0.41977000  1
  C  C36  1  0.81412700  0.93890300  0.41977000  1
  C  C37  1  0.31412700  0.06109700  0.58023000  1
  Ni  Ni38  1  0.02598200  0.88928900  0.26203700  1
  Ni  Ni39  1  0.52598200  0.11071100  0.73796300  1
  Ni  Ni40  1  0.97401800  0.11071100  0.73796300  1
  Ni  Ni41  1  0.47401800  0.88928900  0.26203700  1
  Cu  Cu42  1  0.25000000  0.04480600  0.99677200  1
  Cu  Cu43  1  0.75000000  0.95519400  0.00322800  1
  Cu  Cu44  1  0.04718400  0.76065600  0.41769500  1
  Cu  Cu45  1  0.54718400  0.23934400  0.58230500  1
  Cu  Cu46  1  0.95281600  0.23934400  0.58230500  1
  Cu  Cu47  1  0.45281600  0.76065600  0.41769500  1
  Cu  Cu48  1  0.09577400  0.05937800  0.26093300  1
  Cu  Cu49  1  0.59577400  0.94062200  0.73906700  1
  Cu  Cu50  1  0.90422600  0.94062200  0.73906700  1
  Cu  Cu51  1  0.40422600  0.05937800  0.26093300  1
  Cu  Cu52  1  0.05397100  0.79680500  0.11599300  1
  Cu  Cu53  1  0.55397100  0.20319500  0.88400700  1
  Cu  Cu54  1  0.94602900  0.20319500  0.88400700  1
  Cu  Cu55  1  0.44602900  0.79680500  0.11599300  1
  Cu  Cu56  1  0.88534300  0.62696500  0.98737600  1
  Cu  Cu57  1  0.38534300  0.37303500  0.01262400  1
  Cu  Cu58  1  0.11465700  0.37303500  0.01262400  1
  Cu  Cu59  1  0.61465700  0.62696500  0.98737600  1
  Cu  Cu60  1  0.25000000  0.60677800  0.15739300  1
  Cu  Cu61  1  0.75000000  0.39322200  0.84260700  1
  Cu  Cu62  1  0.12183200  0.40634000  0.40629500  1
  Cu  Cu63  1  0.62183200  0.59366000  0.59370500  1
  Cu  Cu64  1  0.87816800  0.59366000  0.59370500  1
  Cu  Cu65  1  0.37816800  0.40634000  0.40629500  1
  Cu  Cu66  1  0.08922500  0.04932700  0.74457800  1
  Cu  Cu67  1  0.58922500  0.95067300  0.25542200  1
  Cu  Cu68  1  0.91077500  0.95067300  0.25542200  1
  Cu  Cu69  1  0.41077500  0.04932700  0.74457800  1
  Cu  Cu70  1  0.87289900  0.35445700  0.23008700  1
  Cu  Cu71  1  0.37289900  0.64554300  0.76991300  1
  Cu  Cu72  1  0.12710100  0.64554300  0.76991300  1
  Cu  Cu73  1  0.62710100  0.35445700  0.23008700  1
  Cu  Cu74  1  0.25000000  0.06583200  0.50660200  1
  Cu  Cu75  1  0.75000000  0.93416800  0.49339800  1
