# generated using pymatgen
data_Cu4(Ni2C9)3
_symmetry_space_group_name_H-M   'P 1'
_cell_length_a   17.56350054
_cell_length_b   17.56350054
_cell_length_c   5.58498271
_cell_angle_alpha   89.94611403
_cell_angle_beta   89.94611403
_cell_angle_gamma   161.70269875
_symmetry_Int_Tables_number   1
_chemical_formula_structural   Cu4(Ni2C9)3
_chemical_formula_sum   'Cu4 Ni6 C27'
_cell_volume   540.87106267
_cell_formula_units_Z   1
loop_
 _symmetry_equiv_pos_site_id
 _symmetry_equiv_pos_as_xyz
  1  'x, y, z'
loop_
 _atom_site_type_symbol
 _atom_site_label
 _atom_site_symmetry_multiplicity
 _atom_site_fract_x
 _atom_site_fract_y
 _atom_site_fract_z
 _atom_site_occupancy
  C  C0  1  0.31577900  0.20009800  0.25786800  1
  C  C1  1  0.79990200  0.68422100  0.74213200  1
  C  C2  1  0.68422100  0.79990200  0.74213200  1
  C  C3  1  0.20009800  0.31577900  0.25786800  1
  C  C4  1  0.41821500  0.08610200  0.25215300  1
  C  C5  1  0.91389800  0.58178500  0.74784700  1
  C  C6  1  0.58178500  0.91389800  0.74784700  1
  C  C7  1  0.08610200  0.41821500  0.25215300  1
  Ni  Ni8  1  0.35969700  0.13272300  0.75376500  1
  Ni  Ni9  1  0.86727700  0.64030300  0.24623500  1
  Ni  Ni10  1  0.64030300  0.86727700  0.24623500  1
  Ni  Ni11  1  0.13272300  0.35969700  0.75376500  1
  Ni  Ni12  1  0.74331700  0.74331700  0.25674600  1
  Ni  Ni13  1  0.25668300  0.25668300  0.74325400  1
  Cu  Cu14  1  0.25010200  0.74989800  0.00000000  1
  Cu  Cu15  1  0.75016600  0.24983400  0.50000000  1
  Cu  Cu16  1  0.74989800  0.25010200  0.00000000  1
  Cu  Cu17  1  0.24983400  0.75016600  0.50000000  1
  C  C18  1  0.46061000  0.04059000  0.74972600  1
  C  C19  1  0.95941000  0.53939000  0.25027400  1
  C  C20  1  0.53939000  0.95941000  0.25027400  1
  C  C21  1  0.04059000  0.46061000  0.74972600  1
  C  C22  1  0.27450000  0.16511500  0.78020800  1
  C  C23  1  0.83488500  0.72550000  0.21979200  1
  C  C24  1  0.72550000  0.83488500  0.21979200  1
  C  C25  1  0.16511500  0.27450000  0.78020800  1
  C  C26  1  0.12365500  0.87634500  0.00000000  1
  C  C27  1  0.61679500  0.38320500  0.50000000  1
  C  C28  1  0.62057900  0.37942100  0.00000000  1
  C  C29  1  0.12059800  0.87940200  0.50000000  1
  C  C30  1  0.87634500  0.12365500  0.00000000  1
  C  C31  1  0.38320500  0.61679500  0.50000000  1
  C  C32  1  0.37942100  0.62057900  0.00000000  1
  C  C33  1  0.87940200  0.12059800  0.50000000  1
  C  C34  1  0.50000000  0.50000000  0.50000000  1
  C  C35  1  0.00000000  0.00000000  0.50000000  1
  C  C36  1  0.50000000  0.50000000  0.00000000  1
