# generated using pymatgen
data_CuNi3C16
_symmetry_space_group_name_H-M   'P 1'
_cell_length_a   7.68983400
_cell_length_b   5.38744600
_cell_length_c   5.44207013
_cell_angle_alpha   89.73518058
_cell_angle_beta   90.00000000
_cell_angle_gamma   90.00000000
_symmetry_Int_Tables_number   1
_chemical_formula_structural   CuNi3C16
_chemical_formula_sum   'Cu1 Ni3 C16'
_cell_volume   225.45475018
_cell_formula_units_Z   1
loop_
 _symmetry_equiv_pos_site_id
 _symmetry_equiv_pos_as_xyz
  1  'x, y, z'
loop_
 _atom_site_type_symbol
 _atom_site_label
 _atom_site_symmetry_multiplicity
 _atom_site_fract_x
 _atom_site_fract_y
 _atom_site_fract_z
 _atom_site_occupancy
  Ni  Ni0  1  0.50000000  0.00669200  0.04282500  1
  Ni  Ni1  1  0.00000000  0.50647000  0.45864100  1
  Ni  Ni2  1  0.00000000  0.99328900  0.96209200  1
  Cu  Cu3  1  0.50000000  0.49039100  0.54246200  1
  C  C4  1  0.24646700  0.99858200  0.49988800  1
  C  C5  1  0.75335500  0.50080500  0.00144500  1
  C  C6  1  0.75353300  0.99858200  0.49988800  1
  C  C7  1  0.24664500  0.50080500  0.00144500  1
  C  C8  1  0.29497300  0.21284300  0.78670100  1
  C  C9  1  0.71286600  0.29163300  0.29036300  1
  C  C10  1  0.78872000  0.79453200  0.20663000  1
  C  C11  1  0.21435300  0.70163800  0.70325400  1
  C  C12  1  0.21128000  0.79453200  0.20663000  1
  C  C13  1  0.78564700  0.70163800  0.70325400  1
  C  C14  1  0.70502700  0.21284300  0.78670100  1
  C  C15  1  0.28713400  0.29163300  0.29036300  1
  C  C16  1  0.50000000  0.57422500  0.98880200  1
  C  C17  1  0.50000000  0.93099600  0.48409900  1
  C  C18  1  0.00000000  0.42354500  0.01932800  1
  C  C19  1  0.00000000  0.07433000  0.52519000  1
