# generated using pymatgen
data_Cu4Ni2C35
_symmetry_space_group_name_H-M   'P 1'
_cell_length_a   9.33421200
_cell_length_b   9.33421200
_cell_length_c   12.24277200
_cell_angle_alpha   90.00000000
_cell_angle_beta   90.00000000
_cell_angle_gamma   90.00000000
_symmetry_Int_Tables_number   1
_chemical_formula_structural   Cu4Ni2C35
_chemical_formula_sum   'Cu8 Ni4 C70'
_cell_volume   1066.68228468
_cell_formula_units_Z   2
loop_
 _symmetry_equiv_pos_site_id
 _symmetry_equiv_pos_as_xyz
  1  'x, y, z'
loop_
 _atom_site_type_symbol
 _atom_site_label
 _atom_site_symmetry_multiplicity
 _atom_site_fract_x
 _atom_site_fract_y
 _atom_site_fract_z
 _atom_site_occupancy
  C  C0  1  0.50000000  0.50000000  0.50000000  1
  C  C1  1  0.00000000  0.00000000  0.00000000  1
  C  C2  1  0.47201100  0.15567700  0.12627600  1
  C  C3  1  0.52798900  0.84432300  0.12627600  1
  C  C4  1  0.02798900  0.65567700  0.62627600  1
  C  C5  1  0.97201100  0.34432300  0.62627600  1
  C  C6  1  0.52798900  0.84432300  0.87372400  1
  C  C7  1  0.47201100  0.15567700  0.87372400  1
  C  C8  1  0.97201100  0.34432300  0.37372400  1
  C  C9  1  0.02798900  0.65567700  0.37372400  1
  C  C10  1  0.15567700  0.47201100  0.12627600  1
  C  C11  1  0.84432300  0.52798900  0.12627600  1
  C  C12  1  0.65567700  0.02798900  0.62627600  1
  C  C13  1  0.34432300  0.97201100  0.62627600  1
  C  C14  1  0.84432300  0.52798900  0.87372400  1
  C  C15  1  0.15567700  0.47201100  0.87372400  1
  C  C16  1  0.34432300  0.97201100  0.37372400  1
  C  C17  1  0.65567700  0.02798900  0.37372400  1
  C  C18  1  0.59830400  0.20327300  0.23087100  1
  C  C19  1  0.40169600  0.79672700  0.23087100  1
  C  C20  1  0.90169600  0.70327300  0.73087100  1
  C  C21  1  0.09830400  0.29672700  0.73087100  1
  C  C22  1  0.40169600  0.79672700  0.76912900  1
  C  C23  1  0.59830400  0.20327300  0.76912900  1
  C  C24  1  0.09830400  0.29672700  0.26912900  1
  C  C25  1  0.90169600  0.70327300  0.26912900  1
  C  C26  1  0.20327300  0.59830400  0.23087100  1
  C  C27  1  0.79672700  0.40169600  0.23087100  1
  C  C28  1  0.70327300  0.90169600  0.73087100  1
  C  C29  1  0.29672700  0.09830400  0.73087100  1
  C  C30  1  0.79672700  0.40169600  0.76912900  1
  C  C31  1  0.20327300  0.59830400  0.76912900  1
  C  C32  1  0.29672700  0.09830400  0.26912900  1
  C  C33  1  0.70327300  0.90169600  0.26912900  1
  C  C34  1  0.64568300  0.07173000  0.12898900  1
  C  C35  1  0.35431700  0.92827000  0.12898900  1
  C  C36  1  0.85431700  0.57173000  0.62898900  1
  C  C37  1  0.14568300  0.42827000  0.62898900  1
  C  C38  1  0.35431700  0.92827000  0.87101100  1
  C  C39  1  0.64568300  0.07173000  0.87101100  1
  C  C40  1  0.14568300  0.42827000  0.37101100  1
  C  C41  1  0.85431700  0.57173000  0.37101100  1
  C  C42  1  0.07173000  0.64568300  0.12898900  1
  C  C43  1  0.92827000  0.35431700  0.12898900  1
  C  C44  1  0.57173000  0.85431700  0.62898900  1
  C  C45  1  0.42827000  0.14568300  0.62898900  1
  C  C46  1  0.92827000  0.35431700  0.87101100  1
  C  C47  1  0.07173000  0.64568300  0.87101100  1
  C  C48  1  0.42827000  0.14568300  0.37101100  1
  C  C49  1  0.57173000  0.85431700  0.37101100  1
  C  C50  1  0.55908900  0.11669200  0.17860400  1
  C  C51  1  0.44091100  0.88330800  0.17860400  1
  C  C52  1  0.94091100  0.61669200  0.67860400  1
  C  C53  1  0.05908900  0.38330800  0.67860400  1
  C  C54  1  0.44091100  0.88330800  0.82139600  1
  C  C55  1  0.55908900  0.11669200  0.82139600  1
  C  C56  1  0.05908900  0.38330800  0.32139600  1
  C  C57  1  0.94091100  0.61669200  0.32139600  1
  C  C58  1  0.11669200  0.55908900  0.17860400  1
  C  C59  1  0.88330800  0.44091100  0.17860400  1
  C  C60  1  0.61669200  0.94091100  0.67860400  1
  C  C61  1  0.38330800  0.05908900  0.67860400  1
  C  C62  1  0.88330800  0.44091100  0.82139600  1
  C  C63  1  0.11669200  0.55908900  0.82139600  1
  C  C64  1  0.38330800  0.05908900  0.32139600  1
  C  C65  1  0.61669200  0.94091100  0.32139600  1
  Ni  Ni66  1  0.50000000  0.00000000  0.25000000  1
  Ni  Ni67  1  0.00000000  0.50000000  0.75000000  1
  Ni  Ni68  1  0.50000000  0.00000000  0.75000000  1
  Ni  Ni69  1  0.00000000  0.50000000  0.25000000  1
  Cu  Cu70  1  0.50000000  0.50000000  0.28292000  1
  Cu  Cu71  1  0.00000000  0.00000000  0.78292000  1
  Cu  Cu72  1  0.50000000  0.50000000  0.71708000  1
  Cu  Cu73  1  0.00000000  0.00000000  0.21708000  1
  Cu  Cu74  1  0.70397300  0.29602700  0.50000000  1
  Cu  Cu75  1  0.29602700  0.70397300  0.50000000  1
  Cu  Cu76  1  0.79602700  0.79602700  0.00000000  1
  Cu  Cu77  1  0.20397300  0.20397300  0.00000000  1
  C  C78  1  0.36226300  0.36226300  0.50000000  1
  C  C79  1  0.63773700  0.63773700  0.50000000  1
  C  C80  1  0.13773700  0.86226300  0.00000000  1
  C  C81  1  0.86226300  0.13773700  0.00000000  1
