# generated using pymatgen
data_Cu4NiC25
_symmetry_space_group_name_H-M   'P 1'
_cell_length_a   5.01084733
_cell_length_b   5.01084733
_cell_length_c   20.57040749
_cell_angle_alpha   83.00414873
_cell_angle_beta   90.00000000
_cell_angle_gamma   120.00000000
_symmetry_Int_Tables_number   1
_chemical_formula_structural   Cu4NiC25
_chemical_formula_sum   'Cu4 Ni1 C25'
_cell_volume   442.85113266
_cell_formula_units_Z   1
loop_
 _symmetry_equiv_pos_site_id
 _symmetry_equiv_pos_as_xyz
  1  'x, y, z'
loop_
 _atom_site_type_symbol
 _atom_site_label
 _atom_site_symmetry_multiplicity
 _atom_site_fract_x
 _atom_site_fract_y
 _atom_site_fract_z
 _atom_site_occupancy
  Ni  Ni0  1  0.39979559  0.79959117  0.80061324  1
  Cu  Cu1  1  0.99945657  0.99891313  0.00163030  1
  Cu  Cu2  1  0.59998790  0.19997580  0.20003631  1
  Cu  Cu3  1  0.19995808  0.39991617  0.40012575  1
  Cu  Cu4  1  0.80028254  0.60056508  0.59915238  1
  C  C5  1  0.47349801  0.45118009  0.07532190  1
  C  C6  1  0.07397932  0.65064978  0.27537091  1
  C  C7  1  0.67365843  0.85181658  0.47452499  1
  C  C8  1  0.27305631  0.05460076  0.67234293  1
  C  C9  1  0.87340745  0.24886716  0.87772539  1
  C  C10  1  0.47349801  0.94699602  0.07532190  1
  C  C11  1  0.07397932  0.14795863  0.27537091  1
  C  C12  1  0.67365843  0.34731686  0.47452499  1
  C  C13  1  0.27305631  0.54611262  0.67234293  1
  C  C14  1  0.87340745  0.74681490  0.87772539  1
  C  C15  1  0.27515347  0.55030694  0.17453960  1
  C  C16  1  0.87508340  0.75016681  0.37474979  1
  C  C17  1  0.47553931  0.95107861  0.57338208  1
  C  C18  1  0.07546750  0.15093499  0.77359751  1
  C  C19  1  0.67490191  0.34980382  0.97529427  1
  C  C20  1  0.97768208  0.45118009  0.07532190  1
  C  C21  1  0.57667046  0.65064978  0.27537091  1
  C  C22  1  0.17815814  0.85181658  0.47452499  1
  C  C23  1  0.78154445  0.05460076  0.67234293  1
  C  C24  1  0.37545971  0.24886716  0.87772539  1
  C  C25  1  0.34842599  0.69685199  0.95472202  1
  C  C26  1  0.15032902  0.30065805  0.54901293  1
  C  C27  1  0.75110251  0.50220501  0.74669248  1
  C  C28  1  0.95020422  0.90040845  0.14938733  1
  C  C29  1  0.54959812  0.09919623  0.35120565  1
