# generated using pymatgen
data_Cu(NiC4)2
_symmetry_space_group_name_H-M   'P 1'
_cell_length_a   7.46905800
_cell_length_b   7.46905800
_cell_length_c   7.46905800
_cell_angle_alpha   120.52940011
_cell_angle_beta   119.35585691
_cell_angle_gamma   90.10239845
_symmetry_Int_Tables_number   1
_chemical_formula_structural   Cu(NiC4)2
_chemical_formula_sum   'Cu2 Ni4 C16'
_cell_volume   294.85016444
_cell_formula_units_Z   2
loop_
 _symmetry_equiv_pos_site_id
 _symmetry_equiv_pos_as_xyz
  1  'x, y, z'
loop_
 _atom_site_type_symbol
 _atom_site_label
 _atom_site_symmetry_multiplicity
 _atom_site_fract_x
 _atom_site_fract_y
 _atom_site_fract_z
 _atom_site_occupancy
  Ni  Ni0  1  0.00000000  0.50000000  0.00000000  1
  Ni  Ni1  1  0.00000000  0.00000000  0.50000000  1
  Ni  Ni2  1  0.00000000  0.50000000  0.50000000  1
  Ni  Ni3  1  0.50000000  0.50000000  0.00000000  1
  Cu  Cu4  1  0.50000000  0.00000000  0.00000000  1
  Cu  Cu5  1  0.50000000  0.50000000  0.50000000  1
  C  C6  1  0.50000000  0.00000000  0.50000000  1
  C  C7  1  0.00000000  0.00000000  0.00000000  1
  C  C8  1  0.82023000  0.07023000  0.75000000  1
  C  C9  1  0.40314400  0.65314400  0.75000000  1
  C  C10  1  0.84161600  0.67468500  0.76690500  1
  C  C11  1  0.40778100  0.07471200  0.73309500  1
  C  C12  1  0.84161600  0.07471200  0.16693100  1
  C  C13  1  0.40778100  0.67468500  0.33306900  1
  C  C14  1  0.17977000  0.92977000  0.25000000  1
  C  C15  1  0.59685600  0.34685600  0.25000000  1
  C  C16  1  0.15838400  0.32531500  0.23309500  1
  C  C17  1  0.59221900  0.92528800  0.26690500  1
  C  C18  1  0.15838400  0.92528800  0.83306900  1
  C  C19  1  0.59221900  0.32531500  0.66693100  1
  C  C20  1  0.87780600  0.62780600  0.25000000  1
  C  C21  1  0.12219400  0.37219400  0.75000000  1
