# generated using pymatgen
data_CuNi3C10
_symmetry_space_group_name_H-M   'P 1'
_cell_length_a   5.69751526
_cell_length_b   14.31607493
_cell_length_c   19.75428483
_cell_angle_alpha   90.00000000
_cell_angle_beta   90.00000000
_cell_angle_gamma   90.00000000
_symmetry_Int_Tables_number   1
_chemical_formula_structural   CuNi3C10
_chemical_formula_sum   'Cu8 Ni24 C80'
_cell_volume   1611.27909038
_cell_formula_units_Z   8
loop_
 _symmetry_equiv_pos_site_id
 _symmetry_equiv_pos_as_xyz
  1  'x, y, z'
loop_
 _atom_site_type_symbol
 _atom_site_label
 _atom_site_symmetry_multiplicity
 _atom_site_fract_x
 _atom_site_fract_y
 _atom_site_fract_z
 _atom_site_occupancy
  Ni  Ni0  1  0.97728928  0.21666106  0.99345683  1
  Ni  Ni1  1  0.02271072  0.78333894  0.49345683  1
  Ni  Ni2  1  0.02271072  0.71666106  0.99345683  1
  Ni  Ni3  1  0.97728928  0.28333894  0.49345683  1
  Ni  Ni4  1  0.98247247  0.95174547  0.64714781  1
  Ni  Ni5  1  0.01752753  0.04825453  0.14714781  1
  Ni  Ni6  1  0.01752753  0.45174547  0.64714781  1
  Ni  Ni7  1  0.98247247  0.54825453  0.14714781  1
  Ni  Ni8  1  0.98794164  0.86362222  0.82673875  1
  Ni  Ni9  1  0.01205836  0.13637778  0.32673875  1
  Ni  Ni10  1  0.01205836  0.36362222  0.82673875  1
  Ni  Ni11  1  0.98794164  0.63637778  0.32673875  1
  Ni  Ni12  1  0.46859680  0.79818499  0.73278475  1
  Ni  Ni13  1  0.53140320  0.20181501  0.23278475  1
  Ni  Ni14  1  0.53140320  0.29818499  0.73278475  1
  Ni  Ni15  1  0.46859680  0.70181501  0.23278475  1
  Ni  Ni16  1  0.54254448  0.96771000  0.88871453  1
  Ni  Ni17  1  0.45745552  0.03229000  0.38871453  1
  Ni  Ni18  1  0.45745552  0.46771000  0.88871453  1
  Ni  Ni19  1  0.54254448  0.53229000  0.38871453  1
  Ni  Ni20  1  0.49412679  0.88329123  0.55206032  1
  Ni  Ni21  1  0.50587321  0.11670877  0.05206032  1
  Ni  Ni22  1  0.50587321  0.38329123  0.55206032  1
  Ni  Ni23  1  0.49412679  0.61670877  0.05206032  1
  Cu  Cu24  1  0.92580472  0.61144115  0.80339251  1
  Cu  Cu25  1  0.07419528  0.38855885  0.30339251  1
  Cu  Cu26  1  0.07419528  0.11144115  0.80339251  1
  Cu  Cu27  1  0.92580472  0.88855885  0.30339251  1
  Cu  Cu28  1  0.56296271  0.63706758  0.57391348  1
  Cu  Cu29  1  0.43703729  0.36293242  0.07391348  1
  Cu  Cu30  1  0.43703729  0.13706758  0.57391348  1
  Cu  Cu31  1  0.56296271  0.86293242  0.07391348  1
  C  C32  1  0.96358810  0.47480578  0.98113386  1
  C  C33  1  0.03641190  0.52519422  0.48113386  1
  C  C34  1  0.03641190  0.97480578  0.98113386  1
  C  C35  1  0.96358810  0.02519422  0.48113386  1
  C  C36  1  0.98476710  0.22655266  0.65272029  1
  C  C37  1  0.01523290  0.77344734  0.15272029  1
  C  C38  1  0.01523290  0.72655266  0.65272029  1
  C  C39  1  0.98476710  0.27344734  0.15272029  1
  C  C40  1  0.47355406  0.52231157  0.72367844  1
  C  C41  1  0.52644594  0.47768843  0.22367844  1
  C  C42  1  0.52644594  0.02231157  0.72367844  1
  C  C43  1  0.47355406  0.97768843  0.22367844  1
  C  C44  1  0.45565033  0.72560060  0.89613687  1
  C  C45  1  0.54434967  0.27439940  0.39613687  1
  C  C46  1  0.54434967  0.22560060  0.89613687  1
  C  C47  1  0.45565033  0.77439940  0.39613687  1
  C  C48  1  0.58539690  0.81182264  0.84798615  1
  C  C49  1  0.41460310  0.18817736  0.34798615  1
  C  C50  1  0.41460310  0.31182264  0.84798615  1
  C  C51  1  0.58539690  0.68817736  0.34798615  1
  C  C52  1  0.70057186  0.46586787  0.76635374  1
  C  C53  1  0.29942814  0.53413213  0.26635374  1
  C  C54  1  0.29942814  0.96586787  0.76635374  1
  C  C55  1  0.70057186  0.03413213  0.26635374  1
  C  C56  1  0.89088607  0.87033629  0.99878275  1
  C  C57  1  0.10911393  0.12966371  0.49878275  1
  C  C58  1  0.10911393  0.37033629  0.99878275  1
  C  C59  1  0.89088607  0.62966371  0.49878275  1
  C  C60  1  0.79571675  0.78406491  0.60792244  1
  C  C61  1  0.20428325  0.21593509  0.10792244  1
  C  C62  1  0.20428325  0.28406491  0.60792244  1
  C  C63  1  0.79571675  0.71593509  0.10792244  1
  C  C64  1  0.66033725  0.46404602  0.99815899  1
  C  C65  1  0.33966275  0.53595398  0.49815899  1
  C  C66  1  0.33966275  0.96404602  0.99815899  1
  C  C67  1  0.66033725  0.03595398  0.49815899  1
  C  C68  1  0.90924200  0.43967703  0.53041452  1
  C  C69  1  0.09075800  0.56032297  0.03041452  1
  C  C70  1  0.09075800  0.93967703  0.53041452  1
  C  C71  1  0.90924200  0.06032297  0.03041452  1
  C  C72  1  0.79559775  0.99505696  0.76102949  1
  C  C73  1  0.20440225  0.00494304  0.26102949  1
  C  C74  1  0.20440225  0.49505696  0.76102949  1
  C  C75  1  0.79559775  0.50494304  0.26102949  1
  C  C76  1  0.60504217  0.62135901  0.87995895  1
  C  C77  1  0.39495783  0.37864099  0.37995895  1
  C  C78  1  0.39495783  0.12135901  0.87995895  1
  C  C79  1  0.60504217  0.87864099  0.37995895  1
  C  C80  1  0.53846697  0.63984174  0.72794792  1
  C  C81  1  0.46153303  0.36015826  0.22794792  1
  C  C82  1  0.46153303  0.13984174  0.72794792  1
  C  C83  1  0.53846697  0.86015826  0.22794792  1
  C  C84  1  0.94544292  0.60951232  0.64837320  1
  C  C85  1  0.05455708  0.39048768  0.14837320  1
  C  C86  1  0.05455708  0.10951232  0.64837320  1
  C  C87  1  0.94544292  0.89048768  0.14837320  1
  C  C88  1  0.84461487  0.21405088  0.87561393  1
  C  C89  1  0.15538513  0.78594912  0.37561393  1
  C  C90  1  0.15538513  0.71405088  0.87561393  1
  C  C91  1  0.84461487  0.28594912  0.37561393  1
  C  C92  1  0.98734877  0.25809463  0.73808544  1
  C  C93  1  0.01265123  0.74190537  0.23808544  1
  C  C94  1  0.01265123  0.75809463  0.73808544  1
  C  C95  1  0.98734877  0.24190537  0.23808544  1
  C  C96  1  0.53191109  0.99138163  0.63829465  1
  C  C97  1  0.46808891  0.00861837  0.13829465  1
  C  C98  1  0.46808891  0.49138163  0.63829465  1
  C  C99  1  0.53191109  0.50861837  0.13829465  1
  C  C100  1  0.98341505  0.99915093  0.89556244  1
  C  C101  1  0.01658495  0.00084907  0.39556244  1
  C  C102  1  0.01658495  0.49915093  0.89556244  1
  C  C103  1  0.98341505  0.50084907  0.39556244  1
  C  C104  1  0.28874603  0.75327503  0.61775487  1
  C  C105  1  0.71125397  0.24672497  0.11775487  1
  C  C106  1  0.71125397  0.25327503  0.61775487  1
  C  C107  1  0.28874603  0.74672497  0.11775487  1
  C  C108  1  0.47094485  0.74987002  0.98248208  1
  C  C109  1  0.52905515  0.25012998  0.48248208  1
  C  C110  1  0.52905515  0.24987002  0.98248208  1
  C  C111  1  0.47094485  0.75012998  0.48248208  1
