# generated using pymatgen
data_CuNiC20
_symmetry_space_group_name_H-M   'P 1'
_cell_length_a   5.05446022
_cell_length_b   6.82174807
_cell_length_c   8.70147382
_cell_angle_alpha   90.81279688
_cell_angle_beta   93.25233030
_cell_angle_gamma   106.12811031
_symmetry_Int_Tables_number   1
_chemical_formula_structural   CuNiC20
_chemical_formula_sum   'Cu1 Ni1 C20'
_cell_volume   287.61627156
_cell_formula_units_Z   1
loop_
 _symmetry_equiv_pos_site_id
 _symmetry_equiv_pos_as_xyz
  1  'x, y, z'
loop_
 _atom_site_type_symbol
 _atom_site_label
 _atom_site_symmetry_multiplicity
 _atom_site_fract_x
 _atom_site_fract_y
 _atom_site_fract_z
 _atom_site_occupancy
  Ni  Ni0  1  0.46227200  0.91933600  0.06249700  1
  Cu  Cu1  1  0.00002100  0.00406000  0.50030800  1
  C  C2  1  0.39130100  0.73277700  0.79733300  1
  C  C3  1  0.60865900  0.27256000  0.19949900  1
  C  C4  1  0.00658700  0.66015600  0.28341400  1
  C  C5  1  0.98712500  0.33872800  0.71912500  1
  C  C6  1  0.49887600  0.50086200  0.50139200  1
  C  C7  1  0.99069600  0.00591800  0.99609000  1
  C  C8  1  0.13128900  0.83459200  0.17584300  1
  C  C9  1  0.85752300  0.16625700  0.82302400  1
  C  C10  1  0.46914200  0.74850200  0.63031800  1
  C  C11  1  0.52660400  0.26027400  0.36635800  1
  C  C12  1  0.21487800  0.50349700  0.82843400  1
  C  C13  1  0.78349800  0.50154900  0.16824800  1
  C  C14  1  0.23094500  0.88289700  0.84423000  1
  C  C15  1  0.78605200  0.12047900  0.17593400  1
  C  C16  1  0.21926400  0.55822500  0.34090400  1
  C  C17  1  0.78593400  0.44866600  0.65446400  1
  C  C18  1  0.63376900  0.76100700  0.92349600  1
  C  C19  1  0.37528400  0.21819900  0.07310400  1
  C  C20  1  0.16058900  0.27188600  0.59279800  1
  C  C21  1  0.83802500  0.73401700  0.40568800  1
