# generated using pymatgen
data_Cu6Ni2C5
_symmetry_space_group_name_H-M   'P 1'
_cell_length_a   8.32100505
_cell_length_b   8.32100505
_cell_length_c   35.08534867
_cell_angle_alpha   90.00000000
_cell_angle_beta   90.00000000
_cell_angle_gamma   90.00000000
_symmetry_Int_Tables_number   1
_chemical_formula_structural   Cu6Ni2C5
_chemical_formula_sum   'Cu48 Ni16 C40'
_cell_volume   2429.27884371
_cell_formula_units_Z   8
loop_
 _symmetry_equiv_pos_site_id
 _symmetry_equiv_pos_as_xyz
  1  'x, y, z'
loop_
 _atom_site_type_symbol
 _atom_site_label
 _atom_site_symmetry_multiplicity
 _atom_site_fract_x
 _atom_site_fract_y
 _atom_site_fract_z
 _atom_site_occupancy
  C  C0  1  0.47676318  0.28132048  0.68988444  1
  C  C1  1  0.52323682  0.71867952  0.18988444  1
  C  C2  1  0.78132048  0.02323682  0.43988444  1
  C  C3  1  0.21867952  0.97676318  0.93988444  1
  C  C4  1  0.71867952  0.52323682  0.81011556  1
  C  C5  1  0.28132048  0.47676318  0.31011556  1
  C  C6  1  0.02323682  0.78132048  0.56011556  1
  C  C7  1  0.97676318  0.21867952  0.06011556  1
  C  C8  1  0.97788816  0.77022774  0.68799028  1
  C  C9  1  0.02211184  0.22977226  0.18799028  1
  C  C10  1  0.27022774  0.52211184  0.43799028  1
  C  C11  1  0.72977226  0.47788816  0.93799028  1
  C  C12  1  0.22977226  0.02211184  0.81200972  1
  C  C13  1  0.77022774  0.97788816  0.31200972  1
  C  C14  1  0.52211184  0.27022774  0.56200972  1
  C  C15  1  0.47788816  0.72977226  0.06200972  1
  C  C16  1  0.47050720  0.77703149  0.72357636  1
  C  C17  1  0.52949280  0.22296851  0.22357636  1
  C  C18  1  0.27703149  0.02949280  0.47357636  1
  C  C19  1  0.72296851  0.97050720  0.97357636  1
  C  C20  1  0.22296851  0.52949280  0.77642364  1
  C  C21  1  0.77703149  0.47050720  0.27642364  1
  C  C22  1  0.02949280  0.27703149  0.52642364  1
  C  C23  1  0.97050720  0.72296851  0.02642364  1
  C  C24  1  -0.01101237  0.26398631  0.72579567  1
  C  C25  1  0.01101237  0.73601369  0.22579567  1
  C  C26  1  0.76398631  0.51101237  0.47579567  1
  C  C27  1  0.23601369  0.48898763  0.97579567  1
  C  C28  1  0.73601369  0.01101237  0.77420433  1
  C  C29  1  0.26398631  -0.01101237  0.27420433  1
  C  C30  1  0.51101237  0.76398631  0.52420433  1
  C  C31  1  0.48898763  0.23601369  0.02420433  1
  C  C32  1  0.48831662  0.74275343  0.62239728  1
  C  C33  1  0.51168338  0.25724657  0.12239728  1
  C  C34  1  0.24275343  0.01168338  0.37239728  1
  C  C35  1  0.75724657  0.98831662  0.87239728  1
  C  C36  1  0.25724657  0.51168338  0.87760272  1
  C  C37  1  0.74275343  0.48831662  0.37760272  1
  C  C38  1  0.01168338  0.24275343  0.62760272  1
  C  C39  1  0.98831662  0.75724657  0.12760272  1
  Ni  Ni40  1  0.31533200  0.95374975  0.62452231  1
  Ni  Ni41  1  0.68466800  0.04625025  0.12452231  1
  Ni  Ni42  1  0.45374975  0.18466800  0.37452231  1
  Ni  Ni43  1  0.54625025  0.81533200  0.87452231  1
  Ni  Ni44  1  0.04625025  0.68466800  0.87547769  1
  Ni  Ni45  1  0.95374975  0.31533200  0.37547769  1
  Ni  Ni46  1  0.18466800  0.45374975  0.62547769  1
  Ni  Ni47  1  0.81533200  0.54625025  0.12547769  1
  Ni  Ni48  1  0.79405838  0.07666818  0.63257640  1
  Ni  Ni49  1  0.20594162  0.92333182  0.13257640  1
  Ni  Ni50  1  0.57666818  0.70594162  0.38257640  1
  Ni  Ni51  1  0.42333182  0.29405838  0.88257640  1
  Ni  Ni52  1  0.92333182  0.20594162  0.86742360  1
  Ni  Ni53  1  0.07666818  0.79405838  0.36742360  1
  Ni  Ni54  1  0.70594162  0.57666818  0.61742360  1
  Ni  Ni55  1  0.29405838  0.42333182  0.11742360  1
  Cu  Cu56  1  0.91684936  0.08315064  0.75000000  1
  Cu  Cu57  1  0.08315064  0.91684936  0.25000000  1
  Cu  Cu58  1  0.58315064  0.58315064  0.50000000  1
  Cu  Cu59  1  0.41684936  0.41684936  0.00000000  1
  Cu  Cu60  1  0.15780323  0.34224226  0.75376349  1
  Cu  Cu61  1  0.84219677  0.65775774  0.25376349  1
  Cu  Cu62  1  0.84224226  0.34219677  0.50376349  1
  Cu  Cu63  1  0.15775774  0.65780323  0.00376349  1
  Cu  Cu64  1  0.65775774  0.84219677  0.74623651  1
  Cu  Cu65  1  0.34224226  0.15780323  0.24623651  1
  Cu  Cu66  1  0.34219677  0.84224226  0.49623651  1
  Cu  Cu67  1  0.65780323  0.15775774  0.99623651  1
  Cu  Cu68  1  0.39908513  0.60091487  0.75000000  1
  Cu  Cu69  1  0.60091487  0.39908513  0.25000000  1
  Cu  Cu70  1  0.10091487  0.10091487  0.50000000  1
  Cu  Cu71  1  0.89908513  0.89908513  0.00000000  1
  Cu  Cu72  1  0.50517195  0.72287221  0.67736439  1
  Cu  Cu73  1  0.49482805  0.27712779  0.17736439  1
  Cu  Cu74  1  0.22287221  -0.00517195  0.42736439  1
  Cu  Cu75  1  0.77712779  0.00517195  0.92736439  1
  Cu  Cu76  1  0.27712779  0.49482805  0.82263561  1
  Cu  Cu77  1  0.72287221  0.50517195  0.32263561  1
  Cu  Cu78  1  -0.00517195  0.22287221  0.57263561  1
  Cu  Cu79  1  0.00517195  0.77712779  0.07263561  1
  Cu  Cu80  1  0.05667577  0.21407416  0.68126016  1
  Cu  Cu81  1  0.94332423  0.78592584  0.18126016  1
  Cu  Cu82  1  0.71407416  0.44332423  0.43126016  1
  Cu  Cu83  1  0.28592584  0.55667577  0.93126016  1
  Cu  Cu84  1  0.78592584  0.94332423  0.81873984  1
  Cu  Cu85  1  0.21407416  0.05667577  0.31873984  1
  Cu  Cu86  1  0.44332423  0.71407416  0.56873984  1
  Cu  Cu87  1  0.55667577  0.28592584  0.06873984  1
  Cu  Cu88  1  0.33570156  0.92226211  0.72641025  1
  Cu  Cu89  1  0.66429844  0.07773789  0.22641025  1
  Cu  Cu90  1  0.42226211  0.16429844  0.47641025  1
  Cu  Cu91  1  0.57773789  0.83570156  0.97641025  1
  Cu  Cu92  1  0.07773789  0.66429844  0.77358975  1
  Cu  Cu93  1  0.92226211  0.33570156  0.27358975  1
  Cu  Cu94  1  0.16429844  0.42226211  0.52358975  1
  Cu  Cu95  1  0.83570156  0.57773789  0.02358975  1
  Cu  Cu96  1  0.84412625  0.39964429  0.72381861  1
  Cu  Cu97  1  0.15587375  0.60035571  0.22381861  1
  Cu  Cu98  1  0.89964429  0.65587375  0.47381861  1
  Cu  Cu99  1  0.10035571  0.34412625  0.97381861  1
  Cu  Cu100  1  0.60035571  0.15587375  0.77618139  1
  Cu  Cu101  1  0.39964429  0.84412625  0.27618139  1
  Cu  Cu102  1  0.65587375  0.89964429  0.52618139  1
  Cu  Cu103  1  0.34412625  0.10035571  0.02618139  1
