# generated using pymatgen
data_CuNi12C71
_symmetry_space_group_name_H-M   'P 1'
_cell_length_a   11.04959139
_cell_length_b   11.04959139
_cell_length_c   11.04959139
_cell_angle_alpha   60.00000000
_cell_angle_beta   60.00000000
_cell_angle_gamma   60.00000000
_symmetry_Int_Tables_number   1
_chemical_formula_structural   CuNi12C71
_chemical_formula_sum   'Cu1 Ni12 C71'
_cell_volume   953.94570445
_cell_formula_units_Z   1
loop_
 _symmetry_equiv_pos_site_id
 _symmetry_equiv_pos_as_xyz
  1  'x, y, z'
loop_
 _atom_site_type_symbol
 _atom_site_label
 _atom_site_symmetry_multiplicity
 _atom_site_fract_x
 _atom_site_fract_y
 _atom_site_fract_z
 _atom_site_occupancy
  C  C0  1  0.00000000  0.00000000  0.00000000  1
  Ni  Ni1  1  0.70248400  0.70248400  0.42898400  1
  Ni  Ni2  1  0.70248400  0.16604900  0.42898400  1
  Ni  Ni3  1  0.16604900  0.70248400  0.42898400  1
  Ni  Ni4  1  0.70248400  0.70248400  0.16604900  1
  Ni  Ni5  1  0.16604900  0.70248400  0.70248400  1
  Ni  Ni6  1  0.70248400  0.16604900  0.70248400  1
  Ni  Ni7  1  0.42898400  0.16604900  0.70248400  1
  Ni  Ni8  1  0.42898400  0.70248400  0.70248400  1
  Ni  Ni9  1  0.42898400  0.70248400  0.16604900  1
  Ni  Ni10  1  0.16604900  0.42898400  0.70248400  1
  Ni  Ni11  1  0.70248400  0.42898400  0.16604900  1
  Ni  Ni12  1  0.70248400  0.42898400  0.70248400  1
  Cu  Cu13  1  0.50000000  0.50000000  0.50000000  1
  C  C14  1  0.13688500  0.13688500  0.58934600  1
  C  C15  1  0.13688500  0.13688500  0.13688500  1
  C  C16  1  0.58934600  0.13688500  0.13688500  1
  C  C17  1  0.13688500  0.58934600  0.13688500  1
  C  C18  1  0.31244200  0.31244200  0.80167700  1
  C  C19  1  0.31244200  0.57343900  0.80167700  1
  C  C20  1  0.57343900  0.31244200  0.80167700  1
  C  C21  1  0.31244200  0.31244200  0.57343900  1
  C  C22  1  0.57343900  0.31244200  0.31244200  1
  C  C23  1  0.31244200  0.57343900  0.31244200  1
  C  C24  1  0.80167700  0.57343900  0.31244200  1
  C  C25  1  0.80167700  0.31244200  0.31244200  1
  C  C26  1  0.80167700  0.31244200  0.57343900  1
  C  C27  1  0.57343900  0.80167700  0.31244200  1
  C  C28  1  0.31244200  0.80167700  0.57343900  1
  C  C29  1  0.31244200  0.80167700  0.31244200  1
  C  C30  1  0.58202500  0.58202500  0.25392500  1
  C  C31  1  0.58202500  0.58202500  0.58202500  1
  C  C32  1  0.25392500  0.58202500  0.58202500  1
  C  C33  1  0.58202500  0.25392500  0.58202500  1
  C  C34  1  0.81816700  0.81816700  0.28190900  1
  C  C35  1  0.81816700  0.08175800  0.28190900  1
  C  C36  1  0.08175800  0.81816700  0.28190900  1
  C  C37  1  0.81816700  0.81816700  0.08175800  1
  C  C38  1  0.08175800  0.81816700  0.81816700  1
  C  C39  1  0.81816700  0.08175800  0.81816700  1
  C  C40  1  0.28190900  0.08175800  0.81816700  1
  C  C41  1  0.28190900  0.81816700  0.81816700  1
  C  C42  1  0.28190900  0.81816700  0.08175800  1
  C  C43  1  0.08175800  0.28190900  0.81816700  1
  C  C44  1  0.81816700  0.28190900  0.08175800  1
  C  C45  1  0.81816700  0.28190900  0.81816700  1
  C  C46  1  0.57418800  0.57418800  0.81844800  1
  C  C47  1  0.57418800  0.03317600  0.81844800  1
  C  C48  1  0.03317600  0.57418800  0.81844800  1
  C  C49  1  0.57418800  0.57418800  0.03317600  1
  C  C50  1  0.03317600  0.57418800  0.57418800  1
  C  C51  1  0.57418800  0.03317600  0.57418800  1
  C  C52  1  0.81844800  0.03317600  0.57418800  1
  C  C53  1  0.81844800  0.57418800  0.57418800  1
  C  C54  1  0.81844800  0.57418800  0.03317600  1
  C  C55  1  0.03317600  0.81844800  0.57418800  1
  C  C56  1  0.57418800  0.81844800  0.03317600  1
  C  C57  1  0.57418800  0.81844800  0.57418800  1
  C  C58  1  0.04374400  0.04374400  0.26340100  1
  C  C59  1  0.04374400  0.64911100  0.26340100  1
  C  C60  1  0.64911100  0.04374400  0.26340100  1
  C  C61  1  0.04374400  0.04374400  0.64911100  1
  C  C62  1  0.64911100  0.04374400  0.04374400  1
  C  C63  1  0.04374400  0.64911100  0.04374400  1
  C  C64  1  0.26340100  0.64911100  0.04374400  1
  C  C65  1  0.26340100  0.04374400  0.04374400  1
  C  C66  1  0.26340100  0.04374400  0.64911100  1
  C  C67  1  0.64911100  0.26340100  0.04374400  1
  C  C68  1  0.04374400  0.26340100  0.64911100  1
  C  C69  1  0.04374400  0.26340100  0.04374400  1
  C  C70  1  0.19024600  0.19024600  0.42926300  1
  C  C71  1  0.19024600  0.19024600  0.19024600  1
  C  C72  1  0.42926300  0.19024600  0.19024600  1
  C  C73  1  0.19024600  0.42926300  0.19024600  1
  C  C74  1  0.41085700  0.41085700  0.76742800  1
  C  C75  1  0.41085700  0.41085700  0.41085700  1
  C  C76  1  0.76742800  0.41085700  0.41085700  1
  C  C77  1  0.41085700  0.76742800  0.41085700  1
  C  C78  1  0.52287300  0.52287300  0.97712700  1
  C  C79  1  0.52287300  0.97712700  0.97712700  1
  C  C80  1  0.97712700  0.52287300  0.97712700  1
  C  C81  1  0.97712700  0.52287300  0.52287300  1
  C  C82  1  0.52287300  0.97712700  0.52287300  1
  C  C83  1  0.97712700  0.97712700  0.52287300  1
