# generated using pymatgen
data_Cu3NiC9
_symmetry_space_group_name_H-M   'P 1'
_cell_length_a   11.66679851
_cell_length_b   11.66679851
_cell_length_c   9.47358079
_cell_angle_alpha   70.20275438
_cell_angle_beta   70.20275438
_cell_angle_gamma   110.99529751
_symmetry_Int_Tables_number   1
_chemical_formula_structural   Cu3NiC9
_chemical_formula_sum   'Cu18 Ni6 C54'
_cell_volume   964.96561898
_cell_formula_units_Z   6
loop_
 _symmetry_equiv_pos_site_id
 _symmetry_equiv_pos_as_xyz
  1  'x, y, z'
loop_
 _atom_site_type_symbol
 _atom_site_label
 _atom_site_symmetry_multiplicity
 _atom_site_fract_x
 _atom_site_fract_y
 _atom_site_fract_z
 _atom_site_occupancy
  Ni  Ni0  1  0.64067400  0.81726300  0.03469100  1
  Ni  Ni1  1  0.81726300  0.64067400  0.53469100  1
  Ni  Ni2  1  0.31079100  0.15156700  0.03126200  1
  Ni  Ni3  1  0.15156700  0.31079100  0.53126200  1
  Ni  Ni4  1  0.49282800  0.00343900  0.50165000  1
  Ni  Ni5  1  0.00343900  0.49282800  0.00165000  1
  Cu  Cu6  1  0.39601400  0.33428300  0.21105100  1
  Cu  Cu7  1  0.33428300  0.39601400  0.71105100  1
  Cu  Cu8  1  0.61590800  0.55984300  0.36860500  1
  Cu  Cu9  1  0.55984300  0.61590800  0.86860500  1
  Cu  Cu10  1  0.98497900  0.94834800  0.80388800  1
  Cu  Cu11  1  0.94834800  0.98497900  0.30388800  1
  Cu  Cu12  1  0.29577100  0.66504100  0.28439300  1
  Cu  Cu13  1  0.66504100  0.29577100  0.78439300  1
  Cu  Cu14  1  0.74291900  0.01756900  0.18902500  1
  Cu  Cu15  1  0.01756900  0.74291900  0.68902500  1
  Cu  Cu16  1  0.67815500  0.07586100  0.68634800  1
  Cu  Cu17  1  0.07586100  0.67815500  0.18634800  1
  Cu  Cu18  1  0.35666800  0.65024500  0.74570400  1
  Cu  Cu19  1  0.65024500  0.35666800  0.24570400  1
  Cu  Cu20  1  0.23807300  0.96584400  0.84353100  1
  Cu  Cu21  1  0.96584400  0.23807300  0.34353100  1
  Cu  Cu22  1  0.29873300  0.90793100  0.33685100  1
  Cu  Cu23  1  0.90793100  0.29873300  0.83685100  1
  C  C24  1  0.05805000  0.68115700  0.81682300  1
  C  C25  1  0.68115700  0.05805000  0.31682300  1
  C  C26  1  0.06058100  0.09694200  0.64975400  1
  C  C27  1  0.09694200  0.06058100  0.14975400  1
  C  C28  1  0.09308300  0.31325500  0.35703500  1
  C  C29  1  0.31325500  0.09308300  0.85703500  1
  C  C30  1  0.55631100  0.36976600  0.15668200  1
  C  C31  1  0.36976600  0.55631100  0.65668200  1
  C  C32  1  0.79303600  0.40623000  0.09904200  1
  C  C33  1  0.40623000  0.79303600  0.59904200  1
  C  C34  1  0.17143200  0.62712900  0.24157600  1
  C  C35  1  0.62712900  0.17143200  0.74157600  1
  C  C36  1  0.20099200  0.82326900  0.00111300  1
  C  C37  1  0.82326900  0.20099200  0.50111300  1
  C  C38  1  0.31321500  0.97366900  0.67407000  1
  C  C39  1  0.97366900  0.31321500  0.17407000  1
  C  C40  1  0.42673300  0.00140400  0.33678900  1
  C  C41  1  0.00140400  0.42673300  0.83678900  1
  C  C42  1  0.43873600  0.75893200  0.11283200  1
  C  C43  1  0.75893200  0.43873600  0.61283200  1
  C  C44  1  0.96147400  0.83875700  0.73563200  1
  C  C45  1  0.83875700  0.96147400  0.23563200  1
  C  C46  1  0.99731200  0.70940100  0.31490100  1
  C  C47  1  0.70940100  0.99731200  0.81490100  1
  C  C48  1  0.47471600  0.67666700  0.80030600  1
  C  C49  1  0.67666700  0.47471600  0.30030600  1
  C  C50  1  0.47363200  0.42774100  0.55397200  1
  C  C51  1  0.42774100  0.47363200  0.05397200  1
  C  C52  1  0.30942300  0.20394400  0.20936300  1
  C  C53  1  0.20394400  0.30942300  0.70936300  1
  C  C54  1  0.33026900  0.32946100  0.38107100  1
  C  C55  1  0.32946100  0.33026900  0.88107100  1
  C  C56  1  0.21143300  0.56734900  0.90979500  1
  C  C57  1  0.56734900  0.21143300  0.40979500  1
  C  C58  1  0.75294400  0.27624400  0.88092900  1
  C  C59  1  0.27624400  0.75294400  0.38092900  1
  C  C60  1  0.98640400  0.56613600  0.16122600  1
  C  C61  1  0.56613600  0.98640400  0.66122600  1
  C  C62  1  0.63621800  0.57792100  0.74770400  1
  C  C63  1  0.57792100  0.63621800  0.24770400  1
  C  C64  1  0.88847500  0.84245200  0.46040000  1
  C  C65  1  0.84245200  0.88847500  0.96040000  1
  C  C66  1  0.52462800  0.26037500  0.91920600  1
  C  C67  1  0.26037500  0.52462800  0.41920600  1
  C  C68  1  0.63722400  0.91039000  0.17325000  1
  C  C69  1  0.91039000  0.63722400  0.67325000  1
  C  C70  1  0.93134900  0.08006300  0.38848900  1
  C  C71  1  0.08006300  0.93134900  0.88848900  1
  C  C72  1  0.97212900  0.29616700  0.67174700  1
  C  C73  1  0.29616700  0.97212900  0.17174700  1
  C  C74  1  0.64962500  0.72175600  0.90038400  1
  C  C75  1  0.72175600  0.64962500  0.40038400  1
  C  C76  1  0.86636400  0.15756500  0.99944300  1
  C  C77  1  0.15756500  0.86636400  0.49944300  1
