# generated using pymatgen
data_Cu4NiC5
_symmetry_space_group_name_H-M   'P 1'
_cell_length_a   10.24539513
_cell_length_b   10.24539513
_cell_length_c   13.29172656
_cell_angle_alpha   82.22899317
_cell_angle_beta   82.22899317
_cell_angle_gamma   38.22941842
_symmetry_Int_Tables_number   1
_chemical_formula_structural   Cu4NiC5
_chemical_formula_sum   'Cu16 Ni4 C20'
_cell_volume   854.48477485
_cell_formula_units_Z   4
loop_
 _symmetry_equiv_pos_site_id
 _symmetry_equiv_pos_as_xyz
  1  'x, y, z'
loop_
 _atom_site_type_symbol
 _atom_site_label
 _atom_site_symmetry_multiplicity
 _atom_site_fract_x
 _atom_site_fract_y
 _atom_site_fract_z
 _atom_site_occupancy
  C  C0  1  0.00000000  0.00000000  0.00000000  1
  C  C1  1  0.00000000  0.00000000  0.50000000  1
  C  C2  1  0.81660000  0.78709000  0.92021400  1
  C  C3  1  0.21291000  0.18340000  0.57978600  1
  C  C4  1  0.18340000  0.21291000  0.07978600  1
  C  C5  1  0.78709000  0.81660000  0.42021400  1
  C  C6  1  0.24473200  0.51492600  0.21870800  1
  C  C7  1  0.48507400  0.75526800  0.28129200  1
  C  C8  1  0.75526800  0.48507400  0.78129200  1
  C  C9  1  0.51492600  0.24473200  0.71870800  1
  C  C10  1  0.44198300  0.38195800  0.29312700  1
  C  C11  1  0.61804200  0.55801700  0.20687300  1
  C  C12  1  0.55801700  0.61804200  0.70687300  1
  C  C13  1  0.38195800  0.44198300  0.79312700  1
  C  C14  1  0.46823400  0.40869200  0.16874000  1
  C  C15  1  0.59130800  0.53176600  0.33126000  1
  C  C16  1  0.53176600  0.59130800  0.83126000  1
  C  C17  1  0.40869200  0.46823400  0.66874000  1
  C  C18  1  0.22939500  0.77060500  0.25000000  1
  C  C19  1  0.77060500  0.22939500  0.75000000  1
  Ni  Ni20  1  0.36377300  0.48485700  0.23069400  1
  Ni  Ni21  1  0.51514300  0.63622700  0.26930600  1
  Ni  Ni22  1  0.63622700  0.51514300  0.76930600  1
  Ni  Ni23  1  0.48485700  0.36377300  0.73069400  1
  Cu  Cu24  1  0.77577900  0.34925100  0.03340000  1
  Cu  Cu25  1  0.65074900  0.22422100  0.46660000  1
  Cu  Cu26  1  0.22422100  0.65074900  0.96660000  1
  Cu  Cu27  1  0.34925100  0.77577900  0.53340000  1
  Cu  Cu28  1  0.58648200  0.11160200  0.99244800  1
  Cu  Cu29  1  0.88839800  0.41351800  0.50755200  1
  Cu  Cu30  1  0.41351800  0.88839800  0.00755200  1
  Cu  Cu31  1  0.11160200  0.58648200  0.49244800  1
  Cu  Cu32  1  0.02539700  0.46716100  0.85040900  1
  Cu  Cu33  1  0.53283900  0.97460300  0.64959100  1
  Cu  Cu34  1  0.97460300  0.53283900  0.14959100  1
  Cu  Cu35  1  0.46716100  0.02539700  0.35040900  1
  Cu  Cu36  1  0.90786200  0.92672500  0.22735000  1
  Cu  Cu37  1  0.07327500  0.09213800  0.27265000  1
  Cu  Cu38  1  0.09213800  0.07327500  0.77265000  1
  Cu  Cu39  1  0.92672500  0.90786200  0.72735000  1
