# generated using pymatgen
data_Cu31Ni15C16
_symmetry_space_group_name_H-M   'P 1'
_cell_length_a   10.02252239
_cell_length_b   10.02252239
_cell_length_c   10.02252239
_cell_angle_alpha   109.47122063
_cell_angle_beta   109.47122063
_cell_angle_gamma   109.47122063
_symmetry_Int_Tables_number   1
_chemical_formula_structural   Cu31Ni15C16
_chemical_formula_sum   'Cu31 Ni15 C16'
_cell_volume   775.01340558
_cell_formula_units_Z   1
loop_
 _symmetry_equiv_pos_site_id
 _symmetry_equiv_pos_as_xyz
  1  'x, y, z'
loop_
 _atom_site_type_symbol
 _atom_site_label
 _atom_site_symmetry_multiplicity
 _atom_site_fract_x
 _atom_site_fract_y
 _atom_site_fract_z
 _atom_site_occupancy
  C  C0  1  0.00000000  0.00000000  0.50000000  1
  C  C1  1  0.50000000  0.00000000  0.00000000  1
  C  C2  1  0.00000000  0.50000000  0.00000000  1
  C  C3  1  0.50000000  0.50000000  0.50000000  1
  C  C4  1  0.78920100  0.66942400  0.45862400  1
  C  C5  1  0.78920100  0.33057600  0.11977700  1
  C  C6  1  0.21079900  0.66942400  0.88022300  1
  C  C7  1  0.21079900  0.33057600  0.54137600  1
  C  C8  1  0.66942400  0.45862400  0.78920100  1
  C  C9  1  0.33057600  0.11977700  0.78920100  1
  C  C10  1  0.66942400  0.88022300  0.21079900  1
  C  C11  1  0.33057600  0.54137600  0.21079900  1
  C  C12  1  0.45862400  0.78920100  0.66942400  1
  C  C13  1  0.11977700  0.78920100  0.33057600  1
  C  C14  1  0.88022300  0.21079900  0.66942400  1
  C  C15  1  0.54137600  0.21079900  0.33057600  1
  Ni  Ni16  1  0.74111600  0.75151300  0.49262900  1
  Ni  Ni17  1  0.74111600  0.24848700  0.98960300  1
  Ni  Ni18  1  0.25888400  0.75151300  0.01039700  1
  Ni  Ni19  1  0.25888400  0.24848700  0.50737100  1
  Ni  Ni20  1  0.75151300  0.49262900  0.74111600  1
  Ni  Ni21  1  0.24848700  0.98960300  0.74111600  1
  Ni  Ni22  1  0.75151300  0.01039700  0.25888400  1
  Ni  Ni23  1  0.24848700  0.50737100  0.25888400  1
  Ni  Ni24  1  0.49262900  0.74111600  0.75151300  1
  Ni  Ni25  1  0.98960300  0.74111600  0.24848700  1
  Ni  Ni26  1  0.01039700  0.25888400  0.75151300  1
  Ni  Ni27  1  0.50737100  0.25888400  0.24848700  1
  Ni  Ni28  1  0.50000000  0.50000000  0.00000000  1
  Ni  Ni29  1  0.50000000  0.00000000  0.50000000  1
  Ni  Ni30  1  0.00000000  0.50000000  0.50000000  1
  Cu  Cu31  1  0.80986000  0.89340500  0.51158200  1
  Cu  Cu32  1  0.61817700  0.10659500  0.91645500  1
  Cu  Cu33  1  0.19014000  0.70172200  0.08354500  1
  Cu  Cu34  1  0.38182300  0.29827800  0.48841800  1
  Cu  Cu35  1  0.89340500  0.51158200  0.80986000  1
  Cu  Cu36  1  0.10659500  0.91645500  0.61817700  1
  Cu  Cu37  1  0.70172200  0.08354500  0.19014000  1
  Cu  Cu38  1  0.29827800  0.48841800  0.38182300  1
  Cu  Cu39  1  0.51158200  0.80986000  0.89340500  1
  Cu  Cu40  1  0.91645500  0.61817700  0.10659500  1
  Cu  Cu41  1  0.08354500  0.19014000  0.70172200  1
  Cu  Cu42  1  0.48841800  0.38182300  0.29827800  1
  Cu  Cu43  1  0.19014000  0.10659500  0.48841800  1
  Cu  Cu44  1  0.38182300  0.89340500  0.08354500  1
  Cu  Cu45  1  0.80986000  0.29827800  0.91645500  1
  Cu  Cu46  1  0.61817700  0.70172200  0.51158200  1
  Cu  Cu47  1  0.10659500  0.48841800  0.19014000  1
  Cu  Cu48  1  0.89340500  0.08354500  0.38182300  1
  Cu  Cu49  1  0.29827800  0.91645500  0.80986000  1
  Cu  Cu50  1  0.70172200  0.51158200  0.61817700  1
  Cu  Cu51  1  0.48841800  0.19014000  0.10659500  1
  Cu  Cu52  1  0.08354500  0.38182300  0.89340500  1
  Cu  Cu53  1  0.91645500  0.80986000  0.29827800  1
  Cu  Cu54  1  0.51158200  0.61817700  0.70172200  1
  Cu  Cu55  1  0.50000000  0.60154000  0.10154000  1
  Cu  Cu56  1  0.50000000  0.39846000  0.89846000  1
  Cu  Cu57  1  0.60154000  0.10154000  0.50000000  1
  Cu  Cu58  1  0.39846000  0.89846000  0.50000000  1
  Cu  Cu59  1  0.10154000  0.50000000  0.60154000  1
  Cu  Cu60  1  0.89846000  0.50000000  0.39846000  1
  Cu  Cu61  1  0.00000000  0.00000000  0.00000000  1
