# generated using pymatgen
data_Cu11(Ni2C3)3
_symmetry_space_group_name_H-M   'P 1'
_cell_length_a   10.68725370
_cell_length_b   10.68725370
_cell_length_c   16.20988267
_cell_angle_alpha   86.61480479
_cell_angle_beta   86.61480479
_cell_angle_gamma   61.67342564
_symmetry_Int_Tables_number   1
_chemical_formula_structural   Cu11(Ni2C3)3
_chemical_formula_sum   'Cu66 Ni36 C54'
_cell_volume   1625.89454844
_cell_formula_units_Z   6
loop_
 _symmetry_equiv_pos_site_id
 _symmetry_equiv_pos_as_xyz
  1  'x, y, z'
loop_
 _atom_site_type_symbol
 _atom_site_label
 _atom_site_symmetry_multiplicity
 _atom_site_fract_x
 _atom_site_fract_y
 _atom_site_fract_z
 _atom_site_occupancy
  C  C0  1  0.57652200  0.02069300  0.41163300  1
  C  C1  1  0.42347800  0.97930700  0.58836700  1
  C  C2  1  0.97930700  0.42347800  0.08836700  1
  C  C3  1  0.02069300  0.57652200  0.91163300  1
  C  C4  1  0.22111200  0.21110400  0.16581600  1
  C  C5  1  0.77888800  0.78889600  0.83418400  1
  C  C6  1  0.78889600  0.77888800  0.33418400  1
  C  C7  1  0.21110400  0.22111200  0.66581600  1
  C  C8  1  0.39944100  0.60184400  0.99928300  1
  C  C9  1  0.60055900  0.39815600  0.00071700  1
  C  C10  1  0.39815600  0.60055900  0.50071700  1
  C  C11  1  0.60184400  0.39944100  0.49928300  1
  C  C12  1  0.26456100  0.95947700  0.12658000  1
  C  C13  1  0.73543900  0.04052300  0.87342000  1
  C  C14  1  0.04052300  0.73543900  0.37342000  1
  C  C15  1  0.95947700  0.26456100  0.62658000  1
  C  C16  1  0.19067300  0.00412200  0.34456900  1
  C  C17  1  0.80932700  0.99587800  0.65543100  1
  C  C18  1  0.99587800  0.80932700  0.15543100  1
  C  C19  1  0.00412200  0.19067300  0.84456900  1
  C  C20  1  0.31720300  0.05551600  0.37352000  1
  C  C21  1  0.68279700  0.94448400  0.62648000  1
  C  C22  1  0.94448400  0.68279700  0.12648000  1
  C  C23  1  0.05551600  0.31720300  0.87352000  1
  C  C24  1  0.71228100  0.01939100  0.18738700  1
  C  C25  1  0.28771900  0.98060900  0.81261300  1
  C  C26  1  0.98060900  0.28771900  0.31261300  1
  C  C27  1  0.01939100  0.71228100  0.68738700  1
  C  C28  1  0.20068900  0.84183600  0.15853800  1
  C  C29  1  0.79931100  0.15816400  0.84146200  1
  C  C30  1  0.15816400  0.79931100  0.34146200  1
  C  C31  1  0.84183600  0.20068900  0.65853800  1
  C  C32  1  0.60037800  0.20482200  0.18151000  1
  C  C33  1  0.39962200  0.79517800  0.81849000  1
  C  C34  1  0.79517800  0.39962200  0.31849000  1
  C  C35  1  0.20482200  0.60037800  0.68151000  1
  C  C36  1  0.38758400  0.14328200  0.21037900  1
  C  C37  1  0.61241600  0.85671800  0.78962100  1
  C  C38  1  0.85671800  0.61241600  0.28962100  1
  C  C39  1  0.14328200  0.38758400  0.71037900  1
  C  C40  1  0.79304800  0.88345900  0.03310600  1
  C  C41  1  0.20695200  0.11654100  0.96689400  1
  C  C42  1  0.11654100  0.20695200  0.46689400  1
  C  C43  1  0.88345900  0.79304800  0.53310600  1
  C  C44  1  0.33273900  0.78403400  0.00392200  1
  C  C45  1  0.66726100  0.21596600  0.99607800  1
  C  C46  1  0.21596600  0.66726100  0.49607800  1
  C  C47  1  0.78403400  0.33273900  0.50392200  1
  C  C48  1  0.56736100  0.43263900  0.25000000  1
  C  C49  1  0.43263900  0.56736100  0.75000000  1
  C  C50  1  0.61213000  0.99271200  0.02213600  1
  C  C51  1  0.38787000  0.00728800  0.97786400  1
  C  C52  1  0.00728800  0.38787000  0.47786400  1
  C  C53  1  0.99271200  0.61213000  0.52213600  1
  Ni  Ni54  1  0.04957700  0.04800400  0.12952300  1
  Ni  Ni55  1  0.95042300  0.95199600  0.87047700  1
  Ni  Ni56  1  0.95199600  0.95042300  0.37047700  1
  Ni  Ni57  1  0.04800400  0.04957700  0.62952300  1
  Ni  Ni58  1  0.67500300  0.78162100  0.04846200  1
  Ni  Ni59  1  0.32499700  0.21837900  0.95153800  1
  Ni  Ni60  1  0.21837900  0.32499700  0.45153800  1
  Ni  Ni61  1  0.78162100  0.67500300  0.54846200  1
  Ni  Ni62  1  0.40323800  0.86041800  0.32407600  1
  Ni  Ni63  1  0.59676200  0.13958200  0.67592400  1
  Ni  Ni64  1  0.13958200  0.59676200  0.17592400  1
  Ni  Ni65  1  0.86041800  0.40323800  0.82407600  1
  Ni  Ni66  1  0.64090100  0.71713600  0.31049900  1
  Ni  Ni67  1  0.35909900  0.28286400  0.68950100  1
  Ni  Ni68  1  0.28286400  0.35909900  0.18950100  1
  Ni  Ni69  1  0.71713600  0.64090100  0.81049900  1
  Ni  Ni70  1  0.81132400  0.13576400  0.14802800  1
  Ni  Ni71  1  0.18867600  0.86423600  0.85197200  1
  Ni  Ni72  1  0.86423600  0.18867600  0.35197200  1
  Ni  Ni73  1  0.13576400  0.81132400  0.64802800  1
  Ni  Ni74  1  0.45784600  0.23081100  0.43485400  1
  Ni  Ni75  1  0.54215400  0.76918900  0.56514600  1
  Ni  Ni76  1  0.76918900  0.54215400  0.06514600  1
  Ni  Ni77  1  0.23081100  0.45784600  0.93485400  1
  Ni  Ni78  1  0.71651300  0.09864600  0.39181100  1
  Ni  Ni79  1  0.28348700  0.90135400  0.60818900  1
  Ni  Ni80  1  0.90135400  0.28348700  0.10818900  1
  Ni  Ni81  1  0.09864600  0.71651300  0.89181100  1
  Ni  Ni82  1  0.53858300  0.67552600  0.03284300  1
  Ni  Ni83  1  0.46141700  0.32447400  0.96715700  1
  Ni  Ni84  1  0.32447400  0.46141700  0.46715700  1
  Ni  Ni85  1  0.67552600  0.53858300  0.53284300  1
  Ni  Ni86  1  0.48768300  0.63853100  0.27730100  1
  Ni  Ni87  1  0.51231700  0.36146900  0.72269900  1
  Ni  Ni88  1  0.36147000  0.51231700  0.22269900  1
  Ni  Ni89  1  0.63853100  0.48768300  0.77730100  1
  Cu  Cu90  1  0.69231900  0.89961000  0.04520200  1
  Cu  Cu91  1  0.30768100  0.10039000  0.95479800  1
  Cu  Cu92  1  0.10039000  0.30768100  0.45479800  1
  Cu  Cu93  1  0.89961000  0.69231900  0.54520200  1
  Cu  Cu94  1  0.29402100  0.98556600  0.34573900  1
  Cu  Cu95  1  0.70597900  0.01443400  0.65426100  1
  Cu  Cu96  1  0.01443400  0.70597900  0.15426100  1
  Cu  Cu97  1  0.98556600  0.29402100  0.84573900  1
  Cu  Cu98  1  0.94047300  0.01892600  0.14558900  1
  Cu  Cu99  1  0.05952700  0.98107400  0.85441100  1
  Cu  Cu100  1  0.98107400  0.05952700  0.35441100  1
  Cu  Cu101  1  0.01892600  0.94047300  0.64558900  1
  Cu  Cu102  1  0.37250100  0.76079200  0.29577700  1
  Cu  Cu103  1  0.62749900  0.23920800  0.70422300  1
  Cu  Cu104  1  0.23920800  0.62749900  0.20422300  1
  Cu  Cu105  1  0.76079200  0.37250100  0.79577700  1
  Cu  Cu106  1  0.65642400  0.79090700  0.56642500  1
  Cu  Cu107  1  0.34357600  0.20909300  0.43357500  1
  Cu  Cu108  1  0.20909300  0.34357600  0.93357500  1
  Cu  Cu109  1  0.79090700  0.65642400  0.06642500  1
  Cu  Cu110  1  0.53509400  0.84544900  0.33121300  1
  Cu  Cu111  1  0.46490600  0.15455100  0.66878700  1
  Cu  Cu112  1  0.15455100  0.46490600  0.16878700  1
  Cu  Cu113  1  0.84544900  0.53509400  0.83121300  1
  Cu  Cu114  1  0.69755100  0.11817800  0.17107000  1
  Cu  Cu115  1  0.30244900  0.88182200  0.82893000  1
  Cu  Cu116  1  0.88182200  0.30244900  0.32893000  1
  Cu  Cu117  1  0.11817800  0.69755100  0.67107000  1
  Cu  Cu118  1  0.58445500  0.11181300  0.41513800  1
  Cu  Cu119  1  0.41554500  0.88818700  0.58486200  1
  Cu  Cu120  1  0.88818700  0.41554500  0.08486200  1
  Cu  Cu121  1  0.11181300  0.58445500  0.91513800  1
  Cu  Cu122  1  0.82138600  0.96247400  0.38914400  1
  Cu  Cu123  1  0.17861400  0.03752600  0.61085600  1
  Cu  Cu124  1  0.03752600  0.17861400  0.11085600  1
  Cu  Cu125  1  0.96247400  0.82138600  0.88914400  1
  Cu  Cu126  1  0.41263200  0.68558600  0.01675300  1
  Cu  Cu127  1  0.58736800  0.31441400  0.98324700  1
  Cu  Cu128  1  0.31441400  0.58736800  0.48324700  1
  Cu  Cu129  1  0.68558600  0.41263200  0.51675300  1
  Cu  Cu130  1  0.47442700  0.52557300  0.25000000  1
  Cu  Cu131  1  0.52557300  0.47442700  0.75000000  1
  Cu  Cu132  1  0.54418000  0.79929100  0.03603100  1
  Cu  Cu133  1  0.45582000  0.20070900  0.96396900  1
  Cu  Cu134  1  0.20070900  0.45582000  0.46396900  1
  Cu  Cu135  1  0.79929100  0.54418000  0.53603100  1
  Cu  Cu136  1  0.45689600  0.35036100  0.45556800  1
  Cu  Cu137  1  0.54310400  0.64963900  0.54443200  1
  Cu  Cu138  1  0.64963900  0.54310400  0.04443200  1
  Cu  Cu139  1  0.35036100  0.45689600  0.95556800  1
  Cu  Cu140  1  0.18244100  0.93696900  0.13011500  1
  Cu  Cu141  1  0.81755900  0.06303100  0.86988500  1
  Cu  Cu142  1  0.06303100  0.81755900  0.36988500  1
  Cu  Cu143  1  0.93696900  0.18244100  0.63011500  1
  Cu  Cu144  1  0.39245600  0.37503200  0.21537300  1
  Cu  Cu145  1  0.60754400  0.62496800  0.78462700  1
  Cu  Cu146  1  0.62496800  0.60754400  0.28462700  1
  Cu  Cu147  1  0.37503200  0.39245600  0.71537300  1
  Cu  Cu148  1  0.72926800  0.21485700  0.37177300  1
  Cu  Cu149  1  0.27073200  0.78514300  0.62822700  1
  Cu  Cu150  1  0.78514300  0.27073200  0.12822700  1
  Cu  Cu151  1  0.21485700  0.72926800  0.87177300  1
  Cu  Cu152  1  0.30362900  0.22497300  0.18307600  1
  Cu  Cu153  1  0.69637100  0.77502700  0.81692400  1
  Cu  Cu154  1  0.77502700  0.69637100  0.31692400  1
  Cu  Cu155  1  0.22497300  0.30362900  0.68307600  1
