# generated using pymatgen
data_Cu3NiC9
_symmetry_space_group_name_H-M   'P 1'
_cell_length_a   4.80013147
_cell_length_b   8.22971635
_cell_length_c   16.09645400
_cell_angle_alpha   90.00000000
_cell_angle_beta   90.00000000
_cell_angle_gamma   105.84875977
_symmetry_Int_Tables_number   1
_chemical_formula_structural   Cu3NiC9
_chemical_formula_sum   'Cu12 Ni4 C36'
_cell_volume   611.69781915
_cell_formula_units_Z   4
loop_
 _symmetry_equiv_pos_site_id
 _symmetry_equiv_pos_as_xyz
  1  'x, y, z'
loop_
 _atom_site_type_symbol
 _atom_site_label
 _atom_site_symmetry_multiplicity
 _atom_site_fract_x
 _atom_site_fract_y
 _atom_site_fract_z
 _atom_site_occupancy
  C  C0  1  0.57952200  0.17219000  0.17908500  1
  C  C1  1  0.92047800  0.32781000  0.67908500  1
  C  C2  1  0.42047800  0.82781000  0.82091500  1
  C  C3  1  0.07952200  0.67219000  0.32091500  1
  C  C4  1  0.95968800  0.91446900  0.16659400  1
  C  C5  1  0.54031200  0.58553100  0.66659300  1
  C  C6  1  0.04031200  0.08553100  0.83340700  1
  C  C7  1  0.45968800  0.41446900  0.33340600  1
  C  C8  1  0.52733800  0.58423900  0.13765400  1
  C  C9  1  0.97266200  0.91576100  0.63765400  1
  C  C10  1  0.47266200  0.41576100  0.86234600  1
  C  C11  1  0.02733800  0.08423900  0.36234600  1
  C  C12  1  0.33631300  0.72508000  0.14934900  1
  C  C13  1  0.16368700  0.77492000  0.64934900  1
  C  C14  1  0.66368700  0.27492000  0.85065100  1
  C  C15  1  0.83631300  0.22508000  0.35065100  1
  C  C16  1  0.34198400  0.63079700  0.05749900  1
  C  C17  1  0.15801600  0.86920300  0.55749900  1
  C  C18  1  0.65801600  0.36920300  0.94250100  1
  C  C19  1  0.84198400  0.13079700  0.44250100  1
  C  C20  1  0.85066400  0.75879000  0.03622600  1
  C  C21  1  0.64933600  0.74121000  0.53622600  1
  C  C22  1  0.14933600  0.24121000  0.96377400  1
  C  C23  1  0.35066400  0.25879000  0.46377400  1
  C  C24  1  0.65402100  0.91221700  0.04578100  1
  C  C25  1  0.84597900  0.58778300  0.54578100  1
  C  C26  1  0.34597900  0.08778300  0.95421900  1
  C  C27  1  0.15402100  0.41221700  0.45421900  1
  C  C28  1  0.72811500  0.81641100  0.07967700  1
  C  C29  1  0.77188500  0.68358900  0.57967700  1
  C  C30  1  0.27188500  0.18358900  0.92032300  1
  C  C31  1  0.22811500  0.31641100  0.42032300  1
  Ni  Ni32  1  0.46860500  0.68137600  0.10821400  1
  Ni  Ni33  1  0.03139500  0.81862400  0.60821400  1
  Ni  Ni34  1  0.53139500  0.31862400  0.89178600  1
  Ni  Ni35  1  0.96860500  0.18137600  0.39178600  1
  C  C36  1  0.79732300  0.37027300  0.08493000  1
  C  C37  1  0.70267700  0.12972700  0.58493000  1
  C  C38  1  0.20267700  0.62972700  0.91507000  1
  C  C39  1  0.29732300  0.87027300  0.41507000  1
  Cu  Cu40  1  0.23358400  0.02428000  0.12438800  1
  Cu  Cu41  1  0.26641600  0.47572000  0.62438800  1
  Cu  Cu42  1  0.76641600  0.97572000  0.87561200  1
  Cu  Cu43  1  0.73358400  0.52428000  0.37561200  1
  Cu  Cu44  1  0.51964500  0.26262900  0.28773100  1
  Cu  Cu45  1  0.98035500  0.23737100  0.78773100  1
  Cu  Cu46  1  0.48035500  0.73737100  0.71226900  1
  Cu  Cu47  1  0.01964500  0.76262900  0.21226900  1
  Cu  Cu48  1  0.79489900  0.01093200  0.22080600  1
  Cu  Cu49  1  0.70510100  0.48906800  0.72080600  1
  Cu  Cu50  1  0.20510100  0.98906800  0.77919400  1
  Cu  Cu51  1  0.29489900  0.51093200  0.27919400  1
