# generated using pymatgen
data_CuNiC4
_symmetry_space_group_name_H-M   'P 1'
_cell_length_a   5.73707100
_cell_length_b   7.47392200
_cell_length_c   9.04095600
_cell_angle_alpha   90.00000000
_cell_angle_beta   90.00000000
_cell_angle_gamma   90.00000000
_symmetry_Int_Tables_number   1
_chemical_formula_structural   CuNiC4
_chemical_formula_sum   'Cu4 Ni4 C16'
_cell_volume   387.66191908
_cell_formula_units_Z   4
loop_
 _symmetry_equiv_pos_site_id
 _symmetry_equiv_pos_as_xyz
  1  'x, y, z'
loop_
 _atom_site_type_symbol
 _atom_site_label
 _atom_site_symmetry_multiplicity
 _atom_site_fract_x
 _atom_site_fract_y
 _atom_site_fract_z
 _atom_site_occupancy
  Ni  Ni0  1  0.75000000  0.82455300  0.68024400  1
  Ni  Ni1  1  0.75000000  0.67544700  0.18024400  1
  Ni  Ni2  1  0.25000000  0.17544700  0.31975600  1
  Ni  Ni3  1  0.25000000  0.32455300  0.81975600  1
  Cu  Cu4  1  0.25000000  0.80731100  0.93120300  1
  Cu  Cu5  1  0.25000000  0.69268900  0.43120300  1
  Cu  Cu6  1  0.75000000  0.19268900  0.06879700  1
  Cu  Cu7  1  0.75000000  0.30731100  0.56879700  1
  C  C8  1  0.46008700  0.69617400  0.91917500  1
  C  C9  1  0.03991300  0.80382600  0.41917500  1
  C  C10  1  0.96008700  0.30382600  0.08082500  1
  C  C11  1  0.53991300  0.19617400  0.58082500  1
  C  C12  1  0.53991300  0.30382600  0.08082500  1
  C  C13  1  0.96008700  0.19617400  0.58082500  1
  C  C14  1  0.03991300  0.69617400  0.91917500  1
  C  C15  1  0.46008700  0.80382600  0.41917500  1
  C  C16  1  0.25000000  0.89704800  0.07355800  1
  C  C17  1  0.25000000  0.60295200  0.57355800  1
  C  C18  1  0.75000000  0.10295200  0.92644200  1
  C  C19  1  0.75000000  0.39704800  0.42644200  1
  C  C20  1  0.25000000  0.93648500  0.81092500  1
  C  C21  1  0.25000000  0.56351500  0.31092500  1
  C  C22  1  0.75000000  0.06351500  0.18907500  1
  C  C23  1  0.75000000  0.43648500  0.68907500  1
