# generated using pymatgen
data_CuNiC8
_symmetry_space_group_name_H-M   'P 1'
_cell_length_a   7.71650900
_cell_length_b   5.26218900
_cell_length_c   5.34078928
_cell_angle_alpha   89.17900396
_cell_angle_beta   90.00000000
_cell_angle_gamma   90.00000000
_symmetry_Int_Tables_number   1
_chemical_formula_structural   CuNiC8
_chemical_formula_sum   'Cu2 Ni2 C16'
_cell_volume   216.84437766
_cell_formula_units_Z   2
loop_
 _symmetry_equiv_pos_site_id
 _symmetry_equiv_pos_as_xyz
  1  'x, y, z'
loop_
 _atom_site_type_symbol
 _atom_site_label
 _atom_site_symmetry_multiplicity
 _atom_site_fract_x
 _atom_site_fract_y
 _atom_site_fract_z
 _atom_site_occupancy
  Ni  Ni0  1  0.00000000  0.00000000  0.50000000  1
  Ni  Ni1  1  0.50000000  0.00000000  0.50000000  1
  C  C2  1  0.75000000  0.01589400  0.01747400  1
  C  C3  1  0.75000000  0.50337600  0.54630100  1
  C  C4  1  0.25000000  0.49662400  0.45369900  1
  C  C5  1  0.25000000  0.98410600  0.98252600  1
  Cu  Cu6  1  0.00000000  0.50000000  0.00000000  1
  Cu  Cu7  1  0.50000000  0.50000000  0.00000000  1
  C  C8  1  0.43631200  0.16709200  0.17948400  1
  C  C9  1  0.56482500  0.68015400  0.32745400  1
  C  C10  1  0.56368800  0.83290800  0.82051600  1
  C  C11  1  0.06482500  0.31984600  0.67254600  1
  C  C12  1  0.25000000  0.87924800  0.56519000  1
  C  C13  1  0.43517500  0.31984600  0.67254600  1
  C  C14  1  0.93517500  0.68015400  0.32745400  1
  C  C15  1  0.06368800  0.16709200  0.17948400  1
  C  C16  1  0.75000000  0.38519900  0.92022500  1
  C  C17  1  0.93631200  0.83290800  0.82051600  1
  C  C18  1  0.25000000  0.61480100  0.07977500  1
  C  C19  1  0.75000000  0.12075200  0.43481000  1
