# generated using pymatgen
data_Cu9Ni5C2
_symmetry_space_group_name_H-M   'P 1'
_cell_length_a   8.30963841
_cell_length_b   11.13348657
_cell_length_c   36.08888796
_cell_angle_alpha   90.00000000
_cell_angle_beta   90.00000000
_cell_angle_gamma   90.00000000
_symmetry_Int_Tables_number   1
_chemical_formula_structural   Cu9Ni5C2
_chemical_formula_sum   'Cu72 Ni40 C16'
_cell_volume   3338.77240665
_cell_formula_units_Z   8
loop_
 _symmetry_equiv_pos_site_id
 _symmetry_equiv_pos_as_xyz
  1  'x, y, z'
loop_
 _atom_site_type_symbol
 _atom_site_label
 _atom_site_symmetry_multiplicity
 _atom_site_fract_x
 _atom_site_fract_y
 _atom_site_fract_z
 _atom_site_occupancy
  C  C0  1  0.36495382  0.15854187  0.12274089  1
  C  C1  1  0.63504618  0.84145813  0.87725911  1
  C  C2  1  0.13504618  0.84145813  0.62274089  1
  C  C3  1  0.63504618  0.65854187  0.37725911  1
  C  C4  1  0.86495382  0.15854187  0.37725911  1
  C  C5  1  0.36495382  0.34145813  0.62274089  1
  C  C6  1  0.86495382  0.34145813  0.87725911  1
  C  C7  1  0.13504618  0.65854187  0.12274089  1
  Ni  Ni8  1  0.04318824  0.11824849  0.02915892  1
  Ni  Ni9  1  0.95681176  0.88175151  0.97084108  1
  Ni  Ni10  1  0.45681176  0.88175151  0.52915892  1
  Ni  Ni11  1  0.95681176  0.61824849  0.47084108  1
  Ni  Ni12  1  0.54318824  0.11824849  0.47084108  1
  Ni  Ni13  1  0.04318824  0.38175151  0.52915892  1
  Ni  Ni14  1  0.54318824  0.38175151  0.97084108  1
  Ni  Ni15  1  0.45681176  0.61824849  0.02915892  1
  Ni  Ni16  1  0.37433432  0.40175655  0.31505504  1
  Ni  Ni17  1  0.62566568  0.59824345  0.68494496  1
  Ni  Ni18  1  0.12566568  0.59824345  0.81505504  1
  Ni  Ni19  1  0.62566568  0.90175655  0.18494496  1
  Ni  Ni20  1  0.87433432  0.40175655  0.18494496  1
  Ni  Ni21  1  0.37433432  0.09824345  0.81505504  1
  Ni  Ni22  1  0.87433432  0.09824345  0.68494496  1
  Ni  Ni23  1  0.12566568  0.90175655  0.31505504  1
  Ni  Ni24  1  0.28371198  0.36402405  0.45165996  1
  Ni  Ni25  1  0.71628802  0.63597595  0.54834004  1
  Ni  Ni26  1  0.21628802  0.63597595  0.95165996  1
  Ni  Ni27  1  0.71628802  0.86402405  0.04834004  1
  Ni  Ni28  1  0.78371198  0.36402405  0.04834004  1
  Ni  Ni29  1  0.28371198  0.13597595  0.95165996  1
  Ni  Ni30  1  0.78371198  0.13597595  0.54834004  1
  Ni  Ni31  1  0.21628802  0.86402405  0.45165996  1
  Ni  Ni32  1  0.36444763  0.05962185  0.38465309  1
  Ni  Ni33  1  0.63555237  0.94037815  0.61534691  1
  Ni  Ni34  1  0.13555237  0.94037815  0.88465309  1
  Ni  Ni35  1  0.63555237  0.55962185  0.11534691  1
  Ni  Ni36  1  0.86444763  0.05962185  0.11534691  1
  Ni  Ni37  1  0.36444763  0.44037815  0.88465309  1
  Ni  Ni38  1  0.86444763  0.44037815  0.61534691  1
  Ni  Ni39  1  0.13555237  0.55962185  0.38465309  1
  Ni  Ni40  1  0.29396579  0.39159319  0.19488628  1
  Ni  Ni41  1  0.70603421  0.60840681  0.80511372  1
  Ni  Ni42  1  0.20603421  0.60840681  0.69488628  1
  Ni  Ni43  1  0.70603421  0.89159319  0.30511372  1
  Ni  Ni44  1  0.79396579  0.39159319  0.30511372  1
  Ni  Ni45  1  0.29396579  0.10840681  0.69488628  1
  Ni  Ni46  1  0.79396579  0.10840681  0.80511372  1
  Ni  Ni47  1  0.20603421  0.89159319  0.19488628  1
  C  C48  1  0.39461415  0.13580197  0.25304241  1
  C  C49  1  0.60538585  0.86419803  0.74695759  1
  C  C50  1  0.10538585  0.86419803  0.75304241  1
  C  C51  1  0.60538585  0.63580197  0.24695759  1
  C  C52  1  0.89461415  0.13580197  0.24695759  1
  C  C53  1  0.39461415  0.36419803  0.75304241  1
  C  C54  1  0.89461415  0.36419803  0.74695759  1
  C  C55  1  0.10538585  0.63580197  0.25304241  1
  Cu  Cu56  1  0.17751124  0.37156772  0.36278202  1
  Cu  Cu57  1  0.82248876  0.62843228  0.63721798  1
  Cu  Cu58  1  0.32248876  0.62843228  0.86278202  1
  Cu  Cu59  1  0.82248876  0.87156772  0.13721798  1
  Cu  Cu60  1  0.67751124  0.37156772  0.13721798  1
  Cu  Cu61  1  0.17751124  0.12843228  0.86278202  1
  Cu  Cu62  1  0.67751124  0.12843228  0.63721798  1
  Cu  Cu63  1  0.32248876  0.87156772  0.36278202  1
  Cu  Cu64  1  0.13938121  0.08782250  0.19122793  1
  Cu  Cu65  1  0.86061879  0.91217750  0.80877207  1
  Cu  Cu66  1  0.36061879  0.91217750  0.69122793  1
  Cu  Cu67  1  0.86061879  0.58782250  0.30877207  1
  Cu  Cu68  1  0.63938121  0.08782250  0.30877207  1
  Cu  Cu69  1  0.13938121  0.41217750  0.69122793  1
  Cu  Cu70  1  0.63938121  0.41217750  0.80877207  1
  Cu  Cu71  1  0.36061879  0.58782250  0.19122793  1
  Cu  Cu72  1  0.04457345  0.30511621  0.05657271  1
  Cu  Cu73  1  0.95542655  0.69488379  0.94342729  1
  Cu  Cu74  1  0.45542655  0.69488379  0.55657271  1
  Cu  Cu75  1  0.95542655  0.80511621  0.44342729  1
  Cu  Cu76  1  0.54457345  0.30511621  0.44342729  1
  Cu  Cu77  1  0.04457345  0.19488379  0.55657271  1
  Cu  Cu78  1  0.54457345  0.19488379  0.94342729  1
  Cu  Cu79  1  0.45542655  0.80511621  0.05657271  1
  Cu  Cu80  1  0.10322349  0.38539052  0.14720616  1
  Cu  Cu81  1  0.89677651  0.61460948  0.85279384  1
  Cu  Cu82  1  0.39677651  0.61460948  0.64720616  1
  Cu  Cu83  1  0.89677651  0.88539052  0.35279384  1
  Cu  Cu84  1  0.60322349  0.38539052  0.35279384  1
  Cu  Cu85  1  0.10322349  0.11460948  0.64720616  1
  Cu  Cu86  1  0.60322349  0.11460948  0.85279384  1
  Cu  Cu87  1  0.39677651  0.88539052  0.14720616  1
  Cu  Cu88  1  0.41662988  0.49537123  0.07982056  1
  Cu  Cu89  1  0.58337012  0.50462877  0.92017944  1
  Cu  Cu90  1  0.08337012  0.50462877  0.57982056  1
  Cu  Cu91  1  0.58337012  0.99537123  0.42017944  1
  Cu  Cu92  1  0.91662988  0.49537123  0.42017944  1
  Cu  Cu93  1  0.41662988  0.00462877  0.57982056  1
  Cu  Cu94  1  0.91662988  0.00462877  0.92017944  1
  Cu  Cu95  1  0.08337012  0.99537123  0.07982056  1
  Cu  Cu96  1  0.31089144  0.11304021  0.01498311  1
  Cu  Cu97  1  0.68910856  0.88695979  0.98501689  1
  Cu  Cu98  1  0.18910856  0.88695979  0.51498311  1
  Cu  Cu99  1  0.68910856  0.61304021  0.48501689  1
  Cu  Cu100  1  0.81089144  0.11304021  0.48501689  1
  Cu  Cu101  1  0.31089144  0.38695979  0.51498311  1
  Cu  Cu102  1  0.81089144  0.38695979  0.98501689  1
  Cu  Cu103  1  0.18910856  0.61304021  0.01498311  1
  Cu  Cu104  1  0.13507671  0.10213509  0.31035703  1
  Cu  Cu105  1  0.86492329  0.89786491  0.68964297  1
  Cu  Cu106  1  0.36492329  0.89786491  0.81035703  1
  Cu  Cu107  1  0.86492329  0.60213509  0.18964297  1
  Cu  Cu108  1  0.63507671  0.10213509  0.18964297  1
  Cu  Cu109  1  0.13507671  0.39786491  0.81035703  1
  Cu  Cu110  1  0.63507671  0.39786491  0.68964297  1
  Cu  Cu111  1  0.36492329  0.60213509  0.31035703  1
  Cu  Cu112  1  0.12825451  0.38503415  0.24547902  1
  Cu  Cu113  1  0.87174549  0.61496585  0.75452098  1
  Cu  Cu114  1  0.37174549  0.61496585  0.74547902  1
  Cu  Cu115  1  0.87174549  0.88503415  0.25452098  1
  Cu  Cu116  1  0.62825451  0.38503415  0.25452098  1
  Cu  Cu117  1  0.12825451  0.11496585  0.74547902  1
  Cu  Cu118  1  0.62825451  0.11496585  0.75452098  1
  Cu  Cu119  1  0.37174549  0.88503415  0.24547902  1
  Cu  Cu120  1  0.17560737  0.06106179  0.43286048  1
  Cu  Cu121  1  0.82439263  0.93893821  0.56713952  1
  Cu  Cu122  1  0.32439263  0.93893821  0.93286048  1
  Cu  Cu123  1  0.82439263  0.56106179  0.06713952  1
  Cu  Cu124  1  0.67560737  0.06106179  0.06713952  1
  Cu  Cu125  1  0.17560737  0.43893821  0.93286048  1
  Cu  Cu126  1  0.67560737  0.43893821  0.56713952  1
  Cu  Cu127  1  0.32439263  0.56106179  0.43286048  1
