# generated using pymatgen
data_Cu4NiC40
_symmetry_space_group_name_H-M   'P 1'
_cell_length_a   7.59663426
_cell_length_b   13.16522234
_cell_length_c   13.81045297
_cell_angle_alpha   88.23687381
_cell_angle_beta   135.55690955
_cell_angle_gamma   89.70615025
_symmetry_Int_Tables_number   1
_chemical_formula_structural   Cu4NiC40
_chemical_formula_sum   'Cu4 Ni1 C40'
_cell_volume   965.93605964
_cell_formula_units_Z   1
loop_
 _symmetry_equiv_pos_site_id
 _symmetry_equiv_pos_as_xyz
  1  'x, y, z'
loop_
 _atom_site_type_symbol
 _atom_site_label
 _atom_site_symmetry_multiplicity
 _atom_site_fract_x
 _atom_site_fract_y
 _atom_site_fract_z
 _atom_site_occupancy
  C  C0  1  0.29065515  0.80379435  0.00984503  1
  C  C1  1  0.67580198  0.32507515  0.48870975  1
  C  C2  1  0.76442662  0.15222916  0.00298905  1
  C  C3  1  0.28310064  0.71081260  0.50391265  1
  Ni  Ni4  1  0.79513105  0.47417156  0.26721275  1
  Cu  Cu5  1  0.48334932  0.93075564  0.75096087  1
  Cu  Cu6  1  0.48574118  0.41842101  0.75428546  1
  Cu  Cu7  1  0.51978080  0.06541552  0.25811516  1
  Cu  Cu8  1  0.55108346  0.55656107  0.30895198  1
  C  C9  1  0.77840380  0.26791667  0.78535126  1
  C  C10  1  0.20244143  0.78021423  0.71115054  1
  C  C11  1  0.28713742  0.73396382  0.24365280  1
  C  C12  1  0.78559638  0.22256523  0.29592271  1
  C  C13  1  0.92740485  0.32387094  0.93066010  1
  C  C14  1  0.03694787  0.85425100  0.57057888  1
  C  C15  1  0.10259569  0.65303844  0.13768288  1
  C  C16  1  0.95441685  0.15924488  0.44058395  1
  C  C17  1  0.94051412  0.15483691  0.74532620  1
  C  C18  1  0.07014404  0.65519222  0.74003036  1
  C  C19  1  0.09453622  0.85507046  0.24153081  1
  C  C20  1  0.88449148  0.34543835  0.17077569  1
  C  C21  1  0.65529351  0.13659910  0.64201714  1
  C  C22  1  0.36500542  0.65561380  0.85183054  1
  C  C23  1  0.37296831  0.88091643  0.36349366  1
  C  C24  1  0.58905542  0.34833308  0.06752078  1
  C  C25  1  0.22497719  0.38626616  0.50586605  1
  C  C26  1  0.71516205  0.90349809  0.99163766  1
  C  C27  1  0.69523683  0.58106712  0.54114126  1
  C  C28  1  0.29425755  0.09893977  0.02105500  1
  C  C29  1  0.29230474  0.35620796  0.82656173  1
  C  C30  1  0.71917931  0.89804641  0.69951093  1
  C  C31  1  0.81609782  0.62942734  0.16542937  1
  C  C32  1  0.32185777  0.08369279  0.33492972  1
  C  C33  1  0.27628245  0.09808252  0.66849767  1
  C  C34  1  0.63785616  0.58467948  0.81506297  1
  C  C35  1  0.73748463  0.90078219  0.33216277  1
  C  C36  1  0.14823134  0.35921347  0.15902504  1
  C  C37  1  0.20733041  0.82513978  0.65179901  1
  C  C38  1  0.76099889  0.30637821  0.83975303  1
  C  C39  1  0.78016636  0.18335757  0.35544602  1
  C  C40  1  0.26480277  0.68247573  0.18372613  1
  C  C41  1  0.21511724  0.69862640  0.80764684  1
  C  C42  1  0.77620463  0.19081245  0.68366279  1
  C  C43  1  0.74719230  0.34639501  0.16838766  1
  C  C44  1  0.26027356  0.82365196  0.32275031  1
