# generated using pymatgen
data_Cu5Ni11C4
_symmetry_space_group_name_H-M   'P 1'
_cell_length_a   16.67499067
_cell_length_b   16.67499067
_cell_length_c   16.67499073
_cell_angle_alpha   13.96334660
_cell_angle_beta   13.96334660
_cell_angle_gamma   13.96334568
_symmetry_Int_Tables_number   1
_chemical_formula_structural   Cu5Ni11C4
_chemical_formula_sum   'Cu5 Ni11 C4'
_cell_volume   234.95796248
_cell_formula_units_Z   1
loop_
 _symmetry_equiv_pos_site_id
 _symmetry_equiv_pos_as_xyz
  1  'x, y, z'
loop_
 _atom_site_type_symbol
 _atom_site_label
 _atom_site_symmetry_multiplicity
 _atom_site_fract_x
 _atom_site_fract_y
 _atom_site_fract_z
 _atom_site_occupancy
  C  C0  1  0.60013900  0.60013900  0.60013900  1
  C  C1  1  0.20001100  0.20001100  0.20001100  1
  C  C2  1  0.79998900  0.79998900  0.79998900  1
  C  C3  1  0.39986100  0.39986100  0.39986100  1
  Ni  Ni4  1  0.75001900  0.75001900  0.75001900  1
  Ni  Ni5  1  0.54997500  0.54997500  0.54997500  1
  Ni  Ni6  1  0.14996600  0.14996600  0.14996600  1
  Ni  Ni7  1  0.34982200  0.34982200  0.34982200  1
  Ni  Ni8  1  0.95015500  0.95015500  0.95015500  1
  Ni  Ni9  1  0.04984500  0.04984500  0.04984500  1
  Ni  Ni10  1  0.85003400  0.85003400  0.85003400  1
  Ni  Ni11  1  0.45002500  0.45002500  0.45002500  1
  Ni  Ni12  1  0.65017800  0.65017800  0.65017800  1
  Ni  Ni13  1  0.24998100  0.24998100  0.24998100  1
  Ni  Ni14  1  0.00000000  0.00000000  0.00000000  1
  Cu  Cu15  1  0.09995000  0.09995000  0.09995000  1
  Cu  Cu16  1  0.90005000  0.90005000  0.90005000  1
  Cu  Cu17  1  0.50000000  0.50000000  0.50000000  1
  Cu  Cu18  1  0.69976200  0.69976200  0.69976200  1
  Cu  Cu19  1  0.30023800  0.30023800  0.30023800  1
