# generated using pymatgen
data_Cu7Ni3C4
_symmetry_space_group_name_H-M   'P 1'
_cell_length_a   6.01195465
_cell_length_b   7.47519343
_cell_length_c   16.05380200
_cell_angle_alpha   90.00000000
_cell_angle_beta   90.00000000
_cell_angle_gamma   101.09691416
_symmetry_Int_Tables_number   1
_chemical_formula_structural   Cu7Ni3C4
_chemical_formula_sum   'Cu28 Ni12 C16'
_cell_volume   707.97703984
_cell_formula_units_Z   4
loop_
 _symmetry_equiv_pos_site_id
 _symmetry_equiv_pos_as_xyz
  1  'x, y, z'
loop_
 _atom_site_type_symbol
 _atom_site_label
 _atom_site_symmetry_multiplicity
 _atom_site_fract_x
 _atom_site_fract_y
 _atom_site_fract_z
 _atom_site_occupancy
  C  C0  1  0.96791100  0.79641800  0.32072800  1
  C  C1  1  0.03208900  0.20358200  0.67927200  1
  C  C2  1  0.03208900  0.70358200  0.82072800  1
  C  C3  1  0.96791100  0.29641800  0.17927200  1
  C  C4  1  0.22693500  0.78837400  0.60331300  1
  C  C5  1  0.77306500  0.21162600  0.39668700  1
  C  C6  1  0.77306500  0.71162600  0.10331300  1
  C  C7  1  0.22693500  0.28837400  0.89668700  1
  C  C8  1  0.45212700  0.64637500  0.88578100  1
  C  C9  1  0.54787300  0.35362500  0.11421900  1
  C  C10  1  0.54787300  0.85362500  0.38578100  1
  C  C11  1  0.45212700  0.14637500  0.61421900  1
  C  C12  1  0.67753900  0.86127400  0.47463000  1
  C  C13  1  0.32246100  0.13872600  0.52537000  1
  C  C14  1  0.32246100  0.63872600  0.97463000  1
  C  C15  1  0.67753900  0.36127400  0.02537000  1
  Ni  Ni16  1  0.55637400  0.75243700  0.73701000  1
  Ni  Ni17  1  0.44362600  0.24756300  0.26299000  1
  Ni  Ni18  1  0.44362600  0.74756300  0.23701000  1
  Ni  Ni19  1  0.55637400  0.25243700  0.76299000  1
  Ni  Ni20  1  0.70634100  0.79578700  0.65738700  1
  Ni  Ni21  1  0.29365900  0.20421300  0.34261300  1
  Ni  Ni22  1  0.29365900  0.70421300  0.15738700  1
  Ni  Ni23  1  0.70634100  0.29578700  0.84261300  1
  Ni  Ni24  1  0.99566700  0.93064100  0.96404200  1
  Ni  Ni25  1  0.00433300  0.06935900  0.03595800  1
  Ni  Ni26  1  0.00433300  0.56935900  0.46404200  1
  Ni  Ni27  1  0.99566700  0.43064100  0.53595800  1
  Cu  Cu28  1  0.68800500  0.90967100  0.41714700  1
  Cu  Cu29  1  0.31199500  0.09032900  0.58285300  1
  Cu  Cu30  1  0.31199500  0.59032900  0.91714700  1
  Cu  Cu31  1  0.68800500  0.40967100  0.08285300  1
  Cu  Cu32  1  0.91949700  0.83493100  0.66820300  1
  Cu  Cu33  1  0.08050300  0.16506900  0.33179700  1
  Cu  Cu34  1  0.08050300  0.66506900  0.16820300  1
  Cu  Cu35  1  0.91949700  0.33493100  0.83179700  1
  Cu  Cu36  1  0.89400800  0.76809800  0.97734300  1
  Cu  Cu37  1  0.10599200  0.23190200  0.02265700  1
  Cu  Cu38  1  0.10599200  0.73190200  0.47734300  1
  Cu  Cu39  1  0.89400800  0.26809800  0.52265700  1
  Cu  Cu40  1  0.90792900  0.51116400  0.39635800  1
  Cu  Cu41  1  0.09207100  0.48883600  0.60364200  1
  Cu  Cu42  1  0.09207100  0.98883600  0.89635800  1
  Cu  Cu43  1  0.90792900  0.01116400  0.10364200  1
  Cu  Cu44  1  0.34842300  0.76295600  0.72840900  1
  Cu  Cu45  1  0.65157700  0.23704400  0.27159100  1
  Cu  Cu46  1  0.65157700  0.73704400  0.22840900  1
  Cu  Cu47  1  0.34842300  0.26295600  0.77159100  1
  Cu  Cu48  1  0.64631100  0.70915500  0.80305000  1
  Cu  Cu49  1  0.35368900  0.29084500  0.19695000  1
  Cu  Cu50  1  0.35368900  0.79084500  0.30305000  1
  Cu  Cu51  1  0.64631100  0.20915500  0.69695000  1
  Cu  Cu52  1  0.60111100  0.78873700  0.58846600  1
  Cu  Cu53  1  0.39888900  0.21126300  0.41153400  1
  Cu  Cu54  1  0.39888900  0.71126300  0.08846600  1
  Cu  Cu55  1  0.60111100  0.28873700  0.91153400  1
