# generated using pymatgen
data_Cu3(Ni4C13)2
_symmetry_space_group_name_H-M   'P 1'
_cell_length_a   17.52653600
_cell_length_b   17.52653600
_cell_length_c   2.97922600
_cell_angle_alpha   90.00000000
_cell_angle_beta   90.00000000
_cell_angle_gamma   90.00000000
_symmetry_Int_Tables_number   1
_chemical_formula_structural   Cu3(Ni4C13)2
_chemical_formula_sum   'Cu6 Ni16 C52'
_cell_volume   915.15704629
_cell_formula_units_Z   2
loop_
 _symmetry_equiv_pos_site_id
 _symmetry_equiv_pos_as_xyz
  1  'x, y, z'
loop_
 _atom_site_type_symbol
 _atom_site_label
 _atom_site_symmetry_multiplicity
 _atom_site_fract_x
 _atom_site_fract_y
 _atom_site_fract_z
 _atom_site_occupancy
  Ni  Ni0  1  0.53455900  0.68703000  0.00000000  1
  Ni  Ni1  1  0.46544100  0.31297000  0.00000000  1
  Ni  Ni2  1  0.03455900  0.81297000  0.00000000  1
  Ni  Ni3  1  0.96544100  0.18703000  0.00000000  1
  Ni  Ni4  1  0.31297000  0.53455900  0.00000000  1
  Ni  Ni5  1  0.68703000  0.46544100  0.00000000  1
  Ni  Ni6  1  0.18703000  0.03455900  0.00000000  1
  Ni  Ni7  1  0.81297000  0.96544100  0.00000000  1
  Ni  Ni8  1  0.30332800  0.80332800  0.00000000  1
  Ni  Ni9  1  0.69667200  0.19667200  0.00000000  1
  Ni  Ni10  1  0.80332800  0.69667200  0.00000000  1
  Ni  Ni11  1  0.19667200  0.30332800  0.00000000  1
  Ni  Ni12  1  0.67077100  0.82922900  0.00000000  1
  Ni  Ni13  1  0.32922900  0.17077100  0.00000000  1
  Ni  Ni14  1  0.17077100  0.67077100  0.00000000  1
  Ni  Ni15  1  0.82922900  0.32922900  0.00000000  1
  Cu  Cu16  1  0.54956200  0.95043800  0.00000000  1
  Cu  Cu17  1  0.45043800  0.04956200  0.00000000  1
  Cu  Cu18  1  0.04956200  0.54956200  0.00000000  1
  Cu  Cu19  1  0.95043800  0.45043800  0.00000000  1
  Cu  Cu20  1  0.50000000  0.50000000  0.00000000  1
  Cu  Cu21  1  0.00000000  0.00000000  0.00000000  1
  C  C22  1  0.46121900  0.83526500  0.00000000  1
  C  C23  1  0.53878100  0.16473500  0.00000000  1
  C  C24  1  0.96121900  0.66473500  0.00000000  1
  C  C25  1  0.03878100  0.33526500  0.00000000  1
  C  C26  1  0.16473500  0.46121900  0.00000000  1
  C  C27  1  0.83526500  0.53878100  0.00000000  1
  C  C28  1  0.33526500  0.96121900  0.00000000  1
  C  C29  1  0.66473500  0.03878100  0.00000000  1
  C  C30  1  0.37867900  0.66756500  0.00000000  1
  C  C31  1  0.62132100  0.33243500  0.00000000  1
  C  C32  1  0.87867900  0.83243500  0.00000000  1
  C  C33  1  0.12132100  0.16756500  0.00000000  1
  C  C34  1  0.33243500  0.37867900  0.00000000  1
  C  C35  1  0.66756500  0.62132100  0.00000000  1
  C  C36  1  0.16756500  0.87867900  0.00000000  1
  C  C37  1  0.83243500  0.12132100  0.00000000  1
  C  C38  1  0.41585700  0.91585700  0.50000000  1
  C  C39  1  0.58414300  0.08414300  0.50000000  1
  C  C40  1  0.91585700  0.58414300  0.50000000  1
  C  C41  1  0.08414300  0.41585700  0.50000000  1
  C  C42  1  0.43122100  0.59523700  0.50000000  1
  C  C43  1  0.56877900  0.40476300  0.50000000  1
  C  C44  1  0.93122100  0.90476300  0.50000000  1
  C  C45  1  0.06877900  0.09523700  0.50000000  1
  C  C46  1  0.40476300  0.43122100  0.50000000  1
  C  C47  1  0.59523700  0.56877900  0.50000000  1
  C  C48  1  0.09523700  0.93122100  0.50000000  1
  C  C49  1  0.90476300  0.06877900  0.50000000  1
  C  C50  1  0.41895900  0.75192200  0.50000000  1
  C  C51  1  0.58104100  0.24807800  0.50000000  1
  C  C52  1  0.91895900  0.74807800  0.50000000  1
  C  C53  1  0.08104100  0.25192200  0.50000000  1
  C  C54  1  0.24807800  0.41895900  0.50000000  1
  C  C55  1  0.75192200  0.58104100  0.50000000  1
  C  C56  1  0.25192200  0.91895900  0.50000000  1
  C  C57  1  0.74807800  0.08104100  0.50000000  1
  C  C58  1  0.54992700  0.83033000  0.50000000  1
  C  C59  1  0.45007300  0.16967000  0.50000000  1
  C  C60  1  0.04992700  0.66967000  0.50000000  1
  C  C61  1  0.95007300  0.33033000  0.50000000  1
  C  C62  1  0.16967000  0.54992700  0.50000000  1
  C  C63  1  0.83033000  0.45007300  0.50000000  1
  C  C64  1  0.33033000  0.04992700  0.50000000  1
  C  C65  1  0.66967000  0.95007300  0.50000000  1
  C  C66  1  0.28864100  0.66718900  0.50000000  1
  C  C67  1  0.71135900  0.33281100  0.50000000  1
  C  C68  1  0.78864100  0.83281100  0.50000000  1
  C  C69  1  0.21135900  0.16718900  0.50000000  1
  C  C70  1  0.33281100  0.28864100  0.50000000  1
  C  C71  1  0.66718900  0.71135900  0.50000000  1
  C  C72  1  0.16718900  0.78864100  0.50000000  1
  C  C73  1  0.83281100  0.21135900  0.50000000  1
