# generated using pymatgen
data_Cu2NiC10
_symmetry_space_group_name_H-M   'P 1'
_cell_length_a   8.97349912
_cell_length_b   8.97349912
_cell_length_c   5.15505081
_cell_angle_alpha   73.68080461
_cell_angle_beta   73.68080461
_cell_angle_gamma   114.88542848
_symmetry_Int_Tables_number   1
_chemical_formula_structural   Cu2NiC10
_chemical_formula_sum   'Cu4 Ni2 C20'
_cell_volume   321.15331917
_cell_formula_units_Z   2
loop_
 _symmetry_equiv_pos_site_id
 _symmetry_equiv_pos_as_xyz
  1  'x, y, z'
loop_
 _atom_site_type_symbol
 _atom_site_label
 _atom_site_symmetry_multiplicity
 _atom_site_fract_x
 _atom_site_fract_y
 _atom_site_fract_z
 _atom_site_occupancy
  C  C0  1  0.46020400  0.70059400  0.18378700  1
  C  C1  1  0.70059400  0.46020400  0.18378700  1
  C  C2  1  0.19783600  0.95615500  0.67797000  1
  C  C3  1  0.95615500  0.19783600  0.67797000  1
  Ni  Ni4  1  0.65969900  0.07374300  0.37902500  1
  Ni  Ni5  1  0.07374300  0.65969900  0.37902500  1
  Cu  Cu6  1  0.83722200  0.83722200  0.37474100  1
  Cu  Cu7  1  0.53244500  0.11151000  0.91867600  1
  Cu  Cu8  1  0.11151000  0.53244500  0.91867600  1
  Cu  Cu9  1  0.33347000  0.33347000  0.97727400  1
  C  C10  1  0.37370400  0.90557600  0.92508400  1
  C  C11  1  0.90557600  0.37370400  0.92508400  1
  C  C12  1  0.74839700  0.93575500  0.58298400  1
  C  C13  1  0.93575500  0.74839700  0.58298400  1
  C  C14  1  0.50717100  0.50717100  0.01081200  1
  C  C15  1  0.73480200  0.25234300  0.55066900  1
  C  C16  1  0.25234300  0.73480200  0.55066900  1
  C  C17  1  0.42669100  0.24231600  0.75489700  1
  C  C18  1  0.24231600  0.42669100  0.75489700  1
  C  C19  1  0.66388100  0.66388100  0.33575100  1
  C  C20  1  0.16448000  0.16448000  0.35427500  1
  C  C21  1  0.50198600  0.16103100  0.24273900  1
  C  C22  1  0.16103100  0.50198600  0.24273900  1
  C  C23  1  0.00331800  0.00331800  0.98862100  1
  C  C24  1  0.65429800  0.99697200  0.07103300  1
  C  C25  1  0.99697200  0.65429800  0.07103300  1
