# generated using pymatgen
data_Cu7NiC30
_symmetry_space_group_name_H-M   'P 1'
_cell_length_a   7.72347509
_cell_length_b   7.71419681
_cell_length_c   7.66607173
_cell_angle_alpha   89.95054550
_cell_angle_beta   89.91761693
_cell_angle_gamma   90.61064021
_symmetry_Int_Tables_number   1
_chemical_formula_structural   Cu7NiC30
_chemical_formula_sum   'Cu7 Ni1 C30'
_cell_volume   456.72108520
_cell_formula_units_Z   1
loop_
 _symmetry_equiv_pos_site_id
 _symmetry_equiv_pos_as_xyz
  1  'x, y, z'
loop_
 _atom_site_type_symbol
 _atom_site_label
 _atom_site_symmetry_multiplicity
 _atom_site_fract_x
 _atom_site_fract_y
 _atom_site_fract_z
 _atom_site_occupancy
  Ni  Ni0  1  0.25057600  0.25221500  0.23431200  1
  Cu  Cu1  1  0.24857900  0.25131200  0.74088600  1
  Cu  Cu2  1  0.25158900  0.74810200  0.24833600  1
  Cu  Cu3  1  0.24975200  0.75080100  0.73498100  1
  Cu  Cu4  1  0.74642600  0.24839200  0.23410000  1
  Cu  Cu5  1  0.74805400  0.24386700  0.73342300  1
  Cu  Cu6  1  0.74922100  0.74931900  0.24963100  1
  Cu  Cu7  1  0.75191900  0.75078000  0.71281000  1
  C  C8  1  0.99865200  0.99996200  0.50555100  1
  C  C9  1  0.99535600  0.50558400  0.00428400  1
  C  C10  1  0.99786400  0.50104700  0.49501200  1
  C  C11  1  0.50164800  0.99882300  0.49473300  1
  C  C12  1  0.50679400  0.50714000  0.98640400  1
  C  C13  1  0.50273100  0.50203300  0.50979600  1
  C  C14  1  0.99316500  0.99192900  0.98809100  1
  C  C15  1  0.50429000  0.99243900  0.00336500  1
  C  C16  1  0.95829200  0.96151700  0.75688400  1
  C  C17  1  0.02899500  0.47187500  0.25181200  1
  C  C18  1  0.96777800  0.53397800  0.75177500  1
  C  C19  1  0.46777900  0.03263900  0.25629500  1
  C  C20  1  0.53869500  0.96331000  0.74530500  1
  C  C21  1  0.53667100  0.54444900  0.75238500  1
  C  C22  1  0.24047600  0.99944900  0.98175100  1
  C  C23  1  0.24885700  0.99565900  0.53148600  1
  C  C24  1  0.25438300  0.49834700  0.98197200  1
  C  C25  1  0.25310400  0.50491800  0.52099200  1
  C  C26  1  0.76006200  0.99519000  0.05423300  1
  C  C27  1  0.75530000  0.00799100  0.44999500  1
  C  C28  1  0.74476800  0.50416600  0.05383300  1
  C  C29  1  0.74447100  0.49354700  0.45316000  1
  C  C30  1  0.99176900  0.24010800  0.99581700  1
  C  C31  1  0.00229200  0.24923900  0.53289000  1
  C  C32  1  0.00606500  0.75985800  0.05941100  1
  C  C33  1  0.00007200  0.75501800  0.45499800  1
  C  C34  1  0.51074800  0.25823600  0.99132800  1
  C  C35  1  0.49849600  0.25246900  0.53532900  1
  C  C36  1  0.49408200  0.73908100  0.06113000  1
  C  C37  1  0.50022800  0.74521100  0.45150300  1
