# generated using pymatgen
data_CuNiC8
_symmetry_space_group_name_H-M   'P 1'
_cell_length_a   8.38423876
_cell_length_b   8.37159840
_cell_length_c   8.38649864
_cell_angle_alpha   90.00000000
_cell_angle_beta   90.00000000
_cell_angle_gamma   90.00000000
_symmetry_Int_Tables_number   1
_chemical_formula_structural   CuNiC8
_chemical_formula_sum   'Cu4 Ni4 C32'
_cell_volume   588.64397679
_cell_formula_units_Z   4
loop_
 _symmetry_equiv_pos_site_id
 _symmetry_equiv_pos_as_xyz
  1  'x, y, z'
loop_
 _atom_site_type_symbol
 _atom_site_label
 _atom_site_symmetry_multiplicity
 _atom_site_fract_x
 _atom_site_fract_y
 _atom_site_fract_z
 _atom_site_occupancy
  Ni  Ni0  1  -0.00000000  0.50000000  0.50000000  1
  Ni  Ni1  1  0.50000000  0.00000000  0.00000000  1
  Ni  Ni2  1  -0.00000000  0.50000000  0.00000000  1
  Ni  Ni3  1  -0.00000000  0.00000000  0.50000000  1
  Cu  Cu4  1  0.50000000  0.00000000  0.50000000  1
  Cu  Cu5  1  0.50000000  0.50000000  0.00000000  1
  Cu  Cu6  1  -0.00000000  0.00000000  0.00000000  1
  Cu  Cu7  1  0.50000000  0.50000000  0.50000000  1
  C  C8  1  0.25212668  0.25035111  0.25007398  1
  C  C9  1  0.74787332  0.74964889  0.25007398  1
  C  C10  1  0.74787332  0.25035111  0.74992602  1
  C  C11  1  0.25212668  0.74964889  0.74992602  1
  C  C12  1  0.74745213  0.74968031  0.75048600  1
  C  C13  1  0.25254787  0.25031969  0.75048600  1
  C  C14  1  0.25254787  0.74968031  0.24951400  1
  C  C15  1  0.74745213  0.25031969  0.24951400  1
  C  C16  1  0.98202618  0.20899295  0.28409087  1
  C  C17  1  0.01797382  0.79100705  0.28409087  1
  C  C18  1  0.01797382  0.20899295  0.71590913  1
  C  C19  1  0.98202618  0.79100705  0.71590913  1
  C  C20  1  0.28461495  0.98312271  0.20697312  1
  C  C21  1  0.28461495  0.01687729  0.79302688  1
  C  C22  1  0.71538505  0.01687729  0.20697312  1
  C  C23  1  0.71538505  0.98312271  0.79302688  1
  C  C24  1  0.20657271  0.28190683  0.98344930  1
  C  C25  1  0.79342729  0.28190683  0.01655070  1
  C  C26  1  0.20657271  0.71809317  0.01655070  1
  C  C27  1  0.79342729  0.71809317  0.98344930  1
  C  C28  1  0.51705170  0.30198602  0.20687904  1
  C  C29  1  0.48294830  0.69801398  0.20687904  1
  C  C30  1  0.48294830  0.30198602  0.79312096  1
  C  C31  1  0.51705170  0.69801398  0.79312096  1
  C  C32  1  0.21739320  0.51752192  0.29631024  1
  C  C33  1  0.21739320  0.48247808  0.70368976  1
  C  C34  1  0.78260680  0.48247808  0.29631024  1
  C  C35  1  0.78260680  0.51752192  0.70368976  1
  C  C36  1  0.30397804  0.20940768  0.51856316  1
  C  C37  1  0.69602196  0.20940768  0.48143684  1
  C  C38  1  0.30397804  0.79059232  0.48143684  1
  C  C39  1  0.69602196  0.79059232  0.51856316  1
