# generated using pymatgen
data_Cu7(Ni8C3)2
_symmetry_space_group_name_H-M   'P 1'
_cell_length_a   8.21478757
_cell_length_b   8.21478757
_cell_length_c   8.21478757
_cell_angle_alpha   60.00000000
_cell_angle_beta   60.00000000
_cell_angle_gamma   60.00000000
_symmetry_Int_Tables_number   1
_chemical_formula_structural   Cu7(Ni8C3)2
_chemical_formula_sum   'Cu7 Ni16 C6'
_cell_volume   391.98912164
_cell_formula_units_Z   1
loop_
 _symmetry_equiv_pos_site_id
 _symmetry_equiv_pos_as_xyz
  1  'x, y, z'
loop_
 _atom_site_type_symbol
 _atom_site_label
 _atom_site_symmetry_multiplicity
 _atom_site_fract_x
 _atom_site_fract_y
 _atom_site_fract_z
 _atom_site_occupancy
  C  C0  1  0.28244700  0.71755400  0.28244700  1
  C  C1  1  0.71755400  0.28244700  0.71755300  1
  C  C2  1  0.71755400  0.71755400  0.28244600  1
  C  C3  1  0.28244700  0.28244700  0.71755300  1
  C  C4  1  0.71755300  0.28244700  0.28244600  1
  C  C5  1  0.28244700  0.71755400  0.71755300  1
  Ni  Ni6  1  0.65876500  0.65876500  0.65876500  1
  Ni  Ni7  1  0.65876500  0.65876500  0.02370600  1
  Ni  Ni8  1  0.32486200  0.32486200  0.02541500  1
  Ni  Ni9  1  0.32486200  0.02541500  0.32486200  1
  Ni  Ni10  1  0.12304900  0.63085300  0.12304900  1
  Ni  Ni11  1  0.32486200  0.32486200  0.32486200  1
  Ni  Ni12  1  0.87885600  0.87885600  0.87885600  1
  Ni  Ni13  1  0.12304900  0.12304900  0.12304900  1
  Ni  Ni14  1  0.02370600  0.65876500  0.65876500  1
  Ni  Ni15  1  0.02541500  0.32486200  0.32486200  1
  Ni  Ni16  1  0.65876500  0.02370600  0.65876500  1
  Ni  Ni17  1  0.12304900  0.12304900  0.63085300  1
  Ni  Ni18  1  0.87885600  0.87885600  0.36343300  1
  Ni  Ni19  1  0.36343300  0.87885600  0.87885600  1
  Ni  Ni20  1  0.87885600  0.36343300  0.87885600  1
  Ni  Ni21  1  0.63085300  0.12304900  0.12304900  1
  Cu  Cu22  1  0.99681300  0.99681300  0.50318700  1
  Cu  Cu23  1  0.00000000  0.00000000  0.00000000  1
  Cu  Cu24  1  0.99681300  0.50318700  0.99681300  1
  Cu  Cu25  1  0.50318700  0.50318700  0.99681300  1
  Cu  Cu26  1  0.50318700  0.99681300  0.99681300  1
  Cu  Cu27  1  0.50318700  0.99681300  0.50318700  1
  Cu  Cu28  1  0.99681300  0.50318700  0.50318700  1
