# generated using pymatgen
data_Cu3Ni3C17
_symmetry_space_group_name_H-M   'P 1'
_cell_length_a   8.43196111
_cell_length_b   8.45460311
_cell_length_c   8.44683689
_cell_angle_alpha   90.33520911
_cell_angle_beta   90.50504025
_cell_angle_gamma   89.74880128
_symmetry_Int_Tables_number   1
_chemical_formula_structural   Cu3Ni3C17
_chemical_formula_sum   'Cu6 Ni6 C34'
_cell_volume   602.12622964
_cell_formula_units_Z   2
loop_
 _symmetry_equiv_pos_site_id
 _symmetry_equiv_pos_as_xyz
  1  'x, y, z'
loop_
 _atom_site_type_symbol
 _atom_site_label
 _atom_site_symmetry_multiplicity
 _atom_site_fract_x
 _atom_site_fract_y
 _atom_site_fract_z
 _atom_site_occupancy
  Ni  Ni0  1  0.99908900  0.75004700  0.50241600  1
  Ni  Ni1  1  0.25092500  0.50169600  0.00113600  1
  Ni  Ni2  1  0.49995600  0.00016100  0.74956300  1
  Ni  Ni3  1  0.49834600  0.00092900  0.24926200  1
  Ni  Ni4  1  0.99944600  0.25035200  0.50018600  1
  Ni  Ni5  1  0.75097900  0.49930200  0.99782800  1
  C  C6  1  0.81718400  0.80998900  0.18431300  1
  C  C7  1  0.68328500  0.31037800  0.31425900  1
  C  C8  1  0.18605300  0.80879900  0.81742400  1
  C  C9  1  0.81066500  0.18480800  0.81566600  1
  C  C10  1  0.30918000  0.68221800  0.31315200  1
  C  C11  1  0.68247500  0.69021200  0.68667100  1
  C  C12  1  0.18436700  0.18434800  0.19087800  1
  C  C13  1  0.31932500  0.31060700  0.68740300  1
  Cu  Cu14  1  0.00170500  0.49820400  0.24981500  1
  Cu  Cu15  1  0.50040000  0.25184300  0.00090300  1
  Cu  Cu16  1  0.50154200  0.75191700  0.99956400  1
  Cu  Cu17  1  0.99904300  0.49954800  0.74906400  1
  Cu  Cu18  1  0.75017600  0.00143700  0.50060500  1
  Cu  Cu19  1  0.24954500  0.99756000  0.49806000  1
  C  C20  1  0.49923600  0.49980400  0.49998500  1
  C  C21  1  0.99995700  0.99933100  0.00021900  1
  C  C22  1  0.42359800  0.85715200  0.85426800  1
  C  C23  1  0.35762600  0.35992600  0.92191000  1
  C  C24  1  0.14875600  0.42338200  0.14576700  1
  C  C25  1  0.64493700  0.64399600  0.92266900  1
  C  C26  1  0.14622900  0.85499800  0.57803700  1
  C  C27  1  0.85599100  0.14613400  0.57773300  1
  C  C28  1  0.92182500  0.64554500  0.64572300  1
  C  C29  1  0.85509900  0.42170500  0.85290700  1
  C  C30  1  0.35844000  0.07782400  0.63982300  1
  C  C31  1  0.85538100  0.85720900  0.42256400  1
  C  C32  1  0.14105500  0.57735700  0.85955000  1
  C  C33  1  0.64398700  0.92398200  0.64331200  1
  C  C34  1  0.07870900  0.35675600  0.64328200  1
  C  C35  1  0.42258400  0.14773700  0.14410100  1
  C  C36  1  0.57651500  0.14301800  0.85777400  1
  C  C37  1  0.35411600  0.92210400  0.35195500  1
  C  C38  1  0.07620700  0.64181300  0.35964100  1
  C  C39  1  0.14021100  0.14083100  0.42247600  1
  C  C40  1  0.64615600  0.35758000  0.07703400  1
  C  C41  1  0.86051500  0.57716900  0.13970500  1
  C  C42  1  0.92279700  0.35476400  0.35271400  1
  C  C43  1  0.35730300  0.64750500  0.07647400  1
  C  C44  1  0.63998500  0.07866500  0.35890300  1
  C  C45  1  0.57909900  0.85935600  0.14330800  1
