# generated using pymatgen
data_Cu13NiC6
_symmetry_space_group_name_H-M   'P 1'
_cell_length_a   11.62553300
_cell_length_b   6.25257600
_cell_length_c   16.65063500
_cell_angle_alpha   90.00000000
_cell_angle_beta   90.00000000
_cell_angle_gamma   90.00000000
_symmetry_Int_Tables_number   1
_chemical_formula_structural   Cu13NiC6
_chemical_formula_sum   'Cu52 Ni4 C24'
_cell_volume   1210.32680942
_cell_formula_units_Z   4
loop_
 _symmetry_equiv_pos_site_id
 _symmetry_equiv_pos_as_xyz
  1  'x, y, z'
loop_
 _atom_site_type_symbol
 _atom_site_label
 _atom_site_symmetry_multiplicity
 _atom_site_fract_x
 _atom_site_fract_y
 _atom_site_fract_z
 _atom_site_occupancy
  C  C0  1  0.39600100  0.75312100  0.85051600  1
  C  C1  1  0.60399900  0.24687900  0.35051600  1
  C  C2  1  0.10399900  0.75312100  0.35051600  1
  C  C3  1  0.89600100  0.24687900  0.85051600  1
  C  C4  1  0.58975900  0.24567500  0.64952600  1
  C  C5  1  0.41024100  0.75432500  0.14952600  1
  C  C6  1  0.91024100  0.24567500  0.14952600  1
  C  C7  1  0.08975900  0.75432500  0.64952600  1
  C  C8  1  0.43192300  0.71972500  0.44858700  1
  C  C9  1  0.56807700  0.28027500  0.94858700  1
  C  C10  1  0.06807700  0.71972500  0.94858700  1
  C  C11  1  0.93192300  0.28027500  0.44858700  1
  C  C12  1  0.73629200  0.78758200  0.75906600  1
  C  C13  1  0.26370800  0.21241800  0.25906600  1
  C  C14  1  0.76370800  0.78758200  0.25906600  1
  C  C15  1  0.23629200  0.21241800  0.75906600  1
  C  C16  1  0.76401600  0.79744400  0.53463100  1
  C  C17  1  0.23598400  0.20255600  0.03463100  1
  C  C18  1  0.73598400  0.79744400  0.03463100  1
  C  C19  1  0.26401600  0.20255600  0.53463100  1
  C  C20  1  0.90985600  0.24979000  0.65448800  1
  C  C21  1  0.09014400  0.75021000  0.15448800  1
  C  C22  1  0.59014400  0.24979000  0.15448800  1
  C  C23  1  0.40985600  0.75021000  0.65448800  1
  Ni  Ni24  1  0.86353700  0.40458600  0.65238400  1
  Ni  Ni25  1  0.13646300  0.59541400  0.15238400  1
  Ni  Ni26  1  0.63646300  0.40458600  0.15238400  1
  Ni  Ni27  1  0.36353700  0.59541400  0.65238400  1
  Cu  Cu28  1  0.90345700  0.85829600  0.74999700  1
  Cu  Cu29  1  0.09654300  0.14170400  0.24999700  1
  Cu  Cu30  1  0.59654300  0.85829600  0.24999700  1
  Cu  Cu31  1  0.40345700  0.14170400  0.74999700  1
  Cu  Cu32  1  0.87621600  0.75635300  0.82798800  1
  Cu  Cu33  1  0.12378400  0.24364700  0.32798800  1
  Cu  Cu34  1  0.62378400  0.75635300  0.32798800  1
  Cu  Cu35  1  0.37621600  0.24364700  0.82798800  1
  Cu  Cu36  1  0.64957000  0.58092500  0.82739000  1
  Cu  Cu37  1  0.35043000  0.41907500  0.32739000  1
  Cu  Cu38  1  0.85043000  0.58092500  0.32739000  1
  Cu  Cu39  1  0.14957000  0.41907500  0.82739000  1
  Cu  Cu40  1  0.59122600  0.61607300  0.74980800  1
  Cu  Cu41  1  0.40877400  0.38392700  0.24980800  1
  Cu  Cu42  1  0.90877400  0.61607300  0.24980800  1
  Cu  Cu43  1  0.09122600  0.38392700  0.74980800  1
  Cu  Cu44  1  0.64413000  0.56787800  0.53484500  1
  Cu  Cu45  1  0.35587000  0.43212200  0.03484500  1
  Cu  Cu46  1  0.85587000  0.56787800  0.03484500  1
  Cu  Cu47  1  0.14413000  0.43212200  0.53484500  1
  Cu  Cu48  1  0.71861100  0.55585400  0.46331200  1
  Cu  Cu49  1  0.28138900  0.44414600  0.96331200  1
  Cu  Cu50  1  0.78138900  0.55585400  0.96331200  1
  Cu  Cu51  1  0.21861100  0.44414600  0.46331200  1
  Cu  Cu52  1  0.91271900  0.82236700  0.47505200  1
  Cu  Cu53  1  0.08728100  0.17763300  0.97505200  1
  Cu  Cu54  1  0.58728100  0.82236700  0.97505200  1
  Cu  Cu55  1  0.41271900  0.17763300  0.47505200  1
  Cu  Cu56  1  0.91790700  0.93311500  0.55367000  1
  Cu  Cu57  1  0.08209300  0.06688500  0.05367000  1
  Cu  Cu58  1  0.58209300  0.93311500  0.05367000  1
  Cu  Cu59  1  0.41790700  0.06688500  0.55367000  1
  Cu  Cu60  1  0.68358500  0.02708600  0.79763300  1
  Cu  Cu61  1  0.31641500  0.97291400  0.29763300  1
  Cu  Cu62  1  0.81641500  0.02708600  0.29763300  1
  Cu  Cu63  1  0.18358500  0.97291400  0.79763300  1
  Cu  Cu64  1  0.72122700  0.86133000  0.64547600  1
  Cu  Cu65  1  0.27877300  0.13867000  0.14547600  1
  Cu  Cu66  1  0.77877300  0.86133000  0.14547600  1
  Cu  Cu67  1  0.22122700  0.13867000  0.64547600  1
  Cu  Cu68  1  0.69160500  0.01028300  0.49048200  1
  Cu  Cu69  1  0.30839500  0.98971700  0.99048200  1
  Cu  Cu70  1  0.80839500  0.01028300  0.99048200  1
  Cu  Cu71  1  0.19160500  0.98971700  0.49048200  1
  Cu  Cu72  1  0.80664000  0.45436300  0.71450500  1
  Cu  Cu73  1  0.19336000  0.54563700  0.21450500  1
  Cu  Cu74  1  0.69336000  0.45436300  0.21450500  1
  Cu  Cu75  1  0.30664000  0.54563700  0.71450500  1
  Cu  Cu76  1  0.87315900  0.50995300  0.58762200  1
  Cu  Cu77  1  0.12684100  0.49004700  0.08762200  1
  Cu  Cu78  1  0.62684100  0.50995300  0.08762200  1
  Cu  Cu79  1  0.37315900  0.49004700  0.58762200  1
