# generated using pymatgen
data_Cu14NiC24
_symmetry_space_group_name_H-M   'P 1'
_cell_length_a   9.04415660
_cell_length_b   8.77563595
_cell_length_c   8.95573341
_cell_angle_alpha   73.76851804
_cell_angle_beta   105.92673605
_cell_angle_gamma   106.13079583
_symmetry_Int_Tables_number   1
_chemical_formula_structural   Cu14NiC24
_chemical_formula_sum   'Cu14 Ni1 C24'
_cell_volume   640.50988081
_cell_formula_units_Z   1
loop_
 _symmetry_equiv_pos_site_id
 _symmetry_equiv_pos_as_xyz
  1  'x, y, z'
loop_
 _atom_site_type_symbol
 _atom_site_label
 _atom_site_symmetry_multiplicity
 _atom_site_fract_x
 _atom_site_fract_y
 _atom_site_fract_z
 _atom_site_occupancy
  Ni  Ni0  1  0.85405331  0.99923277  0.87964991  1
  Cu  Cu1  1  0.80522918  0.22026910  0.59068918  1
  Cu  Cu2  1  0.17191471  0.33322271  0.83521674  1
  Cu  Cu3  1  0.58990369  0.76809941  0.80869392  1
  Cu  Cu4  1  0.49580949  0.00380168  0.49362326  1
  Cu  Cu5  1  0.13920190  0.90891673  0.92128746  1
  Cu  Cu6  1  0.23506105  0.72976169  0.73135323  1
  Cu  Cu7  1  0.42406534  0.57746992  0.58241590  1
  Cu  Cu8  1  0.58962207  0.42988154  0.42026338  1
  Cu  Cu9  1  0.72836142  0.26206098  0.23100463  1
  Cu  Cu10  1  0.94593548  0.07276816  0.17218547  1
  Cu  Cu11  1  0.01561527  0.52211349  0.49919567  1
  Cu  Cu12  1  0.83563065  0.66266186  0.17240950  1
  Cu  Cu13  1  0.17218522  0.83936072  0.33783358  1
  Cu  Cu14  1  0.49474681  0.46648977  0.02301359  1
  C  C15  1  0.49905448  0.15853859  0.83439961  1
  C  C16  1  0.83704767  0.49388505  0.84259387  1
  C  C17  1  0.17528231  0.17420583  0.49939445  1
  C  C18  1  0.83288033  0.84335588  0.50772072  1
  C  C19  1  0.17439834  0.49589842  0.17301459  1
  C  C20  1  0.49995390  0.83716011  0.16556313  1
  C  C21  1  0.76045082  0.18877337  0.83194358  1
  C  C22  1  0.54919776  0.42536556  0.82063624  1
  C  C23  1  0.90377965  0.12133254  0.45359875  1
  C  C24  1  0.22542120  0.14658583  0.76651359  1
  C  C25  1  0.84244299  0.82474057  0.77472692  1
  C  C26  1  0.45074313  0.88263576  0.89233277  1
  C  C27  1  0.11949735  0.51581298  0.90883300  1
  C  C28  1  0.44078933  0.19095745  0.56343881  1
  C  C29  1  0.82198096  0.57445117  0.55397303  1
  C  C30  1  0.52481910  0.10566399  0.09724984  1
  C  C31  1  0.19569987  0.44646171  0.44262088  1
  C  C32  1  0.91325449  0.47931216  0.12624058  1
  C  C33  1  0.56326429  0.81629583  0.43616013  1
  C  C34  1  0.16581461  0.23179977  0.23564854  1
  C  C35  1  0.76544935  0.85632523  0.21242004  1
  C  C36  1  0.44021338  0.55863795  0.19399334  1
  C  C37  1  0.10565783  0.89998133  0.52156714  1
  C  C38  1  0.23356627  0.76914639  0.15828304  1
