# generated using pymatgen
data_Cu4Ni4C13
_symmetry_space_group_name_H-M   'P 1'
_cell_length_a   5.46045960
_cell_length_b   5.46045960
_cell_length_c   13.67997300
_cell_angle_alpha   90.00000000
_cell_angle_beta   90.00000000
_cell_angle_gamma   97.01468179
_symmetry_Int_Tables_number   1
_chemical_formula_structural   Cu4Ni4C13
_chemical_formula_sum   'Cu8 Ni8 C26'
_cell_volume   404.83743869
_cell_formula_units_Z   2
loop_
 _symmetry_equiv_pos_site_id
 _symmetry_equiv_pos_as_xyz
  1  'x, y, z'
loop_
 _atom_site_type_symbol
 _atom_site_label
 _atom_site_symmetry_multiplicity
 _atom_site_fract_x
 _atom_site_fract_y
 _atom_site_fract_z
 _atom_site_occupancy
  C  C0  1  0.50000000  0.50000000  0.50000000  1
  C  C1  1  0.00000000  0.00000000  0.00000000  1
  C  C2  1  0.64376800  0.12737500  0.42866200  1
  C  C3  1  0.12737500  0.64376800  0.57133800  1
  C  C4  1  0.62737500  0.14376800  0.92866200  1
  C  C5  1  0.14376800  0.62737500  0.07133800  1
  C  C6  1  0.35623200  0.87262500  0.57133800  1
  C  C7  1  0.87262500  0.35623200  0.42866200  1
  C  C8  1  0.37262500  0.85623200  0.07133800  1
  C  C9  1  0.85623200  0.37262500  0.92866200  1
  C  C10  1  0.65342300  0.34657700  0.34132800  1
  C  C11  1  0.34657700  0.65342300  0.65867200  1
  C  C12  1  0.84657700  0.15342300  0.84132800  1
  C  C13  1  0.15342300  0.84657700  0.15867200  1
  C  C14  1  0.72010700  0.27989300  0.16905700  1
  C  C15  1  0.27989300  0.72010700  0.83094300  1
  C  C16  1  0.77989300  0.22010700  0.66905700  1
  C  C17  1  0.22010700  0.77989300  0.33094300  1
  C  C18  1  0.66166400  0.56335000  0.18449300  1
  C  C19  1  0.56335000  0.66166400  0.81550700  1
  C  C20  1  0.06335000  0.16166400  0.68449300  1
  C  C21  1  0.16166400  0.06335000  0.31550700  1
  C  C22  1  0.33833600  0.43665000  0.81550700  1
  C  C23  1  0.43665000  0.33833600  0.18449300  1
  C  C24  1  0.93665000  0.83833600  0.31550700  1
  C  C25  1  0.83833600  0.93665000  0.68449300  1
  Ni  Ni26  1  0.68564400  0.31435600  0.41656800  1
  Ni  Ni27  1  0.31435600  0.68564400  0.58343200  1
  Ni  Ni28  1  0.81435600  0.18564400  0.91656800  1
  Ni  Ni29  1  0.18564400  0.81435600  0.08343200  1
  Ni  Ni30  1  0.61324100  0.38675900  0.20788000  1
  Ni  Ni31  1  0.38675900  0.61324100  0.79212000  1
  Ni  Ni32  1  0.88675900  0.11324100  0.70788000  1
  Ni  Ni33  1  0.11324100  0.88675900  0.29212000  1
  Cu  Cu34  1  0.41991900  0.24368600  0.57202000  1
  Cu  Cu35  1  0.24368600  0.41991900  0.42798000  1
  Cu  Cu36  1  0.74368600  0.91991900  0.07201900  1
  Cu  Cu37  1  0.91991900  0.74368600  0.92798000  1
  Cu  Cu38  1  0.58008100  0.75631400  0.42798000  1
  Cu  Cu39  1  0.75631400  0.58008100  0.57202000  1
  Cu  Cu40  1  0.25631400  0.08008100  0.92798000  1
  Cu  Cu41  1  0.08008100  0.25631400  0.07201900  1
