# generated using pymatgen
data_Cu7NiC5
_symmetry_space_group_name_H-M   'P 1'
_cell_length_a   13.17389700
_cell_length_b   13.17389700
_cell_length_c   5.67251500
_cell_angle_alpha   90.00000000
_cell_angle_beta   90.00000000
_cell_angle_gamma   90.00000000
_symmetry_Int_Tables_number   1
_chemical_formula_structural   Cu7NiC5
_chemical_formula_sum   'Cu28 Ni4 C20'
_cell_volume   984.47383966
_cell_formula_units_Z   4
loop_
 _symmetry_equiv_pos_site_id
 _symmetry_equiv_pos_as_xyz
  1  'x, y, z'
loop_
 _atom_site_type_symbol
 _atom_site_label
 _atom_site_symmetry_multiplicity
 _atom_site_fract_x
 _atom_site_fract_y
 _atom_site_fract_z
 _atom_site_occupancy
  C  C0  1  0.76249500  0.23750500  0.50000000  1
  C  C1  1  0.23750500  0.76249500  0.50000000  1
  C  C2  1  0.26249500  0.26249500  0.00000000  1
  C  C3  1  0.73750500  0.73750500  0.00000000  1
  C  C4  1  0.63706500  0.95326500  0.50000000  1
  C  C5  1  0.36293500  0.04673500  0.50000000  1
  C  C6  1  0.13706500  0.54673500  0.00000000  1
  C  C7  1  0.86293500  0.45326500  0.00000000  1
  C  C8  1  0.95326500  0.63706500  0.50000000  1
  C  C9  1  0.04673500  0.36293500  0.50000000  1
  C  C10  1  0.54673500  0.13706500  0.00000000  1
  C  C11  1  0.45326500  0.86293500  0.00000000  1
  C  C12  1  0.47272000  0.28885000  0.50000000  1
  C  C13  1  0.52728000  0.71115000  0.50000000  1
  C  C14  1  0.97272000  0.21115000  0.00000000  1
  C  C15  1  0.02728000  0.78885000  0.00000000  1
  C  C16  1  0.28885000  0.47272000  0.50000000  1
  C  C17  1  0.71115000  0.52728000  0.50000000  1
  C  C18  1  0.21115000  0.97272000  0.00000000  1
  C  C19  1  0.78885000  0.02728000  0.00000000  1
  Ni  Ni20  1  0.85280400  0.85280400  0.50000000  1
  Ni  Ni21  1  0.14719600  0.14719600  0.50000000  1
  Ni  Ni22  1  0.35280400  0.64719600  0.00000000  1
  Ni  Ni23  1  0.64719600  0.35280400  0.00000000  1
  Cu  Cu24  1  0.50000000  0.00000000  0.25000000  1
  Cu  Cu25  1  0.00000000  0.50000000  0.75000000  1
  Cu  Cu26  1  0.50000000  0.00000000  0.75000000  1
  Cu  Cu27  1  0.00000000  0.50000000  0.25000000  1
  Cu  Cu28  1  0.58175200  0.20776900  0.50000000  1
  Cu  Cu29  1  0.41824800  0.79223100  0.50000000  1
  Cu  Cu30  1  0.08175200  0.29223100  0.00000000  1
  Cu  Cu31  1  0.91824800  0.70776900  0.00000000  1
  Cu  Cu32  1  0.20776900  0.58175200  0.50000000  1
  Cu  Cu33  1  0.79223100  0.41824800  0.50000000  1
  Cu  Cu34  1  0.29223100  0.08175200  0.00000000  1
  Cu  Cu35  1  0.70776900  0.91824800  0.00000000  1
  Cu  Cu36  1  0.40758800  0.22018500  0.26337500  1
  Cu  Cu37  1  0.59241200  0.77981500  0.26337500  1
  Cu  Cu38  1  0.90758800  0.27981500  0.76337500  1
  Cu  Cu39  1  0.09241200  0.72018500  0.76337500  1
  Cu  Cu40  1  0.59241200  0.77981500  0.73662500  1
  Cu  Cu41  1  0.40758800  0.22018500  0.73662500  1
  Cu  Cu42  1  0.09241200  0.72018500  0.23662500  1
  Cu  Cu43  1  0.90758800  0.27981500  0.23662500  1
  Cu  Cu44  1  0.22018500  0.40758800  0.26337500  1
  Cu  Cu45  1  0.77981500  0.59241200  0.26337500  1
  Cu  Cu46  1  0.27981500  0.90758800  0.76337500  1
  Cu  Cu47  1  0.72018500  0.09241200  0.76337500  1
  Cu  Cu48  1  0.77981500  0.59241200  0.73662500  1
  Cu  Cu49  1  0.22018500  0.40758800  0.73662500  1
  Cu  Cu50  1  0.72018500  0.09241200  0.23662500  1
  Cu  Cu51  1  0.27981500  0.90758800  0.23662500  1
