# generated using pymatgen
data_Cu2NiC
_symmetry_space_group_name_H-M   'P 1'
_cell_length_a   5.64539000
_cell_length_b   6.96791500
_cell_length_c   7.51559600
_cell_angle_alpha   90.00000000
_cell_angle_beta   90.00000000
_cell_angle_gamma   90.00000000
_symmetry_Int_Tables_number   1
_chemical_formula_structural   Cu2NiC
_chemical_formula_sum   'Cu8 Ni4 C4'
_cell_volume   295.63797604
_cell_formula_units_Z   4
loop_
 _symmetry_equiv_pos_site_id
 _symmetry_equiv_pos_as_xyz
  1  'x, y, z'
loop_
 _atom_site_type_symbol
 _atom_site_label
 _atom_site_symmetry_multiplicity
 _atom_site_fract_x
 _atom_site_fract_y
 _atom_site_fract_z
 _atom_site_occupancy
  C  C0  1  0.35495500  0.75000000  0.03121600  1
  C  C1  1  0.14504500  0.75000000  0.53121600  1
  C  C2  1  0.64504500  0.25000000  0.96878400  1
  C  C3  1  0.85495500  0.25000000  0.46878400  1
  Ni  Ni4  1  0.64746200  0.75000000  0.37668600  1
  Ni  Ni5  1  0.85253800  0.75000000  0.87668600  1
  Ni  Ni6  1  0.35253800  0.25000000  0.62331400  1
  Ni  Ni7  1  0.14746200  0.25000000  0.12331400  1
  Cu  Cu8  1  0.90682100  0.55188900  0.17598700  1
  Cu  Cu9  1  0.59317900  0.94811100  0.67598700  1
  Cu  Cu10  1  0.09317900  0.05188900  0.82401300  1
  Cu  Cu11  1  0.40682100  0.44811100  0.32401300  1
  Cu  Cu12  1  0.09317900  0.44811100  0.82401300  1
  Cu  Cu13  1  0.40682100  0.05188900  0.32401300  1
  Cu  Cu14  1  0.90682100  0.94811100  0.17598700  1
  Cu  Cu15  1  0.59317900  0.55188900  0.67598700  1
