# generated using pymatgen
data_CuNiC9
_symmetry_space_group_name_H-M   'P 1'
_cell_length_a   7.88909480
_cell_length_b   8.84131746
_cell_length_c   11.08292800
_cell_angle_alpha   90.00000000
_cell_angle_beta   90.00000000
_cell_angle_gamma   105.86746670
_symmetry_Int_Tables_number   1
_chemical_formula_structural   CuNiC9
_chemical_formula_sum   'Cu4 Ni4 C36'
_cell_volume   743.57899265
_cell_formula_units_Z   4
loop_
 _symmetry_equiv_pos_site_id
 _symmetry_equiv_pos_as_xyz
  1  'x, y, z'
loop_
 _atom_site_type_symbol
 _atom_site_label
 _atom_site_symmetry_multiplicity
 _atom_site_fract_x
 _atom_site_fract_y
 _atom_site_fract_z
 _atom_site_occupancy
  Ni  Ni0  1  0.81760200  0.94247900  0.31818000  1
  Ni  Ni1  1  0.18239800  0.05752100  0.68182000  1
  Ni  Ni2  1  0.18239800  0.55752100  0.81818000  1
  Ni  Ni3  1  0.81760200  0.44247900  0.18182000  1
  Cu  Cu4  1  0.76316000  0.74306600  0.89999700  1
  Cu  Cu5  1  0.23684000  0.25693400  0.10000300  1
  Cu  Cu6  1  0.23684000  0.75693400  0.39999700  1
  Cu  Cu7  1  0.76316000  0.24306600  0.60000300  1
  C  C8  1  0.56697000  0.80889400  0.63329000  1
  C  C9  1  0.43303000  0.19110600  0.36671000  1
  C  C10  1  0.43303000  0.69110600  0.13329000  1
  C  C11  1  0.56697000  0.30889400  0.86671000  1
  C  C12  1  0.86778600  0.67693800  0.59806300  1
  C  C13  1  0.13221400  0.32306200  0.40193700  1
  C  C14  1  0.13221400  0.82306200  0.09806300  1
  C  C15  1  0.86778600  0.17693800  0.90193700  1
  C  C16  1  0.38552900  0.76603700  0.57357300  1
  C  C17  1  0.61447100  0.23396300  0.42642700  1
  C  C18  1  0.61447100  0.73396300  0.07357300  1
  C  C19  1  0.38552900  0.26603700  0.92642700  1
  C  C20  1  0.91987900  0.74290800  0.72545900  1
  C  C21  1  0.08012100  0.25709200  0.27454100  1
  C  C22  1  0.08012100  0.75709200  0.22545900  1
  C  C23  1  0.91987900  0.24290800  0.77454100  1
  C  C24  1  0.55261200  0.76203000  0.76677600  1
  C  C25  1  0.44738800  0.23797000  0.23322400  1
  C  C26  1  0.44738800  0.73797000  0.26677600  1
  C  C27  1  0.55261200  0.26203000  0.73322400  1
  C  C28  1  0.67170500  0.97887100  0.60877900  1
  C  C29  1  0.32829500  0.02112900  0.39122100  1
  C  C30  1  0.32829500  0.52112900  0.10877900  1
  C  C31  1  0.67170500  0.47887100  0.89122100  1
  C  C32  1  0.85063400  0.00234100  0.90966700  1
  C  C33  1  0.14936600  0.99765900  0.09033300  1
  C  C34  1  0.14936600  0.49765900  0.40966700  1
  C  C35  1  0.85063400  0.50234100  0.59033300  1
  C  C36  1  0.67393700  0.69814200  0.56548400  1
  C  C37  1  0.32606300  0.30185800  0.43451600  1
  C  C38  1  0.32606300  0.80185800  0.06548400  1
  C  C39  1  0.67393700  0.19814200  0.93451600  1
  C  C40  1  0.00688900  0.72621000  0.00256700  1
  C  C41  1  0.99311100  0.27379000  0.99743300  1
  C  C42  1  0.99311100  0.77379000  0.50256700  1
  C  C43  1  0.00688900  0.22621000  0.49743300  1
