# generated using pymatgen
data_CuNiC14
_symmetry_space_group_name_H-M   'P 1'
_cell_length_a   9.40213100
_cell_length_b   7.36355100
_cell_length_c   9.58405838
_cell_angle_alpha   77.07035820
_cell_angle_beta   90.00000000
_cell_angle_gamma   90.00000000
_symmetry_Int_Tables_number   1
_chemical_formula_structural   CuNiC14
_chemical_formula_sum   'Cu4 Ni4 C56'
_cell_volume   646.71027138
_cell_formula_units_Z   4
loop_
 _symmetry_equiv_pos_site_id
 _symmetry_equiv_pos_as_xyz
  1  'x, y, z'
loop_
 _atom_site_type_symbol
 _atom_site_label
 _atom_site_symmetry_multiplicity
 _atom_site_fract_x
 _atom_site_fract_y
 _atom_site_fract_z
 _atom_site_occupancy
  C  C0  1  0.67845500  0.31179400  0.45933900  1
  C  C1  1  0.17845500  0.68820600  0.04066100  1
  C  C2  1  0.32154500  0.68820600  0.54066100  1
  C  C3  1  0.82154500  0.31179400  0.95933900  1
  Ni  Ni4  1  0.61255600  0.53078200  0.70901700  1
  Ni  Ni5  1  0.11255600  0.46921800  0.79098300  1
  Ni  Ni6  1  0.38744400  0.46921800  0.29098300  1
  Ni  Ni7  1  0.88744400  0.53078200  0.20901700  1
  C  C8  1  0.65041300  0.76206400  0.81644500  1
  C  C9  1  0.15041300  0.23793600  0.68355500  1
  C  C10  1  0.34958700  0.23793600  0.18355500  1
  C  C11  1  0.84958700  0.76206400  0.31644500  1
  C  C12  1  0.82651600  0.09042400  0.69140000  1
  C  C13  1  0.32651600  0.90957600  0.80860000  1
  C  C14  1  0.17348400  0.90957600  0.30860000  1
  C  C15  1  0.67348400  0.09042400  0.19140000  1
  C  C16  1  0.83663400  0.99690700  0.55360300  1
  C  C17  1  0.33663400  0.00309300  0.94639700  1
  C  C18  1  0.16336600  0.00309300  0.44639700  1
  C  C19  1  0.66336600  0.99690700  0.05360300  1
  C  C20  1  0.50864100  0.78989500  0.99356500  1
  C  C21  1  0.00864100  0.21010500  0.50643500  1
  C  C22  1  0.49135900  0.21010500  0.00643500  1
  C  C23  1  0.99135900  0.78989500  0.49356500  1
  C  C24  1  0.65718000  0.70340200  0.04833700  1
  C  C25  1  0.15718000  0.29659800  0.45166300  1
  C  C26  1  0.34282000  0.29659800  0.95166300  1
  C  C27  1  0.84282000  0.70340200  0.54833700  1
  Cu  Cu28  1  0.46765700  0.02825700  0.56568100  1
  Cu  Cu29  1  0.96765700  0.97174300  0.93431900  1
  Cu  Cu30  1  0.53234300  0.97174300  0.43431900  1
  Cu  Cu31  1  0.03234300  0.02825700  0.06568100  1
  C  C32  1  0.69676100  0.49171500  0.58060900  1
  C  C33  1  0.19676100  0.50828500  0.91939100  1
  C  C34  1  0.30323900  0.50828500  0.41939100  1
  C  C35  1  0.80323900  0.49171500  0.08060900  1
  C  C36  1  0.45138100  0.54172700  0.68282000  1
  C  C37  1  0.95138100  0.45827300  0.81718000  1
  C  C38  1  0.54861900  0.45827300  0.31718000  1
  C  C39  1  0.04861900  0.54172700  0.18282000  1
  C  C40  1  0.85396200  0.38746400  0.34850700  1
  C  C41  1  0.35396200  0.61253600  0.15149300  1
  C  C42  1  0.14603800  0.61253600  0.65149300  1
  C  C43  1  0.64603800  0.38746400  0.84850700  1
  C  C44  1  0.82081300  0.11636100  0.58498500  1
  C  C45  1  0.32081300  0.88363900  0.91501500  1
  C  C46  1  0.17918700  0.88363900  0.41501500  1
  C  C47  1  0.67918700  0.11636100  0.08498500  1
  C  C48  1  0.51578500  0.17292400  0.59780800  1
  C  C49  1  0.01578500  0.82707600  0.90219200  1
  C  C50  1  0.48421500  0.82707600  0.40219200  1
  C  C51  1  0.98421500  0.17292400  0.09780800  1
  C  C52  1  0.63060800  0.07700800  0.36946100  1
  C  C53  1  0.13060800  0.92299200  0.13053900  1
  C  C54  1  0.36939200  0.92299200  0.63053900  1
  C  C55  1  0.86939200  0.07700800  0.86946100  1
  C  C56  1  0.66939200  0.73098100  0.72098400  1
  C  C57  1  0.16939200  0.26901900  0.77901600  1
  C  C58  1  0.33060800  0.26901900  0.27901600  1
  C  C59  1  0.83060800  0.73098100  0.22098400  1
  C  C60  1  0.61211600  0.80870400  0.98117800  1
  C  C61  1  0.11211600  0.19129600  0.51882200  1
  C  C62  1  0.38788400  0.19129600  0.01882200  1
  C  C63  1  0.88788400  0.80870400  0.48117800  1
