# generated using pymatgen
data_Cu2Ni2C7
_symmetry_space_group_name_H-M   'P 1'
_cell_length_a   10.40133283
_cell_length_b   10.40133283
_cell_length_c   8.01336100
_cell_angle_alpha   90.00000000
_cell_angle_beta   90.00000000
_cell_angle_gamma   92.03258548
_symmetry_Int_Tables_number   1
_chemical_formula_structural   Cu2Ni2C7
_chemical_formula_sum   'Cu8 Ni8 C28'
_cell_volume   866.40182506
_cell_formula_units_Z   4
loop_
 _symmetry_equiv_pos_site_id
 _symmetry_equiv_pos_as_xyz
  1  'x, y, z'
loop_
 _atom_site_type_symbol
 _atom_site_label
 _atom_site_symmetry_multiplicity
 _atom_site_fract_x
 _atom_site_fract_y
 _atom_site_fract_z
 _atom_site_occupancy
  C  C0  1  0.50000000  0.50000000  0.25000000  1
  C  C1  1  0.50000000  0.50000000  0.75000000  1
  C  C2  1  0.00000000  0.00000000  0.00000000  1
  C  C3  1  0.00000000  0.00000000  0.50000000  1
  Ni  Ni4  1  0.61435800  0.82405400  0.00000000  1
  Ni  Ni5  1  0.38564200  0.17594600  0.00000000  1
  Ni  Ni6  1  0.17594600  0.38564200  0.50000000  1
  Ni  Ni7  1  0.82405400  0.61435800  0.50000000  1
  Ni  Ni8  1  0.82245800  0.40061000  0.00000000  1
  Ni  Ni9  1  0.17754200  0.59939000  0.00000000  1
  Ni  Ni10  1  0.59939000  0.17754200  0.50000000  1
  Ni  Ni11  1  0.40061000  0.82245800  0.50000000  1
  Cu  Cu12  1  0.28342400  0.46157700  0.00000000  1
  Cu  Cu13  1  0.71657600  0.53842300  0.00000000  1
  Cu  Cu14  1  0.53842300  0.71657600  0.50000000  1
  Cu  Cu15  1  0.46157700  0.28342400  0.50000000  1
  Cu  Cu16  1  0.47012300  0.71813200  0.00000000  1
  Cu  Cu17  1  0.52987700  0.28186800  0.00000000  1
  Cu  Cu18  1  0.28186800  0.52987700  0.50000000  1
  Cu  Cu19  1  0.71813200  0.47012300  0.50000000  1
  C  C20  1  0.85383700  0.36267100  0.14952500  1
  C  C21  1  0.14616300  0.63732900  0.85047500  1
  C  C22  1  0.14616300  0.63732900  0.14952500  1
  C  C23  1  0.63732900  0.14616300  0.35047500  1
  C  C24  1  0.85383700  0.36267100  0.85047500  1
  C  C25  1  0.36267100  0.85383700  0.64952500  1
  C  C26  1  0.36267100  0.85383700  0.35047500  1
  C  C27  1  0.63732900  0.14616300  0.64952500  1
  C  C28  1  0.14435700  0.34429700  0.35094100  1
  C  C29  1  0.85564300  0.65570300  0.64905900  1
  C  C30  1  0.85564300  0.65570300  0.35094100  1
  C  C31  1  0.65570300  0.85564300  0.14905900  1
  C  C32  1  0.14435700  0.34429700  0.64905900  1
  C  C33  1  0.34429700  0.14435700  0.85094100  1
  C  C34  1  0.34429700  0.14435700  0.14905900  1
  C  C35  1  0.65570300  0.85564300  0.85094100  1
  C  C36  1  0.99328400  0.11458300  0.12556900  1
  C  C37  1  0.00671600  0.88541700  0.87443100  1
  C  C38  1  0.00671600  0.88541700  0.12556900  1
  C  C39  1  0.88541700  0.00671600  0.37443100  1
  C  C40  1  0.99328400  0.11458300  0.87443100  1
  C  C41  1  0.11458300  0.99328400  0.62556900  1
  C  C42  1  0.11458300  0.99328400  0.37443100  1
  C  C43  1  0.88541700  0.00671600  0.62556900  1
