# generated using pymatgen
data_Cu3NiC2
_symmetry_space_group_name_H-M   'P 1'
_cell_length_a   5.28906305
_cell_length_b   5.28906305
_cell_length_c   9.74767940
_cell_angle_alpha   74.32163517
_cell_angle_beta   74.32163517
_cell_angle_gamma   43.12928745
_symmetry_Int_Tables_number   1
_chemical_formula_structural   Cu3NiC2
_chemical_formula_sum   'Cu6 Ni2 C4'
_cell_volume   178.37553207
_cell_formula_units_Z   2
loop_
 _symmetry_equiv_pos_site_id
 _symmetry_equiv_pos_as_xyz
  1  'x, y, z'
loop_
 _atom_site_type_symbol
 _atom_site_label
 _atom_site_symmetry_multiplicity
 _atom_site_fract_x
 _atom_site_fract_y
 _atom_site_fract_z
 _atom_site_occupancy
  C  C0  1  0.27673700  0.27673700  0.20457300  1
  C  C1  1  0.72326300  0.72326300  0.79542700  1
  C  C2  1  0.88241500  0.88241500  0.42683900  1
  C  C3  1  0.11758500  0.11758500  0.57316100  1
  Ni  Ni4  1  0.61589300  0.61589300  0.09269000  1
  Ni  Ni5  1  0.38410700  0.38410700  0.90731000  1
  Cu  Cu6  1  0.84789600  0.84789600  0.24733200  1
  Cu  Cu7  1  0.15210400  0.15210400  0.75266800  1
  Cu  Cu8  1  0.66762200  0.66762200  0.56797300  1
  Cu  Cu9  1  0.33237800  0.33237800  0.43202700  1
  Cu  Cu10  1  0.92136000  0.92136000  0.62694400  1
  Cu  Cu11  1  0.07864000  0.07864000  0.37305600  1
