# generated using pymatgen
data_CuNi14C
_symmetry_space_group_name_H-M   'P 1'
_cell_length_a   6.40165500
_cell_length_b   6.28510262
_cell_length_c   10.35734147
_cell_angle_alpha   90.00000000
_cell_angle_beta   90.00000000
_cell_angle_gamma   119.39954143
_symmetry_Int_Tables_number   1
_chemical_formula_structural   CuNi14C
_chemical_formula_sum   'Cu1 Ni14 C1'
_cell_volume   363.06103605
_cell_formula_units_Z   1
loop_
 _symmetry_equiv_pos_site_id
 _symmetry_equiv_pos_as_xyz
  1  'x, y, z'
loop_
 _atom_site_type_symbol
 _atom_site_label
 _atom_site_symmetry_multiplicity
 _atom_site_fract_x
 _atom_site_fract_y
 _atom_site_fract_z
 _atom_site_occupancy
  Ni  Ni0  1  0.16643771  0.33321835  0.62500000  1
  Ni  Ni1  1  0.16619774  0.83309837  0.62500000  1
  Ni  Ni2  1  0.66714256  0.33148632  0.12500000  1
  Ni  Ni3  1  0.66613020  0.33327034  0.62500000  1
  Ni  Ni4  1  0.66714256  0.83565523  0.12500000  1
  Ni  Ni5  1  0.66613020  0.83285886  0.62500000  1
  Ni  Ni6  1  0.33386003  0.16956751  0.37650986  1
  Ni  Ni7  1  0.33386003  0.16956751  0.87349014  1
  Ni  Ni8  1  0.33386003  0.66429352  0.37650986  1
  Ni  Ni9  1  0.33386003  0.66429352  0.87349014  1
  Ni  Ni10  1  0.83560737  0.16780418  0.37489627  1
  Ni  Ni11  1  0.83560737  0.16780418  0.87510373  1
  Ni  Ni12  1  0.83125215  0.66562658  0.37607972  1
  Ni  Ni13  1  0.83125215  0.66562658  0.87392028  1
  Cu  Cu14  1  0.16636243  0.33318072  0.12500000  1
  C  C15  1  0.16529746  0.83264823  0.12500000  1
