# generated using pymatgen
data_Cu(NiC16)3
_symmetry_space_group_name_H-M   'P 1'
_cell_length_a   12.17342500
_cell_length_b   12.17342500
_cell_length_c   5.32213100
_cell_angle_alpha   90.00000000
_cell_angle_beta   90.00000000
_cell_angle_gamma   90.00000000
_symmetry_Int_Tables_number   1
_chemical_formula_structural   Cu(NiC16)3
_chemical_formula_sum   'Cu1 Ni3 C48'
_cell_volume   788.69870729
_cell_formula_units_Z   1
loop_
 _symmetry_equiv_pos_site_id
 _symmetry_equiv_pos_as_xyz
  1  'x, y, z'
loop_
 _atom_site_type_symbol
 _atom_site_label
 _atom_site_symmetry_multiplicity
 _atom_site_fract_x
 _atom_site_fract_y
 _atom_site_fract_z
 _atom_site_occupancy
  C  C0  1  0.75041300  0.42299800  0.99670700  1
  C  C1  1  0.25010400  0.92294600  0.99904500  1
  C  C2  1  0.24958700  0.57700200  0.99670700  1
  C  C3  1  0.74989600  0.07705400  0.99904500  1
  C  C4  1  0.92294600  0.74989600  0.99904500  1
  C  C5  1  0.42299800  0.24958700  0.99670700  1
  C  C6  1  0.07705400  0.25010400  0.99904500  1
  C  C7  1  0.57700200  0.75041300  0.99670700  1
  Ni  Ni8  1  0.00000000  0.50000000  0.53902700  1
  Ni  Ni9  1  0.50000000  0.00000000  0.53902700  1
  Ni  Ni10  1  0.00000000  0.00000000  0.53887200  1
  Cu  Cu11  1  0.50000000  0.50000000  0.54333500  1
  C  C12  1  0.74844500  0.62092300  0.51552100  1
  C  C13  1  0.25007200  0.12193800  0.51562500  1
  C  C14  1  0.25155500  0.37907700  0.51552100  1
  C  C15  1  0.74992800  0.87806200  0.51562500  1
  C  C16  1  0.12193800  0.74992800  0.51562500  1
  C  C17  1  0.62092300  0.25155500  0.51552100  1
  C  C18  1  0.87806200  0.25007200  0.51562500  1
  C  C19  1  0.37907700  0.74844500  0.51552100  1
  C  C20  1  0.00000000  0.50000000  0.21825200  1
  C  C21  1  0.50000000  0.00000000  0.21825200  1
  C  C22  1  0.00000000  0.00000000  0.21825000  1
  C  C23  1  0.50000000  0.50000000  0.22173400  1
  C  C24  1  0.74860100  0.62319100  0.21419100  1
  C  C25  1  0.24994400  0.12369500  0.21436100  1
  C  C26  1  0.25139900  0.37680900  0.21419100  1
  C  C27  1  0.75005600  0.87630500  0.21436100  1
  C  C28  1  0.12369500  0.75005600  0.21436100  1
  C  C29  1  0.62319100  0.25139900  0.21419100  1
  C  C30  1  0.87630500  0.24994400  0.21436100  1
  C  C31  1  0.37680900  0.74860100  0.21419100  1
  C  C32  1  0.64140900  0.56343800  0.64961700  1
  C  C33  1  0.14243500  0.06454200  0.64700600  1
  C  C34  1  0.35859100  0.43656200  0.64961700  1
  C  C35  1  0.85756500  0.93545800  0.64700600  1
  C  C36  1  0.06439900  0.64234300  0.64703800  1
  C  C37  1  0.56442600  0.14302400  0.64601000  1
  C  C38  1  0.93560100  0.35765700  0.64703800  1
  C  C39  1  0.43557400  0.85697600  0.64601000  1
  C  C40  1  0.93545800  0.14243500  0.64700600  1
  C  C41  1  0.43656200  0.64140900  0.64961700  1
  C  C42  1  0.06454200  0.85756500  0.64700600  1
  C  C43  1  0.56343800  0.35859100  0.64961700  1
  C  C44  1  0.85697600  0.56442600  0.64601000  1
  C  C45  1  0.35765700  0.06439900  0.64703800  1
  C  C46  1  0.14302400  0.43557400  0.64601000  1
  C  C47  1  0.64234300  0.93560100  0.64703800  1
  C  C48  1  0.74968900  0.74965000  0.63203200  1
  C  C49  1  0.25031100  0.25035000  0.63203200  1
  C  C50  1  0.74965000  0.25031100  0.63203200  1
  C  C51  1  0.25035000  0.74968900  0.63203200  1
