# generated using pymatgen
data_Cu3Ni4C3
_symmetry_space_group_name_H-M   'P 1'
_cell_length_a   5.14278358
_cell_length_b   13.22832532
_cell_length_c   8.60139366
_cell_angle_alpha   89.94796264
_cell_angle_beta   92.68240549
_cell_angle_gamma   90.09191000
_symmetry_Int_Tables_number   1
_chemical_formula_structural   Cu3Ni4C3
_chemical_formula_sum   'Cu12 Ni16 C12'
_cell_volume   584.51425894
_cell_formula_units_Z   4
loop_
 _symmetry_equiv_pos_site_id
 _symmetry_equiv_pos_as_xyz
  1  'x, y, z'
loop_
 _atom_site_type_symbol
 _atom_site_label
 _atom_site_symmetry_multiplicity
 _atom_site_fract_x
 _atom_site_fract_y
 _atom_site_fract_z
 _atom_site_occupancy
  C  C0  1  0.41717600  0.74549500  0.22621600  1
  C  C1  1  0.91708400  0.75451600  0.72623800  1
  C  C2  1  0.58282400  0.25450500  0.77378400  1
  C  C3  1  0.08291600  0.24548400  0.27376200  1
  C  C4  1  0.38659800  0.91344300  0.43323400  1
  C  C5  1  0.88694300  0.58651100  0.93349100  1
  C  C6  1  0.61340200  0.08655700  0.56676600  1
  C  C7  1  0.11305700  0.41348900  0.06650900  1
  C  C8  1  0.57149700  0.95939100  0.31428500  1
  C  C9  1  0.07104500  0.54071800  0.81424500  1
  C  C10  1  0.42850300  0.04060900  0.68571500  1
  C  C11  1  0.92895500  0.45928200  0.18575500  1
  Ni  Ni12  1  0.52685700  0.54247400  0.06270700  1
  Ni  Ni13  1  0.02699500  0.95759200  0.56271200  1
  Ni  Ni14  1  0.47314300  0.45752600  0.93729300  1
  Ni  Ni15  1  0.97300500  0.04240800  0.43728800  1
  Ni  Ni16  1  0.43497400  0.79936600  0.99222200  1
  Ni  Ni17  1  0.93461900  0.70075500  0.49237400  1
  Ni  Ni18  1  0.56502600  0.20063400  0.00777800  1
  Ni  Ni19  1  0.06538100  0.29924500  0.50762600  1
  Ni  Ni20  1  0.05846000  0.73588800  0.35149900  1
  Ni  Ni21  1  0.55838600  0.76419600  0.85150600  1
  Ni  Ni22  1  0.94154000  0.26411200  0.64850100  1
  Ni  Ni23  1  0.44161400  0.23580400  0.14849400  1
  Ni  Ni24  1  0.79502400  0.72546900  0.35009900  1
  Ni  Ni25  1  0.29519200  0.77467700  0.85005900  1
  Ni  Ni26  1  0.20497600  0.27453100  0.64990100  1
  Ni  Ni27  1  0.70480800  0.22532300  0.14994100  1
  Cu  Cu28  1  0.33151600  0.58352900  0.12223300  1
  Cu  Cu29  1  0.83147900  0.91632500  0.62267000  1
  Cu  Cu30  1  0.66848400  0.41647100  0.87776700  1
  Cu  Cu31  1  0.16852100  0.08367500  0.37733000  1
  Cu  Cu32  1  0.76098000  0.56752100  0.09624800  1
  Cu  Cu33  1  0.26092800  0.93262600  0.59607300  1
  Cu  Cu34  1  0.23902000  0.43247900  0.90375200  1
  Cu  Cu35  1  0.73907200  0.06737400  0.40392700  1
  Cu  Cu36  1  0.44721500  0.90260600  0.32409100  1
  Cu  Cu37  1  0.94732300  0.59736700  0.82418500  1
  Cu  Cu38  1  0.55278500  0.09739400  0.67590900  1
  Cu  Cu39  1  0.05267700  0.40263300  0.17581500  1
