# generated using pymatgen
data_Cu10Ni2C11
_symmetry_space_group_name_H-M   'P 1'
_cell_length_a   16.48571900
_cell_length_b   16.48571900
_cell_length_c   4.14975200
_cell_angle_alpha   90.00000000
_cell_angle_beta   90.00000000
_cell_angle_gamma   90.00000000
_symmetry_Int_Tables_number   1
_chemical_formula_structural   Cu10Ni2C11
_chemical_formula_sum   'Cu20 Ni4 C22'
_cell_volume   1127.81516226
_cell_formula_units_Z   2
loop_
 _symmetry_equiv_pos_site_id
 _symmetry_equiv_pos_as_xyz
  1  'x, y, z'
loop_
 _atom_site_type_symbol
 _atom_site_label
 _atom_site_symmetry_multiplicity
 _atom_site_fract_x
 _atom_site_fract_y
 _atom_site_fract_z
 _atom_site_occupancy
  C  C0  1  0.50000000  0.50000000  0.50000000  1
  C  C1  1  0.00000000  0.00000000  0.00000000  1
  C  C2  1  0.98106900  0.79268300  0.50000000  1
  C  C3  1  0.01893100  0.20731700  0.50000000  1
  C  C4  1  0.51893100  0.29268300  0.00000000  1
  C  C5  1  0.48106900  0.70731700  0.00000000  1
  C  C6  1  0.79268300  0.98106900  0.50000000  1
  C  C7  1  0.20731700  0.01893100  0.50000000  1
  C  C8  1  0.29268300  0.51893100  0.00000000  1
  C  C9  1  0.70731700  0.48106900  0.00000000  1
  C  C10  1  0.67539300  0.67539300  0.50000000  1
  C  C11  1  0.32460700  0.32460700  0.50000000  1
  C  C12  1  0.82460700  0.17539300  0.00000000  1
  C  C13  1  0.17539300  0.82460700  0.00000000  1
  C  C14  1  0.38200600  0.88338600  0.50000000  1
  C  C15  1  0.61799400  0.11661400  0.50000000  1
  C  C16  1  0.11799400  0.38338600  0.00000000  1
  C  C17  1  0.88200600  0.61661400  0.00000000  1
  C  C18  1  0.88338600  0.38200600  0.50000000  1
  C  C19  1  0.11661400  0.61799400  0.50000000  1
  C  C20  1  0.38338600  0.11799400  0.00000000  1
  C  C21  1  0.61661400  0.88200600  0.00000000  1
  Ni  Ni22  1  0.32193400  0.67806600  0.50000000  1
  Ni  Ni23  1  0.67806600  0.32193400  0.50000000  1
  Ni  Ni24  1  0.17806600  0.17806600  0.00000000  1
  Ni  Ni25  1  0.82193400  0.82193400  0.00000000  1
  Cu  Cu26  1  0.09554600  0.90445400  0.50000000  1
  Cu  Cu27  1  0.90445400  0.09554600  0.50000000  1
  Cu  Cu28  1  0.40445400  0.40445400  0.00000000  1
  Cu  Cu29  1  0.59554600  0.59554600  0.00000000  1
  Cu  Cu30  1  0.46408300  0.18777100  0.50000000  1
  Cu  Cu31  1  0.53591700  0.81222900  0.50000000  1
  Cu  Cu32  1  0.03591700  0.68777100  0.00000000  1
  Cu  Cu33  1  0.96408300  0.31222900  0.00000000  1
  Cu  Cu34  1  0.18777100  0.46408300  0.50000000  1
  Cu  Cu35  1  0.81222900  0.53591700  0.50000000  1
  Cu  Cu36  1  0.68777100  0.03591700  0.00000000  1
  Cu  Cu37  1  0.31222900  0.96408300  0.00000000  1
  Cu  Cu38  1  0.26868500  0.73131500  0.50000000  1
  Cu  Cu39  1  0.73131500  0.26868500  0.50000000  1
  Cu  Cu40  1  0.23131500  0.23131500  0.00000000  1
  Cu  Cu41  1  0.76868500  0.76868500  0.00000000  1
  Cu  Cu42  1  0.37550800  0.62449200  0.50000000  1
  Cu  Cu43  1  0.62449200  0.37550800  0.50000000  1
  Cu  Cu44  1  0.12449200  0.12449200  0.00000000  1
  Cu  Cu45  1  0.87550800  0.87550800  0.00000000  1
