# generated using pymatgen
data_CuNi4C5
_symmetry_space_group_name_H-M   'P 1'
_cell_length_a   7.95811971
_cell_length_b   7.95811971
_cell_length_c   7.95811971
_cell_angle_alpha   158.16061403
_cell_angle_beta   149.01434465
_cell_angle_gamma   38.23059667
_symmetry_Int_Tables_number   1
_chemical_formula_structural   CuNi4C5
_chemical_formula_sum   'Cu1 Ni4 C5'
_cell_volume   96.38685041
_cell_formula_units_Z   1
loop_
 _symmetry_equiv_pos_site_id
 _symmetry_equiv_pos_as_xyz
  1  'x, y, z'
loop_
 _atom_site_type_symbol
 _atom_site_label
 _atom_site_symmetry_multiplicity
 _atom_site_fract_x
 _atom_site_fract_y
 _atom_site_fract_z
 _atom_site_occupancy
  Ni  Ni0  1  0.59907000  0.59907000  0.00000000  1
  Ni  Ni1  1  0.20024300  0.20024300  0.00000000  1
  Ni  Ni2  1  0.79975700  0.79975700  0.00000000  1
  Ni  Ni3  1  0.40093000  0.40093000  0.00000000  1
  Cu  Cu4  1  0.00000000  0.00000000  0.00000000  1
  C  C5  1  0.89788200  0.39788200  0.50000000  1
  C  C6  1  0.69987600  0.19987600  0.50000000  1
  C  C7  1  0.30012400  0.80012400  0.50000000  1
  C  C8  1  0.50000000  0.00000000  0.50000000  1
  C  C9  1  0.10211800  0.60211800  0.50000000  1
