# generated using pymatgen
data_CuNi3C14
_symmetry_space_group_name_H-M   'P 1'
_cell_length_a   12.72558261
_cell_length_b   12.72558261
_cell_length_c   8.33185200
_cell_angle_alpha   90.00000000
_cell_angle_beta   90.00000000
_cell_angle_gamma   120.00000320
_symmetry_Int_Tables_number   1
_chemical_formula_structural   CuNi3C14
_chemical_formula_sum   'Cu6 Ni18 C84'
_cell_volume   1168.49676429
_cell_formula_units_Z   6
loop_
 _symmetry_equiv_pos_site_id
 _symmetry_equiv_pos_as_xyz
  1  'x, y, z'
loop_
 _atom_site_type_symbol
 _atom_site_label
 _atom_site_symmetry_multiplicity
 _atom_site_fract_x
 _atom_site_fract_y
 _atom_site_fract_z
 _atom_site_occupancy
  C  C0  1  0.00379500  0.33564200  0.58691900  1
  C  C1  1  0.33184700  0.99620500  0.58691900  1
  C  C2  1  0.66435800  0.66815300  0.58691900  1
  C  C3  1  0.99620500  0.66435800  0.08691900  1
  C  C4  1  0.66815300  0.00379500  0.08691900  1
  C  C5  1  0.33564200  0.33184700  0.08691900  1
  C  C6  1  0.13289000  0.27419200  0.32555900  1
  C  C7  1  0.14130100  0.86711000  0.32555900  1
  C  C8  1  0.72580800  0.85869900  0.32555900  1
  C  C9  1  0.86711000  0.72580800  0.82555900  1
  C  C10  1  0.85869900  0.13289000  0.82555900  1
  C  C11  1  0.27419200  0.14130100  0.82555900  1
  C  C12  1  0.05676100  0.51091700  0.30739200  1
  C  C13  1  0.45415600  0.94323900  0.30739200  1
  C  C14  1  0.48908300  0.54584400  0.30739200  1
  C  C15  1  0.94323900  0.48908300  0.80739200  1
  C  C16  1  0.54584400  0.05676100  0.80739200  1
  C  C17  1  0.51091700  0.45415600  0.80739200  1
  C  C18  1  0.78725500  0.17613100  0.37167000  1
  C  C19  1  0.38887600  0.21274500  0.37167000  1
  C  C20  1  0.82386900  0.61112400  0.37167000  1
  C  C21  1  0.21274500  0.82386900  0.87167000  1
  C  C22  1  0.61112400  0.78725500  0.87167000  1
  C  C23  1  0.17613100  0.38887600  0.87167000  1
  C  C24  1  0.27116300  0.57852000  0.49646700  1
  C  C25  1  0.30735700  0.72883700  0.49646700  1
  C  C26  1  0.42148000  0.69264300  0.49646700  1
  C  C27  1  0.72883700  0.42148000  0.99646700  1
  C  C28  1  0.69264300  0.27116300  0.99646700  1
  C  C29  1  0.57852000  0.30735700  0.99646700  1
  C  C30  1  0.33333300  0.66666700  0.65815500  1
  C  C31  1  0.66666700  0.33333300  0.15815500  1
  C  C32  1  0.75497200  0.35977400  0.49685800  1
  C  C33  1  0.60480200  0.24502800  0.49685800  1
  C  C34  1  0.64022600  0.39519800  0.49685800  1
  C  C35  1  0.24502800  0.64022600  0.99685800  1
  C  C36  1  0.39519800  0.75497200  0.99685800  1
  C  C37  1  0.35977400  0.60480200  0.99685800  1
  C  C38  1  0.66666700  0.33333300  0.65868900  1
  C  C39  1  0.33333300  0.66666700  0.15868900  1
  C  C40  1  0.93895100  0.02742800  0.16970100  1
  C  C41  1  0.08847700  0.06104900  0.16970100  1
  C  C42  1  0.97257200  0.91152300  0.16970100  1
  C  C43  1  0.06104900  0.97257200  0.66970100  1
  C  C44  1  0.91152300  0.93895100  0.66970100  1
  C  C45  1  0.02742800  0.08847700  0.66970100  1
  C  C46  1  0.00000000  0.00000000  0.00725200  1
  C  C47  1  0.00000000  0.00000000  0.50725200  1
  Ni  Ni48  1  0.18929900  0.37384200  0.33243400  1
  Ni  Ni49  1  0.18454300  0.81070100  0.33243400  1
  Ni  Ni50  1  0.62615800  0.81545700  0.33243400  1
  Ni  Ni51  1  0.81070100  0.62615800  0.83243400  1
  Ni  Ni52  1  0.81545700  0.18929900  0.83243400  1
  Ni  Ni53  1  0.37384200  0.18454300  0.83243400  1
  Ni  Ni54  1  0.95852000  0.47374400  0.32538200  1
  Ni  Ni55  1  0.51522400  0.04148000  0.32538200  1
  Ni  Ni56  1  0.52625600  0.48477600  0.32538200  1
  Ni  Ni57  1  0.04148000  0.52625600  0.82538200  1
  Ni  Ni58  1  0.48477600  0.95852000  0.82538200  1
  Ni  Ni59  1  0.47374400  0.51522400  0.82538200  1
  Ni  Ni60  1  0.85111000  0.14264800  0.35012400  1
  Ni  Ni61  1  0.29153800  0.14889000  0.35012400  1
  Ni  Ni62  1  0.85735200  0.70846200  0.35012400  1
  Ni  Ni63  1  0.14889000  0.85735200  0.85012400  1
  Ni  Ni64  1  0.70846200  0.85111000  0.85012400  1
  Ni  Ni65  1  0.14264800  0.29153800  0.85012400  1
  Cu  Cu66  1  0.33333300  0.66666700  0.53548400  1
  Cu  Cu67  1  0.66666700  0.33333300  0.03548400  1
  Cu  Cu68  1  0.66666700  0.33333300  0.53592000  1
  Cu  Cu69  1  0.33333300  0.66666700  0.03592000  1
  Cu  Cu70  1  0.00000000  0.00000000  0.13004700  1
  Cu  Cu71  1  0.00000000  0.00000000  0.63004700  1
  C  C72  1  0.16197600  0.42675500  0.44142600  1
  C  C73  1  0.26477900  0.83802400  0.44142600  1
  C  C74  1  0.57324500  0.73522100  0.44142600  1
  C  C75  1  0.83802400  0.57324500  0.94142600  1
  C  C76  1  0.73522100  0.16197600  0.94142600  1
  C  C77  1  0.42675500  0.26477900  0.94142600  1
  C  C78  1  0.27580800  0.42840800  0.23437900  1
  C  C79  1  0.15260000  0.72419200  0.23437900  1
  C  C80  1  0.57159200  0.84740000  0.23437900  1
  C  C81  1  0.72419200  0.57159200  0.73437900  1
  C  C82  1  0.84740000  0.27580800  0.73437900  1
  C  C83  1  0.42840800  0.15260000  0.73437900  1
  C  C84  1  0.90817900  0.39901700  0.44070400  1
  C  C85  1  0.49083800  0.09182100  0.44070400  1
  C  C86  1  0.60098300  0.50916200  0.44070400  1
  C  C87  1  0.09182100  0.60098300  0.94070400  1
  C  C88  1  0.50916200  0.90817900  0.94070400  1
  C  C89  1  0.39901700  0.49083800  0.94070400  1
  C  C90  1  0.90281500  0.50819900  0.23258000  1
  C  C91  1  0.60538400  0.09718500  0.23258000  1
  C  C92  1  0.49180100  0.39461600  0.23258000  1
  C  C93  1  0.09718500  0.49180100  0.73258000  1
  C  C94  1  0.39461600  0.90281500  0.73258000  1
  C  C95  1  0.50819900  0.60538400  0.73258000  1
  C  C96  1  0.94208200  0.17825400  0.44159300  1
  C  C97  1  0.23617200  0.05791800  0.44159300  1
  C  C98  1  0.82174600  0.76382800  0.44159300  1
  C  C99  1  0.05791800  0.82174600  0.94159300  1
  C  C100  1  0.76382800  0.94208200  0.94159300  1
  C  C101  1  0.17825400  0.23617200  0.94159300  1
  C  C102  1  0.82801000  0.07010700  0.23245600  1
  C  C103  1  0.24209700  0.17199000  0.23245600  1
  C  C104  1  0.92989300  0.75790300  0.23245600  1
  C  C105  1  0.17199000  0.92989300  0.73245600  1
  C  C106  1  0.75790300  0.82801000  0.73245600  1
  C  C107  1  0.07010700  0.24209700  0.73245600  1
