# generated using pymatgen
data_Cu3NiC16
_symmetry_space_group_name_H-M   'P 1'
_cell_length_a   9.32138892
_cell_length_b   9.29250062
_cell_length_c   9.46620144
_cell_angle_alpha   54.92604672
_cell_angle_beta   54.00555718
_cell_angle_gamma   55.73772639
_symmetry_Int_Tables_number   1
_chemical_formula_structural   Cu3NiC16
_chemical_formula_sum   'Cu6 Ni2 C32'
_cell_volume   510.55132810
_cell_formula_units_Z   2
loop_
 _symmetry_equiv_pos_site_id
 _symmetry_equiv_pos_as_xyz
  1  'x, y, z'
loop_
 _atom_site_type_symbol
 _atom_site_label
 _atom_site_symmetry_multiplicity
 _atom_site_fract_x
 _atom_site_fract_y
 _atom_site_fract_z
 _atom_site_occupancy
  C  C0  1  0.79627600  0.13047000  0.40169600  1
  C  C1  1  0.29327300  0.91432700  0.62691500  1
  C  C2  1  0.64479800  0.29384600  0.89719200  1
  C  C3  1  0.88982900  0.64232100  0.30420600  1
  C  C4  1  0.85069200  0.83922500  0.85651900  1
  C  C5  1  0.16913700  0.15248100  0.15491700  1
  C  C6  1  0.33112200  0.35206100  0.31341100  1
  C  C7  1  0.64552900  0.65381300  0.66256600  1
  Ni  Ni8  1  0.04108800  0.02132300  0.01397400  1
  Ni  Ni9  1  0.45509200  0.50226000  0.46976300  1
  Cu  Cu10  1  0.03551800  0.74928400  0.45592500  1
  Cu  Cu11  1  0.46252200  0.03734500  0.75254000  1
  Cu  Cu12  1  0.23106400  0.55275900  0.95397900  1
  Cu  Cu13  1  0.54607200  0.95222800  0.23714000  1
  Cu  Cu14  1  0.94943600  0.23642400  0.54361000  1
  Cu  Cu15  1  0.74938700  0.44749700  0.04232900  1
  C  C16  1  0.15415200  0.18910600  0.51237100  1
  C  C17  1  0.16790800  0.55492100  0.14700300  1
  C  C18  1  0.09647300  0.90795000  0.26335000  1
  C  C19  1  0.53757300  0.15294400  0.17199400  1
  C  C20  1  0.98592800  0.80333300  0.61003200  1
  C  C21  1  0.20049600  0.55612000  0.46084600  1
  C  C22  1  0.26691700  0.12244100  0.89072300  1
  C  C23  1  0.51387700  0.19581900  0.55403000  1
  C  C24  1  0.20248000  0.39686500  0.97255400  1
  C  C25  1  0.54815800  0.46649500  0.20731600  1
  C  C26  1  0.10801300  0.74757600  0.84735200  1
  C  C27  1  0.38734300  0.95205000  0.22917300  1
  C  C28  1  0.61681800  0.95661500  0.82221400  1
  C  C29  1  0.88573000  0.24988400  0.12390900  1
  C  C30  1  0.43927900  0.53786400  0.83092100  1
  C  C31  1  0.81452200  0.59874500  0.98931300  1
  C  C32  1  0.54617000  0.82772300  0.43480000  1
  C  C33  1  0.74288500  0.85539300  0.09989900  1
  C  C34  1  0.82088800  0.43486000  0.54364300  1
  C  C35  1  0.95075300  0.21048900  0.39599000  1
  C  C36  1  0.44416200  0.89175500  0.73993400  1
  C  C37  1  0.86018000  0.09616500  0.74377200  1
  C  C38  1  0.74926100  0.45023800  0.88011700  1
  C  C39  1  0.86919900  0.74398400  0.46506300  1
