# generated using pymatgen
data_Cu4(Ni2C9)3
_symmetry_space_group_name_H-M   'P 1'
_cell_length_a   17.96139805
_cell_length_b   17.96139805
_cell_length_c   5.62668111
_cell_angle_alpha   89.91743066
_cell_angle_beta   89.91743066
_cell_angle_gamma   161.97540666
_symmetry_Int_Tables_number   1
_chemical_formula_structural   Cu4(Ni2C9)3
_chemical_formula_sum   'Cu4 Ni6 C27'
_cell_volume   561.65530905
_cell_formula_units_Z   1
loop_
 _symmetry_equiv_pos_site_id
 _symmetry_equiv_pos_as_xyz
  1  'x, y, z'
loop_
 _atom_site_type_symbol
 _atom_site_label
 _atom_site_symmetry_multiplicity
 _atom_site_fract_x
 _atom_site_fract_y
 _atom_site_fract_z
 _atom_site_occupancy
  C  C0  1  0.41429600  0.09257500  0.25343700  1
  C  C1  1  0.90742500  0.58570400  0.74656300  1
  C  C2  1  0.58570400  0.90742500  0.74656300  1
  C  C3  1  0.09257500  0.41429600  0.25343700  1
  C  C4  1  0.31262000  0.20156500  0.25704900  1
  C  C5  1  0.79843500  0.68738000  0.74295100  1
  C  C6  1  0.68738000  0.79843500  0.74295100  1
  C  C7  1  0.20156500  0.31262000  0.25704900  1
  Ni  Ni8  1  0.35538600  0.13504700  0.75478700  1
  Ni  Ni9  1  0.86495300  0.64461400  0.24521300  1
  Ni  Ni10  1  0.64461400  0.86495300  0.24521300  1
  Ni  Ni11  1  0.13504700  0.35538600  0.75478700  1
  Ni  Ni12  1  0.74436800  0.74436800  0.25564900  1
  Ni  Ni13  1  0.25563200  0.25563200  0.74435100  1
  Cu  Cu14  1  0.75009200  0.24990800  0.50000000  1
  Cu  Cu15  1  0.25009200  0.74990800  0.00000000  1
  Cu  Cu16  1  0.24990800  0.75009200  0.50000000  1
  Cu  Cu17  1  0.74990800  0.25009200  0.00000000  1
  C  C18  1  0.45771800  0.04309700  0.74990800  1
  C  C19  1  0.95690300  0.54228200  0.25009200  1
  C  C20  1  0.54228200  0.95690300  0.25009200  1
  C  C21  1  0.04309700  0.45771800  0.74990800  1
  C  C22  1  0.26421900  0.15819300  0.78887700  1
  C  C23  1  0.84180700  0.73578100  0.21112300  1
  C  C24  1  0.73578100  0.84180700  0.21112300  1
  C  C25  1  0.15819300  0.26421900  0.78887700  1
  C  C26  1  0.61238900  0.38761100  0.50000000  1
  C  C27  1  0.12208100  0.87791900  0.00000000  1
  C  C28  1  0.11774400  0.88225600  0.50000000  1
  C  C29  1  0.61773800  0.38226200  0.00000000  1
  C  C30  1  0.38761100  0.61238900  0.50000000  1
  C  C31  1  0.87791900  0.12208100  0.00000000  1
  C  C32  1  0.88225600  0.11774400  0.50000000  1
  C  C33  1  0.38226200  0.61773800  0.00000000  1
  C  C34  1  0.50000000  0.50000000  0.50000000  1
  C  C35  1  0.50000000  0.50000000  0.00000000  1
  C  C36  1  0.00000000  0.00000000  0.50000000  1
