# generated using pymatgen
data_Cu6Ni2C31
_symmetry_space_group_name_H-M   'P 1'
_cell_length_a   7.79350000
_cell_length_b   7.57337400
_cell_length_c   7.64116500
_cell_angle_alpha   90.00000000
_cell_angle_beta   90.00000000
_cell_angle_gamma   90.00000000
_symmetry_Int_Tables_number   1
_chemical_formula_structural   Cu6Ni2C31
_chemical_formula_sum   'Cu6 Ni2 C31'
_cell_volume   451.00517156
_cell_formula_units_Z   1
loop_
 _symmetry_equiv_pos_site_id
 _symmetry_equiv_pos_as_xyz
  1  'x, y, z'
loop_
 _atom_site_type_symbol
 _atom_site_label
 _atom_site_symmetry_multiplicity
 _atom_site_fract_x
 _atom_site_fract_y
 _atom_site_fract_z
 _atom_site_occupancy
  Ni  Ni0  1  0.25904800  0.25828000  0.25000000  1
  Ni  Ni1  1  0.74095200  0.25828000  0.25000000  1
  Cu  Cu2  1  0.25424200  0.26308900  0.75000000  1
  Cu  Cu3  1  0.25560100  0.74973200  0.25000000  1
  Cu  Cu4  1  0.25656000  0.73456600  0.75000000  1
  Cu  Cu5  1  0.74575800  0.26308900  0.75000000  1
  Cu  Cu6  1  0.74439900  0.74973200  0.25000000  1
  Cu  Cu7  1  0.74344000  0.73456600  0.75000000  1
  C  C8  1  0.00000000  0.99300900  0.98390100  1
  C  C9  1  0.00000000  0.99300900  0.51609900  1
  C  C10  1  0.00000000  0.50368000  0.00036100  1
  C  C11  1  0.00000000  0.50368000  0.49963900  1
  C  C12  1  0.50000000  0.00024500  0.99993400  1
  C  C13  1  0.50000000  0.00024500  0.50006600  1
  C  C14  1  0.50000000  0.50521700  0.99808200  1
  C  C15  1  0.50000000  0.50521700  0.50191800  1
  C  C16  1  0.00000000  0.92404500  0.75000000  1
  C  C17  1  0.00000000  0.44714900  0.25000000  1
  C  C18  1  0.00000000  0.55757600  0.75000000  1
  C  C19  1  0.50000000  0.94745100  0.25000000  1
  C  C20  1  0.50000000  0.05678800  0.75000000  1
  C  C21  1  0.50000000  0.54969900  0.25000000  1
  C  C22  1  0.50000000  0.45530200  0.75000000  1
  C  C23  1  0.24407500  0.99877900  0.02250100  1
  C  C24  1  0.24407500  0.99877900  0.47749900  1
  C  C25  1  0.25008200  0.50833800  0.99189200  1
  C  C26  1  0.25008200  0.50833800  0.50810800  1
  C  C27  1  0.75592500  0.99877900  0.02250100  1
  C  C28  1  0.75592500  0.99877900  0.47749900  1
  C  C29  1  0.74991800  0.50833800  0.99189200  1
  C  C30  1  0.74991800  0.50833800  0.50810800  1
  C  C31  1  0.00000000  0.24737000  0.94917200  1
  C  C32  1  0.00000000  0.24737000  0.55082800  1
  C  C33  1  0.00000000  0.75381000  0.06708100  1
  C  C34  1  0.00000000  0.75381000  0.43291900  1
  C  C35  1  0.50000000  0.25340200  0.03827200  1
  C  C36  1  0.50000000  0.25340200  0.46172800  1
  C  C37  1  0.50000000  0.75436100  0.94281600  1
  C  C38  1  0.50000000  0.75436100  0.55718400  1
