# generated using pymatgen
data_Cu3(NiC4)2
_symmetry_space_group_name_H-M   'P 1'
_cell_length_a   6.40788818
_cell_length_b   6.40788818
_cell_length_c   10.34498700
_cell_angle_alpha   90.00000000
_cell_angle_beta   90.00000000
_cell_angle_gamma   120.00000185
_symmetry_Int_Tables_number   1
_chemical_formula_structural   Cu3(NiC4)2
_chemical_formula_sum   'Cu6 Ni4 C16'
_cell_volume   367.86665377
_cell_formula_units_Z   2
loop_
 _symmetry_equiv_pos_site_id
 _symmetry_equiv_pos_as_xyz
  1  'x, y, z'
loop_
 _atom_site_type_symbol
 _atom_site_label
 _atom_site_symmetry_multiplicity
 _atom_site_fract_x
 _atom_site_fract_y
 _atom_site_fract_z
 _atom_site_occupancy
  Ni  Ni0  1  0.66666700  0.33333300  0.96083100  1
  Ni  Ni1  1  0.33333300  0.66666700  0.46083100  1
  Ni  Ni2  1  0.66666700  0.33333300  0.35254000  1
  Ni  Ni3  1  0.33333300  0.66666700  0.85254000  1
  Cu  Cu4  1  0.83663400  0.67326700  0.64129900  1
  Cu  Cu5  1  0.83663400  0.16336600  0.64129900  1
  Cu  Cu6  1  0.16336600  0.32673300  0.14129900  1
  Cu  Cu7  1  0.32673300  0.16336600  0.64129900  1
  Cu  Cu8  1  0.16336600  0.83663400  0.14129900  1
  Cu  Cu9  1  0.67326700  0.83663400  0.14129900  1
  C  C10  1  0.52301700  0.04603500  0.52968100  1
  C  C11  1  0.52301700  0.47698300  0.52968100  1
  C  C12  1  0.47698300  0.95396500  0.02968100  1
  C  C13  1  0.95396500  0.47698300  0.52968100  1
  C  C14  1  0.47698300  0.52301700  0.02968100  1
  C  C15  1  0.04603500  0.52301700  0.02968100  1
  C  C16  1  0.15947600  0.31895200  0.73227700  1
  C  C17  1  0.15947600  0.84052400  0.73227700  1
  C  C18  1  0.84052400  0.68104800  0.23227700  1
  C  C19  1  0.68104800  0.84052400  0.73227700  1
  C  C20  1  0.84052400  0.15947600  0.23227700  1
  C  C21  1  0.31895200  0.15947600  0.23227700  1
  C  C22  1  0.00000000  0.00000000  0.03828400  1
  C  C23  1  0.00000000  0.00000000  0.53828400  1
  C  C24  1  0.66666700  0.33333300  0.74717400  1
  C  C25  1  0.33333300  0.66666700  0.24717400  1
