# generated using pymatgen
data_Cu2NiC2
_symmetry_space_group_name_H-M   'P 1'
_cell_length_a   6.76058186
_cell_length_b   6.76058186
_cell_length_c   5.51428600
_cell_angle_alpha   90.00000000
_cell_angle_beta   90.00000000
_cell_angle_gamma   131.86545489
_symmetry_Int_Tables_number   1
_chemical_formula_structural   Cu2NiC2
_chemical_formula_sum   'Cu4 Ni2 C4'
_cell_volume   187.69253241
_cell_formula_units_Z   2
loop_
 _symmetry_equiv_pos_site_id
 _symmetry_equiv_pos_as_xyz
  1  'x, y, z'
loop_
 _atom_site_type_symbol
 _atom_site_label
 _atom_site_symmetry_multiplicity
 _atom_site_fract_x
 _atom_site_fract_y
 _atom_site_fract_z
 _atom_site_occupancy
  C  C0  1  0.69880700  0.30119300  0.50000000  1
  C  C1  1  0.15295800  0.84704200  0.00000000  1
  C  C2  1  0.83973400  0.16026600  0.00000000  1
  C  C3  1  0.34312500  0.65687500  0.50000000  1
  Ni  Ni4  1  0.49325100  0.50674900  0.00000000  1
  Ni  Ni5  1  0.98346900  0.01653100  0.50000000  1
  Cu  Cu6  1  0.49377600  0.99944900  0.75236600  1
  Cu  Cu7  1  0.00055100  0.50622400  0.24763400  1
  Cu  Cu8  1  0.00055100  0.50622400  0.75236600  1
  Cu  Cu9  1  0.49377600  0.99944900  0.24763400  1
