# generated using pymatgen
data_CuNiC8
_symmetry_space_group_name_H-M   'P 1'
_cell_length_a   9.21117755
_cell_length_b   9.19711803
_cell_length_c   9.34066937
_cell_angle_alpha   90.00000000
_cell_angle_beta   90.00000000
_cell_angle_gamma   90.00000000
_symmetry_Int_Tables_number   1
_chemical_formula_structural   CuNiC8
_chemical_formula_sum   'Cu4 Ni4 C32'
_cell_volume   791.30682827
_cell_formula_units_Z   4
loop_
 _symmetry_equiv_pos_site_id
 _symmetry_equiv_pos_as_xyz
  1  'x, y, z'
loop_
 _atom_site_type_symbol
 _atom_site_label
 _atom_site_symmetry_multiplicity
 _atom_site_fract_x
 _atom_site_fract_y
 _atom_site_fract_z
 _atom_site_occupancy
  Ni  Ni0  1  0.00000000  0.50000000  0.50000000  1
  Ni  Ni1  1  0.50000000  0.50000000  0.00000000  1
  Ni  Ni2  1  0.50000000  0.00000000  0.00000000  1
  Ni  Ni3  1  0.00000000  0.00000000  0.50000000  1
  C  C4  1  0.75000000  0.75000000  0.75000000  1
  C  C5  1  0.25000000  0.25000000  0.75000000  1
  C  C6  1  0.25000000  0.75000000  0.25000000  1
  C  C7  1  0.75000000  0.25000000  0.25000000  1
  Cu  Cu8  1  0.50000000  0.00000000  0.50000000  1
  Cu  Cu9  1  0.00000000  0.50000000  0.00000000  1
  Cu  Cu10  1  0.00000000  0.00000000  0.00000000  1
  Cu  Cu11  1  0.50000000  0.50000000  0.50000000  1
  C  C12  1  0.25000000  0.25000000  0.25000000  1
  C  C13  1  0.75000000  0.75000000  0.25000000  1
  C  C14  1  0.75000000  0.25000000  0.75000000  1
  C  C15  1  0.25000000  0.75000000  0.75000000  1
  C  C16  1  0.02108458  0.20103988  0.28487375  1
  C  C17  1  0.97891542  0.79896012  0.28487375  1
  C  C18  1  0.97891542  0.20103988  0.71512625  1
  C  C19  1  0.02108458  0.79896012  0.71512625  1
  C  C20  1  0.28777680  0.02074853  0.20269293  1
  C  C21  1  0.28777680  0.97925147  0.79730707  1
  C  C22  1  0.71222320  0.97925147  0.20269293  1
  C  C23  1  0.71222320  0.02074853  0.79730707  1
  C  C24  1  0.19379453  0.29191461  0.01875005  1
  C  C25  1  0.80620547  0.29191461  0.98124995  1
  C  C26  1  0.19379453  0.70808539  0.98124995  1
  C  C27  1  0.80620547  0.70808539  0.01875005  1
  C  C28  1  0.47891542  0.29896012  0.21512625  1
  C  C29  1  0.52108458  0.70103988  0.21512625  1
  C  C30  1  0.52108458  0.29896012  0.78487375  1
  C  C31  1  0.47891542  0.70103988  0.78487375  1
  C  C32  1  0.21222320  0.47925147  0.29730707  1
  C  C33  1  0.21222320  0.52074853  0.70269293  1
  C  C34  1  0.78777680  0.52074853  0.29730707  1
  C  C35  1  0.78777680  0.47925147  0.70269293  1
  C  C36  1  0.30620547  0.20808539  0.48124995  1
  C  C37  1  0.69379453  0.20808539  0.51875005  1
  C  C38  1  0.30620547  0.79191461  0.51875005  1
  C  C39  1  0.69379453  0.79191461  0.48124995  1
