# generated using pymatgen
data_Cu15(NiC)2
_symmetry_space_group_name_H-M   'P 1'
_cell_length_a   8.47496900
_cell_length_b   8.49214512
_cell_length_c   8.49243798
_cell_angle_alpha   120.00184284
_cell_angle_beta   89.99947566
_cell_angle_gamma   90.00172651
_symmetry_Int_Tables_number   1
_chemical_formula_structural   Cu15(NiC)2
_chemical_formula_sum   'Cu30 Ni4 C4'
_cell_volume   529.31045907
_cell_formula_units_Z   2
loop_
 _symmetry_equiv_pos_site_id
 _symmetry_equiv_pos_as_xyz
  1  'x, y, z'
loop_
 _atom_site_type_symbol
 _atom_site_label
 _atom_site_symmetry_multiplicity
 _atom_site_fract_x
 _atom_site_fract_y
 _atom_site_fract_z
 _atom_site_occupancy
  C  C0  1  0.75003700  0.99997400  0.00002500  1
  C  C1  1  0.24996300  0.00002600  0.99997500  1
  C  C2  1  0.24997600  0.66672700  0.33328100  1
  C  C3  1  0.75002400  0.33327300  0.66671900  1
  Ni  Ni4  1  0.59911100  0.66671900  0.33328800  1
  Ni  Ni5  1  0.40088900  0.33328100  0.66671200  1
  Ni  Ni6  1  0.09907500  0.33327200  0.66671000  1
  Ni  Ni7  1  0.90092500  0.66672800  0.33329000  1
  Cu  Cu8  1  0.49999900  0.50000000  0.99999900  1
  Cu  Cu9  1  0.49999900  0.50000000  0.50000000  1
  Cu  Cu10  1  0.49999900  0.00000000  0.50000100  1
  Cu  Cu11  1  0.00000100  0.50000000  0.00000000  1
  Cu  Cu12  1  0.00000100  0.50000000  0.50000000  1
  Cu  Cu13  1  0.00000100  0.00000000  0.50000000  1
  Cu  Cu14  1  0.75001900  0.67013000  0.02832600  1
  Cu  Cu15  1  0.75001500  0.35822700  0.32994500  1
  Cu  Cu16  1  0.75002200  0.97174000  0.64177700  1
  Cu  Cu17  1  0.75001900  0.35822200  0.02825800  1
  Cu  Cu18  1  0.75002200  0.97167800  0.32987400  1
  Cu  Cu19  1  0.75001500  0.67005900  0.64177200  1
  Cu  Cu20  1  0.24998100  0.32987000  0.97167400  1
  Cu  Cu21  1  0.24998500  0.64177300  0.67005600  1
  Cu  Cu22  1  0.24997800  0.02826000  0.35822300  1
  Cu  Cu23  1  0.24998100  0.64177800  0.97174100  1
  Cu  Cu24  1  0.24997800  0.02832300  0.67012700  1
  Cu  Cu25  1  0.24998500  0.32994000  0.35822900  1
  Cu  Cu26  1  0.48842600  0.83704700  0.67400200  1
  Cu  Cu27  1  0.48847600  0.83700500  0.16300100  1
  Cu  Cu28  1  0.48842400  0.32599700  0.16295500  1
  Cu  Cu29  1  0.51157300  0.16295300  0.32599900  1
  Cu  Cu30  1  0.51152300  0.16299500  0.83699900  1
  Cu  Cu31  1  0.51157500  0.67400300  0.83704400  1
  Cu  Cu32  1  0.98844300  0.16294300  0.32599000  1
  Cu  Cu33  1  0.98849100  0.16298800  0.83699900  1
  Cu  Cu34  1  0.98844100  0.67401500  0.83705300  1
  Cu  Cu35  1  0.01155800  0.83705800  0.67401000  1
  Cu  Cu36  1  0.01151000  0.83701200  0.16300100  1
  Cu  Cu37  1  0.01156000  0.32598400  0.16294600  1
