# generated using pymatgen
data_Cu11NiC4
_symmetry_space_group_name_H-M   'P 1'
_cell_length_a   3.96525800
_cell_length_b   3.96525800
_cell_length_c   17.42965400
_cell_angle_alpha   90.00000000
_cell_angle_beta   90.00000000
_cell_angle_gamma   90.00000000
_symmetry_Int_Tables_number   1
_chemical_formula_structural   Cu11NiC4
_chemical_formula_sum   'Cu11 Ni1 C4'
_cell_volume   274.05117339
_cell_formula_units_Z   1
loop_
 _symmetry_equiv_pos_site_id
 _symmetry_equiv_pos_as_xyz
  1  'x, y, z'
loop_
 _atom_site_type_symbol
 _atom_site_label
 _atom_site_symmetry_multiplicity
 _atom_site_fract_x
 _atom_site_fract_y
 _atom_site_fract_z
 _atom_site_occupancy
  C  C0  1  0.50000000  0.50000000  0.38170000  1
  C  C1  1  0.00000000  0.00000000  0.88222100  1
  C  C2  1  0.00000000  0.00000000  0.11812200  1
  C  C3  1  0.50000000  0.50000000  0.61947700  1
  Ni  Ni4  1  0.50000000  0.50000000  0.12762700  1
  Cu  Cu5  1  0.50000000  0.00000000  0.00246000  1
  Cu  Cu6  1  0.00000000  0.50000000  0.50010700  1
  Cu  Cu7  1  0.00000000  0.50000000  0.00246000  1
  Cu  Cu8  1  0.50000000  0.00000000  0.50010700  1
  Cu  Cu9  1  0.00000000  0.50000000  0.24629100  1
  Cu  Cu10  1  0.50000000  0.00000000  0.75019900  1
  Cu  Cu11  1  0.50000000  0.00000000  0.24629100  1
  Cu  Cu12  1  0.00000000  0.50000000  0.75019900  1
  Cu  Cu13  1  0.00000000  0.00000000  0.62499900  1
  Cu  Cu14  1  0.00000000  0.00000000  0.37111400  1
  Cu  Cu15  1  0.50000000  0.50000000  0.87662700  1
