# generated using pymatgen
data_CuNiC6
_symmetry_space_group_name_H-M   'P 1'
_cell_length_a   7.26583196
_cell_length_b   7.26583196
_cell_length_c   7.26583196
_cell_angle_alpha   130.10884566
_cell_angle_beta   130.10884566
_cell_angle_gamma   73.23281702
_symmetry_Int_Tables_number   1
_chemical_formula_structural   CuNiC6
_chemical_formula_sum   'Cu1 Ni1 C6'
_cell_volume   219.06121284
_cell_formula_units_Z   1
loop_
 _symmetry_equiv_pos_site_id
 _symmetry_equiv_pos_as_xyz
  1  'x, y, z'
loop_
 _atom_site_type_symbol
 _atom_site_label
 _atom_site_symmetry_multiplicity
 _atom_site_fract_x
 _atom_site_fract_y
 _atom_site_fract_z
 _atom_site_occupancy
  Ni  Ni0  1  0.50000000  0.50000000  0.00000000  1
  Cu  Cu1  1  0.75000000  0.25000000  0.50000000  1
  C  C2  1  0.25000000  0.75000000  0.50000000  1
  C  C3  1  0.00000000  0.00000000  0.00000000  1
  C  C4  1  0.10463200  0.13538000  0.50270900  1
  C  C5  1  0.63267100  0.60192300  0.49729100  1
  C  C6  1  0.39807700  0.89536800  0.03074800  1
  C  C7  1  0.86462000  0.36732900  0.96925200  1
