# generated using pymatgen
data_Cu2NiC9
_symmetry_space_group_name_H-M   'P 1'
_cell_length_a   11.50444000
_cell_length_b   7.68507900
_cell_length_c   7.87250500
_cell_angle_alpha   90.00000000
_cell_angle_beta   90.00000000
_cell_angle_gamma   90.00000000
_symmetry_Int_Tables_number   1
_chemical_formula_structural   Cu2NiC9
_chemical_formula_sum   'Cu8 Ni4 C36'
_cell_volume   696.02808646
_cell_formula_units_Z   4
loop_
 _symmetry_equiv_pos_site_id
 _symmetry_equiv_pos_as_xyz
  1  'x, y, z'
loop_
 _atom_site_type_symbol
 _atom_site_label
 _atom_site_symmetry_multiplicity
 _atom_site_fract_x
 _atom_site_fract_y
 _atom_site_fract_z
 _atom_site_occupancy
  C  C0  1  0.91318400  0.76823300  0.28397300  1
  C  C1  1  0.58681600  0.73176700  0.78397300  1
  C  C2  1  0.41318400  0.23176700  0.71602700  1
  C  C3  1  0.08681600  0.26823300  0.21602700  1
  C  C4  1  0.10475000  0.06600700  0.59402200  1
  C  C5  1  0.39525000  0.43399300  0.09402200  1
  C  C6  1  0.60475000  0.93399300  0.40597800  1
  C  C7  1  0.89525000  0.56600700  0.90597800  1
  Ni  Ni8  1  0.99172800  0.99219700  0.99059800  1
  Ni  Ni9  1  0.49172800  0.00780300  0.00940200  1
  Ni  Ni10  1  0.50827200  0.50780300  0.49059800  1
  Ni  Ni11  1  0.00827200  0.49219700  0.50940200  1
  Cu  Cu12  1  0.64207100  0.65166000  0.13692900  1
  Cu  Cu13  1  0.63554400  0.35815700  0.85344500  1
  Cu  Cu14  1  0.86445600  0.14184300  0.35344500  1
  Cu  Cu15  1  0.85792900  0.84834000  0.63692900  1
  Cu  Cu16  1  0.14207100  0.34834000  0.86307100  1
  Cu  Cu17  1  0.13554400  0.64184300  0.14655500  1
  Cu  Cu18  1  0.35792900  0.15166000  0.36307100  1
  Cu  Cu19  1  0.36445600  0.85815700  0.64655500  1
  C  C20  1  0.08264200  0.48158900  0.00860300  1
  C  C21  1  0.08284900  0.15393100  0.90012500  1
  C  C22  1  0.06094700  0.80858300  0.07875300  1
  C  C23  1  0.07417100  0.58223300  0.32749200  1
  C  C24  1  0.09017800  0.39830500  0.67572200  1
  C  C25  1  0.22004400  0.15817400  0.38105000  1
  C  C26  1  0.22709900  0.85906700  0.64721600  1
  C  C27  1  0.27290100  0.64093300  0.14721600  1
  C  C28  1  0.27995600  0.34182600  0.88105000  1
  C  C29  1  0.42582900  0.91776700  0.82749200  1
  C  C30  1  0.43905300  0.69141700  0.57875300  1
  C  C31  1  0.41715100  0.34606900  0.40012500  1
  C  C32  1  0.40982200  0.10169500  0.17572200  1
  C  C33  1  0.41735800  0.01841100  0.50860200  1
  C  C34  1  0.58264200  0.51841100  0.99139800  1
  C  C35  1  0.58284900  0.84606900  0.09987500  1
  C  C36  1  0.59017800  0.60169500  0.32427800  1
  C  C37  1  0.57417100  0.41776700  0.67250800  1
  C  C38  1  0.56094700  0.19141700  0.92124700  1
  C  C39  1  0.72709900  0.14093300  0.35278400  1
  C  C40  1  0.72004400  0.84182600  0.61895000  1
  C  C41  1  0.77290100  0.35906700  0.85278400  1
  C  C42  1  0.77995600  0.65817400  0.11895000  1
  C  C43  1  0.90982200  0.89830500  0.82427800  1
  C  C44  1  0.91715100  0.65393100  0.59987500  1
  C  C45  1  0.93905300  0.30858300  0.42124700  1
  C  C46  1  0.92582900  0.08223300  0.17250800  1
  C  C47  1  0.91735800  0.98158900  0.49139700  1
