# generated using pymatgen
data_Cu6Ni4C
_symmetry_space_group_name_H-M   'P 1'
_cell_length_a   6.25533833
_cell_length_b   6.25533833
_cell_length_c   5.30280900
_cell_angle_alpha   90.00000000
_cell_angle_beta   90.00000000
_cell_angle_gamma   120.00000351
_symmetry_Int_Tables_number   1
_chemical_formula_structural   Cu6Ni4C
_chemical_formula_sum   'Cu6 Ni4 C1'
_cell_volume   179.69591713
_cell_formula_units_Z   1
loop_
 _symmetry_equiv_pos_site_id
 _symmetry_equiv_pos_as_xyz
  1  'x, y, z'
loop_
 _atom_site_type_symbol
 _atom_site_label
 _atom_site_symmetry_multiplicity
 _atom_site_fract_x
 _atom_site_fract_y
 _atom_site_fract_z
 _atom_site_occupancy
  C  C0  1  0.00000000  0.00000000  0.50000000  1
  Ni  Ni1  1  0.66666700  0.33333300  0.42582500  1
  Ni  Ni2  1  0.33333300  0.66666700  0.57417500  1
  Ni  Ni3  1  0.33333300  0.66666700  0.92749600  1
  Ni  Ni4  1  0.66666700  0.33333300  0.07250400  1
  Cu  Cu5  1  0.03503200  0.51751600  0.24850500  1
  Cu  Cu6  1  0.48248400  0.51751600  0.24850500  1
  Cu  Cu7  1  0.48248400  0.96496800  0.24850500  1
  Cu  Cu8  1  0.96496800  0.48248400  0.75149500  1
  Cu  Cu9  1  0.51751600  0.48248400  0.75149500  1
  Cu  Cu10  1  0.51751600  0.03503200  0.75149500  1
