# generated using pymatgen
data_CuNiC8
_symmetry_space_group_name_H-M   'P 1'
_cell_length_a   7.84088888
_cell_length_b   7.84088980
_cell_length_c   9.48833973
_cell_angle_alpha   113.29825935
_cell_angle_beta   66.70173657
_cell_angle_gamma   89.18330791
_symmetry_Int_Tables_number   1
_chemical_formula_structural   CuNiC8
_chemical_formula_sum   'Cu4 Ni4 C32'
_cell_volume   481.90599960
_cell_formula_units_Z   4
loop_
 _symmetry_equiv_pos_site_id
 _symmetry_equiv_pos_as_xyz
  1  'x, y, z'
loop_
 _atom_site_type_symbol
 _atom_site_label
 _atom_site_symmetry_multiplicity
 _atom_site_fract_x
 _atom_site_fract_y
 _atom_site_fract_z
 _atom_site_occupancy
  C  C0  1  0.87545300  0.12454700  0.75090500  1
  C  C1  1  0.12545300  0.37454700  0.25090500  1
  C  C2  1  0.37545300  0.62454700  0.75090500  1
  C  C3  1  0.62545300  0.87454700  0.25090500  1
  C  C4  1  0.62454700  0.37545300  0.24909500  1
  C  C5  1  0.87454700  0.62545300  0.74909500  1
  C  C6  1  0.12454700  0.87545300  0.24909500  1
  C  C7  1  0.37454700  0.12545300  0.74909500  1
  Ni  Ni8  1  0.75000000  0.25000000  0.50000000  1
  Ni  Ni9  1  0.00000000  0.50000000  0.00000000  1
  Ni  Ni10  1  0.25000000  0.75000000  0.50000000  1
  Ni  Ni11  1  0.50000000  0.00000000  0.00000000  1
  Cu  Cu12  1  0.50000000  0.50000000  0.00000000  1
  Cu  Cu13  1  0.75000000  0.75000000  0.50000000  1
  Cu  Cu14  1  0.00000000  0.00000000  0.00000000  1
  Cu  Cu15  1  0.25000000  0.25000000  0.50000000  1
  C  C16  1  0.84748600  0.08530700  0.24146900  1
  C  C17  1  0.09748600  0.33530700  0.74146900  1
  C  C18  1  0.34748600  0.58530700  0.24146900  1
  C  C19  1  0.59748600  0.83530700  0.74146900  1
  C  C20  1  0.47375500  0.29949300  0.53542700  1
  C  C21  1  0.72375500  0.54949300  0.03542700  1
  C  C22  1  0.97375500  0.79949300  0.53542700  1
  C  C23  1  0.22375500  0.04949300  0.03542700  1
  C  C24  1  0.80131700  0.49264200  0.46822000  1
  C  C25  1  0.05131700  0.74264200  0.96822000  1
  C  C26  1  0.30131700  0.99264200  0.46822000  1
  C  C27  1  0.55131700  0.24264200  0.96822000  1
  C  C28  1  0.65251400  0.41469300  0.75853100  1
  C  C29  1  0.90251400  0.66469300  0.25853100  1
  C  C30  1  0.15251400  0.91469300  0.75853100  1
  C  C31  1  0.40251400  0.16469300  0.25853100  1
  C  C32  1  0.69868300  0.00735800  0.53178000  1
  C  C33  1  0.94868300  0.25735800  0.03178000  1
  C  C34  1  0.19868300  0.50735800  0.53178000  1
  C  C35  1  0.44868300  0.75735800  0.03178000  1
  C  C36  1  0.02624500  0.20050700  0.46457300  1
  C  C37  1  0.27624500  0.45050700  0.96457300  1
  C  C38  1  0.52624500  0.70050700  0.46457300  1
  C  C39  1  0.77624500  0.95050700  0.96457300  1
