# generated using pymatgen
data_Cu2NiC10
_symmetry_space_group_name_H-M   'P 1'
_cell_length_a   3.96540200
_cell_length_b   3.96540200
_cell_length_c   12.96003300
_cell_angle_alpha   90.00000000
_cell_angle_beta   90.00000000
_cell_angle_gamma   90.00000000
_symmetry_Int_Tables_number   1
_chemical_formula_structural   Cu2NiC10
_chemical_formula_sum   'Cu2 Ni1 C10'
_cell_volume   203.78891167
_cell_formula_units_Z   1
loop_
 _symmetry_equiv_pos_site_id
 _symmetry_equiv_pos_as_xyz
  1  'x, y, z'
loop_
 _atom_site_type_symbol
 _atom_site_label
 _atom_site_symmetry_multiplicity
 _atom_site_fract_x
 _atom_site_fract_y
 _atom_site_fract_z
 _atom_site_occupancy
  C  C0  1  0.00000000  0.00000000  0.20076600  1
  C  C1  1  0.00000000  0.00000000  0.79923400  1
  C  C2  1  0.00000000  0.00000000  0.50000000  1
  Ni  Ni3  1  0.50000000  0.50000000  0.00000000  1
  Cu  Cu4  1  0.50000000  0.50000000  0.37190800  1
  Cu  Cu5  1  0.50000000  0.50000000  0.62809200  1
  C  C6  1  0.50000000  0.50000000  0.16654000  1
  C  C7  1  0.50000000  0.00000000  0.38929300  1
  C  C8  1  0.00000000  0.50000000  0.38929300  1
  C  C9  1  0.00000000  0.50000000  0.61070700  1
  C  C10  1  0.00000000  0.00000000  0.00000000  1
  C  C11  1  0.50000000  0.00000000  0.61070700  1
  C  C12  1  0.50000000  0.50000000  0.83346000  1
