# generated using pymatgen
data_CuNiC
_symmetry_space_group_name_H-M   'P 1'
_cell_length_a   4.49420900
_cell_length_b   7.14930000
_cell_length_c   7.18654600
_cell_angle_alpha   90.00000000
_cell_angle_beta   90.00000000
_cell_angle_gamma   90.00000000
_symmetry_Int_Tables_number   1
_chemical_formula_structural   CuNiC
_chemical_formula_sum   'Cu4 Ni4 C4'
_cell_volume   230.90694545
_cell_formula_units_Z   4
loop_
 _symmetry_equiv_pos_site_id
 _symmetry_equiv_pos_as_xyz
  1  'x, y, z'
loop_
 _atom_site_type_symbol
 _atom_site_label
 _atom_site_symmetry_multiplicity
 _atom_site_fract_x
 _atom_site_fract_y
 _atom_site_fract_z
 _atom_site_occupancy
  C  C0  1  0.25000000  0.52042300  0.69003500  1
  C  C1  1  0.75000000  0.47957700  0.30996500  1
  C  C2  1  0.25000000  0.02042300  0.80996500  1
  C  C3  1  0.75000000  0.97957700  0.19003500  1
  Ni  Ni4  1  0.25000000  0.69942500  0.10691000  1
  Ni  Ni5  1  0.75000000  0.30057500  0.89309000  1
  Ni  Ni6  1  0.25000000  0.19942500  0.39309000  1
  Ni  Ni7  1  0.75000000  0.80057500  0.60691000  1
  Cu  Cu8  1  0.75000000  0.15256800  0.56428300  1
  Cu  Cu9  1  0.25000000  0.84743200  0.43571700  1
  Cu  Cu10  1  0.75000000  0.65256800  0.93571700  1
  Cu  Cu11  1  0.25000000  0.34743200  0.06428300  1
