# generated using pymatgen
data_Cu13NiC6
_symmetry_space_group_name_H-M   'P 1'
_cell_length_a   8.06930800
_cell_length_b   8.06930800
_cell_length_c   13.17107069
_cell_angle_alpha   107.83801461
_cell_angle_beta   107.83801461
_cell_angle_gamma   90.00000000
_symmetry_Int_Tables_number   1
_chemical_formula_structural   Cu13NiC6
_chemical_formula_sum   'Cu26 Ni2 C12'
_cell_volume   772.96400088
_cell_formula_units_Z   2
loop_
 _symmetry_equiv_pos_site_id
 _symmetry_equiv_pos_as_xyz
  1  'x, y, z'
loop_
 _atom_site_type_symbol
 _atom_site_label
 _atom_site_symmetry_multiplicity
 _atom_site_fract_x
 _atom_site_fract_y
 _atom_site_fract_z
 _atom_site_occupancy
  C  C0  1  0.98118900  0.48118900  0.63324500  1
  C  C1  1  0.65205600  0.15205600  0.63324500  1
  C  C2  1  0.15205600  0.98118900  0.63324500  1
  C  C3  1  0.48118900  0.65205600  0.63324500  1
  C  C4  1  0.01881100  0.51881100  0.36675500  1
  C  C5  1  0.34794400  0.84794400  0.36675500  1
  C  C6  1  0.84794400  0.01881100  0.36675500  1
  C  C7  1  0.51881100  0.34794400  0.36675500  1
  C  C8  1  0.60378700  0.60378700  0.20757300  1
  C  C9  1  0.10378700  0.10378700  0.20757300  1
  C  C10  1  0.39621300  0.39621300  0.79242700  1
  C  C11  1  0.89621300  0.89621300  0.79242700  1
  Ni  Ni12  1  0.25000000  0.25000000  0.50000000  1
  Ni  Ni13  1  0.75000000  0.75000000  0.50000000  1
  Cu  Cu14  1  0.00000000  0.50000000  0.00000000  1
  Cu  Cu15  1  0.50000000  0.00000000  0.00000000  1
  Cu  Cu16  1  0.70955200  0.56702600  0.00000000  1
  Cu  Cu17  1  0.29044800  0.43297400  0.00000000  1
  Cu  Cu18  1  0.79044800  0.06702600  0.00000000  1
  Cu  Cu19  1  0.20955200  0.93297400  0.00000000  1
  Cu  Cu20  1  0.56702600  0.29044800  0.00000000  1
  Cu  Cu21  1  0.43297400  0.70955200  0.00000000  1
  Cu  Cu22  1  0.06702600  0.20955200  0.00000000  1
  Cu  Cu23  1  0.93297400  0.79044800  0.00000000  1
  Cu  Cu24  1  0.12028600  0.62028600  0.88466800  1
  Cu  Cu25  1  0.76438200  0.26438200  0.88466800  1
  Cu  Cu26  1  0.26438200  0.12028600  0.88466800  1
  Cu  Cu27  1  0.62028600  0.76438200  0.88466800  1
  Cu  Cu28  1  0.87971400  0.37971400  0.11533200  1
  Cu  Cu29  1  0.23561800  0.73561800  0.11533200  1
  Cu  Cu30  1  0.73561800  0.87971400  0.11533200  1
  Cu  Cu31  1  0.37971400  0.23561800  0.11533200  1
  Cu  Cu32  1  0.29477700  0.79477700  0.81529300  1
  Cu  Cu33  1  0.52051600  0.02051600  0.81529300  1
  Cu  Cu34  1  0.02051600  0.29477700  0.81529300  1
  Cu  Cu35  1  0.79477700  0.52051600  0.81529300  1
  Cu  Cu36  1  0.70522300  0.20522300  0.18470700  1
  Cu  Cu37  1  0.47948400  0.97948400  0.18470700  1
  Cu  Cu38  1  0.97948400  0.70522300  0.18470700  1
  Cu  Cu39  1  0.20522300  0.47948400  0.18470700  1
