# generated using pymatgen
data_Cu2NiC8
_symmetry_space_group_name_H-M   'P 1'
_cell_length_a   8.75716900
_cell_length_b   7.35130400
_cell_length_c   9.66434763
_cell_angle_alpha   65.90923846
_cell_angle_beta   90.00000000
_cell_angle_gamma   90.00000000
_symmetry_Int_Tables_number   1
_chemical_formula_structural   Cu2NiC8
_chemical_formula_sum   'Cu8 Ni4 C32'
_cell_volume   567.96799820
_cell_formula_units_Z   4
loop_
 _symmetry_equiv_pos_site_id
 _symmetry_equiv_pos_as_xyz
  1  'x, y, z'
loop_
 _atom_site_type_symbol
 _atom_site_label
 _atom_site_symmetry_multiplicity
 _atom_site_fract_x
 _atom_site_fract_y
 _atom_site_fract_z
 _atom_site_occupancy
  Ni  Ni0  1  0.08028200  0.71911500  0.88914900  1
  Ni  Ni1  1  0.58028200  0.28088500  0.61085100  1
  Ni  Ni2  1  0.91971800  0.28088500  0.11085100  1
  Ni  Ni3  1  0.41971800  0.71911500  0.38914900  1
  C  C4  1  0.94045200  0.18324000  0.68839200  1
  C  C5  1  0.44045200  0.81676000  0.81160800  1
  C  C6  1  0.05954800  0.81676000  0.31160800  1
  C  C7  1  0.55954800  0.18324000  0.18839200  1
  Cu  Cu8  1  0.76868400  0.56892000  0.75564700  1
  Cu  Cu9  1  0.26868400  0.43108000  0.74435300  1
  Cu  Cu10  1  0.23131600  0.43108000  0.24435300  1
  Cu  Cu11  1  0.73131600  0.56892000  0.25564700  1
  Cu  Cu12  1  0.72076500  0.98932300  0.95803000  1
  Cu  Cu13  1  0.22076500  0.01067700  0.54197000  1
  Cu  Cu14  1  0.27923500  0.01067700  0.04197000  1
  Cu  Cu15  1  0.77923500  0.98932300  0.45803000  1
  C  C16  1  0.72645400  0.14411000  0.05262900  1
  C  C17  1  0.22645400  0.85589000  0.44737100  1
  C  C18  1  0.27354600  0.85589000  0.94737100  1
  C  C19  1  0.77354600  0.14411000  0.55262900  1
  C  C20  1  0.59353300  0.63544600  0.78881600  1
  C  C21  1  0.09353300  0.36455400  0.71118400  1
  C  C22  1  0.40646700  0.36455400  0.21118400  1
  C  C23  1  0.90646700  0.63544600  0.28881600  1
  C  C24  1  0.90123100  0.53656900  0.89508100  1
  C  C25  1  0.40123100  0.46343100  0.60491900  1
  C  C26  1  0.09876900  0.46343100  0.10491900  1
  C  C27  1  0.59876900  0.53656900  0.39508100  1
  C  C28  1  0.84775200  0.75104400  0.58420400  1
  C  C29  1  0.34775200  0.24895600  0.91579600  1
  C  C30  1  0.15224800  0.24895600  0.41579600  1
  C  C31  1  0.65224800  0.75104400  0.08420400  1
  C  C32  1  0.92220300  0.03914600  0.32690600  1
  C  C33  1  0.42220300  0.96085400  0.17309400  1
  C  C34  1  0.07779700  0.96085400  0.67309400  1
  C  C35  1  0.57779700  0.03914600  0.82690600  1
  C  C36  1  0.73725000  0.36437400  0.21310000  1
  C  C37  1  0.23725000  0.63562600  0.28690000  1
  C  C38  1  0.26275000  0.63562600  0.78690000  1
  C  C39  1  0.76275000  0.36437400  0.71310000  1
  C  C40  1  0.60376900  0.95984400  0.39116300  1
  C  C41  1  0.10376900  0.04015600  0.10883700  1
  C  C42  1  0.39623100  0.04015600  0.60883700  1
  C  C43  1  0.89623100  0.95984400  0.89116300  1
