# generated using pymatgen
data_Cu4NiC2
_symmetry_space_group_name_H-M   'P 1'
_cell_length_a   5.30856000
_cell_length_b   5.60555000
_cell_length_c   13.91016500
_cell_angle_alpha   90.00000000
_cell_angle_beta   90.00000000
_cell_angle_gamma   90.00000000
_symmetry_Int_Tables_number   1
_chemical_formula_structural   Cu4NiC2
_chemical_formula_sum   'Cu16 Ni4 C8'
_cell_volume   413.93032322
_cell_formula_units_Z   4
loop_
 _symmetry_equiv_pos_site_id
 _symmetry_equiv_pos_as_xyz
  1  'x, y, z'
loop_
 _atom_site_type_symbol
 _atom_site_label
 _atom_site_symmetry_multiplicity
 _atom_site_fract_x
 _atom_site_fract_y
 _atom_site_fract_z
 _atom_site_occupancy
  C  C0  1  0.25148300  0.75000000  0.59368300  1
  C  C1  1  0.25148300  0.25000000  0.90631700  1
  C  C2  1  0.74851700  0.25000000  0.40631700  1
  C  C3  1  0.74851700  0.75000000  0.09368300  1
  C  C4  1  0.18683600  0.75000000  0.32300400  1
  C  C5  1  0.18683600  0.25000000  0.17699600  1
  C  C6  1  0.81316400  0.25000000  0.67699600  1
  C  C7  1  0.81316400  0.75000000  0.82300400  1
  Ni  Ni8  1  0.05290600  0.50000000  0.25000000  1
  Ni  Ni9  1  0.94709400  0.00000000  0.75000000  1
  Ni  Ni10  1  0.94709400  0.50000000  0.75000000  1
  Ni  Ni11  1  0.05290600  0.00000000  0.25000000  1
  Cu  Cu12  1  0.09725200  0.75000000  0.91205100  1
  Cu  Cu13  1  0.09725200  0.25000000  0.58794900  1
  Cu  Cu14  1  0.90274800  0.25000000  0.08794900  1
  Cu  Cu15  1  0.90274800  0.75000000  0.41205100  1
  Cu  Cu16  1  0.32040900  0.51495100  0.41873300  1
  Cu  Cu17  1  0.32040900  0.48504900  0.08126700  1
  Cu  Cu18  1  0.67959100  0.01495100  0.58126700  1
  Cu  Cu19  1  0.67959100  0.98504900  0.91873300  1
  Cu  Cu20  1  0.67959100  0.48504900  0.58126700  1
  Cu  Cu21  1  0.67959100  0.51495100  0.91873300  1
  Cu  Cu22  1  0.32040900  0.98504900  0.41873300  1
  Cu  Cu23  1  0.32040900  0.01495100  0.08126700  1
  Cu  Cu24  1  0.50539900  0.75000000  0.26461100  1
  Cu  Cu25  1  0.50539900  0.25000000  0.23538900  1
  Cu  Cu26  1  0.49460100  0.25000000  0.73538900  1
  Cu  Cu27  1  0.49460100  0.75000000  0.76461100  1
