# generated using pymatgen
data_Cu2(NiC4)3
_symmetry_space_group_name_H-M   'P 1'
_cell_length_a   5.15180300
_cell_length_b   10.86331600
_cell_length_c   18.29013800
_cell_angle_alpha   90.00000000
_cell_angle_beta   90.00000000
_cell_angle_gamma   90.00000000
_symmetry_Int_Tables_number   1
_chemical_formula_structural   Cu2(NiC4)3
_chemical_formula_sum   'Cu8 Ni12 C48'
_cell_volume   1023.61971707
_cell_formula_units_Z   4
loop_
 _symmetry_equiv_pos_site_id
 _symmetry_equiv_pos_as_xyz
  1  'x, y, z'
loop_
 _atom_site_type_symbol
 _atom_site_label
 _atom_site_symmetry_multiplicity
 _atom_site_fract_x
 _atom_site_fract_y
 _atom_site_fract_z
 _atom_site_occupancy
  Ni  Ni0  1  0.03513200  0.83139800  0.25000000  1
  Ni  Ni1  1  0.46486800  0.33139800  0.25000000  1
  Ni  Ni2  1  0.96486800  0.16860200  0.75000000  1
  Ni  Ni3  1  0.53513200  0.66860200  0.75000000  1
  Ni  Ni4  1  0.20633400  0.64389900  0.00474300  1
  Ni  Ni5  1  0.29366600  0.14389900  0.49525700  1
  Ni  Ni6  1  0.79366600  0.35610100  0.50474300  1
  Ni  Ni7  1  0.70633400  0.85610100  0.99525700  1
  Ni  Ni8  1  0.79366600  0.35610100  0.99525700  1
  Ni  Ni9  1  0.70633400  0.85610100  0.50474300  1
  Ni  Ni10  1  0.20633400  0.64389900  0.49525700  1
  Ni  Ni11  1  0.29366600  0.14389900  0.00474300  1
  Cu  Cu12  1  0.21952100  0.89632000  0.09075100  1
  Cu  Cu13  1  0.28047900  0.39632000  0.40924900  1
  Cu  Cu14  1  0.78047900  0.10368000  0.59075100  1
  Cu  Cu15  1  0.71952100  0.60368000  0.90924900  1
  Cu  Cu16  1  0.78047900  0.10368000  0.90924900  1
  Cu  Cu17  1  0.71952100  0.60368000  0.59075100  1
  Cu  Cu18  1  0.21952100  0.89632000  0.40924900  1
  Cu  Cu19  1  0.28047900  0.39632000  0.09075100  1
  C  C20  1  0.35748200  0.80693800  0.03480700  1
  C  C21  1  0.14251800  0.30693800  0.46519300  1
  C  C22  1  0.64251800  0.19306200  0.53480700  1
  C  C23  1  0.85748200  0.69306200  0.96519300  1
  C  C24  1  0.64251800  0.19306200  0.96519300  1
  C  C25  1  0.85748200  0.69306200  0.53480700  1
  C  C26  1  0.35748200  0.80693800  0.46519300  1
  C  C27  1  0.14251800  0.30693800  0.03480700  1
  C  C28  1  0.34096900  0.02470100  0.08211500  1
  C  C29  1  0.15903100  0.52470100  0.41788500  1
  C  C30  1  0.65903100  0.97529900  0.58211500  1
  C  C31  1  0.84096900  0.47529900  0.91788500  1
  C  C32  1  0.65903100  0.97529900  0.91788500  1
  C  C33  1  0.84096900  0.47529900  0.58211500  1
  C  C34  1  0.34096900  0.02470100  0.41788500  1
  C  C35  1  0.15903100  0.52470100  0.08211500  1
  C  C36  1  0.26818200  0.84469100  0.16872500  1
  C  C37  1  0.23181800  0.34469100  0.33127500  1
  C  C38  1  0.73181800  0.15530900  0.66872500  1
  C  C39  1  0.76818200  0.65530900  0.83127500  1
  C  C40  1  0.73181800  0.15530900  0.83127500  1
  C  C41  1  0.76818200  0.65530900  0.66872500  1
  C  C42  1  0.26818200  0.84469100  0.33127500  1
  C  C43  1  0.23181800  0.34469100  0.16872500  1
  C  C44  1  0.92499100  0.89582100  0.07773100  1
  C  C45  1  0.57500900  0.39582100  0.42226900  1
  C  C46  1  0.07500900  0.10417900  0.57773100  1
  C  C47  1  0.42499100  0.60417900  0.92226900  1
  C  C48  1  0.07500900  0.10417900  0.92226900  1
  C  C49  1  0.42499100  0.60417900  0.57773100  1
  C  C50  1  0.92499100  0.89582100  0.42226900  1
  C  C51  1  0.57500900  0.39582100  0.07773100  1
  C  C52  1  0.76757300  0.66724600  0.19019100  1
  C  C53  1  0.73242700  0.16724600  0.30980900  1
  C  C54  1  0.23242700  0.33275400  0.69019100  1
  C  C55  1  0.26757300  0.83275400  0.80980900  1
  C  C56  1  0.23242700  0.33275400  0.80980900  1
  C  C57  1  0.26757300  0.83275400  0.69019100  1
  C  C58  1  0.76757300  0.66724600  0.30980900  1
  C  C59  1  0.73242700  0.16724600  0.19019100  1
  C  C60  1  0.69275100  0.90079700  0.25000000  1
  C  C61  1  0.80724900  0.40079700  0.25000000  1
  C  C62  1  0.30724900  0.09920300  0.75000000  1
  C  C63  1  0.19275100  0.59920300  0.75000000  1
  C  C64  1  0.66401600  0.62712400  0.25000000  1
  C  C65  1  0.83598400  0.12712400  0.25000000  1
  C  C66  1  0.33598400  0.37287600  0.75000000  1
  C  C67  1  0.16401600  0.87287600  0.75000000  1
