# generated using pymatgen
data_CuNi149
_symmetry_space_group_name_H-M   'P 1'
_cell_length_a   15.91981210
_cell_length_b   15.91981888
_cell_length_c   15.59844037
_cell_angle_alpha   90.00000000
_cell_angle_beta   90.00000000
_cell_angle_gamma   120.00000962
_symmetry_Int_Tables_number   1
_chemical_formula_structural   CuNi149
_chemical_formula_sum   'Cu1 Ni149'
_cell_volume   3423.63790909
_cell_formula_units_Z   1
loop_
 _symmetry_equiv_pos_site_id
 _symmetry_equiv_pos_as_xyz
  1  'x, y, z'
loop_
 _atom_site_type_symbol
 _atom_site_label
 _atom_site_symmetry_multiplicity
 _atom_site_fract_x
 _atom_site_fract_y
 _atom_site_fract_z
 _atom_site_occupancy
  Ni  Ni0  1  0.60140500  0.00014375  -0.00000000  1
  Ni  Ni1  1  0.39873974  0.00014475  -0.00000000  1
  Ni  Ni2  1  0.19729764  0.19882558  -0.00000000  1
  Ni  Ni3  1  0.00152893  0.19882558  -0.00000000  1
  Ni  Ni4  1  0.59978966  0.19958033  -0.00000000  1
  Ni  Ni5  1  0.79963619  0.20036381  -0.00000000  1
  Ni  Ni6  1  0.40072762  0.20036381  -0.00000000  1
  Ni  Ni7  1  0.99985525  0.39859500  -0.00000000  1
  Ni  Ni8  1  0.39873974  0.39859500  -0.00000000  1
  Ni  Ni9  1  0.59978966  0.40020934  -0.00000000  1
  Ni  Ni10  1  0.80041967  0.40020934  -0.00000000  1
  Ni  Ni11  1  0.20055960  0.40111919  -0.00000000  1
  Ni  Ni12  1  0.79963619  0.59927238  -0.00000000  1
  Ni  Ni13  1  0.19998744  0.59999372  -0.00000000  1
  Ni  Ni14  1  0.40000628  0.59999372  -0.00000000  1
  Ni  Ni15  1  0.60140500  0.60126126  -0.00000000  1
  Ni  Ni16  1  0.99985525  0.60126126  -0.00000000  1
  Ni  Ni17  1  0.59888181  0.79944040  -0.00000000  1
  Ni  Ni18  1  0.20055960  0.79944040  -0.00000000  1
  Ni  Ni19  1  0.40000628  0.80001256  -0.00000000  1
  Ni  Ni20  1  0.00152893  0.80270336  -0.00000000  1
  Ni  Ni21  1  0.80117442  0.80270336  -0.00000000  1
  Ni  Ni22  1  0.19729764  0.99847107  -0.00000000  1
  Ni  Ni23  1  0.80117442  0.99847107  -0.00000000  1
  Ni  Ni24  1  0.06605886  0.13211871  0.16465624  1
  Ni  Ni25  1  0.06605886  0.93394014  0.16465624  1
  Ni  Ni26  1  0.86788129  0.93394014  0.16465624  1
  Ni  Ni27  1  0.26532488  0.13266244  0.16523936  1
  Ni  Ni28  1  0.86733756  0.13266244  0.16523936  1
  Ni  Ni29  1  0.86733756  0.73467512  0.16523936  1
  Ni  Ni30  1  0.66666700  0.33333300  0.16620722  1
  Ni  Ni31  1  0.46587664  0.13307827  0.16662423  1
  Ni  Ni32  1  0.66720163  0.13307827  0.16662423  1
  Ni  Ni33  1  0.86692173  0.33279837  0.16662423  1
  Ni  Ni34  1  0.46587664  0.33279837  0.16662423  1
  Ni  Ni35  1  0.86692173  0.53412336  0.16662423  1
  Ni  Ni36  1  0.66720163  0.53412336  0.16662423  1
  Ni  Ni37  1  0.06667582  0.53333791  0.16674174  1
  Ni  Ni38  1  0.46666209  0.53333791  0.16674174  1
  Ni  Ni39  1  0.46666209  0.93332418  0.16674174  1
  Ni  Ni40  1  0.26677516  0.33439277  0.16703514  1
  Ni  Ni41  1  0.06761761  0.33439277  0.16703514  1
  Ni  Ni42  1  0.06761761  0.73322484  0.16703514  1
  Ni  Ni43  1  0.66560723  0.73322484  0.16703514  1
  Ni  Ni44  1  0.66560723  0.93238239  0.16703514  1
  Ni  Ni45  1  0.26677516  0.93238339  0.16703514  1
  Ni  Ni46  1  0.26694253  0.53388506  0.16708051  1
  Ni  Ni47  1  0.46611494  0.73305747  0.16708051  1
  Ni  Ni48  1  0.26694253  0.73305747  0.16708051  1
  Ni  Ni49  1  0.80005914  0.99982312  0.33224487  1
  Ni  Ni50  1  0.19976399  0.99982412  0.33224487  1
  Ni  Ni51  1  0.19976399  0.19994086  0.33224487  1
  Ni  Ni52  1  0.00017688  0.19994086  0.33224487  1
  Ni  Ni53  1  0.00017688  0.80023601  0.33224487  1
  Ni  Ni54  1  0.80005914  0.80023601  0.33224487  1
  Ni  Ni55  1  0.59996926  0.19993953  0.33301390  1
  Ni  Ni56  1  0.59996926  0.40002974  0.33301390  1
  Ni  Ni57  1  0.80006147  0.40003074  0.33301390  1
  Ni  Ni58  1  0.80006713  0.19993287  0.33318854  1
  Ni  Ni59  1  0.39986574  0.19993287  0.33318854  1
  Ni  Ni60  1  0.80006713  0.60013426  0.33318854  1
  Ni  Ni61  1  0.40003242  0.00009271  0.33332173  1
  Ni  Ni62  1  0.60006029  0.00009271  0.33332173  1
  Ni  Ni63  1  0.99990729  0.39993871  0.33332173  1
  Ni  Ni64  1  0.40003242  0.39993971  0.33332173  1
  Ni  Ni65  1  0.60006029  0.59996758  0.33332173  1
  Ni  Ni66  1  0.99990729  0.59996858  0.33332173  1
  Ni  Ni67  1  0.19990133  0.59995067  0.33374359  1
  Ni  Ni68  1  0.40004933  0.59995067  0.33374359  1
  Ni  Ni69  1  0.40004933  0.80009867  0.33374359  1
  Ni  Ni70  1  0.20025799  0.40051598  0.33395631  1
  Ni  Ni71  1  0.59948502  0.79974201  0.33395631  1
  Ni  Ni72  1  0.20025799  0.79974201  0.33395631  1
  Ni  Ni73  1  -0.00000000  0.00000000  0.33421719  1
  Ni  Ni74  1  0.26648720  0.13324410  0.50000000  1
  Ni  Ni75  1  0.86675590  0.13324410  0.50000000  1
  Ni  Ni76  1  0.06674344  0.13348689  0.50000000  1
  Ni  Ni77  1  0.46699312  0.13419971  0.50000000  1
  Ni  Ni78  1  0.66720659  0.13419971  0.50000000  1
  Ni  Ni79  1  0.46699312  0.33279341  0.50000000  1
  Ni  Ni80  1  0.86580029  0.33279341  0.50000000  1
  Ni  Ni81  1  0.06651473  0.33308606  0.50000000  1
  Ni  Ni82  1  0.26657133  0.33308606  0.50000000  1
  Ni  Ni83  1  0.66666700  0.33333300  0.50000000  1
  Ni  Ni84  1  0.86580029  0.53300688  0.50000000  1
  Ni  Ni85  1  0.66720659  0.53300688  0.50000000  1
  Ni  Ni86  1  0.06577562  0.53288781  0.50000000  1
  Ni  Ni87  1  0.46711219  0.53288781  0.50000000  1
  Ni  Ni88  1  0.26653875  0.53307850  0.50000000  1
  Ni  Ni89  1  0.66691494  0.73342867  0.50000000  1
  Ni  Ni90  1  0.06651473  0.73342867  0.50000000  1
  Ni  Ni91  1  0.46692150  0.73346025  0.50000000  1
  Ni  Ni92  1  0.26653875  0.73346125  0.50000000  1
  Ni  Ni93  1  0.86675590  0.73351280  0.50000000  1
  Ni  Ni94  1  0.86651211  0.93325556  0.50000000  1
  Ni  Ni95  1  0.06674344  0.93325656  0.50000000  1
  Ni  Ni96  1  0.26657133  0.93348527  0.50000000  1
  Ni  Ni97  1  0.66691494  0.93348627  0.50000000  1
  Ni  Ni98  1  0.46711219  0.93422438  0.50000000  1
  Ni  Ni99  1  -0.00000000  0.00000000  0.66578281  1
  Ni  Ni100  1  0.20025799  0.40051598  0.66604369  1
  Ni  Ni101  1  0.59948502  0.79974201  0.66604369  1
  Ni  Ni102  1  0.20025799  0.79974201  0.66604369  1
  Ni  Ni103  1  0.19990133  0.59995067  0.66625641  1
  Ni  Ni104  1  0.40004933  0.59995067  0.66625641  1
  Ni  Ni105  1  0.40004933  0.80009867  0.66625641  1
  Ni  Ni106  1  0.40003242  0.00009271  0.66667827  1
  Ni  Ni107  1  0.60006029  0.00009271  0.66667827  1
  Ni  Ni108  1  0.99990729  0.39993871  0.66667827  1
  Ni  Ni109  1  0.40003242  0.39993971  0.66667827  1
  Ni  Ni110  1  0.60006029  0.59996758  0.66667827  1
  Ni  Ni111  1  0.99990729  0.59996858  0.66667827  1
  Ni  Ni112  1  0.80006713  0.19993287  0.66681146  1
  Ni  Ni113  1  0.39986574  0.19993287  0.66681146  1
  Ni  Ni114  1  0.80006713  0.60013426  0.66681146  1
  Ni  Ni115  1  0.59996926  0.19993953  0.66698610  1
  Ni  Ni116  1  0.59996926  0.40002974  0.66698610  1
  Ni  Ni117  1  0.80006147  0.40003074  0.66698610  1
  Ni  Ni118  1  0.80005914  0.99982312  0.66775513  1
  Ni  Ni119  1  0.19976399  0.99982412  0.66775513  1
  Ni  Ni120  1  0.19976399  0.19994086  0.66775513  1
  Ni  Ni121  1  0.00017688  0.19994086  0.66775513  1
  Ni  Ni122  1  0.00017688  0.80023601  0.66775513  1
  Ni  Ni123  1  0.80005914  0.80023601  0.66775513  1
  Ni  Ni124  1  0.26694253  0.53388506  0.83291949  1
  Ni  Ni125  1  0.46611494  0.73305747  0.83291949  1
  Ni  Ni126  1  0.26694253  0.73305747  0.83291949  1
  Ni  Ni127  1  0.26677516  0.33439277  0.83296386  1
  Ni  Ni128  1  0.06761761  0.33439277  0.83296386  1
  Ni  Ni129  1  0.06761761  0.73322484  0.83296386  1
  Ni  Ni130  1  0.66560723  0.73322484  0.83296386  1
  Ni  Ni131  1  0.66560723  0.93238239  0.83296386  1
  Ni  Ni132  1  0.26677516  0.93238339  0.83296386  1
  Ni  Ni133  1  0.06667582  0.53333791  0.83325826  1
  Ni  Ni134  1  0.46666209  0.53333791  0.83325826  1
  Ni  Ni135  1  0.46666209  0.93332418  0.83325826  1
  Ni  Ni136  1  0.46587664  0.13307827  0.83337577  1
  Ni  Ni137  1  0.66720163  0.13307827  0.83337577  1
  Ni  Ni138  1  0.86692173  0.33279837  0.83337577  1
  Ni  Ni139  1  0.46587664  0.33279837  0.83337577  1
  Ni  Ni140  1  0.86692173  0.53412336  0.83337577  1
  Ni  Ni141  1  0.66720163  0.53412336  0.83337577  1
  Ni  Ni142  1  0.66666700  0.33333300  0.83379278  1
  Ni  Ni143  1  0.26532488  0.13266244  0.83476064  1
  Ni  Ni144  1  0.86733756  0.13266244  0.83476064  1
  Ni  Ni145  1  0.86733756  0.73467512  0.83476064  1
  Ni  Ni146  1  0.06605886  0.13211871  0.83534376  1
  Ni  Ni147  1  0.06605886  0.93394014  0.83534376  1
  Ni  Ni148  1  0.86788129  0.93394014  0.83534376  1
  Cu  Cu149  1  -0.00000000  0.00000000  -0.00000000  1
