# generated using pymatgen
data_Cu4Ni2C9
_symmetry_space_group_name_H-M   'P 1'
_cell_length_a   6.51082590
_cell_length_b   6.51082612
_cell_length_c   6.40817105
_cell_angle_alpha   56.69787862
_cell_angle_beta   56.69788038
_cell_angle_gamma   54.80522855
_symmetry_Int_Tables_number   1
_chemical_formula_structural   Cu4Ni2C9
_chemical_formula_sum   'Cu4 Ni2 C9'
_cell_volume   174.44558915
_cell_formula_units_Z   1
loop_
 _symmetry_equiv_pos_site_id
 _symmetry_equiv_pos_as_xyz
  1  'x, y, z'
loop_
 _atom_site_type_symbol
 _atom_site_label
 _atom_site_symmetry_multiplicity
 _atom_site_fract_x
 _atom_site_fract_y
 _atom_site_fract_z
 _atom_site_occupancy
  C  C0  1  0.12500000  0.12500000  0.12500000  1
  Ni  Ni1  1  0.12500000  0.62500000  0.62500000  1
  Ni  Ni2  1  0.62500000  0.12500000  0.62500000  1
  Cu  Cu3  1  0.96653400  0.96653300  0.97222100  1
  Cu  Cu4  1  0.28346600  0.28346700  0.27777900  1
  Cu  Cu5  1  0.62500000  0.62500000  0.12500000  1
  Cu  Cu6  1  0.62500000  0.62500000  0.62500000  1
  C  C7  1  0.39489500  0.39489500  0.40866600  1
  C  C8  1  0.37594300  0.37594300  0.89532800  1
  C  C9  1  0.39230100  0.89329400  0.36796000  1
  C  C10  1  0.89329300  0.39230400  0.36795900  1
  C  C11  1  0.35670700  0.85769600  0.88204100  1
  C  C12  1  0.85769900  0.35670600  0.88204000  1
  C  C13  1  0.87405700  0.87405700  0.35467200  1
  C  C14  1  0.85510500  0.85510500  0.84133400  1
