# generated using pymatgen
data_CuNiC17
_symmetry_space_group_name_H-M   'P 1'
_cell_length_a   6.41064159
_cell_length_b   6.41064159
_cell_length_c   6.41064097
_cell_angle_alpha   83.06085865
_cell_angle_beta   83.06085865
_cell_angle_gamma   83.06085951
_symmetry_Int_Tables_number   1
_chemical_formula_structural   CuNiC17
_chemical_formula_sum   'Cu1 Ni1 C17'
_cell_volume   258.09572798
_cell_formula_units_Z   1
loop_
 _symmetry_equiv_pos_site_id
 _symmetry_equiv_pos_as_xyz
  1  'x, y, z'
loop_
 _atom_site_type_symbol
 _atom_site_label
 _atom_site_symmetry_multiplicity
 _atom_site_fract_x
 _atom_site_fract_y
 _atom_site_fract_z
 _atom_site_occupancy
  Ni  Ni0  1  0.65803900  0.65803900  0.65803900  1
  Cu  Cu1  1  0.34158900  0.34158900  0.34158900  1
  C  C2  1  0.65609700  0.65609700  0.15535600  1
  C  C3  1  0.65609700  0.15535600  0.65609700  1
  C  C4  1  0.15535600  0.65609700  0.65609700  1
  C  C5  1  0.34341100  0.34341100  0.84496500  1
  C  C6  1  0.34341100  0.84496500  0.34341100  1
  C  C7  1  0.84496500  0.34341100  0.34341100  1
  C  C8  1  0.00036100  0.00036100  0.49981500  1
  C  C9  1  0.00036100  0.49981500  0.00036100  1
  C  C10  1  0.49981500  0.00036100  0.00036100  1
  C  C11  1  0.70718700  0.29229900  0.00056500  1
  C  C12  1  0.29229900  0.00056500  0.70718700  1
  C  C13  1  0.00056500  0.70718700  0.29229900  1
  C  C14  1  0.70718700  0.00056500  0.29229900  1
  C  C15  1  0.00056500  0.29229900  0.70718700  1
  C  C16  1  0.29229900  0.70718700  0.00056500  1
  C  C17  1  0.09674700  0.09674700  0.09674700  1
  C  C18  1  0.90365000  0.90365000  0.90365000  1
