# generated using pymatgen
data_Cu7Ni5C7
_symmetry_space_group_name_H-M   'P 1'
_cell_length_a   6.58599487
_cell_length_b   6.44206916
_cell_length_c   6.44156314
_cell_angle_alpha   63.51801096
_cell_angle_beta   79.36108952
_cell_angle_gamma   79.36309510
_symmetry_Int_Tables_number   1
_chemical_formula_structural   Cu7Ni5C7
_chemical_formula_sum   'Cu7 Ni5 C7'
_cell_volume   238.78805274
_cell_formula_units_Z   1
loop_
 _symmetry_equiv_pos_site_id
 _symmetry_equiv_pos_as_xyz
  1  'x, y, z'
loop_
 _atom_site_type_symbol
 _atom_site_label
 _atom_site_symmetry_multiplicity
 _atom_site_fract_x
 _atom_site_fract_y
 _atom_site_fract_z
 _atom_site_occupancy
  C  C0  1  0.83323400  0.40756400  0.92577100  1
  C  C1  1  0.83333500  0.89446500  0.43887800  1
  C  C2  1  0.71582600  0.40767800  0.44730100  1
  C  C3  1  0.33334500  0.69073300  0.64247600  1
  C  C4  1  0.19158900  0.28042400  0.35301900  1
  C  C5  1  0.47514900  0.98023600  0.05285900  1
  C  C6  1  0.95090300  0.88599400  0.92575400  1
  Ni  Ni7  1  0.64538800  0.64105600  0.59962500  1
  Ni  Ni8  1  0.92831700  0.20168300  0.31045600  1
  Ni  Ni9  1  0.73827400  0.02290600  0.13166400  1
  Ni  Ni10  1  0.02128100  0.73365200  0.69234400  1
  Ni  Ni11  1  0.33323500  0.97459500  0.35856400  1
  Cu  Cu12  1  0.65333700  0.06480000  0.72014900  1
  Cu  Cu13  1  0.33342500  0.38823300  0.94515900  1
  Cu  Cu14  1  0.28184800  0.87886800  0.90862600  1
  Cu  Cu15  1  0.38477300  0.42491000  0.45422500  1
  Cu  Cu16  1  0.66266600  0.64042200  0.08967700  1
  Cu  Cu17  1  0.00417100  0.24361500  0.69308200  1
  Cu  Cu18  1  0.01323700  0.61316800  0.26870200  1
