# generated using pymatgen
data_Cu6NiC
_symmetry_space_group_name_H-M   'P 1'
_cell_length_a   7.20076554
_cell_length_b   7.20076554
_cell_length_c   14.08443967
_cell_angle_alpha   85.63720494
_cell_angle_beta   85.63720494
_cell_angle_gamma   60.12244238
_symmetry_Int_Tables_number   1
_chemical_formula_structural   Cu6NiC
_chemical_formula_sum   'Cu36 Ni6 C6'
_cell_volume   630.78012835
_cell_formula_units_Z   6
loop_
 _symmetry_equiv_pos_site_id
 _symmetry_equiv_pos_as_xyz
  1  'x, y, z'
loop_
 _atom_site_type_symbol
 _atom_site_label
 _atom_site_symmetry_multiplicity
 _atom_site_fract_x
 _atom_site_fract_y
 _atom_site_fract_z
 _atom_site_occupancy
  C  C0  1  0.93339000  0.08038600  0.50846900  1
  C  C1  1  0.08038600  0.93339000  0.00846900  1
  C  C2  1  0.15194600  0.26496100  0.31787000  1
  C  C3  1  0.26496100  0.15194600  0.81787000  1
  C  C4  1  0.39759100  0.77113800  0.20382500  1
  C  C5  1  0.77113800  0.39759100  0.70382500  1
  Ni  Ni6  1  0.65767300  0.58187800  0.40179600  1
  Ni  Ni7  1  0.58187800  0.65767300  0.90179600  1
  Ni  Ni8  1  0.89695900  0.01115700  0.29141200  1
  Ni  Ni9  1  0.01115700  0.89695900  0.79141200  1
  Ni  Ni10  1  0.23510700  0.47138900  0.12367500  1
  Ni  Ni11  1  0.47138900  0.23510700  0.62367500  1
  Cu  Cu12  1  0.67266400  0.39704500  0.46224700  1
  Cu  Cu13  1  0.39704500  0.67266400  0.96224700  1
  Cu  Cu14  1  0.55376400  0.77589200  0.45492000  1
  Cu  Cu15  1  0.77589200  0.55376400  0.95492000  1
  Cu  Cu16  1  0.81854400  0.01687000  0.39584500  1
  Cu  Cu17  1  0.01687000  0.81854400  0.89584500  1
  Cu  Cu18  1  0.87490400  0.53735500  0.36326500  1
  Cu  Cu19  1  0.53735500  0.87490400  0.86326500  1
  Cu  Cu20  1  0.51912000  0.60236000  0.32183100  1
  Cu  Cu21  1  0.60236000  0.51912000  0.82183100  1
  Cu  Cu22  1  0.11485600  0.81655300  0.28528300  1
  Cu  Cu23  1  0.81655300  0.11485600  0.78528300  1
  Cu  Cu24  1  0.91159800  0.20868100  0.26756100  1
  Cu  Cu25  1  0.20868100  0.91159800  0.76756100  1
  Cu  Cu26  1  0.74962800  0.99724700  0.23237800  1
  Cu  Cu27  1  0.99724700  0.74962800  0.73237800  1
  Cu  Cu28  1  0.09286900  0.44680900  0.20519600  1
  Cu  Cu29  1  0.44680900  0.09286900  0.70519600  1
  Cu  Cu30  1  0.39530800  0.51483900  0.16757700  1
  Cu  Cu31  1  0.51483900  0.39530800  0.66757700  1
  Cu  Cu32  1  0.07846200  0.66630600  0.06899000  1
  Cu  Cu33  1  0.66630600  0.07846200  0.56899000  1
  Cu  Cu34  1  0.34428700  0.27985200  0.07151200  1
  Cu  Cu35  1  0.27985200  0.34428700  0.57151200  1
  Cu  Cu36  1  0.09694000  0.13491800  0.43002800  1
  Cu  Cu37  1  0.13491800  0.09694000  0.93002800  1
  Cu  Cu38  1  0.33327200  0.03422600  0.26557500  1
  Cu  Cu39  1  0.03422600  0.33327200  0.76557500  1
  Cu  Cu40  1  0.20818300  0.93258800  0.10823800  1
  Cu  Cu41  1  0.93258800  0.20818300  0.60823800  1
  Cu  Cu42  1  0.29927400  0.33424700  0.36517100  1
  Cu  Cu43  1  0.33424700  0.29927400  0.86517100  1
  Cu  Cu44  1  0.62040500  0.72017800  0.15264600  1
  Cu  Cu45  1  0.72017800  0.62040500  0.65264600  1
  Cu  Cu46  1  0.83458700  0.08179500  0.03574900  1
  Cu  Cu47  1  0.08179500  0.83458700  0.53574900  1
