# generated using pymatgen
data_Cu(Ni11C3)2
_symmetry_space_group_name_H-M   'P 1'
_cell_length_a   7.44801795
_cell_length_b   7.44801795
_cell_length_c   7.44801795
_cell_angle_alpha   60.00000000
_cell_angle_beta   60.00000000
_cell_angle_gamma   60.00000000
_symmetry_Int_Tables_number   1
_chemical_formula_structural   Cu(Ni11C3)2
_chemical_formula_sum   'Cu1 Ni22 C6'
_cell_volume   292.15084473
_cell_formula_units_Z   1
loop_
 _symmetry_equiv_pos_site_id
 _symmetry_equiv_pos_as_xyz
  1  'x, y, z'
loop_
 _atom_site_type_symbol
 _atom_site_label
 _atom_site_symmetry_multiplicity
 _atom_site_fract_x
 _atom_site_fract_y
 _atom_site_fract_z
 _atom_site_occupancy
  Ni  Ni0  1  0.75000000  0.75000000  0.75000000  1
  Ni  Ni1  1  0.25000000  0.25000000  0.25000000  1
  Ni  Ni2  1  0.61926800  0.61926800  0.14219700  1
  Ni  Ni3  1  0.61926800  0.14219700  0.61926800  1
  Ni  Ni4  1  0.14219700  0.61926800  0.61926800  1
  Ni  Ni5  1  0.61926800  0.61926800  0.61926800  1
  Ni  Ni6  1  0.38073200  0.38073200  0.85780300  1
  Ni  Ni7  1  0.38073200  0.85780300  0.38073200  1
  Ni  Ni8  1  0.85780300  0.38073200  0.38073200  1
  Ni  Ni9  1  0.38073200  0.38073200  0.38073200  1
  Ni  Ni10  1  0.00000000  0.00000000  0.34501400  1
  Ni  Ni11  1  0.65498600  0.00000000  0.34501400  1
  Ni  Ni12  1  0.00000000  0.65498600  0.34501400  1
  Ni  Ni13  1  0.65498600  0.34501400  0.00000000  1
  Ni  Ni14  1  0.00000000  0.34501400  0.00000000  1
  Ni  Ni15  1  0.00000000  0.34501400  0.65498600  1
  Ni  Ni16  1  0.34501400  0.65498600  0.00000000  1
  Ni  Ni17  1  0.34501400  0.00000000  0.65498600  1
  Ni  Ni18  1  0.34501400  0.00000000  0.00000000  1
  Ni  Ni19  1  0.00000000  0.00000000  0.65498600  1
  Ni  Ni20  1  0.00000000  0.65498600  0.00000000  1
  Ni  Ni21  1  0.65498600  0.00000000  0.00000000  1
  C  C22  1  0.71973300  0.71973300  0.28026700  1
  C  C23  1  0.28026700  0.71973300  0.28026700  1
  C  C24  1  0.71973300  0.28026700  0.28026700  1
  C  C25  1  0.28026700  0.28026700  0.71973300  1
  C  C26  1  0.71973300  0.28026700  0.71973300  1
  C  C27  1  0.28026700  0.71973300  0.71973300  1
  Cu  Cu28  1  0.00000000  0.00000000  0.00000000  1
