# generated using pymatgen
data_Cu2NiC9
_symmetry_space_group_name_H-M   'P 1'
_cell_length_a   18.23648300
_cell_length_b   6.24851300
_cell_length_c   8.13318433
_cell_angle_alpha   71.13718990
_cell_angle_beta   90.00000000
_cell_angle_gamma   90.00000000
_symmetry_Int_Tables_number   1
_chemical_formula_structural   Cu2NiC9
_chemical_formula_sum   'Cu8 Ni4 C36'
_cell_volume   877.01114547
_cell_formula_units_Z   4
loop_
 _symmetry_equiv_pos_site_id
 _symmetry_equiv_pos_as_xyz
  1  'x, y, z'
loop_
 _atom_site_type_symbol
 _atom_site_label
 _atom_site_symmetry_multiplicity
 _atom_site_fract_x
 _atom_site_fract_y
 _atom_site_fract_z
 _atom_site_occupancy
  C  C0  1  0.63352500  0.67287400  0.02068900  1
  C  C1  1  0.13352500  0.32712600  0.47931100  1
  C  C2  1  0.36647500  0.32712600  0.97931100  1
  C  C3  1  0.86647500  0.67287400  0.52068900  1
  Ni  Ni4  1  0.81001100  0.59221300  0.15105300  1
  Ni  Ni5  1  0.31001100  0.40778700  0.34894700  1
  Ni  Ni6  1  0.18998900  0.40778700  0.84894700  1
  Ni  Ni7  1  0.68998900  0.59221300  0.65105300  1
  Cu  Cu8  1  0.69899600  0.25990500  0.69093800  1
  Cu  Cu9  1  0.19899600  0.74009500  0.80906200  1
  Cu  Cu10  1  0.30100400  0.74009500  0.30906200  1
  Cu  Cu11  1  0.80100400  0.25990500  0.19093800  1
  Cu  Cu12  1  0.53782000  0.09242500  0.65546700  1
  Cu  Cu13  1  0.03782000  0.90757500  0.84453300  1
  Cu  Cu14  1  0.46218000  0.90757500  0.34453300  1
  Cu  Cu15  1  0.96218000  0.09242500  0.15546700  1
  C  C16  1  0.85334100  0.69108200  0.99163600  1
  C  C17  1  0.35334100  0.30891800  0.50836400  1
  C  C18  1  0.14665900  0.30891800  0.00836400  1
  C  C19  1  0.64665900  0.69108200  0.49163600  1
  C  C20  1  0.65752700  0.56690700  0.82687100  1
  C  C21  1  0.15752700  0.43309300  0.67312900  1
  C  C22  1  0.34247300  0.43309300  0.17312900  1
  C  C23  1  0.84247300  0.56690700  0.32687100  1
  C  C24  1  0.72682100  0.59757300  0.14711000  1
  C  C25  1  0.22682100  0.40242700  0.35289000  1
  C  C26  1  0.27317900  0.40242700  0.85289000  1
  C  C27  1  0.77317900  0.59757300  0.64711000  1
  C  C28  1  0.72093700  0.08034000  0.72015700  1
  C  C29  1  0.22093700  0.91966000  0.77984300  1
  C  C30  1  0.27906300  0.91966000  0.27984300  1
  C  C31  1  0.77906300  0.08034000  0.22015700  1
  C  C32  1  0.54829700  0.95260200  0.79065600  1
  C  C33  1  0.04829700  0.04739800  0.70934400  1
  C  C34  1  0.45170300  0.04739800  0.20934400  1
  C  C35  1  0.95170300  0.95260200  0.29065600  1
  C  C36  1  0.53069700  0.22990100  0.51853300  1
  C  C37  1  0.03069700  0.77009900  0.98146700  1
  C  C38  1  0.46930300  0.77009900  0.48146700  1
  C  C39  1  0.96930300  0.22990100  0.01853300  1
  C  C40  1  0.61034800  0.95029200  0.08951900  1
  C  C41  1  0.11034800  0.04970800  0.41048100  1
  C  C42  1  0.38965200  0.04970800  0.91048100  1
  C  C43  1  0.88965200  0.95029200  0.58951900  1
  C  C44  1  0.53923400  0.63620800  0.15615400  1
  C  C45  1  0.03923400  0.36379200  0.34384600  1
  C  C46  1  0.46076600  0.36379200  0.84384600  1
  C  C47  1  0.96076600  0.63620800  0.65615400  1
