# generated using pymatgen
data_Cu3NiC16
_symmetry_space_group_name_H-M   'P 1'
_cell_length_a   2.94411400
_cell_length_b   4.85287500
_cell_length_c   17.45774300
_cell_angle_alpha   90.00000000
_cell_angle_beta   90.00000000
_cell_angle_gamma   90.00000000
_symmetry_Int_Tables_number   1
_chemical_formula_structural   Cu3NiC16
_chemical_formula_sum   'Cu3 Ni1 C16'
_cell_volume   249.42605810
_cell_formula_units_Z   1
loop_
 _symmetry_equiv_pos_site_id
 _symmetry_equiv_pos_as_xyz
  1  'x, y, z'
loop_
 _atom_site_type_symbol
 _atom_site_label
 _atom_site_symmetry_multiplicity
 _atom_site_fract_x
 _atom_site_fract_y
 _atom_site_fract_z
 _atom_site_occupancy
  C  C0  1  0.00000000  0.51082500  0.12274800  1
  C  C1  1  0.00000000  0.49982000  0.62522700  1
  C  C2  1  0.00000000  0.51082500  0.87725200  1
  C  C3  1  0.00000000  0.49982000  0.37477300  1
  Ni  Ni4  1  0.50000000  0.90378000  0.00000000  1
  Cu  Cu5  1  0.50000000  0.91820300  0.50000000  1
  Cu  Cu6  1  0.50000000  0.08704500  0.24836800  1
  Cu  Cu7  1  0.50000000  0.08704500  0.75163200  1
  C  C8  1  0.50000000  0.71889800  0.07831600  1
  C  C9  1  0.50000000  0.71489000  0.58358800  1
  C  C10  1  0.50000000  0.29648600  0.16566700  1
  C  C11  1  0.50000000  0.28424300  0.66682500  1
  C  C12  1  0.50000000  0.71889800  0.92168400  1
  C  C13  1  0.50000000  0.71489000  0.41641200  1
  C  C14  1  0.50000000  0.28424300  0.33317500  1
  C  C15  1  0.50000000  0.29648600  0.83433300  1
  C  C16  1  0.00000000  0.07464300  0.00000000  1
  C  C17  1  0.00000000  0.12892300  0.50000000  1
  C  C18  1  0.00000000  0.87501900  0.24903900  1
  C  C19  1  0.00000000  0.87501900  0.75096100  1
