# generated using pymatgen
data_Cu4(NiC10)3
_symmetry_space_group_name_H-M   'P 1'
_cell_length_a   6.42348600
_cell_length_b   8.01991252
_cell_length_c   9.46364456
_cell_angle_alpha   105.34087024
_cell_angle_beta   108.78688976
_cell_angle_gamma   101.06704843
_symmetry_Int_Tables_number   1
_chemical_formula_structural   Cu4(NiC10)3
_chemical_formula_sum   'Cu4 Ni3 C30'
_cell_volume   424.10211838
_cell_formula_units_Z   1
loop_
 _symmetry_equiv_pos_site_id
 _symmetry_equiv_pos_as_xyz
  1  'x, y, z'
loop_
 _atom_site_type_symbol
 _atom_site_label
 _atom_site_symmetry_multiplicity
 _atom_site_fract_x
 _atom_site_fract_y
 _atom_site_fract_z
 _atom_site_occupancy
  Ni  Ni0  1  0.00000000  0.00000000  0.00000000  1
  Ni  Ni1  1  0.72164900  0.19027500  0.71081000  1
  Ni  Ni2  1  0.27835100  0.80972500  0.28919000  1
  Cu  Cu3  1  0.61176200  0.53846900  0.88372200  1
  Cu  Cu4  1  0.38823800  0.46153100  0.11627800  1
  Cu  Cu5  1  0.04736500  0.71732500  0.52382900  1
  Cu  Cu6  1  0.95263500  0.28267500  0.47617100  1
  C  C7  1  0.77121600  0.85438000  0.23007800  1
  C  C8  1  0.22878400  0.14562000  0.76992200  1
  C  C9  1  0.91306800  0.41016500  0.16676300  1
  C  C10  1  0.08693200  0.58983500  0.83323700  1
  C  C11  1  0.39301200  0.22766500  0.36625600  1
  C  C12  1  0.60698800  0.77233500  0.63374400  1
  C  C13  1  0.77093200  0.80026200  0.05799700  1
  C  C14  1  0.22906800  0.19973800  0.94200300  1
  C  C15  1  0.45029000  0.36326200  0.28604900  1
  C  C16  1  0.54971000  0.63673800  0.71395100  1
  C  C17  1  0.98347200  0.81691800  0.33884800  1
  C  C18  1  0.01652800  0.18308200  0.66115200  1
  C  C19  1  0.89829400  0.21723700  0.08647100  1
  C  C20  1  0.10170600  0.78276300  0.91352900  1
  C  C21  1  0.26862600  0.03631000  0.23559100  1
  C  C22  1  0.73137400  0.96369000  0.76440900  1
  C  C23  1  0.62558000  0.22829900  0.49142800  1
  C  C24  1  0.37442000  0.77170100  0.50857200  1
  C  C25  1  0.93769100  0.45808400  0.34525600  1
  C  C26  1  0.06230900  0.54191600  0.65474400  1
  C  C27  1  0.54229000  0.73778500  0.22816800  1
  C  C28  1  0.45771000  0.26221500  0.77183200  1
  C  C29  1  0.12332300  0.54269400  0.16491300  1
  C  C30  1  0.87667700  0.45730600  0.83508700  1
  C  C31  1  0.24575000  0.27701900  0.46070500  1
  C  C32  1  0.75425000  0.72298100  0.53929500  1
  C  C33  1  0.78662500  0.05330300  0.29085200  1
  C  C34  1  0.21337500  0.94669700  0.70914800  1
  C  C35  1  0.69214900  0.45983900  0.08068400  1
  C  C36  1  0.30785100  0.54016100  0.91931600  1
