# generated using pymatgen
data_CuNiC3
_symmetry_space_group_name_H-M   'P 1'
_cell_length_a   6.59620988
_cell_length_b   6.59620988
_cell_length_c   9.52241400
_cell_angle_alpha   90.00000000
_cell_angle_beta   90.00000000
_cell_angle_gamma   145.67706923
_symmetry_Int_Tables_number   1
_chemical_formula_structural   CuNiC3
_chemical_formula_sum   'Cu2 Ni2 C6'
_cell_volume   233.61712565
_cell_formula_units_Z   2
loop_
 _symmetry_equiv_pos_site_id
 _symmetry_equiv_pos_as_xyz
  1  'x, y, z'
loop_
 _atom_site_type_symbol
 _atom_site_label
 _atom_site_symmetry_multiplicity
 _atom_site_fract_x
 _atom_site_fract_y
 _atom_site_fract_z
 _atom_site_occupancy
  Ni  Ni0  1  0.74720000  0.25280000  0.25000000  1
  Ni  Ni1  1  0.25280000  0.74720000  0.75000000  1
  Cu  Cu2  1  0.00000000  0.00000000  0.50000000  1
  Cu  Cu3  1  0.00000000  0.00000000  0.00000000  1
  C  C4  1  0.64082600  0.35917400  0.56263500  1
  C  C5  1  0.64082600  0.35917400  0.93736500  1
  C  C6  1  0.35917400  0.64082600  0.06263500  1
  C  C7  1  0.35917400  0.64082600  0.43736500  1
  C  C8  1  0.08595300  0.91404700  0.25000000  1
  C  C9  1  0.91404700  0.08595300  0.75000000  1
