# generated using pymatgen
data_CuNiC8
_symmetry_space_group_name_H-M   'P 1'
_cell_length_a   5.69818600
_cell_length_b   5.50495300
_cell_length_c   9.70566586
_cell_angle_alpha   55.36609687
_cell_angle_beta   90.00000000
_cell_angle_gamma   90.00000000
_symmetry_Int_Tables_number   1
_chemical_formula_structural   CuNiC8
_chemical_formula_sum   'Cu2 Ni2 C16'
_cell_volume   250.50129267
_cell_formula_units_Z   2
loop_
 _symmetry_equiv_pos_site_id
 _symmetry_equiv_pos_as_xyz
  1  'x, y, z'
loop_
 _atom_site_type_symbol
 _atom_site_label
 _atom_site_symmetry_multiplicity
 _atom_site_fract_x
 _atom_site_fract_y
 _atom_site_fract_z
 _atom_site_occupancy
  C  C0  1  0.19772700  0.73680700  0.25005300  1
  C  C1  1  0.80227300  0.73680700  0.75005300  1
  Ni  Ni2  1  0.73894400  0.25561200  0.24980500  1
  Ni  Ni3  1  0.26105600  0.25561200  0.74980500  1
  C  C4  1  0.25964500  0.99916300  0.49996600  1
  C  C5  1  0.74035500  0.99916300  0.99996600  1
  Cu  Cu6  1  0.26561700  0.49891300  0.00062800  1
  Cu  Cu7  1  0.73438300  0.49891300  0.50062800  1
  C  C8  1  0.69120400  0.15435400  0.75039100  1
  C  C9  1  0.45471400  0.74402500  0.05596700  1
  C  C10  1  0.45302100  0.35652400  0.44165800  1
  C  C11  1  0.93422700  0.62325300  0.06500700  1
  C  C12  1  0.93850400  0.24212000  0.43871500  1
  C  C13  1  0.21881900  0.88923400  0.74780900  1
  C  C14  1  0.30879600  0.15435400  0.25039100  1
  C  C15  1  0.54528600  0.74402500  0.55596700  1
  C  C16  1  0.54697900  0.35652400  0.94165800  1
  C  C17  1  0.06577300  0.62325300  0.56500700  1
  C  C18  1  0.06149600  0.24212000  0.93871500  1
  C  C19  1  0.78118100  0.88923400  0.24780900  1
