# generated using pymatgen
data_CuNi14C17
_symmetry_space_group_name_H-M   'P 1'
_cell_length_a   8.81317902
_cell_length_b   8.75773987
_cell_length_c   4.51416839
_cell_angle_alpha   90.00000000
_cell_angle_beta   90.00000000
_cell_angle_gamma   90.00000000
_symmetry_Int_Tables_number   1
_chemical_formula_structural   CuNi14C17
_chemical_formula_sum   'Cu1 Ni14 C17'
_cell_volume   348.41944813
_cell_formula_units_Z   1
loop_
 _symmetry_equiv_pos_site_id
 _symmetry_equiv_pos_as_xyz
  1  'x, y, z'
loop_
 _atom_site_type_symbol
 _atom_site_label
 _atom_site_symmetry_multiplicity
 _atom_site_fract_x
 _atom_site_fract_y
 _atom_site_fract_z
 _atom_site_occupancy
  C  C0  1  -0.00000000  0.00000000  -0.00000000  1
  Ni  Ni1  1  0.50000000  0.00000000  -0.00000000  1
  Ni  Ni2  1  0.50000000  0.50000000  -0.00000000  1
  Ni  Ni3  1  -0.00000000  0.26312148  0.50000000  1
  Ni  Ni4  1  -0.00000000  0.73687852  0.50000000  1
  Ni  Ni5  1  0.50000000  0.25272307  0.50000000  1
  Ni  Ni6  1  0.50000000  0.74727693  0.50000000  1
  Ni  Ni7  1  0.26505536  -0.00000000  0.50000000  1
  Ni  Ni8  1  0.25395179  0.50000000  0.50000000  1
  Ni  Ni9  1  0.73494464  0.00000000  0.50000000  1
  Ni  Ni10  1  0.74604821  0.50000000  0.50000000  1
  Ni  Ni11  1  0.26106911  0.25836103  0.00000000  1
  Ni  Ni12  1  0.26106911  0.74163897  0.00000000  1
  Ni  Ni13  1  0.73893089  0.25836103  -0.00000000  1
  Ni  Ni14  1  0.73893089  0.74163897  0.00000000  1
  Cu  Cu15  1  -0.00000000  0.50000000  -0.00000000  1
  C  C16  1  0.28094937  -0.00000000  -0.00000000  1
  C  C17  1  0.26588263  0.50000000  -0.00000000  1
  C  C18  1  0.71905063  0.00000000  0.00000000  1
  C  C19  1  0.73411737  0.50000000  -0.00000000  1
  C  C20  1  0.25042998  0.25075051  0.50000000  1
  C  C21  1  0.25042998  0.74924949  0.50000000  1
  C  C22  1  0.74957002  0.25075051  0.50000000  1
  C  C23  1  0.74957002  0.74924949  0.50000000  1
  C  C24  1  -0.00000000  -0.00000000  0.50000000  1
  C  C25  1  -0.00000000  0.50000000  0.50000000  1
  C  C26  1  0.50000000  -0.00000000  0.50000000  1
  C  C27  1  0.50000000  0.50000000  0.50000000  1
  C  C28  1  -0.00000000  0.27717862  -0.00000000  1
  C  C29  1  -0.00000000  0.72282138  0.00000000  1
  C  C30  1  0.50000000  0.25532201  0.00000000  1
  C  C31  1  0.50000000  0.74467799  -0.00000000  1
