# generated using pymatgen
data_Cu2NiC12
_symmetry_space_group_name_H-M   'P 1'
_cell_length_a   5.83028678
_cell_length_b   5.83028678
_cell_length_c   7.05404671
_cell_angle_alpha   89.37279408
_cell_angle_beta   89.37279408
_cell_angle_gamma   58.95713062
_symmetry_Int_Tables_number   1
_chemical_formula_structural   Cu2NiC12
_chemical_formula_sum   'Cu2 Ni1 C12'
_cell_volume   205.42533864
_cell_formula_units_Z   1
loop_
 _symmetry_equiv_pos_site_id
 _symmetry_equiv_pos_as_xyz
  1  'x, y, z'
loop_
 _atom_site_type_symbol
 _atom_site_label
 _atom_site_symmetry_multiplicity
 _atom_site_fract_x
 _atom_site_fract_y
 _atom_site_fract_z
 _atom_site_occupancy
  Ni  Ni0  1  0.01778400  0.01778400  0.50947700  1
  Cu  Cu1  1  0.34724900  0.34724900  0.17410300  1
  Cu  Cu2  1  0.68251800  0.68251800  0.84117300  1
  C  C3  1  0.66042300  0.66042300  0.31728900  1
  C  C4  1  0.99010800  0.99010800  0.00330600  1
  C  C5  1  0.32954000  0.32954000  0.67064200  1
  C  C6  1  0.21005000  0.21005000  0.35471100  1
  C  C7  1  0.54346800  0.54346800  0.01864900  1
  C  C8  1  0.86634200  0.86634200  0.70271000  1
  C  C9  1  0.04097300  0.54230900  0.02135000  1
  C  C10  1  0.37742100  0.87705400  0.69018500  1
  C  C11  1  0.69052700  0.22024100  0.34143500  1
  C  C12  1  0.54230900  0.04097300  0.02135000  1
  C  C13  1  0.87705400  0.37742100  0.69018500  1
  C  C14  1  0.22024100  0.69052700  0.34143500  1
