# generated using pymatgen
data_Cu2NiC24
_symmetry_space_group_name_H-M   'P 1'
_cell_length_a   7.46942714
_cell_length_b   7.46942714
_cell_length_c   7.46942682
_cell_angle_alpha   95.77901097
_cell_angle_beta   95.77901097
_cell_angle_gamma   95.77900724
_symmetry_Int_Tables_number   1
_chemical_formula_structural   Cu2NiC24
_chemical_formula_sum   'Cu2 Ni1 C24'
_cell_volume   409.91773516
_cell_formula_units_Z   1
loop_
 _symmetry_equiv_pos_site_id
 _symmetry_equiv_pos_as_xyz
  1  'x, y, z'
loop_
 _atom_site_type_symbol
 _atom_site_label
 _atom_site_symmetry_multiplicity
 _atom_site_fract_x
 _atom_site_fract_y
 _atom_site_fract_z
 _atom_site_occupancy
  Ni  Ni0  1  0.00000000  0.00000000  0.00000000  1
  Cu  Cu1  1  0.67948800  0.67948800  0.67948800  1
  Cu  Cu2  1  0.32051200  0.32051200  0.32051200  1
  C  C3  1  0.21959300  0.62514500  0.83396400  1
  C  C4  1  0.62514500  0.83396400  0.21959300  1
  C  C5  1  0.83396400  0.21959300  0.62514500  1
  C  C6  1  0.78040700  0.37485500  0.16603600  1
  C  C7  1  0.37485500  0.16603600  0.78040700  1
  C  C8  1  0.16603600  0.78040700  0.37485500  1
  C  C9  1  0.06347800  0.81110700  0.82090300  1
  C  C10  1  0.81110700  0.82090300  0.06347800  1
  C  C11  1  0.82090300  0.06347800  0.81110700  1
  C  C12  1  0.93652200  0.18889300  0.17909700  1
  C  C13  1  0.18889300  0.17909700  0.93652200  1
  C  C14  1  0.17909700  0.93652200  0.18889300  1
  C  C15  1  0.42757900  0.78397000  0.86511000  1
  C  C16  1  0.78397000  0.86511000  0.42757900  1
  C  C17  1  0.86511000  0.42757900  0.78397000  1
  C  C18  1  0.57242100  0.21603000  0.13489000  1
  C  C19  1  0.21603000  0.13489000  0.57242100  1
  C  C20  1  0.13489000  0.57242100  0.21603000  1
  C  C21  1  0.18785400  0.56547900  0.58703300  1
  C  C22  1  0.56547900  0.58703300  0.18785400  1
  C  C23  1  0.58703300  0.18785400  0.56547900  1
  C  C24  1  0.81214600  0.43452100  0.41296700  1
  C  C25  1  0.43452100  0.41296700  0.81214600  1
  C  C26  1  0.41296700  0.81214600  0.43452100  1
