# generated using pymatgen
data_Cu7Ni9C4
_symmetry_space_group_name_H-M   'P 1'
_cell_length_a   4.82180900
_cell_length_b   4.82180900
_cell_length_c   22.95276700
_cell_angle_alpha   90.00000000
_cell_angle_beta   90.00000000
_cell_angle_gamma   90.00000000
_symmetry_Int_Tables_number   1
_chemical_formula_structural   Cu7Ni9C4
_chemical_formula_sum   'Cu7 Ni9 C4'
_cell_volume   533.64820696
_cell_formula_units_Z   1
loop_
 _symmetry_equiv_pos_site_id
 _symmetry_equiv_pos_as_xyz
  1  'x, y, z'
loop_
 _atom_site_type_symbol
 _atom_site_label
 _atom_site_symmetry_multiplicity
 _atom_site_fract_x
 _atom_site_fract_y
 _atom_site_fract_z
 _atom_site_occupancy
  C  C0  1  0.50000000  0.00000000  0.87026100  1
  C  C1  1  0.50000000  0.00000000  0.38274700  1
  C  C2  1  0.00000000  0.50000000  0.12973900  1
  C  C3  1  0.00000000  0.50000000  0.61725300  1
  Ni  Ni4  1  0.50000000  0.00000000  0.07135000  1
  Ni  Ni5  1  0.50000000  0.00000000  0.56279600  1
  Ni  Ni6  1  0.00000000  0.50000000  0.92865000  1
  Ni  Ni7  1  0.00000000  0.50000000  0.43720400  1
  Ni  Ni8  1  0.50000000  0.50000000  0.74576000  1
  Ni  Ni9  1  0.50000000  0.50000000  0.25424000  1
  Ni  Ni10  1  0.00000000  0.00000000  0.74537700  1
  Ni  Ni11  1  0.00000000  0.00000000  0.25462300  1
  Ni  Ni12  1  0.50000000  0.50000000  0.00000000  1
  Cu  Cu13  1  0.50000000  0.00000000  0.18800200  1
  Cu  Cu14  1  0.50000000  0.00000000  0.68098000  1
  Cu  Cu15  1  0.00000000  0.50000000  0.81199800  1
  Cu  Cu16  1  0.00000000  0.50000000  0.31902000  1
  Cu  Cu17  1  0.50000000  0.50000000  0.50000000  1
  Cu  Cu18  1  0.00000000  0.00000000  0.00000000  1
  Cu  Cu19  1  0.00000000  0.00000000  0.50000000  1
