# generated using pymatgen
data_Cu2NiC16
_symmetry_space_group_name_H-M   'P 1'
_cell_length_a   10.25161873
_cell_length_b   10.25161873
_cell_length_c   5.18882900
_cell_angle_alpha   90.00000000
_cell_angle_beta   90.00000000
_cell_angle_gamma   90.11452061
_symmetry_Int_Tables_number   1
_chemical_formula_structural   Cu2NiC16
_chemical_formula_sum   'Cu4 Ni2 C32'
_cell_volume   545.32245671
_cell_formula_units_Z   2
loop_
 _symmetry_equiv_pos_site_id
 _symmetry_equiv_pos_as_xyz
  1  'x, y, z'
loop_
 _atom_site_type_symbol
 _atom_site_label
 _atom_site_symmetry_multiplicity
 _atom_site_fract_x
 _atom_site_fract_y
 _atom_site_fract_z
 _atom_site_occupancy
  Ni  Ni0  1  0.50000000  0.00000000  0.50000000  1
  Ni  Ni1  1  0.00000000  0.50000000  0.50000000  1
  Cu  Cu2  1  0.50000000  0.50000000  0.50000000  1
  Cu  Cu3  1  0.00000000  0.00000000  0.50000000  1
  Cu  Cu4  1  0.25000000  0.25000000  0.50000000  1
  Cu  Cu5  1  0.75000000  0.75000000  0.50000000  1
  C  C6  1  0.97464500  0.25158400  0.99815300  1
  C  C7  1  0.02535500  0.74841600  0.00184700  1
  C  C8  1  0.47464500  0.75158400  0.00184700  1
  C  C9  1  0.52535500  0.24841600  0.99815300  1
  C  C10  1  0.24841600  0.52535500  0.00184700  1
  C  C11  1  0.75158400  0.47464500  0.99815300  1
  C  C12  1  0.74841600  0.02535500  0.99815300  1
  C  C13  1  0.25158400  0.97464500  0.00184700  1
  C  C14  1  0.32251500  0.06107200  0.25430000  1
  C  C15  1  0.67548000  0.55670900  0.25202500  1
  C  C16  1  0.82452000  0.94329100  0.25202500  1
  C  C17  1  0.17748500  0.43892800  0.25430000  1
  C  C18  1  0.67748500  0.93892800  0.74570000  1
  C  C19  1  0.32452000  0.44329100  0.74797500  1
  C  C20  1  0.17548000  0.05670900  0.74797500  1
  C  C21  1  0.82251500  0.56107200  0.74570000  1
  C  C22  1  0.43892800  0.17748500  0.74570000  1
  C  C23  1  0.94329100  0.82452000  0.74797500  1
  C  C24  1  0.55670900  0.67548000  0.74797500  1
  C  C25  1  0.06107200  0.32251500  0.74570000  1
  C  C26  1  0.56107200  0.82251500  0.25430000  1
  C  C27  1  0.05670900  0.17548000  0.25202500  1
  C  C28  1  0.44329100  0.32452000  0.25202500  1
  C  C29  1  0.93892800  0.67748500  0.25430000  1
  C  C30  1  0.87124600  0.37124600  0.15404500  1
  C  C31  1  0.12758500  0.87241500  0.15517900  1
  C  C32  1  0.37241500  0.62758500  0.15517900  1
  C  C33  1  0.62875400  0.12875400  0.15404500  1
  C  C34  1  0.12875400  0.62875400  0.84595500  1
  C  C35  1  0.87241500  0.12758500  0.84482100  1
  C  C36  1  0.62758500  0.37241500  0.84482100  1
  C  C37  1  0.37124600  0.87124600  0.84595500  1
