# generated using pymatgen
data_Cu2(Ni2C)3
_symmetry_space_group_name_H-M   'P 1'
_cell_length_a   6.81490820
_cell_length_b   6.81490820
_cell_length_c   10.54962574
_cell_angle_alpha   75.27554330
_cell_angle_beta   75.27554330
_cell_angle_gamma   91.57265299
_symmetry_Int_Tables_number   1
_chemical_formula_structural   Cu2(Ni2C)3
_chemical_formula_sum   'Cu4 Ni12 C6'
_cell_volume   456.07908794
_cell_formula_units_Z   2
loop_
 _symmetry_equiv_pos_site_id
 _symmetry_equiv_pos_as_xyz
  1  'x, y, z'
loop_
 _atom_site_type_symbol
 _atom_site_label
 _atom_site_symmetry_multiplicity
 _atom_site_fract_x
 _atom_site_fract_y
 _atom_site_fract_z
 _atom_site_occupancy
  C  C0  1  0.03463100  0.96536900  0.75000000  1
  C  C1  1  0.96536900  0.03463100  0.25000000  1
  C  C2  1  0.78538600  0.05058500  0.54956400  1
  C  C3  1  0.94941500  0.21461400  0.95043600  1
  C  C4  1  0.21461400  0.94941500  0.45043600  1
  C  C5  1  0.05058500  0.78538600  0.04956400  1
  Ni  Ni6  1  0.65725000  0.34275000  0.75000000  1
  Ni  Ni7  1  0.34275000  0.65725000  0.25000000  1
  Ni  Ni8  1  0.19428200  0.80571800  0.75000000  1
  Ni  Ni9  1  0.80571800  0.19428200  0.25000000  1
  Ni  Ni10  1  0.09457800  0.21104800  0.77915700  1
  Ni  Ni11  1  0.78895200  0.90542200  0.72084300  1
  Ni  Ni12  1  0.90542200  0.78895200  0.22084300  1
  Ni  Ni13  1  0.21104800  0.09457800  0.27915700  1
  Ni  Ni14  1  0.87839300  0.85913800  0.94342600  1
  Ni  Ni15  1  0.14086200  0.12160700  0.55657400  1
  Ni  Ni16  1  0.12160700  0.14086200  0.05657400  1
  Ni  Ni17  1  0.85913800  0.87839300  0.44342600  1
  Cu  Cu18  1  0.72297600  0.50596700  0.66813900  1
  Cu  Cu19  1  0.49403300  0.27702400  0.83186100  1
  Cu  Cu20  1  0.27702400  0.49403300  0.33186100  1
  Cu  Cu21  1  0.50596700  0.72297600  0.16813900  1
