# generated using pymatgen
data_Cu(NiC8)2
_symmetry_space_group_name_H-M   'P 1'
_cell_length_a   5.94834774
_cell_length_b   7.47742045
_cell_length_c   13.52415400
_cell_angle_alpha   90.00000000
_cell_angle_beta   90.00000000
_cell_angle_gamma   107.73733836
_symmetry_Int_Tables_number   1
_chemical_formula_structural   Cu(NiC8)2
_chemical_formula_sum   'Cu2 Ni4 C32'
_cell_volume   572.93643202
_cell_formula_units_Z   2
loop_
 _symmetry_equiv_pos_site_id
 _symmetry_equiv_pos_as_xyz
  1  'x, y, z'
loop_
 _atom_site_type_symbol
 _atom_site_label
 _atom_site_symmetry_multiplicity
 _atom_site_fract_x
 _atom_site_fract_y
 _atom_site_fract_z
 _atom_site_occupancy
  C  C0  1  0.87268100  0.60886400  0.11956200  1
  C  C1  1  0.12731900  0.39113600  0.88043800  1
  C  C2  1  0.12731900  0.89113600  0.61956200  1
  C  C3  1  0.87268100  0.10886400  0.38043800  1
  Ni  Ni4  1  0.73522200  0.61210200  0.85545000  1
  Ni  Ni5  1  0.26477800  0.38789800  0.14455000  1
  Ni  Ni6  1  0.26477800  0.88789800  0.35545000  1
  Ni  Ni7  1  0.73522200  0.11210200  0.64455000  1
  Cu  Cu8  1  0.50000000  0.00000000  0.00000000  1
  Cu  Cu9  1  0.50000000  0.50000000  0.50000000  1
  C  C10  1  0.33551300  0.93148700  0.86799400  1
  C  C11  1  0.66448700  0.06851300  0.13200600  1
  C  C12  1  0.66448700  0.56851300  0.36799400  1
  C  C13  1  0.33551300  0.43148700  0.63200600  1
  C  C14  1  0.25006700  0.54568900  0.66997600  1
  C  C15  1  0.74993300  0.45431100  0.33002400  1
  C  C16  1  0.74993300  0.95431100  0.16997600  1
  C  C17  1  0.25006700  0.04568900  0.83002400  1
  C  C18  1  0.78123200  0.02905600  0.93847900  1
  C  C19  1  0.21876800  0.97094400  0.06152100  1
  C  C20  1  0.21876800  0.47094400  0.43847900  1
  C  C21  1  0.78123200  0.52905600  0.56152100  1
  C  C22  1  0.50357200  0.64609800  0.82779900  1
  C  C23  1  0.49642800  0.35390200  0.17220100  1
  C  C24  1  0.49642800  0.85390200  0.32779900  1
  C  C25  1  0.50357200  0.14609800  0.67220100  1
  C  C26  1  0.70836600  0.93102900  0.58283200  1
  C  C27  1  0.29163400  0.06897100  0.41716800  1
  C  C28  1  0.29163400  0.56897100  0.08283200  1
  C  C29  1  0.70836600  0.43102900  0.91716800  1
  C  C30  1  0.85844000  0.77460100  0.94398800  1
  C  C31  1  0.14156000  0.22539900  0.05601200  1
  C  C32  1  0.14156000  0.72539900  0.44398800  1
  C  C33  1  0.85844000  0.27460100  0.55601200  1
  C  C34  1  0.91767200  0.63813500  0.77241900  1
  C  C35  1  0.08232800  0.36186500  0.22758100  1
  C  C36  1  0.08232800  0.86186500  0.27241900  1
  C  C37  1  0.91767200  0.13813500  0.72758100  1
