# generated using pymatgen
data_Cu12Ni2C13
_symmetry_space_group_name_H-M   'P 1'
_cell_length_a   10.45658500
_cell_length_b   10.45658500
_cell_length_c   10.45658500
_cell_angle_alpha   90.00000000
_cell_angle_beta   90.00000000
_cell_angle_gamma   90.00000000
_symmetry_Int_Tables_number   1
_chemical_formula_structural   Cu12Ni2C13
_chemical_formula_sum   'Cu48 Ni8 C52'
_cell_volume   1143.32478008
_cell_formula_units_Z   4
loop_
 _symmetry_equiv_pos_site_id
 _symmetry_equiv_pos_as_xyz
  1  'x, y, z'
loop_
 _atom_site_type_symbol
 _atom_site_label
 _atom_site_symmetry_multiplicity
 _atom_site_fract_x
 _atom_site_fract_y
 _atom_site_fract_z
 _atom_site_occupancy
  C  C0  1  0.50000000  0.50000000  0.00000000  1
  C  C1  1  0.50000000  0.00000000  0.50000000  1
  C  C2  1  0.00000000  0.50000000  0.50000000  1
  C  C3  1  0.00000000  0.00000000  0.00000000  1
  C  C4  1  0.25822900  0.56427200  0.04470500  1
  C  C5  1  0.74177100  0.06427200  0.45529600  1
  C  C6  1  0.24177100  0.43572800  0.54470500  1
  C  C7  1  0.75822900  0.93572800  0.95529500  1
  C  C8  1  0.04470500  0.25822900  0.56427200  1
  C  C9  1  0.45529600  0.74177100  0.06427200  1
  C  C10  1  0.54470500  0.24177100  0.43572800  1
  C  C11  1  0.95529500  0.75822900  0.93572800  1
  C  C12  1  0.56427200  0.04470500  0.25822900  1
  C  C13  1  0.06427200  0.45529600  0.74177100  1
  C  C14  1  0.43572800  0.54470500  0.24177100  1
  C  C15  1  0.93572800  0.95529500  0.75822900  1
  C  C16  1  0.74177100  0.43572800  0.95529500  1
  C  C17  1  0.25822900  0.93572800  0.54470500  1
  C  C18  1  0.75822900  0.56427200  0.45529600  1
  C  C19  1  0.24177100  0.06427200  0.04470500  1
  C  C20  1  0.95529500  0.74177100  0.43572800  1
  C  C21  1  0.54470500  0.25822900  0.93572800  1
  C  C22  1  0.45529600  0.75822900  0.56427200  1
  C  C23  1  0.04470500  0.24177100  0.06427200  1
  C  C24  1  0.43572800  0.95529500  0.74177100  1
  C  C25  1  0.93572800  0.54470500  0.25822900  1
  C  C26  1  0.56427200  0.45529600  0.75822900  1
  C  C27  1  0.06427200  0.04470500  0.24177100  1
  C  C28  1  0.26291600  0.45307900  0.93983600  1
  C  C29  1  0.73708400  0.95307900  0.56016400  1
  C  C30  1  0.23708400  0.54692100  0.43983600  1
  C  C31  1  0.76291600  0.04692100  0.06016400  1
  C  C32  1  0.93983600  0.26291600  0.45307900  1
  C  C33  1  0.56016400  0.73708400  0.95307900  1
  C  C34  1  0.43983600  0.23708400  0.54692100  1
  C  C35  1  0.06016400  0.76291600  0.04692100  1
  C  C36  1  0.45307900  0.93983600  0.26291600  1
  C  C37  1  0.95307900  0.56016400  0.73708400  1
  C  C38  1  0.54692100  0.43983600  0.23708400  1
  C  C39  1  0.04692100  0.06016400  0.76291600  1
  C  C40  1  0.73708400  0.54692100  0.06016400  1
  C  C41  1  0.26291600  0.04692100  0.43983600  1
  C  C42  1  0.76291600  0.45307900  0.56016400  1
  C  C43  1  0.23708400  0.95307900  0.93983600  1
  C  C44  1  0.06016400  0.73708400  0.54692100  1
  C  C45  1  0.43983600  0.26291600  0.04692100  1
  C  C46  1  0.56016400  0.76291600  0.45307900  1
  C  C47  1  0.93983600  0.23708400  0.95307900  1
  C  C48  1  0.54692100  0.06016400  0.73708400  1
  C  C49  1  0.04692100  0.43983600  0.26291600  1
  C  C50  1  0.45307900  0.56016400  0.76291600  1
  C  C51  1  0.95307900  0.93983600  0.23708400  1
  Ni  Ni52  1  0.24750800  0.75249200  0.25249200  1
  Ni  Ni53  1  0.75249200  0.25249200  0.24750800  1
  Ni  Ni54  1  0.25249200  0.24750800  0.75249200  1
  Ni  Ni55  1  0.74750800  0.74750800  0.74750800  1
  Ni  Ni56  1  0.75249200  0.24750800  0.74750800  1
  Ni  Ni57  1  0.24750800  0.74750800  0.75249200  1
  Ni  Ni58  1  0.74750800  0.75249200  0.24750800  1
  Ni  Ni59  1  0.25249200  0.25249200  0.25249200  1
  Cu  Cu60  1  0.33811500  0.66974100  0.67017700  1
  Cu  Cu61  1  0.66188500  0.16974100  0.82982300  1
  Cu  Cu62  1  0.16188500  0.33025900  0.17017700  1
  Cu  Cu63  1  0.83811500  0.83025900  0.32982300  1
  Cu  Cu64  1  0.67017700  0.33811500  0.66974100  1
  Cu  Cu65  1  0.82982300  0.66188500  0.16974100  1
  Cu  Cu66  1  0.17017700  0.16188500  0.33025900  1
  Cu  Cu67  1  0.32982300  0.83811500  0.83025900  1
  Cu  Cu68  1  0.66974100  0.67017700  0.33811500  1
  Cu  Cu69  1  0.16974100  0.82982300  0.66188500  1
  Cu  Cu70  1  0.33025900  0.17017700  0.16188500  1
  Cu  Cu71  1  0.83025900  0.32982300  0.83811500  1
  Cu  Cu72  1  0.66188500  0.33025900  0.32982300  1
  Cu  Cu73  1  0.33811500  0.83025900  0.17017700  1
  Cu  Cu74  1  0.83811500  0.66974100  0.82982300  1
  Cu  Cu75  1  0.16188500  0.16974100  0.67017700  1
  Cu  Cu76  1  0.32982300  0.66188500  0.33025900  1
  Cu  Cu77  1  0.17017700  0.33811500  0.83025900  1
  Cu  Cu78  1  0.82982300  0.83811500  0.66974100  1
  Cu  Cu79  1  0.67017700  0.16188500  0.16974100  1
  Cu  Cu80  1  0.33025900  0.32982300  0.66188500  1
  Cu  Cu81  1  0.83025900  0.17017700  0.33811500  1
  Cu  Cu82  1  0.66974100  0.82982300  0.83811500  1
  Cu  Cu83  1  0.16974100  0.67017700  0.16188500  1
  Cu  Cu84  1  0.30695400  0.53069300  0.97097800  1
  Cu  Cu85  1  0.69304600  0.03069300  0.52902200  1
  Cu  Cu86  1  0.19304600  0.46930700  0.47097800  1
  Cu  Cu87  1  0.80695400  0.96930700  0.02902200  1
  Cu  Cu88  1  0.97097800  0.30695400  0.53069300  1
  Cu  Cu89  1  0.52902200  0.69304600  0.03069300  1
  Cu  Cu90  1  0.47097800  0.19304600  0.46930700  1
  Cu  Cu91  1  0.02902200  0.80695400  0.96930700  1
  Cu  Cu92  1  0.53069300  0.97097800  0.30695400  1
  Cu  Cu93  1  0.03069300  0.52902200  0.69304600  1
  Cu  Cu94  1  0.46930700  0.47097800  0.19304600  1
  Cu  Cu95  1  0.96930700  0.02902200  0.80695400  1
  Cu  Cu96  1  0.69304600  0.46930700  0.02902200  1
  Cu  Cu97  1  0.30695400  0.96930700  0.47097800  1
  Cu  Cu98  1  0.80695400  0.53069300  0.52902200  1
  Cu  Cu99  1  0.19304600  0.03069300  0.97097800  1
  Cu  Cu100  1  0.02902200  0.69304600  0.46930700  1
  Cu  Cu101  1  0.47097800  0.30695400  0.96930700  1
  Cu  Cu102  1  0.52902200  0.80695400  0.53069300  1
  Cu  Cu103  1  0.97097800  0.19304600  0.03069300  1
  Cu  Cu104  1  0.46930700  0.02902200  0.69304600  1
  Cu  Cu105  1  0.96930700  0.47097800  0.30695400  1
  Cu  Cu106  1  0.53069300  0.52902200  0.80695400  1
  Cu  Cu107  1  0.03069300  0.97097800  0.19304600  1
