# generated using pymatgen
data_Cu10NiC4
_symmetry_space_group_name_H-M   'P 1'
_cell_length_a   10.80665313
_cell_length_b   10.80665313
_cell_length_c   10.78762600
_cell_angle_alpha   90.00000000
_cell_angle_beta   90.00000000
_cell_angle_gamma   137.26534103
_symmetry_Int_Tables_number   1
_chemical_formula_structural   Cu10NiC4
_chemical_formula_sum   'Cu40 Ni4 C16'
_cell_volume   854.91864308
_cell_formula_units_Z   4
loop_
 _symmetry_equiv_pos_site_id
 _symmetry_equiv_pos_as_xyz
  1  'x, y, z'
loop_
 _atom_site_type_symbol
 _atom_site_label
 _atom_site_symmetry_multiplicity
 _atom_site_fract_x
 _atom_site_fract_y
 _atom_site_fract_z
 _atom_site_occupancy
  C  C0  1  0.38156900  0.61843100  0.95567900  1
  C  C1  1  0.61843100  0.38156900  0.04432100  1
  C  C2  1  0.11843100  0.88156900  0.45567900  1
  C  C3  1  0.88156900  0.11843100  0.54432100  1
  C  C4  1  0.46849800  0.03150200  0.75000000  1
  C  C5  1  0.53150200  0.96849800  0.25000000  1
  C  C6  1  0.03150200  0.46849800  0.25000000  1
  C  C7  1  0.96849800  0.53150200  0.75000000  1
  C  C8  1  0.32855600  0.67144400  0.56569200  1
  C  C9  1  0.67144400  0.32855600  0.43430800  1
  C  C10  1  0.17144400  0.82855600  0.06569200  1
  C  C11  1  0.82855600  0.17144400  0.93430800  1
  C  C12  1  0.28073000  0.21927000  0.75000000  1
  C  C13  1  0.71927000  0.78073000  0.25000000  1
  C  C14  1  0.21927000  0.28073000  0.25000000  1
  C  C15  1  0.78073000  0.71927000  0.75000000  1
  Ni  Ni16  1  0.40718200  0.59281800  0.54821800  1
  Ni  Ni17  1  0.59281800  0.40718200  0.45178200  1
  Ni  Ni18  1  0.09281800  0.90718200  0.04821800  1
  Ni  Ni19  1  0.90718200  0.09281800  0.95178200  1
  Cu  Cu20  1  0.21844200  0.78155800  0.60400400  1
  Cu  Cu21  1  0.78155800  0.21844200  0.39599600  1
  Cu  Cu22  1  0.28155800  0.71844200  0.10400400  1
  Cu  Cu23  1  0.71844200  0.28155800  0.89599600  1
  Cu  Cu24  1  0.19899100  0.80100900  0.89215900  1
  Cu  Cu25  1  0.80100900  0.19899100  0.10784100  1
  Cu  Cu26  1  0.30100900  0.69899100  0.39215900  1
  Cu  Cu27  1  0.69899100  0.30100900  0.60784100  1
  Cu  Cu28  1  0.03168500  0.96831500  0.79014900  1
  Cu  Cu29  1  0.96831500  0.03168500  0.20985100  1
  Cu  Cu30  1  0.46831500  0.53168500  0.29014900  1
  Cu  Cu31  1  0.53168500  0.46831500  0.70985100  1
  Cu  Cu32  1  0.32112200  0.67887800  0.74613000  1
  Cu  Cu33  1  0.67887800  0.32112200  0.25387000  1
  Cu  Cu34  1  0.17887800  0.82112200  0.24613000  1
  Cu  Cu35  1  0.82112200  0.17887800  0.75387000  1
  Cu  Cu36  1  0.76841000  0.83440800  0.62932800  1
  Cu  Cu37  1  0.23159000  0.16559200  0.37067200  1
  Cu  Cu38  1  0.73159000  0.66559200  0.12932800  1
  Cu  Cu39  1  0.66559200  0.73159000  0.87067200  1
  Cu  Cu40  1  0.26841000  0.33440800  0.87067200  1
  Cu  Cu41  1  0.33440800  0.26841000  0.12932800  1
  Cu  Cu42  1  0.83440800  0.76841000  0.37067200  1
  Cu  Cu43  1  0.16559200  0.23159000  0.62932800  1
  Cu  Cu44  1  0.30515800  0.09811000  0.63784700  1
  Cu  Cu45  1  0.69484200  0.90189000  0.36215300  1
  Cu  Cu46  1  0.19484200  0.40189000  0.13784700  1
  Cu  Cu47  1  0.40189000  0.19484200  0.86215300  1
  Cu  Cu48  1  0.80515800  0.59811000  0.86215300  1
  Cu  Cu49  1  0.59811000  0.80515800  0.13784700  1
  Cu  Cu50  1  0.09811000  0.30515800  0.36215300  1
  Cu  Cu51  1  0.90189000  0.69484200  0.63784700  1
  Cu  Cu52  1  0.54932300  0.92787800  0.57810100  1
  Cu  Cu53  1  0.45067700  0.07212200  0.42189900  1
  Cu  Cu54  1  0.95067700  0.57212200  0.07810100  1
  Cu  Cu55  1  0.57212200  0.95067700  0.92189900  1
  Cu  Cu56  1  0.04932300  0.42787800  0.92189900  1
  Cu  Cu57  1  0.42787800  0.04932300  0.07810100  1
  Cu  Cu58  1  0.92787800  0.54932300  0.42189900  1
  Cu  Cu59  1  0.07212200  0.45067700  0.57810100  1
