# generated using pymatgen
data_CuNiC19
_symmetry_space_group_name_H-M   'P 1'
_cell_length_a   6.50434019
_cell_length_b   6.43821848
_cell_length_c   6.46713623
_cell_angle_alpha   82.84766672
_cell_angle_beta   83.55705211
_cell_angle_gamma   83.48842816
_symmetry_Int_Tables_number   1
_chemical_formula_structural   CuNiC19
_chemical_formula_sum   'Cu1 Ni1 C19'
_cell_volume   265.65430873
_cell_formula_units_Z   1
loop_
 _symmetry_equiv_pos_site_id
 _symmetry_equiv_pos_as_xyz
  1  'x, y, z'
loop_
 _atom_site_type_symbol
 _atom_site_label
 _atom_site_symmetry_multiplicity
 _atom_site_fract_x
 _atom_site_fract_y
 _atom_site_fract_z
 _atom_site_occupancy
  C  C0  1  0.65997400  0.66146700  0.65222800  1
  C  C1  1  0.34002600  0.33853300  0.34777200  1
  C  C2  1  0.34088100  0.34582900  0.85345100  1
  C  C3  1  0.34138200  0.85112000  0.34420900  1
  C  C4  1  0.85287800  0.34470900  0.34296600  1
  C  C5  1  0.65911900  0.65417100  0.14654900  1
  C  C6  1  0.65861800  0.14888000  0.65579100  1
  C  C7  1  0.14712200  0.65529100  0.65703400  1
  C  C8  1  0.90449800  0.90397200  0.90472100  1
  C  C9  1  0.09550200  0.09602800  0.09527900  1
  C  C10  1  0.00000000  0.00000000  0.50000000  1
  C  C11  1  0.00000000  0.50000000  0.00000000  1
  C  C12  1  0.50000000  0.00000000  0.00000000  1
  C  C13  1  0.28519000  0.71298800  0.00225800  1
  C  C14  1  0.71677600  0.00076100  0.28271000  1
  C  C15  1  0.99805600  0.29164100  0.71057700  1
  C  C16  1  0.28322400  0.99923900  0.71729000  1
  C  C17  1  0.00194400  0.70835900  0.28942300  1
  C  C18  1  0.71481000  0.28701200  0.99774200  1
  Ni  Ni19  1  0.50000000  0.50000000  0.00000000  1
  Cu  Cu20  1  0.50000000  0.00000000  0.50000000  1
