# generated using pymatgen
data_CuNi3C8
_symmetry_space_group_name_H-M   'P 1'
_cell_length_a   6.80543418
_cell_length_b   6.80543418
_cell_length_c   6.96655439
_cell_angle_alpha   75.18252700
_cell_angle_beta   75.18252700
_cell_angle_gamma   33.62898999
_symmetry_Int_Tables_number   1
_chemical_formula_structural   CuNi3C8
_chemical_formula_sum   'Cu1 Ni3 C8'
_cell_volume   172.19191211
_cell_formula_units_Z   1
loop_
 _symmetry_equiv_pos_site_id
 _symmetry_equiv_pos_as_xyz
  1  'x, y, z'
loop_
 _atom_site_type_symbol
 _atom_site_label
 _atom_site_symmetry_multiplicity
 _atom_site_fract_x
 _atom_site_fract_y
 _atom_site_fract_z
 _atom_site_occupancy
  Ni  Ni0  1  0.14742100  0.14742100  0.67634100  1
  Ni  Ni1  1  0.85238400  0.85238400  0.82658000  1
  Ni  Ni2  1  0.85173400  0.85173400  0.32165800  1
  Cu  Cu3  1  0.14586600  0.14586600  0.17701700  1
  C  C4  1  0.49939500  0.49939500  0.00615100  1
  C  C5  1  0.50098800  0.50098800  0.49363800  1
  C  C6  1  0.34538400  0.34538400  0.57793200  1
  C  C7  1  0.33996500  0.33996500  0.07951900  1
  C  C8  1  0.65497700  0.65497700  0.41163000  1
  C  C9  1  0.65496800  0.65496800  0.93326800  1
  C  C10  1  0.00373600  0.00373600  0.49052700  1
  C  C11  1  0.00318100  0.00318100  0.00573800  1
