# generated using pymatgen
data_Cu5NiC6
_symmetry_space_group_name_H-M   'P 1'
_cell_length_a   4.53037000
_cell_length_b   4.89130300
_cell_length_c   8.40787900
_cell_angle_alpha   90.00000000
_cell_angle_beta   90.00000000
_cell_angle_gamma   90.00000000
_symmetry_Int_Tables_number   1
_chemical_formula_structural   Cu5NiC6
_chemical_formula_sum   'Cu5 Ni1 C6'
_cell_volume   186.31365794
_cell_formula_units_Z   1
loop_
 _symmetry_equiv_pos_site_id
 _symmetry_equiv_pos_as_xyz
  1  'x, y, z'
loop_
 _atom_site_type_symbol
 _atom_site_label
 _atom_site_symmetry_multiplicity
 _atom_site_fract_x
 _atom_site_fract_y
 _atom_site_fract_z
 _atom_site_occupancy
  C  C0  1  0.50000000  0.00399000  0.75809100  1
  C  C1  1  0.00000000  0.49595700  0.76667100  1
  C  C2  1  0.50000000  0.00399000  0.24190900  1
  C  C3  1  0.00000000  0.49595700  0.23332900  1
  C  C4  1  0.00000000  0.01099400  0.50000000  1
  C  C5  1  0.00000000  0.99714600  0.00000000  1
  Ni  Ni6  1  0.50000000  0.57284600  0.50000000  1
  Cu  Cu7  1  0.00000000  0.99485100  0.78448100  1
  Cu  Cu8  1  0.00000000  0.99485100  0.21551900  1
  Cu  Cu9  1  0.50000000  0.44402200  0.63573700  1
  Cu  Cu10  1  0.50000000  0.44402200  0.36426300  1
  Cu  Cu11  1  0.50000000  0.84037600  0.50000000  1
