# generated using pymatgen
data_Cu6NiC4
_symmetry_space_group_name_H-M   'P 1'
_cell_length_a   8.94509500
_cell_length_b   9.18481300
_cell_length_c   13.08966100
_cell_angle_alpha   90.00000000
_cell_angle_beta   90.00000000
_cell_angle_gamma   90.00000000
_symmetry_Int_Tables_number   1
_chemical_formula_structural   Cu6NiC4
_chemical_formula_sum   'Cu48 Ni8 C32'
_cell_volume   1075.43378328
_cell_formula_units_Z   8
loop_
 _symmetry_equiv_pos_site_id
 _symmetry_equiv_pos_as_xyz
  1  'x, y, z'
loop_
 _atom_site_type_symbol
 _atom_site_label
 _atom_site_symmetry_multiplicity
 _atom_site_fract_x
 _atom_site_fract_y
 _atom_site_fract_z
 _atom_site_occupancy
  C  C0  1  0.91063700  0.26905500  0.68464000  1
  C  C1  1  0.58936300  0.76905500  0.31536000  1
  C  C2  1  0.41063700  0.73094500  0.81536000  1
  C  C3  1  0.08936300  0.23094500  0.18464000  1
  C  C4  1  0.08936300  0.73094500  0.31536000  1
  C  C5  1  0.41063700  0.23094500  0.68464000  1
  C  C6  1  0.58936300  0.26905500  0.18464000  1
  C  C7  1  0.91063700  0.76905500  0.81536000  1
  C  C8  1  0.86083700  0.39008100  0.99621500  1
  C  C9  1  0.63916300  0.89008100  0.00378500  1
  C  C10  1  0.36083700  0.60991900  0.50378500  1
  C  C11  1  0.13916300  0.10991900  0.49621500  1
  C  C12  1  0.13916300  0.60991900  0.00378500  1
  C  C13  1  0.36083700  0.10991900  0.99621500  1
  C  C14  1  0.63916300  0.39008100  0.49621500  1
  C  C15  1  0.86083700  0.89008100  0.50378500  1
  C  C16  1  0.66154300  0.96902200  0.66367400  1
  C  C17  1  0.83845700  0.46902200  0.33632600  1
  C  C18  1  0.16154300  0.03097800  0.83632600  1
  C  C19  1  0.33845700  0.53097800  0.16367400  1
  C  C20  1  0.33845700  0.03097800  0.33632600  1
  C  C21  1  0.16154300  0.53097800  0.66367400  1
  C  C22  1  0.83845700  0.96902200  0.16367400  1
  C  C23  1  0.66154300  0.46902200  0.83632600  1
  C  C24  1  0.63445900  0.01799100  0.84597900  1
  C  C25  1  0.86554100  0.51799100  0.15402100  1
  C  C26  1  0.13445900  0.98200900  0.65402100  1
  C  C27  1  0.36554100  0.48200900  0.34597900  1
  C  C28  1  0.36554100  0.98200900  0.15402100  1
  C  C29  1  0.13445900  0.48200900  0.84597900  1
  C  C30  1  0.86554100  0.01799100  0.34597900  1
  C  C31  1  0.63445900  0.51799100  0.65402100  1
  Ni  Ni32  1  0.82294900  0.10079300  0.98947400  1
  Ni  Ni33  1  0.67705100  0.60079300  0.01052600  1
  Ni  Ni34  1  0.32294900  0.89920700  0.51052600  1
  Ni  Ni35  1  0.17705100  0.39920700  0.48947400  1
  Ni  Ni36  1  0.17705100  0.89920700  0.01052600  1
  Ni  Ni37  1  0.32294900  0.39920700  0.98947400  1
  Ni  Ni38  1  0.67705100  0.10079300  0.48947400  1
  Ni  Ni39  1  0.82294900  0.60079300  0.51052600  1
  Cu  Cu40  1  0.86891500  0.20816200  0.92074700  1
  Cu  Cu41  1  0.63108500  0.70816200  0.07925300  1
  Cu  Cu42  1  0.36891500  0.79183800  0.57925300  1
  Cu  Cu43  1  0.13108500  0.29183800  0.42074700  1
  Cu  Cu44  1  0.13108500  0.79183800  0.07925300  1
  Cu  Cu45  1  0.36891500  0.29183800  0.92074700  1
  Cu  Cu46  1  0.63108500  0.20816200  0.42074700  1
  Cu  Cu47  1  0.86891500  0.70816200  0.57925300  1
  Cu  Cu48  1  0.94696500  0.32985100  0.96978400  1
  Cu  Cu49  1  0.55303500  0.82985100  0.03021600  1
  Cu  Cu50  1  0.44696500  0.67014900  0.53021600  1
  Cu  Cu51  1  0.05303500  0.17014900  0.46978400  1
  Cu  Cu52  1  0.05303500  0.67014900  0.03021600  1
  Cu  Cu53  1  0.44696500  0.17014900  0.96978400  1
  Cu  Cu54  1  0.55303500  0.32985100  0.46978400  1
  Cu  Cu55  1  0.94696500  0.82985100  0.53021600  1
  Cu  Cu56  1  0.64776300  0.90241400  0.72372400  1
  Cu  Cu57  1  0.85223700  0.40241400  0.27627600  1
  Cu  Cu58  1  0.14776300  0.09758600  0.77627600  1
  Cu  Cu59  1  0.35223700  0.59758600  0.22372400  1
  Cu  Cu60  1  0.35223700  0.09758600  0.27627600  1
  Cu  Cu61  1  0.14776300  0.59758600  0.72372400  1
  Cu  Cu62  1  0.85223700  0.90241400  0.22372400  1
  Cu  Cu63  1  0.64776300  0.40241400  0.77627600  1
  Cu  Cu64  1  0.55971800  0.99880000  0.79069300  1
  Cu  Cu65  1  0.94028200  0.49880000  0.20930700  1
  Cu  Cu66  1  0.05971800  0.00120000  0.70930700  1
  Cu  Cu67  1  0.44028200  0.50120000  0.29069300  1
  Cu  Cu68  1  0.44028200  0.00120000  0.20930700  1
  Cu  Cu69  1  0.05971800  0.50120000  0.79069300  1
  Cu  Cu70  1  0.94028200  0.99880000  0.29069300  1
  Cu  Cu71  1  0.55971800  0.49880000  0.70930700  1
  Cu  Cu72  1  0.83835800  0.11765600  0.08369300  1
  Cu  Cu73  1  0.66164200  0.61765600  0.91630700  1
  Cu  Cu74  1  0.33835800  0.88234400  0.41630700  1
  Cu  Cu75  1  0.16164200  0.38234400  0.58369300  1
  Cu  Cu76  1  0.16164200  0.88234400  0.91630700  1
  Cu  Cu77  1  0.33835800  0.38234400  0.08369300  1
  Cu  Cu78  1  0.66164200  0.11765600  0.58369300  1
  Cu  Cu79  1  0.83835800  0.61765600  0.41630700  1
  Cu  Cu80  1  0.76663200  0.99424500  0.94080100  1
  Cu  Cu81  1  0.73336800  0.49424500  0.05919900  1
  Cu  Cu82  1  0.26663200  0.00575500  0.55919900  1
  Cu  Cu83  1  0.23336800  0.50575500  0.44080100  1
  Cu  Cu84  1  0.23336800  0.00575500  0.05919900  1
  Cu  Cu85  1  0.26663200  0.50575500  0.94080100  1
  Cu  Cu86  1  0.73336800  0.99424500  0.44080100  1
  Cu  Cu87  1  0.76663200  0.49424500  0.55919900  1
