# generated using pymatgen
data_Cu16Ni56C13
_symmetry_space_group_name_H-M   'P 1'
_cell_length_a   10.89134677
_cell_length_b   10.89134677
_cell_length_c   19.12379697
_cell_angle_alpha   78.10237394
_cell_angle_beta   78.10237394
_cell_angle_gamma   68.54766739
_symmetry_Int_Tables_number   1
_chemical_formula_structural   Cu16Ni56C13
_chemical_formula_sum   'Cu32 Ni112 C26'
_cell_volume   2044.57249982
_cell_formula_units_Z   2
loop_
 _symmetry_equiv_pos_site_id
 _symmetry_equiv_pos_as_xyz
  1  'x, y, z'
loop_
 _atom_site_type_symbol
 _atom_site_label
 _atom_site_symmetry_multiplicity
 _atom_site_fract_x
 _atom_site_fract_y
 _atom_site_fract_z
 _atom_site_occupancy
  C  C0  1  0.33494500  0.66505500  0.25000000  1
  C  C1  1  0.66505500  0.33494500  0.75000000  1
  C  C2  1  0.20053200  0.92354400  0.14008400  1
  C  C3  1  0.07645600  0.79946800  0.35991600  1
  C  C4  1  0.79946800  0.07645600  0.85991600  1
  C  C5  1  0.92354400  0.20053200  0.64008400  1
  C  C6  1  0.24476900  0.67353600  0.07483700  1
  C  C7  1  0.32646400  0.75523100  0.42516300  1
  C  C8  1  0.75523100  0.32646400  0.92516300  1
  C  C9  1  0.67353600  0.24476900  0.57483700  1
  C  C10  1  0.18526100  0.41294900  0.25962700  1
  C  C11  1  0.58705100  0.81473900  0.24037300  1
  C  C12  1  0.81473900  0.58705100  0.74037300  1
  C  C13  1  0.41294900  0.18526100  0.75962700  1
  C  C14  1  0.42419400  0.36735000  0.33617000  1
  C  C15  1  0.63265000  0.57580600  0.16383000  1
  C  C16  1  0.57580600  0.63265000  0.66383000  1
  C  C17  1  0.36735000  0.42419400  0.83617000  1
  Ni  Ni18  1  0.39839200  0.96046000  0.05726000  1
  Ni  Ni19  1  0.03954000  0.60160800  0.44274000  1
  Ni  Ni20  1  0.60160800  0.03954000  0.94274000  1
  Ni  Ni21  1  0.96046000  0.39839200  0.55726000  1
  Ni  Ni22  1  0.27370400  0.11322000  0.07843800  1
  Ni  Ni23  1  0.88678000  0.72629600  0.42156200  1
  Ni  Ni24  1  0.72629600  0.88678000  0.92156200  1
  Ni  Ni25  1  0.11322000  0.27370400  0.57843800  1
  Ni  Ni26  1  0.25340000  0.02850100  0.01395600  1
  Ni  Ni27  1  0.97149900  0.74660000  0.48604400  1
  Ni  Ni28  1  0.74660000  0.97149900  0.98604400  1
  Ni  Ni29  1  0.02850100  0.25340000  0.51395600  1
  Ni  Ni30  1  0.98363200  0.02294000  0.09084700  1
  Ni  Ni31  1  0.97706000  0.01636800  0.40915300  1
  Ni  Ni32  1  0.01636800  0.97706000  0.90915300  1
  Ni  Ni33  1  0.02294000  0.98363200  0.59084700  1
  Ni  Ni34  1  0.99520300  0.11910500  0.15208000  1
  Ni  Ni35  1  0.88089500  0.00479700  0.34792000  1
  Ni  Ni36  1  0.00479700  0.88089500  0.84792000  1
  Ni  Ni37  1  0.11910500  0.99520300  0.65208000  1
  Ni  Ni38  1  0.95644100  0.97010700  0.18532100  1
  Ni  Ni39  1  0.02989300  0.04355900  0.31467900  1
  Ni  Ni40  1  0.04355900  0.02989300  0.81467900  1
  Ni  Ni41  1  0.97010700  0.95644100  0.68532100  1
  Ni  Ni42  1  0.29262300  0.82745000  0.96248900  1
  Ni  Ni43  1  0.17255000  0.70737700  0.53751100  1
  Ni  Ni44  1  0.70737700  0.17255000  0.03751100  1
  Ni  Ni45  1  0.82745000  0.29262300  0.46248900  1
  Ni  Ni46  1  0.32384200  0.66383900  0.94582500  1
  Ni  Ni47  1  0.33616100  0.67615800  0.55417500  1
  Ni  Ni48  1  0.67615800  0.33616100  0.05417500  1
  Ni  Ni49  1  0.66383900  0.32384200  0.44582500  1
  Ni  Ni50  1  0.44161900  0.69717500  0.98404600  1
  Ni  Ni51  1  0.30282500  0.55838100  0.51595400  1
  Ni  Ni52  1  0.55838100  0.30282500  0.01595400  1
  Ni  Ni53  1  0.69717500  0.44161900  0.48404600  1
  Ni  Ni54  1  0.01112200  0.66973800  0.11026700  1
  Ni  Ni55  1  0.33026200  0.98887800  0.38973300  1
  Ni  Ni56  1  0.98887800  0.33026200  0.88973300  1
  Ni  Ni57  1  0.66973800  0.01112200  0.61026700  1
  Ni  Ni58  1  0.07503600  0.64123200  0.01922000  1
  Ni  Ni59  1  0.35876800  0.92496400  0.48078000  1
  Ni  Ni60  1  0.92496400  0.35876800  0.98078000  1
  Ni  Ni61  1  0.64123200  0.07503600  0.51922000  1
  Ni  Ni62  1  0.01718700  0.80582300  0.04108500  1
  Ni  Ni63  1  0.19417700  0.98281300  0.45891500  1
  Ni  Ni64  1  0.98281300  0.19417700  0.95891500  1
  Ni  Ni65  1  0.80582300  0.01718700  0.54108500  1
  Ni  Ni66  1  0.12899500  0.26667900  0.37254100  1
  Ni  Ni67  1  0.73332100  0.87100500  0.12745900  1
  Ni  Ni68  1  0.87100500  0.73332100  0.62745900  1
  Ni  Ni69  1  0.26667900  0.12899500  0.87254100  1
  Ni  Ni70  1  0.99682200  0.34078100  0.32000200  1
  Ni  Ni71  1  0.65921900  0.00317800  0.17999800  1
  Ni  Ni72  1  0.00317800  0.65921900  0.67999800  1
  Ni  Ni73  1  0.34078100  0.99682200  0.82000200  1
  Ni  Ni74  1  0.02550900  0.43591800  0.37614800  1
  Ni  Ni75  1  0.56408200  0.97449100  0.12385200  1
  Ni  Ni76  1  0.97449100  0.56408200  0.62385200  1
  Ni  Ni77  1  0.43591800  0.02550900  0.87614800  1
  Ni  Ni78  1  0.32437800  0.29100500  0.15644900  1
  Ni  Ni79  1  0.70899500  0.67562200  0.34355100  1
  Ni  Ni80  1  0.67562200  0.70899500  0.84355100  1
  Ni  Ni81  1  0.29100500  0.32437800  0.65644900  1
  Ni  Ni82  1  0.16659700  0.26823900  0.18237600  1
  Ni  Ni83  1  0.73176100  0.83340300  0.31762400  1
  Ni  Ni84  1  0.83340300  0.73176100  0.81762400  1
  Ni  Ni85  1  0.26823900  0.16659700  0.68237600  1
  Ni  Ni86  1  0.29734000  0.17697800  0.23446900  1
  Ni  Ni87  1  0.82302200  0.70266000  0.26553100  1
  Ni  Ni88  1  0.70266000  0.82302200  0.76553100  1
  Ni  Ni89  1  0.17697800  0.29734000  0.73446900  1
  Ni  Ni90  1  0.26995900  0.39624500  0.45319600  1
  Ni  Ni91  1  0.60375500  0.73004100  0.04680400  1
  Ni  Ni92  1  0.73004100  0.60375500  0.54680400  1
  Ni  Ni93  1  0.39624500  0.26995900  0.95319600  1
  Ni  Ni94  1  0.43526000  0.29258500  0.46676600  1
  Ni  Ni95  1  0.70741500  0.56474000  0.03323400  1
  Ni  Ni96  1  0.56474000  0.70741500  0.53323400  1
  Ni  Ni97  1  0.29258500  0.43526000  0.96676600  1
  Ni  Ni98  1  0.33026400  0.22734900  0.43722400  1
  Ni  Ni99  1  0.77265100  0.66973600  0.06277600  1
  Ni  Ni100  1  0.66973600  0.77265100  0.56277600  1
  Ni  Ni101  1  0.22734900  0.33026400  0.93722400  1
  Ni  Ni102  1  0.51046600  0.14083100  0.29927200  1
  Ni  Ni103  1  0.85916900  0.48953400  0.20072800  1
  Ni  Ni104  1  0.48953400  0.85916900  0.70072800  1
  Ni  Ni105  1  0.14083100  0.51046600  0.79927200  1
  Ni  Ni106  1  0.62876600  0.16936800  0.33983600  1
  Ni  Ni107  1  0.83063200  0.37123400  0.16016400  1
  Ni  Ni108  1  0.37123400  0.83063200  0.66016400  1
  Ni  Ni109  1  0.16936800  0.62876600  0.83983600  1
  Ni  Ni110  1  0.60721100  0.23861000  0.24815600  1
  Ni  Ni111  1  0.76139000  0.39278900  0.25184400  1
  Ni  Ni112  1  0.39278900  0.76139000  0.75184400  1
  Ni  Ni113  1  0.23861000  0.60721100  0.74815600  1
  Ni  Ni114  1  0.23848800  0.93099700  0.21134800  1
  Ni  Ni115  1  0.06900300  0.76151200  0.28865200  1
  Ni  Ni116  1  0.76151200  0.06900300  0.78865200  1
  Ni  Ni117  1  0.93099700  0.23848800  0.71134800  1
  Ni  Ni118  1  0.31184200  0.52691300  0.09564500  1
  Ni  Ni119  1  0.47308700  0.68815800  0.40435500  1
  Ni  Ni120  1  0.68815800  0.47308700  0.90435500  1
  Ni  Ni121  1  0.52691300  0.31184200  0.59564500  1
  Ni  Ni122  1  0.09636500  0.53291400  0.21779700  1
  Ni  Ni123  1  0.46708600  0.90363500  0.28220300  1
  Ni  Ni124  1  0.90363500  0.46708600  0.78220300  1
  Ni  Ni125  1  0.53291400  0.09636500  0.71779700  1
  Ni  Ni126  1  0.49278400  0.46744100  0.33639100  1
  Ni  Ni127  1  0.53255900  0.50721600  0.16360900  1
  Ni  Ni128  1  0.50721600  0.53255900  0.66360900  1
  Ni  Ni129  1  0.46744100  0.49278400  0.83639100  1
  Cu  Cu130  1  0.29050000  0.01405000  0.06535600  1
  Cu  Cu131  1  0.98595000  0.70950000  0.43464400  1
  Cu  Cu132  1  0.70950000  0.98595000  0.93464400  1
  Cu  Cu133  1  0.01405000  0.29050000  0.56535600  1
  Cu  Cu134  1  0.01668000  0.01637500  0.14241600  1
  Cu  Cu135  1  0.98362500  0.98332000  0.35758400  1
  Cu  Cu136  1  0.98332000  0.98362500  0.85758400  1
  Cu  Cu137  1  0.01637500  0.01668000  0.64241600  1
  Cu  Cu138  1  0.33455800  0.72136600  0.98388900  1
  Cu  Cu139  1  0.27863400  0.66544200  0.51611100  1
  Cu  Cu140  1  0.66544200  0.27863400  0.01611100  1
  Cu  Cu141  1  0.72136600  0.33455800  0.48388900  1
  Cu  Cu142  1  0.07011000  0.70066300  0.06047200  1
  Cu  Cu143  1  0.29933700  0.92989000  0.43952800  1
  Cu  Cu144  1  0.92989000  0.29933700  0.93952800  1
  Cu  Cu145  1  0.70066300  0.07011000  0.56047200  1
  Cu  Cu146  1  0.07493500  0.35960500  0.34034300  1
  Cu  Cu147  1  0.64039500  0.92506500  0.15965700  1
  Cu  Cu148  1  0.92506500  0.64039500  0.65965700  1
  Cu  Cu149  1  0.35960500  0.07493500  0.84034300  1
  Cu  Cu150  1  0.25121000  0.27427300  0.20293200  1
  Cu  Cu151  1  0.72572700  0.74879000  0.29706800  1
  Cu  Cu152  1  0.74879000  0.72572700  0.79706800  1
  Cu  Cu153  1  0.27427300  0.25121000  0.70293200  1
  Cu  Cu154  1  0.35780000  0.31674800  0.43224900  1
  Cu  Cu155  1  0.68325200  0.64220000  0.06775100  1
  Cu  Cu156  1  0.64220000  0.68325200  0.56775100  1
  Cu  Cu157  1  0.31674800  0.35780000  0.93224900  1
  Cu  Cu158  1  0.55491500  0.21527300  0.30206000  1
  Cu  Cu159  1  0.78472700  0.44508500  0.19794000  1
  Cu  Cu160  1  0.44508500  0.78472700  0.69794000  1
  Cu  Cu161  1  0.21527300  0.55491500  0.80206000  1
  C  C162  1  0.25123500  0.75302700  0.14311300  1
  C  C163  1  0.24697300  0.74876500  0.35688700  1
  C  C164  1  0.74876500  0.24697300  0.85688700  1
  C  C165  1  0.75302700  0.25123500  0.64311300  1
  C  C166  1  0.30682800  0.46134900  0.28042300  1
  C  C167  1  0.53865100  0.69317200  0.21957700  1
  C  C168  1  0.69317200  0.53865100  0.71957700  1
  C  C169  1  0.46134900  0.30682800  0.78042300  1
