# generated using pymatgen
data_CuNiC
_symmetry_space_group_name_H-M   'P 1'
_cell_length_a   7.20771502
_cell_length_b   7.20771502
_cell_length_c   3.96171700
_cell_angle_alpha   90.00000000
_cell_angle_beta   90.00000000
_cell_angle_gamma   120.71551078
_symmetry_Int_Tables_number   1
_chemical_formula_structural   CuNiC
_chemical_formula_sum   'Cu3 Ni3 C3'
_cell_volume   176.94271078
_cell_formula_units_Z   3
loop_
 _symmetry_equiv_pos_site_id
 _symmetry_equiv_pos_as_xyz
  1  'x, y, z'
loop_
 _atom_site_type_symbol
 _atom_site_label
 _atom_site_symmetry_multiplicity
 _atom_site_fract_x
 _atom_site_fract_y
 _atom_site_fract_z
 _atom_site_occupancy
  C  C0  1  0.11893300  0.53041700  0.50000000  1
  C  C1  1  0.53041700  0.11893300  0.50000000  1
  C  C2  1  0.95035300  0.95035300  0.50000000  1
  Ni  Ni3  1  0.19365700  0.86460000  0.00000000  1
  Ni  Ni4  1  0.86460000  0.19365700  0.00000000  1
  Ni  Ni5  1  0.29022100  0.29022100  0.00000000  1
  Cu  Cu6  1  0.52329500  0.52329500  0.50000000  1
  Cu  Cu7  1  0.52209100  0.78043300  0.00000000  1
  Cu  Cu8  1  0.78043300  0.52209100  0.00000000  1
