# generated using pymatgen
data_Cu3NiC19
_symmetry_space_group_name_H-M   'P 1'
_cell_length_a   8.67196922
_cell_length_b   8.67196886
_cell_length_c   10.78675400
_cell_angle_alpha   90.00000000
_cell_angle_beta   90.00000000
_cell_angle_gamma   120.00000030
_symmetry_Int_Tables_number   1
_chemical_formula_structural   Cu3NiC19
_chemical_formula_sum   'Cu6 Ni2 C38'
_cell_volume   702.51700662
_cell_formula_units_Z   2
loop_
 _symmetry_equiv_pos_site_id
 _symmetry_equiv_pos_as_xyz
  1  'x, y, z'
loop_
 _atom_site_type_symbol
 _atom_site_label
 _atom_site_symmetry_multiplicity
 _atom_site_fract_x
 _atom_site_fract_y
 _atom_site_fract_z
 _atom_site_occupancy
  Ni  Ni0  1  0.00000000  0.00000000  0.75000000  1
  Ni  Ni1  1  0.00000000  0.00000000  0.25000000  1
  Cu  Cu2  1  0.60213500  0.07731100  0.75000000  1
  Cu  Cu3  1  0.39786500  0.92268900  0.25000000  1
  Cu  Cu4  1  0.47517600  0.39786500  0.75000000  1
  Cu  Cu5  1  0.52482400  0.60213500  0.25000000  1
  Cu  Cu6  1  0.92268900  0.52482400  0.75000000  1
  Cu  Cu7  1  0.07731100  0.47517600  0.25000000  1
  C  C8  1  0.66666700  0.33333300  0.44955500  1
  C  C9  1  0.33333300  0.66666700  0.55044500  1
  C  C10  1  0.33333300  0.66666700  0.94955500  1
  C  C11  1  0.66666700  0.33333300  0.05044500  1
  C  C12  1  0.94822100  0.27314300  0.75000000  1
  C  C13  1  0.05177900  0.72685800  0.25000000  1
  C  C14  1  0.32492200  0.05177900  0.75000000  1
  C  C15  1  0.67507800  0.94822100  0.25000000  1
  C  C16  1  0.72685800  0.67507800  0.75000000  1
  C  C17  1  0.27314300  0.32492200  0.25000000  1
  C  C18  1  0.80848900  0.04496200  0.95598400  1
  C  C19  1  0.19151100  0.95503800  0.04401600  1
  C  C20  1  0.23647300  0.19151100  0.95598400  1
  C  C21  1  0.19151100  0.95503800  0.45598400  1
  C  C22  1  0.76352700  0.80848900  0.04401600  1
  C  C23  1  0.80848900  0.04496200  0.54401600  1
  C  C24  1  0.95503800  0.76352700  0.95598400  1
  C  C25  1  0.76352700  0.80848900  0.45598400  1
  C  C26  1  0.04496200  0.23647300  0.04401600  1
  C  C27  1  0.23647300  0.19151100  0.54401600  1
  C  C28  1  0.04496200  0.23647300  0.45598400  1
  C  C29  1  0.95503800  0.76352700  0.54401600  1
  C  C30  1  0.52254900  0.65296300  0.89342400  1
  C  C31  1  0.47745100  0.34703700  0.10657600  1
  C  C32  1  0.13041400  0.47745100  0.89342400  1
  C  C33  1  0.47745100  0.34703700  0.39342400  1
  C  C34  1  0.86958600  0.52254900  0.10657600  1
  C  C35  1  0.52254900  0.65296300  0.60657600  1
  C  C36  1  0.34703700  0.86958600  0.89342400  1
  C  C37  1  0.86958600  0.52254900  0.39342400  1
  C  C38  1  0.65296300  0.13041400  0.10657600  1
  C  C39  1  0.13041400  0.47745100  0.60657600  1
  C  C40  1  0.65296300  0.13041400  0.39342400  1
  C  C41  1  0.34703700  0.86958600  0.60657600  1
  C  C42  1  0.66666700  0.33333300  0.88541600  1
  C  C43  1  0.33333300  0.66666700  0.11458400  1
  C  C44  1  0.33333300  0.66666700  0.38541600  1
  C  C45  1  0.66666700  0.33333300  0.61458400  1
