# generated using pymatgen
data_CuNi2C17
_symmetry_space_group_name_H-M   'P 1'
_cell_length_a   7.59712567
_cell_length_b   7.59712567
_cell_length_c   14.81797735
_cell_angle_alpha   88.42928276
_cell_angle_beta   88.42928276
_cell_angle_gamma   40.75956699
_symmetry_Int_Tables_number   1
_chemical_formula_structural   CuNi2C17
_chemical_formula_sum   'Cu2 Ni4 C34'
_cell_volume   558.13507029
_cell_formula_units_Z   2
loop_
 _symmetry_equiv_pos_site_id
 _symmetry_equiv_pos_as_xyz
  1  'x, y, z'
loop_
 _atom_site_type_symbol
 _atom_site_label
 _atom_site_symmetry_multiplicity
 _atom_site_fract_x
 _atom_site_fract_y
 _atom_site_fract_z
 _atom_site_occupancy
  C  C0  1  0.10182500  0.26670600  0.87649400  1
  C  C1  1  0.26670600  0.10182500  0.37649400  1
  C  C2  1  0.89817500  0.73329400  0.12350600  1
  C  C3  1  0.73329400  0.89817500  0.62350600  1
  Ni  Ni4  1  0.10034600  0.13938000  0.62635200  1
  Ni  Ni5  1  0.89965400  0.86062000  0.37364800  1
  Ni  Ni6  1  0.13938000  0.10034600  0.12635200  1
  Ni  Ni7  1  0.86062000  0.89965400  0.87364800  1
  Cu  Cu8  1  0.44095900  0.55904100  0.75000000  1
  Cu  Cu9  1  0.55904100  0.44095900  0.25000000  1
  C  C10  1  0.50000000  0.50000000  0.50000000  1
  C  C11  1  0.50000000  0.50000000  0.00000000  1
  C  C12  1  0.88645600  0.10640700  0.16365800  1
  C  C13  1  0.87081900  0.41350400  0.04534600  1
  C  C14  1  0.12918100  0.58649600  0.95465400  1
  C  C15  1  0.63751600  0.86788800  0.90369800  1
  C  C16  1  0.60724200  0.48822800  0.87748200  1
  C  C17  1  0.51177200  0.39275800  0.62251800  1
  C  C18  1  0.41350400  0.87081900  0.54534600  1
  C  C19  1  0.89359300  0.11354400  0.33634200  1
  C  C20  1  0.35898100  0.98152800  0.72395100  1
  C  C21  1  0.36248400  0.13211200  0.09630200  1
  C  C22  1  0.80031400  0.42155000  0.71257500  1
  C  C23  1  0.13211200  0.36248400  0.59630200  1
  C  C24  1  0.42155000  0.80031400  0.21257500  1
  C  C25  1  0.19968600  0.57845000  0.28742500  1
  C  C26  1  0.48822800  0.60724200  0.37748200  1
  C  C27  1  0.64101900  0.01847200  0.27604900  1
  C  C28  1  0.12132500  0.72375800  0.48649200  1
  C  C29  1  0.11354400  0.89359300  0.83634200  1
  C  C30  1  0.87867500  0.27624200  0.51350800  1
  C  C31  1  0.72375800  0.12132500  0.98649200  1
  C  C32  1  0.58649600  0.12918100  0.45465400  1
  C  C33  1  0.57845000  0.19968600  0.78742500  1
  C  C34  1  0.98152800  0.35898100  0.22395100  1
  C  C35  1  0.27624200  0.87867500  0.01350800  1
  C  C36  1  0.39275800  0.51177200  0.12251800  1
  C  C37  1  0.10640700  0.88645600  0.66365800  1
  C  C38  1  0.01847200  0.64101900  0.77604900  1
  C  C39  1  0.86788800  0.63751600  0.40369800  1
