# generated using pymatgen
data_Cu6Ni3C2
_symmetry_space_group_name_H-M   'P 1'
_cell_length_a   13.80314029
_cell_length_b   13.80314029
_cell_length_c   13.80314029
_cell_angle_alpha   90.00000000
_cell_angle_beta   90.00000000
_cell_angle_gamma   90.00000000
_symmetry_Int_Tables_number   1
_chemical_formula_structural   Cu6Ni3C2
_chemical_formula_sum   'Cu96 Ni48 C32'
_cell_volume   2629.86651878
_cell_formula_units_Z   16
loop_
 _symmetry_equiv_pos_site_id
 _symmetry_equiv_pos_as_xyz
  1  'x, y, z'
loop_
 _atom_site_type_symbol
 _atom_site_label
 _atom_site_symmetry_multiplicity
 _atom_site_fract_x
 _atom_site_fract_y
 _atom_site_fract_z
 _atom_site_occupancy
  C  C0  1  0.07993591  0.57993591  0.92006409  1
  C  C1  1  0.92006409  0.07993591  0.57993591  1
  C  C2  1  0.57993591  0.92006409  0.07993591  1
  C  C3  1  0.42006409  0.42006409  0.42006409  1
  C  C4  1  0.67006409  0.17006409  0.32993591  1
  C  C5  1  0.17006409  0.32993591  0.67006409  1
  C  C6  1  0.32993591  0.67006409  0.17006409  1
  C  C7  1  0.82993591  0.82993591  0.82993591  1
  C  C8  1  0.75915328  0.50915328  0.87500000  1
  C  C9  1  0.24084672  0.00915328  0.62500000  1
  C  C10  1  0.00915328  0.62500000  0.24084672  1
  C  C11  1  0.99084672  0.12500000  0.25915328  1
  C  C12  1  0.12500000  0.25915328  0.99084672  1
  C  C13  1  0.87500000  0.75915328  0.50915328  1
  C  C14  1  0.25915328  0.99084672  0.12500000  1
  C  C15  1  0.74084672  0.49084672  0.37500000  1
  C  C16  1  0.50915328  0.87500000  0.75915328  1
  C  C17  1  0.49084672  0.37500000  0.74084672  1
  C  C18  1  0.62500000  0.24084672  0.00915328  1
  C  C19  1  0.37500000  0.74084672  0.49084672  1
  C  C20  1  0.87500000  0.37500000  0.12500000  1
  C  C21  1  0.12500000  0.87500000  0.37500000  1
  C  C22  1  0.37500000  0.12500000  0.87500000  1
  C  C23  1  0.62500000  0.62500000  0.62500000  1
  C  C24  1  0.23948508  0.73948508  0.76051492  1
  C  C25  1  0.76051492  0.23948508  0.73948508  1
  C  C26  1  0.73948508  0.76051492  0.23948508  1
  C  C27  1  0.26051492  0.26051492  0.26051492  1
  C  C28  1  0.51051492  0.01051492  0.48948508  1
  C  C29  1  0.01051492  0.48948508  0.51051492  1
  C  C30  1  0.48948508  0.51051492  0.01051492  1
  C  C31  1  0.98948508  0.98948508  0.98948508  1
  Ni  Ni32  1  0.27030526  0.80102818  0.95527184  1
  Ni  Ni33  1  0.72969474  0.30102818  0.54472816  1
  Ni  Ni34  1  0.30102818  0.54472816  0.72969474  1
  Ni  Ni35  1  0.69897182  0.04472816  0.77030526  1
  Ni  Ni36  1  0.04472816  0.77030526  0.69897182  1
  Ni  Ni37  1  0.95527184  0.27030526  0.80102818  1
  Ni  Ni38  1  0.77030526  0.69897182  0.04472816  1
  Ni  Ni39  1  0.22969474  0.19897182  0.45527184  1
  Ni  Ni40  1  0.80102818  0.95527184  0.27030526  1
  Ni  Ni41  1  0.19897182  0.45527184  0.22969474  1
  Ni  Ni42  1  0.54472816  0.72969474  0.30102818  1
  Ni  Ni43  1  0.45527184  0.22969474  0.19897182  1
  Ni  Ni44  1  0.44897182  0.97969474  0.29472816  1
  Ni  Ni45  1  0.94897182  0.52030526  0.70527184  1
  Ni  Ni46  1  0.55102818  0.47969474  0.20527184  1
  Ni  Ni47  1  0.05102818  0.02030526  0.79472816  1
  Ni  Ni48  1  0.52030526  0.70527184  0.94897182  1
  Ni  Ni49  1  0.47969474  0.20527184  0.55102818  1
  Ni  Ni50  1  0.97969474  0.29472816  0.44897182  1
  Ni  Ni51  1  0.02030526  0.79472816  0.05102818  1
  Ni  Ni52  1  0.70527184  0.94897182  0.52030526  1
  Ni  Ni53  1  0.20527184  0.55102818  0.47969474  1
  Ni  Ni54  1  0.29472816  0.44897182  0.97969474  1
  Ni  Ni55  1  0.79472816  0.05102818  0.02030526  1
  Ni  Ni56  1  0.30652232  0.88660408  0.89132112  1
  Ni  Ni57  1  0.69347768  0.38660408  0.60867888  1
  Ni  Ni58  1  0.38660408  0.60867888  0.69347768  1
  Ni  Ni59  1  0.61339592  0.10867888  0.80652232  1
  Ni  Ni60  1  0.10867888  0.80652232  0.61339592  1
  Ni  Ni61  1  0.89132112  0.30652232  0.88660408  1
  Ni  Ni62  1  0.80652232  0.61339592  0.10867888  1
  Ni  Ni63  1  0.19347768  0.11339592  0.39132112  1
  Ni  Ni64  1  0.88660408  0.89132112  0.30652232  1
  Ni  Ni65  1  0.11339592  0.39132112  0.19347768  1
  Ni  Ni66  1  0.60867888  0.69347768  0.38660408  1
  Ni  Ni67  1  0.39132112  0.19347768  0.11339592  1
  Ni  Ni68  1  0.36339592  0.94347768  0.35867888  1
  Ni  Ni69  1  0.86339592  0.55652232  0.64132112  1
  Ni  Ni70  1  0.63660408  0.44347768  0.14132112  1
  Ni  Ni71  1  0.13660408  0.05652232  0.85867888  1
  Ni  Ni72  1  0.55652232  0.64132112  0.86339592  1
  Ni  Ni73  1  0.44347768  0.14132112  0.63660408  1
  Ni  Ni74  1  0.94347768  0.35867888  0.36339592  1
  Ni  Ni75  1  0.05652232  0.85867888  0.13660408  1
  Ni  Ni76  1  0.64132112  0.86339592  0.55652232  1
  Ni  Ni77  1  0.14132112  0.63660408  0.44347768  1
  Ni  Ni78  1  0.35867888  0.36339592  0.94347768  1
  Ni  Ni79  1  0.85867888  0.13660408  0.05652232  1
  Cu  Cu80  1  0.24769861  0.72422707  0.90685864  1
  Cu  Cu81  1  0.75230139  0.22422707  0.59314136  1
  Cu  Cu82  1  0.22422707  0.59314136  0.75230139  1
  Cu  Cu83  1  0.77577293  0.09314136  0.74769861  1
  Cu  Cu84  1  0.09314136  0.74769861  0.77577293  1
  Cu  Cu85  1  0.90685864  0.24769861  0.72422707  1
  Cu  Cu86  1  0.74769861  0.77577293  0.09314136  1
  Cu  Cu87  1  0.25230139  0.27577293  0.40685864  1
  Cu  Cu88  1  0.72422707  0.90685864  0.24769861  1
  Cu  Cu89  1  0.27577293  0.40685864  0.25230139  1
  Cu  Cu90  1  0.59314136  0.75230139  0.22422707  1
  Cu  Cu91  1  0.40685864  0.25230139  0.27577293  1
  Cu  Cu92  1  0.52577293  0.00230139  0.34314136  1
  Cu  Cu93  1  0.02577293  0.49769861  0.65685864  1
  Cu  Cu94  1  0.47422707  0.50230139  0.15685864  1
  Cu  Cu95  1  0.97422707  0.99769861  0.84314136  1
  Cu  Cu96  1  0.49769861  0.65685864  0.02577293  1
  Cu  Cu97  1  0.50230139  0.15685864  0.47422707  1
  Cu  Cu98  1  0.00230139  0.34314136  0.52577293  1
  Cu  Cu99  1  0.99769861  0.84314136  0.97422707  1
  Cu  Cu100  1  0.65685864  0.02577293  0.49769861  1
  Cu  Cu101  1  0.15685864  0.47422707  0.50230139  1
  Cu  Cu102  1  0.34314136  0.52577293  0.00230139  1
  Cu  Cu103  1  0.84314136  0.97422707  0.99769861  1
  Cu  Cu104  1  0.29500567  0.87236343  0.79857913  1
  Cu  Cu105  1  0.70499433  0.37236343  0.70142087  1
  Cu  Cu106  1  0.37236343  0.70142087  0.70499433  1
  Cu  Cu107  1  0.62763657  0.20142087  0.79500567  1
  Cu  Cu108  1  0.20142087  0.79500567  0.62763657  1
  Cu  Cu109  1  0.79857913  0.29500567  0.87236343  1
  Cu  Cu110  1  0.79500567  0.62763657  0.20142087  1
  Cu  Cu111  1  0.20499433  0.12763657  0.29857913  1
  Cu  Cu112  1  0.87236343  0.79857913  0.29500567  1
  Cu  Cu113  1  0.12763657  0.29857913  0.20499433  1
  Cu  Cu114  1  0.70142087  0.70499433  0.37236343  1
  Cu  Cu115  1  0.29857913  0.20499433  0.12763657  1
  Cu  Cu116  1  0.37763657  0.95499433  0.45142087  1
  Cu  Cu117  1  0.87763657  0.54500567  0.54857913  1
  Cu  Cu118  1  0.62236343  0.45499433  0.04857913  1
  Cu  Cu119  1  0.12236343  0.04500567  0.95142087  1
  Cu  Cu120  1  0.54500567  0.54857913  0.87763657  1
  Cu  Cu121  1  0.45499433  0.04857913  0.62236343  1
  Cu  Cu122  1  0.95499433  0.45142087  0.37763657  1
  Cu  Cu123  1  0.04500567  0.95142087  0.12236343  1
  Cu  Cu124  1  0.54857913  0.87763657  0.54500567  1
  Cu  Cu125  1  0.04857913  0.62236343  0.45499433  1
  Cu  Cu126  1  0.45142087  0.37763657  0.95499433  1
  Cu  Cu127  1  0.95142087  0.12236343  0.04500567  1
  Cu  Cu128  1  0.26554790  0.81013965  0.04469550  1
  Cu  Cu129  1  0.73445210  0.31013965  0.45530450  1
  Cu  Cu130  1  0.31013965  0.45530450  0.73445210  1
  Cu  Cu131  1  0.68986035  0.95530450  0.76554790  1
  Cu  Cu132  1  0.95530450  0.76554790  0.68986035  1
  Cu  Cu133  1  0.04469550  0.26554790  0.81013965  1
  Cu  Cu134  1  0.76554790  0.68986035  0.95530450  1
  Cu  Cu135  1  0.23445210  0.18986035  0.54469550  1
  Cu  Cu136  1  0.81013965  0.04469550  0.26554790  1
  Cu  Cu137  1  0.18986035  0.54469550  0.23445210  1
  Cu  Cu138  1  0.45530450  0.73445210  0.31013965  1
  Cu  Cu139  1  0.54469550  0.23445210  0.18986035  1
  Cu  Cu140  1  0.43986035  0.98445210  0.20530450  1
  Cu  Cu141  1  0.93986035  0.51554790  0.79469550  1
  Cu  Cu142  1  0.56013965  0.48445210  0.29469550  1
  Cu  Cu143  1  0.06013965  0.01554790  0.70530450  1
  Cu  Cu144  1  0.51554790  0.79469550  0.93986035  1
  Cu  Cu145  1  0.48445210  0.29469550  0.56013965  1
  Cu  Cu146  1  0.98445210  0.20530450  0.43986035  1
  Cu  Cu147  1  0.01554790  0.70530450  0.06013965  1
  Cu  Cu148  1  0.79469550  0.93986035  0.51554790  1
  Cu  Cu149  1  0.29469550  0.56013965  0.48445210  1
  Cu  Cu150  1  0.20530450  0.43986035  0.98445210  1
  Cu  Cu151  1  0.70530450  0.06013965  0.01554790  1
  Cu  Cu152  1  0.34349600  0.95910701  0.92894094  1
  Cu  Cu153  1  0.65650400  0.45910701  0.57105906  1
  Cu  Cu154  1  0.45910701  0.57105906  0.65650400  1
  Cu  Cu155  1  0.54089299  0.07105906  0.84349600  1
  Cu  Cu156  1  0.07105906  0.84349600  0.54089299  1
  Cu  Cu157  1  0.92894094  0.34349600  0.95910701  1
  Cu  Cu158  1  0.84349600  0.54089299  0.07105906  1
  Cu  Cu159  1  0.15650400  0.04089299  0.42894094  1
  Cu  Cu160  1  0.95910701  0.92894094  0.34349600  1
  Cu  Cu161  1  0.04089299  0.42894094  0.15650400  1
  Cu  Cu162  1  0.57105906  0.65650400  0.45910701  1
  Cu  Cu163  1  0.42894094  0.15650400  0.04089299  1
  Cu  Cu164  1  0.29089299  0.90650400  0.32105906  1
  Cu  Cu165  1  0.79089299  0.59349600  0.67894094  1
  Cu  Cu166  1  0.70910701  0.40650400  0.17894094  1
  Cu  Cu167  1  0.20910701  0.09349600  0.82105906  1
  Cu  Cu168  1  0.59349600  0.67894094  0.79089299  1
  Cu  Cu169  1  0.40650400  0.17894094  0.70910701  1
  Cu  Cu170  1  0.90650400  0.32105906  0.29089299  1
  Cu  Cu171  1  0.09349600  0.82105906  0.20910701  1
  Cu  Cu172  1  0.67894094  0.79089299  0.59349600  1
  Cu  Cu173  1  0.17894094  0.70910701  0.40650400  1
  Cu  Cu174  1  0.32105906  0.29089299  0.90650400  1
  Cu  Cu175  1  0.82105906  0.20910701  0.09349600  1
