# generated using pymatgen
data_Cu2(NiC5)3
_symmetry_space_group_name_H-M   'P 1'
_cell_length_a   11.08289926
_cell_length_b   11.08289926
_cell_length_c   11.08289926
_cell_angle_alpha   109.47122063
_cell_angle_beta   109.47122063
_cell_angle_gamma   109.47122063
_symmetry_Int_Tables_number   1
_chemical_formula_structural   Cu2(NiC5)3
_chemical_formula_sum   'Cu8 Ni12 C60'
_cell_volume   1047.94445973
_cell_formula_units_Z   4
loop_
 _symmetry_equiv_pos_site_id
 _symmetry_equiv_pos_as_xyz
  1  'x, y, z'
loop_
 _atom_site_type_symbol
 _atom_site_label
 _atom_site_symmetry_multiplicity
 _atom_site_fract_x
 _atom_site_fract_y
 _atom_site_fract_z
 _atom_site_occupancy
  Ni  Ni0  1  0.87500000  0.62500000  0.75000000  1
  Ni  Ni1  1  0.12500000  0.37500000  0.25000000  1
  Ni  Ni2  1  0.62500000  0.87500000  0.25000000  1
  Ni  Ni3  1  0.62500000  0.75000000  0.87500000  1
  Ni  Ni4  1  0.87500000  0.25000000  0.62500000  1
  Ni  Ni5  1  0.37500000  0.12500000  0.75000000  1
  Ni  Ni6  1  0.37500000  0.25000000  0.12500000  1
  Ni  Ni7  1  0.12500000  0.75000000  0.37500000  1
  Ni  Ni8  1  0.75000000  0.87500000  0.62500000  1
  Ni  Ni9  1  0.25000000  0.12500000  0.37500000  1
  Ni  Ni10  1  0.25000000  0.62500000  0.87500000  1
  Ni  Ni11  1  0.75000000  0.37500000  0.12500000  1
  Cu  Cu12  1  -0.00000000  -0.00000000  -0.00000000  1
  Cu  Cu13  1  0.50000000  -0.00000000  0.50000000  1
  Cu  Cu14  1  0.50000000  0.50000000  -0.00000000  1
  Cu  Cu15  1  -0.00000000  -0.00000000  0.50000000  1
  Cu  Cu16  1  -0.00000000  0.50000000  0.50000000  1
  Cu  Cu17  1  0.50000000  0.50000000  0.50000000  1
  Cu  Cu18  1  0.50000000  -0.00000000  -0.00000000  1
  Cu  Cu19  1  -0.00000000  0.50000000  -0.00000000  1
  C  C20  1  0.62500000  0.37500000  0.75000000  1
  C  C21  1  0.37500000  0.62500000  0.25000000  1
  C  C22  1  0.87500000  0.12500000  0.25000000  1
  C  C23  1  0.37500000  0.75000000  0.62500000  1
  C  C24  1  0.62500000  0.25000000  0.37500000  1
  C  C25  1  0.12500000  0.87500000  0.75000000  1
  C  C26  1  0.12500000  0.25000000  0.87500000  1
  C  C27  1  0.87500000  0.75000000  0.12500000  1
  C  C28  1  0.75000000  0.62500000  0.37500000  1
  C  C29  1  0.25000000  0.37500000  0.62500000  1
  C  C30  1  0.25000000  0.87500000  0.12500000  1
  C  C31  1  0.75000000  0.12500000  0.87500000  1
  C  C32  1  0.71003277  0.62533496  0.52924401  1
  C  C33  1  0.28996723  0.37466504  0.47075599  1
  C  C34  1  0.78996723  0.81921124  0.41530219  1
  C  C35  1  0.40390906  0.87466504  0.08469781  1
  C  C36  1  0.62533496  0.52924401  0.71003277  1
  C  C37  1  0.71003277  0.08469781  0.68078876  1
  C  C38  1  0.21003277  0.18078876  0.58469781  1
  C  C39  1  0.59609094  0.12533496  0.91530219  1
  C  C40  1  0.37466504  0.47075599  0.28996723  1
  C  C41  1  0.28996723  0.91530219  0.31921124  1
  C  C42  1  0.09609094  0.68078876  0.97075599  1
  C  C43  1  0.81921124  0.41530219  0.78996723  1
  C  C44  1  0.78996723  0.97075599  0.87466504  1
  C  C45  1  0.90390906  0.31921124  0.02924401  1
  C  C46  1  0.18078876  0.58469781  0.21003277  1
  C  C47  1  0.21003277  0.02924401  0.12533496  1
  C  C48  1  0.87466504  0.08469781  0.40390906  1
  C  C49  1  0.40390906  0.52924401  0.81921124  1
  C  C50  1  0.12533496  0.91530219  0.59609094  1
  C  C51  1  0.59609094  0.47075599  0.18078876  1
  C  C52  1  0.68078876  0.97075599  0.09609094  1
  C  C53  1  0.09609094  0.41530219  0.62533496  1
  C  C54  1  0.31921124  0.02924401  0.90390906  1
  C  C55  1  0.90390906  0.58469781  0.37466504  1
  C  C56  1  0.52924401  0.71003277  0.62533496  1
  C  C57  1  0.62533496  0.09609094  0.41530219  1
  C  C58  1  0.47075599  0.28996723  0.37466504  1
  C  C59  1  0.37466504  0.90390906  0.58469781  1
  C  C60  1  0.08469781  0.40390906  0.87466504  1
  C  C61  1  0.87466504  0.78996723  0.97075599  1
  C  C62  1  0.91530219  0.59609094  0.12533496  1
  C  C63  1  0.12533496  0.21003277  0.02924401  1
  C  C64  1  0.97075599  0.09609094  0.68078876  1
  C  C65  1  0.68078876  0.71003277  0.08469781  1
  C  C66  1  0.02924401  0.90390906  0.31921124  1
  C  C67  1  0.31921124  0.28996723  0.91530219  1
  C  C68  1  0.41530219  0.78996723  0.81921124  1
  C  C69  1  0.81921124  0.40390906  0.52924401  1
  C  C70  1  0.58469781  0.21003277  0.18078876  1
  C  C71  1  0.18078876  0.59609094  0.47075599  1
  C  C72  1  0.08469781  0.68078876  0.71003277  1
  C  C73  1  0.91530219  0.31921124  0.28996723  1
  C  C74  1  0.97075599  0.87466504  0.78996723  1
  C  C75  1  0.02924401  0.12533496  0.21003277  1
  C  C76  1  0.41530219  0.62533496  0.09609094  1
  C  C77  1  0.58469781  0.37466504  0.90390906  1
  C  C78  1  0.52924401  0.81921124  0.40390906  1
  C  C79  1  0.47075599  0.18078876  0.59609094  1
