# generated using pymatgen
data_Cu6NiC
_symmetry_space_group_name_H-M   'P 1'
_cell_length_a   4.89908100
_cell_length_b   5.17813111
_cell_length_c   5.19463774
_cell_angle_alpha   68.72815268
_cell_angle_beta   80.30985009
_cell_angle_gamma   76.88530105
_symmetry_Int_Tables_number   1
_chemical_formula_structural   Cu6NiC
_chemical_formula_sum   'Cu6 Ni1 C1'
_cell_volume   119.05884363
_cell_formula_units_Z   1
loop_
 _symmetry_equiv_pos_site_id
 _symmetry_equiv_pos_as_xyz
  1  'x, y, z'
loop_
 _atom_site_type_symbol
 _atom_site_label
 _atom_site_symmetry_multiplicity
 _atom_site_fract_x
 _atom_site_fract_y
 _atom_site_fract_z
 _atom_site_occupancy
  C  C0  1  0.00000000  0.00000000  0.00000000  1
  Ni  Ni1  1  0.50000000  0.00000000  0.00000000  1
  Cu  Cu2  1  0.31563400  0.68709400  0.14974800  1
  Cu  Cu3  1  0.98690300  0.78150400  0.77756900  1
  Cu  Cu4  1  0.28432000  0.15917000  0.69321200  1
  Cu  Cu5  1  0.68436600  0.31290600  0.85025200  1
  Cu  Cu6  1  0.01309700  0.21849600  0.22243100  1
  Cu  Cu7  1  0.71568000  0.84083000  0.30678800  1
