# generated using pymatgen
data_Cu(NiC2)2
_symmetry_space_group_name_H-M   'P 1'
_cell_length_a   6.07916319
_cell_length_b   6.07916319
_cell_length_c   14.86591277
_cell_angle_alpha   89.22228102
_cell_angle_beta   89.22228102
_cell_angle_gamma   59.71481790
_symmetry_Int_Tables_number   1
_chemical_formula_structural   Cu(NiC2)2
_chemical_formula_sum   'Cu6 Ni12 C24'
_cell_volume   474.35273410
_cell_formula_units_Z   6
loop_
 _symmetry_equiv_pos_site_id
 _symmetry_equiv_pos_as_xyz
  1  'x, y, z'
loop_
 _atom_site_type_symbol
 _atom_site_label
 _atom_site_symmetry_multiplicity
 _atom_site_fract_x
 _atom_site_fract_y
 _atom_site_fract_z
 _atom_site_occupancy
  Ni  Ni0  1  0.83436700  0.33610700  0.16579800  1
  Ni  Ni1  1  0.00803500  0.00803500  0.37812400  1
  Ni  Ni2  1  0.00070300  0.00070300  0.00024300  1
  Ni  Ni3  1  0.33610700  0.83436700  0.16579800  1
  Ni  Ni4  1  0.49998000  0.00140800  0.49980500  1
  Ni  Ni5  1  0.67499500  0.67499500  0.70976500  1
  Ni  Ni6  1  0.00140800  0.49998000  0.49980500  1
  Ni  Ni7  1  0.16604700  0.66632100  0.83457000  1
  Ni  Ni8  1  0.32634400  0.32634400  0.28919100  1
  Ni  Ni9  1  0.66632100  0.16604700  0.83457000  1
  Ni  Ni10  1  0.99331200  0.99331200  0.62201000  1
  Ni  Ni11  1  0.66071300  0.66071300  0.95736900  1
  Cu  Cu12  1  0.34285700  0.34285700  0.04267000  1
  Cu  Cu13  1  0.66567900  0.66567900  0.33310800  1
  Cu  Cu14  1  0.83406800  0.83406800  0.16835900  1
  Cu  Cu15  1  0.33555800  0.33555800  0.66690100  1
  Cu  Cu16  1  0.50061600  0.50061600  0.49986500  1
  Cu  Cu17  1  0.16763000  0.16763000  0.83170600  1
  C  C18  1  0.70714000  0.16460600  0.08505600  1
  C  C19  1  0.01086200  0.01086200  0.23706500  1
  C  C20  1  0.16460600  0.70714000  0.08505600  1
  C  C21  1  0.15966700  0.15966700  0.08665600  1
  C  C22  1  0.36740400  0.83554400  0.42472900  1
  C  C23  1  0.50710900  0.50710900  0.23859000  1
  C  C24  1  0.67846200  0.67846200  0.57226100  1
  C  C25  1  0.49746300  0.96966400  0.24050300  1
  C  C26  1  0.83554400  0.36740400  0.42472900  1
  C  C27  1  0.65685800  0.65685800  0.09480900  1
  C  C28  1  0.82382200  0.82382200  0.42722300  1
  C  C29  1  0.96966400  0.49746300  0.24050300  1
  C  C30  1  0.03162600  0.50342300  0.76001700  1
  C  C31  1  0.17754300  0.17754300  0.57247600  1
  C  C32  1  0.16560400  0.63427200  0.57516900  1
  C  C33  1  0.50342300  0.03162700  0.76001700  1
  C  C34  1  0.34347300  0.34347300  0.90741400  1
  C  C35  1  0.32288000  0.32288000  0.42710900  1
  C  C36  1  0.49409100  0.49409100  0.76182500  1
  C  C37  1  0.63427200  0.16560400  0.57516900  1
  C  C38  1  0.84488400  0.84488400  0.91229300  1
  C  C39  1  0.83787900  0.29074300  0.91476300  1
  C  C40  1  0.99042600  0.99042600  0.76243300  1
  C  C41  1  0.29074300  0.83787900  0.91476300  1
