# generated using pymatgen
data_CuNi3C14
_symmetry_space_group_name_H-M   'P 1'
_cell_length_a   12.83154394
_cell_length_b   12.83154394
_cell_length_c   8.44141300
_cell_angle_alpha   90.00000000
_cell_angle_beta   90.00000000
_cell_angle_gamma   119.99999967
_symmetry_Int_Tables_number   1
_chemical_formula_structural   CuNi3C14
_chemical_formula_sum   'Cu6 Ni18 C84'
_cell_volume   1203.65940238
_cell_formula_units_Z   6
loop_
 _symmetry_equiv_pos_site_id
 _symmetry_equiv_pos_as_xyz
  1  'x, y, z'
loop_
 _atom_site_type_symbol
 _atom_site_label
 _atom_site_symmetry_multiplicity
 _atom_site_fract_x
 _atom_site_fract_y
 _atom_site_fract_z
 _atom_site_occupancy
  C  C0  1  0.00463700  0.33556300  0.08659300  1
  C  C1  1  0.33092600  0.99536300  0.08659300  1
  C  C2  1  0.66443700  0.66907400  0.08659300  1
  C  C3  1  0.99536300  0.66443700  0.58659300  1
  C  C4  1  0.66907400  0.00463700  0.58659300  1
  C  C5  1  0.33556300  0.33092600  0.58659300  1
  C  C6  1  0.13186400  0.27962300  0.81953600  1
  C  C7  1  0.14776000  0.86813600  0.81953600  1
  C  C8  1  0.72037700  0.85224000  0.81953600  1
  C  C9  1  0.86813600  0.72037700  0.31953600  1
  C  C10  1  0.85224000  0.13186400  0.31953600  1
  C  C11  1  0.27962300  0.14776000  0.31953600  1
  C  C12  1  0.05155100  0.50753900  0.80286700  1
  C  C13  1  0.45598800  0.94844900  0.80286700  1
  C  C14  1  0.49246100  0.54401200  0.80286700  1
  C  C15  1  0.94844900  0.49246100  0.30286700  1
  C  C16  1  0.54401200  0.05155100  0.30286700  1
  C  C17  1  0.50753900  0.45598800  0.30286700  1
  C  C18  1  0.78625300  0.16913000  0.88172000  1
  C  C19  1  0.38287600  0.21374700  0.88172000  1
  C  C20  1  0.83087000  0.61712400  0.88172000  1
  C  C21  1  0.21374700  0.83087000  0.38172000  1
  C  C22  1  0.61712400  0.78625300  0.38172000  1
  C  C23  1  0.16913000  0.38287600  0.38172000  1
  C  C24  1  0.27272100  0.57951100  0.00224500  1
  C  C25  1  0.30678900  0.72727900  0.00224500  1
  C  C26  1  0.42048900  0.69321100  0.00224500  1
  C  C27  1  0.72727900  0.42048900  0.50224500  1
  C  C28  1  0.69321100  0.27272100  0.50224500  1
  C  C29  1  0.57951100  0.30678900  0.50224500  1
  C  C30  1  0.33333300  0.66666700  0.16322600  1
  C  C31  1  0.66666700  0.33333300  0.66322600  1
  C  C32  1  0.75367100  0.35913100  0.00124100  1
  C  C33  1  0.60546000  0.24632900  0.00124100  1
  C  C34  1  0.64086900  0.39454000  0.00124100  1
  C  C35  1  0.24632900  0.64086900  0.50124100  1
  C  C36  1  0.39454000  0.75367100  0.50124100  1
  C  C37  1  0.35913100  0.60546000  0.50124100  1
  C  C38  1  0.66666700  0.33333300  0.16238600  1
  C  C39  1  0.33333300  0.66666700  0.66238600  1
  C  C40  1  0.94008300  0.02761700  0.67494400  1
  C  C41  1  0.08753500  0.05991700  0.67494400  1
  C  C42  1  0.97238300  0.91246500  0.67494400  1
  C  C43  1  0.05991700  0.97238300  0.17494400  1
  C  C44  1  0.91246500  0.94008300  0.17494400  1
  C  C45  1  0.02761700  0.08753500  0.17494400  1
  C  C46  1  0.00000000  0.00000000  0.51408900  1
  C  C47  1  0.00000000  0.00000000  0.01408900  1
  Ni  Ni48  1  0.18942900  0.37812600  0.82929600  1
  Ni  Ni49  1  0.18869700  0.81057100  0.82929600  1
  Ni  Ni50  1  0.62187400  0.81130300  0.82929600  1
  Ni  Ni51  1  0.81057100  0.62187400  0.32929600  1
  Ni  Ni52  1  0.81130300  0.18942900  0.32929600  1
  Ni  Ni53  1  0.37812600  0.18869700  0.32929600  1
  Ni  Ni54  1  0.95413700  0.47004700  0.82276400  1
  Ni  Ni55  1  0.51591000  0.04586300  0.82276400  1
  Ni  Ni56  1  0.52995300  0.48409000  0.82276400  1
  Ni  Ni57  1  0.04586300  0.52995300  0.32276400  1
  Ni  Ni58  1  0.48409000  0.95413700  0.32276400  1
  Ni  Ni59  1  0.47004700  0.51591000  0.32276400  1
  Ni  Ni60  1  0.85022900  0.13734200  0.85567500  1
  Ni  Ni61  1  0.28711300  0.14977100  0.85567500  1
  Ni  Ni62  1  0.86265800  0.71288700  0.85567500  1
  Ni  Ni63  1  0.14977100  0.86265800  0.35567500  1
  Ni  Ni64  1  0.71288700  0.85022900  0.35567500  1
  Ni  Ni65  1  0.13734200  0.28711300  0.35567500  1
  Cu  Cu66  1  0.33333300  0.66666700  0.04207200  1
  Cu  Cu67  1  0.66666700  0.33333300  0.54207200  1
  Cu  Cu68  1  0.66666700  0.33333300  0.04109800  1
  Cu  Cu69  1  0.33333300  0.66666700  0.54109800  1
  Cu  Cu70  1  0.00000000  0.00000000  0.63535800  1
  Cu  Cu71  1  0.00000000  0.00000000  0.13535800  1
  C  C72  1  0.16417300  0.42962100  0.94009400  1
  C  C73  1  0.26544900  0.83582700  0.94009400  1
  C  C74  1  0.57037900  0.73455100  0.94009400  1
  C  C75  1  0.83582700  0.57037900  0.44009400  1
  C  C76  1  0.73455100  0.16417300  0.44009400  1
  C  C77  1  0.42962100  0.26544900  0.44009400  1
  C  C78  1  0.27465400  0.43150100  0.73138400  1
  C  C79  1  0.15684800  0.72534600  0.73138400  1
  C  C80  1  0.56849900  0.84315200  0.73138400  1
  C  C81  1  0.72534600  0.56849900  0.23138400  1
  C  C82  1  0.84315200  0.27465400  0.23138400  1
  C  C83  1  0.43150100  0.15684800  0.23138400  1
  C  C84  1  0.90733600  0.39831200  0.93964100  1
  C  C85  1  0.49097600  0.09266400  0.93964100  1
  C  C86  1  0.60168800  0.50902400  0.93964100  1
  C  C87  1  0.09266400  0.60168800  0.43964100  1
  C  C88  1  0.50902400  0.90733600  0.43964100  1
  C  C89  1  0.39831200  0.49097600  0.43964100  1
  C  C90  1  0.89754200  0.50176600  0.73032600  1
  C  C91  1  0.60422400  0.10245800  0.73032600  1
  C  C92  1  0.49823400  0.39577600  0.73032600  1
  C  C93  1  0.10245800  0.49823400  0.23032600  1
  C  C94  1  0.39577600  0.89754200  0.23032600  1
  C  C95  1  0.50176600  0.60422400  0.23032600  1
  C  C96  1  0.94073200  0.17161200  0.94470800  1
  C  C97  1  0.23088000  0.05926800  0.94470800  1
  C  C98  1  0.82838800  0.76912000  0.94470800  1
  C  C99  1  0.05926800  0.82838800  0.44470800  1
  C  C100  1  0.76912000  0.94073200  0.44470800  1
  C  C101  1  0.17161200  0.23088000  0.44470800  1
  C  C102  1  0.82715700  0.06842800  0.73588800  1
  C  C103  1  0.24127100  0.17284300  0.73588800  1
  C  C104  1  0.93157200  0.75872900  0.73588800  1
  C  C105  1  0.17284300  0.93157200  0.23588800  1
  C  C106  1  0.75872900  0.82715700  0.23588800  1
  C  C107  1  0.06842800  0.24127100  0.23588800  1
