# generated using pymatgen
data_CuNi15C13
_symmetry_space_group_name_H-M   'P 1'
_cell_length_a   11.03553400
_cell_length_b   5.83446200
_cell_length_c   11.01862144
_cell_angle_alpha   66.14031746
_cell_angle_beta   90.00000000
_cell_angle_gamma   90.00000000
_symmetry_Int_Tables_number   1
_chemical_formula_structural   CuNi15C13
_chemical_formula_sum   'Cu2 Ni30 C26'
_cell_volume   648.81902220
_cell_formula_units_Z   2
loop_
 _symmetry_equiv_pos_site_id
 _symmetry_equiv_pos_as_xyz
  1  'x, y, z'
loop_
 _atom_site_type_symbol
 _atom_site_label
 _atom_site_symmetry_multiplicity
 _atom_site_fract_x
 _atom_site_fract_y
 _atom_site_fract_z
 _atom_site_occupancy
  C  C0  1  0.68524800  0.56259100  0.63917700  1
  C  C1  1  0.31475200  0.56259100  0.13917700  1
  Ni  Ni2  1  0.70041800  0.05404200  0.10420000  1
  Ni  Ni3  1  0.29958200  0.05404200  0.60420000  1
  Ni  Ni4  1  0.64104900  0.70355200  0.37876600  1
  Ni  Ni5  1  0.35895100  0.70355200  0.87876600  1
  Ni  Ni6  1  0.50852700  0.35213400  0.32206100  1
  Ni  Ni7  1  0.49147300  0.35213400  0.82206100  1
  Ni  Ni8  1  0.88059900  0.11479800  0.46209900  1
  Ni  Ni9  1  0.11940100  0.11479800  0.96209900  1
  Ni  Ni10  1  0.46324400  0.94513500  0.10725500  1
  Ni  Ni11  1  0.53675600  0.94513500  0.60725500  1
  Ni  Ni12  1  0.87919700  0.74494900  0.62357600  1
  Ni  Ni13  1  0.12080300  0.74494900  0.12357600  1
  Ni  Ni14  1  0.39574700  0.44380600  0.37526400  1
  Ni  Ni15  1  0.60425300  0.44380600  0.87526400  1
  Ni  Ni16  1  0.88509800  0.76024500  0.35768500  1
  Ni  Ni17  1  0.11490200  0.76024500  0.85768500  1
  Ni  Ni18  1  0.99743900  0.98467900  0.94810400  1
  Ni  Ni19  1  0.00256100  0.98467900  0.44810400  1
  Ni  Ni20  1  0.48804900  0.67021700  0.94902100  1
  Ni  Ni21  1  0.51195100  0.67021700  0.44902100  1
  Ni  Ni22  1  0.79175200  0.15712900  0.72482300  1
  Ni  Ni23  1  0.20824800  0.15712900  0.22482300  1
  Ni  Ni24  1  0.97967700  0.25754300  0.24024300  1
  Ni  Ni25  1  0.02032300  0.25754300  0.74024300  1
  Ni  Ni26  1  0.95594000  0.57262700  0.31718700  1
  Ni  Ni27  1  0.04406000  0.57262700  0.81718700  1
  Ni  Ni28  1  0.96998800  0.35181200  0.72943800  1
  Ni  Ni29  1  0.03001200  0.35181200  0.22943800  1
  Ni  Ni30  1  0.32527500  0.05834000  0.12343500  1
  Ni  Ni31  1  0.67472500  0.05834000  0.62343500  1
  Cu  Cu32  1  0.76081000  0.70236400  0.05252100  1
  Cu  Cu33  1  0.23919000  0.70236400  0.55252100  1
  C  C34  1  0.91371100  0.95983600  0.46119100  1
  C  C35  1  0.08628900  0.95983600  0.96119100  1
  C  C36  1  0.59557900  0.60185400  0.45823000  1
  C  C37  1  0.40442100  0.60185400  0.95823000  1
  C  C38  1  0.37632300  0.91963800  0.10135600  1
  C  C39  1  0.62367700  0.91963800  0.60135600  1
  C  C40  1  0.87477000  0.64143200  0.31540700  1
  C  C41  1  0.12523000  0.64143200  0.81540700  1
  C  C42  1  0.74753200  0.23989200  0.64140300  1
  C  C43  1  0.25246800  0.23989200  0.14140300  1
  C  C44  1  0.65028100  0.90775200  0.11213800  1
  C  C45  1  0.34971900  0.90775200  0.61213800  1
  C  C46  1  0.84066500  0.95523100  0.92631800  1
  C  C47  1  0.15933500  0.95523100  0.42631800  1
  C  C48  1  0.36018400  0.62269700  0.46559600  1
  C  C49  1  0.63981600  0.62269700  0.96559600  1
  C  C50  1  0.84858800  0.19713100  0.10102700  1
  C  C51  1  0.15141200  0.19713100  0.60102700  1
  C  C52  1  0.42130200  0.37491800  0.31048100  1
  C  C53  1  0.57869800  0.37491800  0.81048100  1
  C  C54  1  0.84119200  0.62098500  0.70674900  1
  C  C55  1  0.15880800  0.62098500  0.20674900  1
  C  C56  1  0.88212800  0.40147000  0.00474800  1
  C  C57  1  0.11787200  0.40147000  0.50474800  1
