# generated using pymatgen
data_Cu3NiC18
_symmetry_space_group_name_H-M   'P 1'
_cell_length_a   7.42006520
_cell_length_b   7.42006520
_cell_length_c   7.42006467
_cell_angle_alpha   60.57082940
_cell_angle_beta   60.57082940
_cell_angle_gamma   60.57083107
_symmetry_Int_Tables_number   1
_chemical_formula_structural   Cu3NiC18
_chemical_formula_sum   'Cu3 Ni1 C18'
_cell_volume   292.59873192
_cell_formula_units_Z   1
loop_
 _symmetry_equiv_pos_site_id
 _symmetry_equiv_pos_as_xyz
  1  'x, y, z'
loop_
 _atom_site_type_symbol
 _atom_site_label
 _atom_site_symmetry_multiplicity
 _atom_site_fract_x
 _atom_site_fract_y
 _atom_site_fract_z
 _atom_site_occupancy
  Ni  Ni0  1  0.50000000  0.50000000  0.50000000  1
  Cu  Cu1  1  0.00000000  0.50000000  0.50000000  1
  Cu  Cu2  1  0.50000000  0.50000000  0.00000000  1
  Cu  Cu3  1  0.50000000  0.00000000  0.50000000  1
  C  C4  1  0.00000000  0.00000000  0.00000000  1
  C  C5  1  0.50000000  0.00000000  0.00000000  1
  C  C6  1  0.00000000  0.00000000  0.50000000  1
  C  C7  1  0.00000000  0.50000000  0.00000000  1
  C  C8  1  0.12268700  0.12268700  0.12268700  1
  C  C9  1  0.87731300  0.87731300  0.87731300  1
  C  C10  1  0.88275700  0.37034500  0.37034500  1
  C  C11  1  0.37703500  0.87131800  0.87131800  1
  C  C12  1  0.37034500  0.37034500  0.88275700  1
  C  C13  1  0.87131800  0.87131800  0.37703500  1
  C  C14  1  0.87131800  0.37703500  0.87131800  1
  C  C15  1  0.37034500  0.88275700  0.37034500  1
  C  C16  1  0.11724300  0.62965500  0.62965500  1
  C  C17  1  0.62296500  0.12868200  0.12868200  1
  C  C18  1  0.62965500  0.62965500  0.11724300  1
  C  C19  1  0.12868200  0.12868200  0.62296500  1
  C  C20  1  0.12868200  0.62296500  0.12868200  1
  C  C21  1  0.62965500  0.11724300  0.62965500  1
