# generated using pymatgen
data_Cu12Ni3C4
_symmetry_space_group_name_H-M   'P 1'
_cell_length_a   10.55424000
_cell_length_b   10.77956400
_cell_length_c   10.84182294
_cell_angle_alpha   89.49811621
_cell_angle_beta   90.00000000
_cell_angle_gamma   90.00000000
_symmetry_Int_Tables_number   1
_chemical_formula_structural   Cu12Ni3C4
_chemical_formula_sum   'Cu48 Ni12 C16'
_cell_volume   1233.42801872
_cell_formula_units_Z   4
loop_
 _symmetry_equiv_pos_site_id
 _symmetry_equiv_pos_as_xyz
  1  'x, y, z'
loop_
 _atom_site_type_symbol
 _atom_site_label
 _atom_site_symmetry_multiplicity
 _atom_site_fract_x
 _atom_site_fract_y
 _atom_site_fract_z
 _atom_site_occupancy
  C  C0  1  0.94663100  0.82351200  0.05544200  1
  C  C1  1  0.44663100  0.17648800  0.94455800  1
  C  C2  1  0.83362800  0.33038200  0.43297800  1
  C  C3  1  0.33362800  0.66961800  0.56702200  1
  C  C4  1  0.22058900  0.43019100  0.17161700  1
  C  C5  1  0.72058900  0.56980900  0.82838300  1
  C  C6  1  0.61537300  0.92725800  0.29344200  1
  C  C7  1  0.11537300  0.07274200  0.70655800  1
  C  C8  1  0.80793100  0.17880100  0.07780600  1
  C  C9  1  0.30793100  0.82119900  0.92219400  1
  C  C10  1  0.99447700  0.67010900  0.43760000  1
  C  C11  1  0.49447700  0.32989100  0.56240000  1
  C  C12  1  0.57078300  0.58535000  0.16557000  1
  C  C13  1  0.07078300  0.41465000  0.83443000  1
  C  C14  1  0.22542900  0.08165600  0.33256300  1
  C  C15  1  0.72542900  0.91834400  0.66743700  1
  Ni  Ni16  1  0.67277300  0.62625100  0.48763300  1
  Ni  Ni17  1  0.17277300  0.37374900  0.51236700  1
  Ni  Ni18  1  0.88709300  0.46991400  0.12318500  1
  Ni  Ni19  1  0.38709300  0.53008600  0.87681500  1
  Ni  Ni20  1  0.91969300  0.96114400  0.37509200  1
  Ni  Ni21  1  0.41969300  0.03885600  0.62490800  1
  Ni  Ni22  1  0.26488200  0.75540500  0.22869800  1
  Ni  Ni23  1  0.76488200  0.24459500  0.77130200  1
  Ni  Ni24  1  0.62244700  0.87492500  0.97890900  1
  Ni  Ni25  1  0.12244700  0.12507500  0.02109100  1
  Ni  Ni26  1  0.02184100  0.74423600  0.74804600  1
  Ni  Ni27  1  0.52184100  0.25576400  0.25195400  1
  Cu  Cu28  1  0.91114400  0.82893000  0.32859100  1
  Cu  Cu29  1  0.41114400  0.17107000  0.67140900  1
  Cu  Cu30  1  0.07231700  0.72399500  0.62054400  1
  Cu  Cu31  1  0.57231700  0.27600500  0.37945600  1
  Cu  Cu32  1  0.80884500  0.58383800  0.49871300  1
  Cu  Cu33  1  0.30884500  0.41616200  0.50128700  1
  Cu  Cu34  1  0.29049100  0.89017600  0.25379200  1
  Cu  Cu35  1  0.79049100  0.10982400  0.74620800  1
  Cu  Cu36  1  0.48637100  0.91175800  0.99898300  1
  Cu  Cu37  1  0.98637100  0.08824200  0.00101700  1
  Cu  Cu38  1  0.21261600  0.74691700  0.10062500  1
  Cu  Cu39  1  0.71261600  0.25308300  0.89937500  1
  Cu  Cu40  1  0.64204100  0.83872700  0.84779600  1
  Cu  Cu41  1  0.14204100  0.16127300  0.15220400  1
  Cu  Cu42  1  0.87573600  0.34011600  0.18463400  1
  Cu  Cu43  1  0.37573600  0.65988400  0.81536600  1
  Cu  Cu44  1  0.50305700  0.37550700  0.18633200  1
  Cu  Cu45  1  0.00305700  0.62449300  0.81366800  1
  Cu  Cu46  1  0.40878500  0.85871000  0.42360100  1
  Cu  Cu47  1  0.90878500  0.14129000  0.57639900  1
  Cu  Cu48  1  0.11423600  0.82384400  0.81552000  1
  Cu  Cu49  1  0.61423600  0.17615600  0.18448000  1
  Cu  Cu50  1  0.64235500  0.65071600  0.35586300  1
  Cu  Cu51  1  0.14235500  0.34928400  0.64413700  1
  Cu  Cu52  1  0.87755300  0.04479700  0.27518800  1
  Cu  Cu53  1  0.37755300  0.95520300  0.72481200  1
  Cu  Cu54  1  0.75224800  0.51183500  0.08994200  1
  Cu  Cu55  1  0.25224800  0.48816500  0.91005800  1
  Cu  Cu56  1  0.05120100  0.98728400  0.41655900  1
  Cu  Cu57  1  0.55120100  0.01271600  0.58344100  1
  Cu  Cu58  1  0.83072500  0.96951100  0.48260900  1
  Cu  Cu59  1  0.33072500  0.03048900  0.51739100  1
  Cu  Cu60  1  0.65272700  0.74006100  0.56081000  1
  Cu  Cu61  1  0.15272700  0.25993900  0.43919000  1
  Cu  Cu62  1  0.38357000  0.68342400  0.24233100  1
  Cu  Cu63  1  0.88357000  0.31657600  0.75766900  1
  Cu  Cu64  1  0.59046200  0.52613200  0.54014800  1
  Cu  Cu65  1  0.09046200  0.47386800  0.45985200  1
  Cu  Cu66  1  0.70510600  0.98058700  0.01296400  1
  Cu  Cu67  1  0.20510600  0.01941300  0.98703600  1
  Cu  Cu68  1  0.16965100  0.70219400  0.31553100  1
  Cu  Cu69  1  0.66965100  0.29780600  0.68446900  1
  Cu  Cu70  1  0.94800500  0.44556200  0.99876800  1
  Cu  Cu71  1  0.44800500  0.55443800  0.00123200  1
  Cu  Cu72  1  0.89834800  0.81063900  0.74453500  1
  Cu  Cu73  1  0.39834800  0.18936100  0.25546500  1
  Cu  Cu74  1  0.65504000  0.76684800  0.06036100  1
  Cu  Cu75  1  0.15504000  0.23315200  0.93963900  1
