# generated using pymatgen
data_Cu14(NiC2)3
_symmetry_space_group_name_H-M   'P 1'
_cell_length_a   8.79070653
_cell_length_b   8.79070653
_cell_length_c   13.59361628
_cell_angle_alpha   82.90244577
_cell_angle_beta   82.90244577
_cell_angle_gamma   48.37328937
_symmetry_Int_Tables_number   1
_chemical_formula_structural   Cu14(NiC2)3
_chemical_formula_sum   'Cu28 Ni6 C12'
_cell_volume   777.97596361
_cell_formula_units_Z   2
loop_
 _symmetry_equiv_pos_site_id
 _symmetry_equiv_pos_as_xyz
  1  'x, y, z'
loop_
 _atom_site_type_symbol
 _atom_site_label
 _atom_site_symmetry_multiplicity
 _atom_site_fract_x
 _atom_site_fract_y
 _atom_site_fract_z
 _atom_site_occupancy
  C  C0  1  0.60701100  0.58344300  0.05153900  1
  C  C1  1  0.39298900  0.41655700  0.94846100  1
  C  C2  1  0.41655700  0.39298900  0.44846100  1
  C  C3  1  0.58344300  0.60701100  0.55153900  1
  C  C4  1  0.73446100  0.14616600  0.16704100  1
  C  C5  1  0.26553900  0.85383400  0.83295900  1
  C  C6  1  0.85383400  0.26553900  0.33295900  1
  C  C7  1  0.14616600  0.73446100  0.66704100  1
  C  C8  1  0.26619000  0.21571800  0.24606000  1
  C  C9  1  0.73381000  0.78428200  0.75394000  1
  C  C10  1  0.78428200  0.73381000  0.25394000  1
  C  C11  1  0.21571800  0.26619000  0.74606000  1
  Ni  Ni12  1  0.18836900  0.18534400  0.00194900  1
  Ni  Ni13  1  0.81163100  0.81465600  0.99805100  1
  Ni  Ni14  1  0.81465600  0.81163100  0.49805100  1
  Ni  Ni15  1  0.18534400  0.18836900  0.50194900  1
  Ni  Ni16  1  0.21168100  0.78831900  0.25000000  1
  Ni  Ni17  1  0.78831900  0.21168100  0.75000000  1
  Cu  Cu18  1  0.27477900  0.22480600  0.40866000  1
  Cu  Cu19  1  0.72522100  0.77519400  0.59134000  1
  Cu  Cu20  1  0.77519400  0.72522100  0.09134000  1
  Cu  Cu21  1  0.22480600  0.27477900  0.90866000  1
  Cu  Cu22  1  0.27297700  0.21154400  0.08083300  1
  Cu  Cu23  1  0.72702300  0.78845600  0.91916700  1
  Cu  Cu24  1  0.78845600  0.72702300  0.41916700  1
  Cu  Cu25  1  0.21154400  0.27297700  0.58083300  1
  Cu  Cu26  1  0.39650900  0.74075000  0.19802800  1
  Cu  Cu27  1  0.60349100  0.25925000  0.80197200  1
  Cu  Cu28  1  0.25925000  0.60349100  0.30197200  1
  Cu  Cu29  1  0.74075000  0.39650900  0.69802800  1
  Cu  Cu30  1  0.29825200  0.97008800  0.52030100  1
  Cu  Cu31  1  0.70174800  0.02991200  0.47969900  1
  Cu  Cu32  1  0.02991200  0.70174800  0.97969900  1
  Cu  Cu33  1  0.97008800  0.29825200  0.02030100  1
  Cu  Cu34  1  0.13236600  0.94141000  0.32407700  1
  Cu  Cu35  1  0.86763400  0.05859000  0.67592300  1
  Cu  Cu36  1  0.05859000  0.86763400  0.17592300  1
  Cu  Cu37  1  0.94141000  0.13236600  0.82407700  1
  Cu  Cu38  1  0.30051200  0.96775000  0.98927700  1
  Cu  Cu39  1  0.69948800  0.03225000  0.01072300  1
  Cu  Cu40  1  0.03225000  0.69948800  0.51072300  1
  Cu  Cu41  1  0.96775000  0.30051200  0.48927700  1
  Cu  Cu42  1  0.58943500  0.50344700  0.41307600  1
  Cu  Cu43  1  0.41056500  0.49655300  0.58692400  1
  Cu  Cu44  1  0.49655300  0.41056500  0.08692400  1
  Cu  Cu45  1  0.50344700  0.58943500  0.91307600  1
