# generated using pymatgen
data_Cu2Ni3C7
_symmetry_space_group_name_H-M   'P 1'
_cell_length_a   10.10579769
_cell_length_b   10.10579769
_cell_length_c   5.45722300
_cell_angle_alpha   90.00000000
_cell_angle_beta   90.00000000
_cell_angle_gamma   148.30342793
_symmetry_Int_Tables_number   1
_chemical_formula_structural   Cu2Ni3C7
_chemical_formula_sum   'Cu4 Ni6 C14'
_cell_volume   292.83306813
_cell_formula_units_Z   2
loop_
 _symmetry_equiv_pos_site_id
 _symmetry_equiv_pos_as_xyz
  1  'x, y, z'
loop_
 _atom_site_type_symbol
 _atom_site_label
 _atom_site_symmetry_multiplicity
 _atom_site_fract_x
 _atom_site_fract_y
 _atom_site_fract_z
 _atom_site_occupancy
  Ni  Ni0  1  0.74373600  0.74373600  0.25591900  1
  Ni  Ni1  1  0.25626400  0.25626400  0.75591900  1
  Ni  Ni2  1  0.99401300  0.58140000  0.21268300  1
  Ni  Ni3  1  0.00598700  0.41860000  0.71268300  1
  Ni  Ni4  1  0.58140000  0.99401300  0.21268300  1
  Ni  Ni5  1  0.41860000  0.00598700  0.71268300  1
  Cu  Cu6  1  0.15379100  0.36290900  0.24682500  1
  Cu  Cu7  1  0.84620900  0.63709100  0.74682500  1
  Cu  Cu8  1  0.63709100  0.84620900  0.74682500  1
  Cu  Cu9  1  0.36290900  0.15379100  0.24682500  1
  C  C10  1  0.34148400  0.93122100  0.34034500  1
  C  C11  1  0.65851600  0.06877900  0.84034500  1
  C  C12  1  0.06877900  0.65851600  0.84034500  1
  C  C13  1  0.93122100  0.34148400  0.34034500  1
  C  C14  1  0.55309500  0.26893600  0.92382700  1
  C  C15  1  0.44690500  0.73106400  0.42382700  1
  C  C16  1  0.73106400  0.44690500  0.42382700  1
  C  C17  1  0.26893600  0.55309500  0.92382700  1
  C  C18  1  0.00035900  0.84499000  0.08303800  1
  C  C19  1  0.99964100  0.15501000  0.58303800  1
  C  C20  1  0.39259700  0.39259700  0.11064500  1
  C  C21  1  0.60740300  0.60740300  0.61064500  1
  C  C22  1  0.84499000  0.00035900  0.08303800  1
  C  C23  1  0.15501000  0.99964100  0.58303800  1
