# generated using pymatgen
data_CuNi7C5
_symmetry_space_group_name_H-M   'P 1'
_cell_length_a   3.75037800
_cell_length_b   10.81311700
_cell_length_c   8.90496200
_cell_angle_alpha   90.00000000
_cell_angle_beta   90.00000000
_cell_angle_gamma   90.00000000
_symmetry_Int_Tables_number   1
_chemical_formula_structural   CuNi7C5
_chemical_formula_sum   'Cu2 Ni14 C10'
_cell_volume   361.12538272
_cell_formula_units_Z   2
loop_
 _symmetry_equiv_pos_site_id
 _symmetry_equiv_pos_as_xyz
  1  'x, y, z'
loop_
 _atom_site_type_symbol
 _atom_site_label
 _atom_site_symmetry_multiplicity
 _atom_site_fract_x
 _atom_site_fract_y
 _atom_site_fract_z
 _atom_site_occupancy
  C  C0  1  0.75000000  0.36586900  0.32186000  1
  C  C1  1  0.75000000  0.86586900  0.17814000  1
  C  C2  1  0.75000000  0.17086500  0.56617100  1
  C  C3  1  0.75000000  0.67086500  0.93382900  1
  C  C4  1  0.25000000  0.09771400  0.28284700  1
  C  C5  1  0.25000000  0.82333300  0.48589400  1
  C  C6  1  0.25000000  0.32333300  0.01410600  1
  C  C7  1  0.25000000  0.59771400  0.21715300  1
  C  C8  1  0.75000000  0.41293000  0.75401100  1
  C  C9  1  0.75000000  0.91293000  0.74598900  1
  Ni  Ni10  1  0.25000000  0.92956600  0.29869500  1
  Ni  Ni11  1  0.25000000  0.86037500  0.69320000  1
  Ni  Ni12  1  0.25000000  0.66552000  0.40620900  1
  Ni  Ni13  1  0.25000000  0.16552000  0.09379100  1
  Ni  Ni14  1  0.25000000  0.36037500  0.80680000  1
  Ni  Ni15  1  0.25000000  0.42956600  0.20130500  1
  Ni  Ni16  1  0.75000000  0.13575700  0.32114500  1
  Ni  Ni17  1  0.75000000  0.07366600  0.74786000  1
  Ni  Ni18  1  0.75000000  0.36591300  0.99441900  1
  Ni  Ni19  1  0.75000000  0.35049500  0.56861800  1
  Ni  Ni20  1  0.75000000  0.63575700  0.17885500  1
  Ni  Ni21  1  0.75000000  0.57366600  0.75214000  1
  Ni  Ni22  1  0.75000000  0.86591300  0.50558100  1
  Ni  Ni23  1  0.75000000  0.85049500  0.93138200  1
  Cu  Cu24  1  0.25000000  0.64459700  0.99394000  1
  Cu  Cu25  1  0.25000000  0.14459700  0.50606000  1
