# generated using pymatgen
data_Cu7(NiC)4
_symmetry_space_group_name_H-M   'P 1'
_cell_length_a   9.17017384
_cell_length_b   9.17017384
_cell_length_c   9.17017384
_cell_angle_alpha   94.13030820
_cell_angle_beta   94.13030820
_cell_angle_gamma   148.86483274
_symmetry_Int_Tables_number   1
_chemical_formula_structural   Cu7(NiC)4
_chemical_formula_sum   'Cu14 Ni8 C8'
_cell_volume   384.09686342
_cell_formula_units_Z   2
loop_
 _symmetry_equiv_pos_site_id
 _symmetry_equiv_pos_as_xyz
  1  'x, y, z'
loop_
 _atom_site_type_symbol
 _atom_site_label
 _atom_site_symmetry_multiplicity
 _atom_site_fract_x
 _atom_site_fract_y
 _atom_site_fract_z
 _atom_site_occupancy
  C  C0  1  0.13539600  0.13539600  0.27079200  1
  C  C1  1  0.86460400  0.86460400  0.72920800  1
  C  C2  1  0.86460400  0.13539600  0.00000000  1
  C  C3  1  0.13539600  0.86460400  0.00000000  1
  C  C4  1  0.50000000  0.69292900  0.19292900  1
  C  C5  1  0.50000000  0.30707100  0.80707100  1
  C  C6  1  0.30707100  0.50000000  0.80707100  1
  C  C7  1  0.69292900  0.50000000  0.19292900  1
  Ni  Ni8  1  0.39950800  0.89950800  0.79901600  1
  Ni  Ni9  1  0.10049200  0.60049200  0.20098400  1
  Ni  Ni10  1  0.10049200  0.89950800  0.50000000  1
  Ni  Ni11  1  0.39950800  0.60049200  0.50000000  1
  Ni  Ni12  1  0.60049200  0.39950800  0.50000000  1
  Ni  Ni13  1  0.89950800  0.10049200  0.50000000  1
  Ni  Ni14  1  0.89950800  0.39950800  0.79901600  1
  Ni  Ni15  1  0.60049200  0.10049200  0.20098400  1
  Cu  Cu16  1  0.29361200  0.29361200  0.58722500  1
  Cu  Cu17  1  0.70638800  0.70638800  0.41277500  1
  Cu  Cu18  1  0.70638800  0.29361200  0.00000000  1
  Cu  Cu19  1  0.29361200  0.70638800  0.00000000  1
  Cu  Cu20  1  0.00000000  0.29420200  0.29420200  1
  Cu  Cu21  1  0.00000000  0.70579800  0.70579800  1
  Cu  Cu22  1  0.70579800  0.00000000  0.70579800  1
  Cu  Cu23  1  0.29420200  0.00000000  0.29420200  1
  Cu  Cu24  1  0.50000000  0.90520000  0.40520000  1
  Cu  Cu25  1  0.50000000  0.09480000  0.59480000  1
  Cu  Cu26  1  0.09480000  0.50000000  0.59480000  1
  Cu  Cu27  1  0.90520000  0.50000000  0.40520000  1
  Cu  Cu28  1  0.74986300  0.74986300  0.00000000  1
  Cu  Cu29  1  0.25013700  0.25013700  0.00000000  1
