# generated using pymatgen
data_Cu4NiC
_symmetry_space_group_name_H-M   'P 1'
_cell_length_a   6.85897700
_cell_length_b   6.85897700
_cell_length_c   13.99021600
_cell_angle_alpha   90.00000000
_cell_angle_beta   90.00000000
_cell_angle_gamma   90.00000000
_symmetry_Int_Tables_number   1
_chemical_formula_structural   Cu4NiC
_chemical_formula_sum   'Cu32 Ni8 C8'
_cell_volume   658.17762300
_cell_formula_units_Z   8
loop_
 _symmetry_equiv_pos_site_id
 _symmetry_equiv_pos_as_xyz
  1  'x, y, z'
loop_
 _atom_site_type_symbol
 _atom_site_label
 _atom_site_symmetry_multiplicity
 _atom_site_fract_x
 _atom_site_fract_y
 _atom_site_fract_z
 _atom_site_occupancy
  C  C0  1  0.16636000  0.16636000  0.00000000  1
  C  C1  1  0.83364000  0.83364000  0.50000000  1
  C  C2  1  0.33364000  0.66636000  0.25000000  1
  C  C3  1  0.66636000  0.33364000  0.75000000  1
  C  C4  1  0.74970100  0.74970100  0.00000000  1
  C  C5  1  0.25029900  0.25029900  0.50000000  1
  C  C6  1  0.75029900  0.24970100  0.25000000  1
  C  C7  1  0.24970100  0.75029900  0.75000000  1
  Ni  Ni8  1  0.24662300  0.17377500  0.24290100  1
  Ni  Ni9  1  0.75337700  0.82622500  0.74290100  1
  Ni  Ni10  1  0.32622500  0.74662300  0.49290100  1
  Ni  Ni11  1  0.25337700  0.67377500  0.00709900  1
  Ni  Ni12  1  0.67377500  0.25337700  0.99290100  1
  Ni  Ni13  1  0.74662300  0.32622500  0.50709900  1
  Ni  Ni14  1  0.17377500  0.24662300  0.75709900  1
  Ni  Ni15  1  0.82622500  0.75337700  0.25709900  1
  Cu  Cu16  1  0.11547700  0.20749300  0.32627200  1
  Cu  Cu17  1  0.88452300  0.79250700  0.82627200  1
  Cu  Cu18  1  0.29250700  0.61547700  0.57627200  1
  Cu  Cu19  1  0.38452300  0.70749300  0.92372800  1
  Cu  Cu20  1  0.70749300  0.38452300  0.07627200  1
  Cu  Cu21  1  0.61547700  0.29250700  0.42372800  1
  Cu  Cu22  1  0.20749300  0.11547700  0.67372800  1
  Cu  Cu23  1  0.79250700  0.88452300  0.17372800  1
  Cu  Cu24  1  0.12400700  0.17082100  0.15512700  1
  Cu  Cu25  1  0.87599300  0.82917900  0.65512700  1
  Cu  Cu26  1  0.32917900  0.62400700  0.40512700  1
  Cu  Cu27  1  0.37599300  0.67082100  0.09487300  1
  Cu  Cu28  1  0.67082100  0.37599300  0.90512700  1
  Cu  Cu29  1  0.62400700  0.32917900  0.59487300  1
  Cu  Cu30  1  0.17082100  0.12400700  0.84487300  1
  Cu  Cu31  1  0.82917900  0.87599300  0.34487300  1
  Cu  Cu32  1  0.49088500  0.13976600  0.00439800  1
  Cu  Cu33  1  0.50911500  0.86023400  0.50439800  1
  Cu  Cu34  1  0.36023400  0.99088500  0.25439800  1
  Cu  Cu35  1  0.00911500  0.63976600  0.24560200  1
  Cu  Cu36  1  0.63976600  0.00911500  0.75439800  1
  Cu  Cu37  1  0.99088500  0.36023400  0.74560200  1
  Cu  Cu38  1  0.13976600  0.49088500  0.99560200  1
  Cu  Cu39  1  0.86023400  0.50911500  0.49560200  1
  Cu  Cu40  1  0.38916600  0.33976900  0.23709100  1
  Cu  Cu41  1  0.61083400  0.66023100  0.73709100  1
  Cu  Cu42  1  0.16023100  0.88916600  0.48709100  1
  Cu  Cu43  1  0.11083400  0.83976900  0.01290900  1
  Cu  Cu44  1  0.83976900  0.11083400  0.98709100  1
  Cu  Cu45  1  0.88916600  0.16023100  0.51290900  1
  Cu  Cu46  1  0.33976900  0.38916600  0.76290900  1
  Cu  Cu47  1  0.66023100  0.61083400  0.26290900  1
