# generated using pymatgen
data_Cu3Ni7C15
_symmetry_space_group_name_H-M   'P 1'
_cell_length_a   5.64919500
_cell_length_b   14.81912700
_cell_length_c   15.06580256
_cell_angle_alpha   61.12791079
_cell_angle_beta   90.00000000
_cell_angle_gamma   90.00000000
_symmetry_Int_Tables_number   1
_chemical_formula_structural   Cu3Ni7C15
_chemical_formula_sum   'Cu6 Ni14 C30'
_cell_volume   1104.47714030
_cell_formula_units_Z   2
loop_
 _symmetry_equiv_pos_site_id
 _symmetry_equiv_pos_as_xyz
  1  'x, y, z'
loop_
 _atom_site_type_symbol
 _atom_site_label
 _atom_site_symmetry_multiplicity
 _atom_site_fract_x
 _atom_site_fract_y
 _atom_site_fract_z
 _atom_site_occupancy
  C  C0  1  0.25710500  0.82585900  0.27732100  1
  C  C1  1  0.25244900  0.91761400  0.84097300  1
  C  C2  1  0.26916500  0.25824600  0.90521500  1
  C  C3  1  0.75710500  0.17414100  0.72267900  1
  C  C4  1  0.75244900  0.08238600  0.15902700  1
  C  C5  1  0.76916500  0.74175400  0.09478500  1
  Ni  Ni6  1  0.25674000  0.60951400  0.01887700  1
  Ni  Ni7  1  0.25548000  0.37370100  0.60693300  1
  Ni  Ni8  1  0.25038000  0.02650700  0.37035800  1
  Ni  Ni9  1  0.75674000  0.39048600  0.98112300  1
  Ni  Ni10  1  0.75548000  0.62629900  0.39306700  1
  Ni  Ni11  1  0.75038000  0.97349300  0.62964200  1
  Ni  Ni12  1  0.26091900  0.56627300  0.27470200  1
  Ni  Ni13  1  0.25598400  0.15089200  0.56662100  1
  Ni  Ni14  1  0.26045400  0.27963400  0.15277400  1
  Ni  Ni15  1  0.76091900  0.43372700  0.72529800  1
  Ni  Ni16  1  0.75598400  0.84910800  0.43337900  1
  Ni  Ni17  1  0.76045400  0.72036600  0.84722600  1
  Ni  Ni18  1  0.37806800  0.66733100  0.66654800  1
  Ni  Ni19  1  0.87806800  0.33266900  0.33345200  1
  Cu  Cu20  1  0.21039300  0.62144500  0.53535100  1
  Cu  Cu21  1  0.21348100  0.84537200  0.62228000  1
  Cu  Cu22  1  0.21040600  0.53597300  0.83984400  1
  Cu  Cu23  1  0.71039300  0.37855500  0.46464900  1
  Cu  Cu24  1  0.71348100  0.15462800  0.37772000  1
  Cu  Cu25  1  0.71040600  0.46402700  0.16015600  1
  C  C26  1  0.24659500  0.65649200  0.12456300  1
  C  C27  1  0.24714400  0.22092400  0.65078600  1
  C  C28  1  0.24410800  0.12678000  0.22044100  1
  C  C29  1  0.74659500  0.34350800  0.87543700  1
  C  C30  1  0.74714400  0.77907600  0.34921400  1
  C  C31  1  0.74410800  0.87322000  0.77955900  1
  C  C32  1  0.38532200  0.91454800  0.07965200  1
  C  C33  1  0.11941400  0.08825000  0.90137700  1
  C  C34  1  0.27166900  0.99791800  0.07104300  1
  C  C35  1  0.88532200  0.08545200  0.92034800  1
  C  C36  1  0.61941400  0.91175000  0.09862300  1
  C  C37  1  0.77166900  0.00208200  0.92895700  1
  C  C38  1  0.50462700  0.94649400  0.34523100  1
  C  C39  1  0.51341300  0.71251600  0.94635900  1
  C  C40  1  0.51115600  0.34616200  0.70950000  1
  C  C41  1  0.00462700  0.05350600  0.65476900  1
  C  C42  1  0.01341300  0.28748400  0.05364100  1
  C  C43  1  0.01115600  0.65383800  0.29050000  1
  C  C44  1  0.50555900  0.05623000  0.65695300  1
  C  C45  1  0.51441100  0.28069400  0.06019200  1
  C  C46  1  0.51185800  0.65471100  0.28510300  1
  C  C47  1  0.00555900  0.94377000  0.34304700  1
  C  C48  1  0.01441100  0.71930600  0.93980800  1
  C  C49  1  0.01185800  0.34528900  0.71489700  1
