# generated using pymatgen
data_CuNiC9
_symmetry_space_group_name_H-M   'P 1'
_cell_length_a   6.04109682
_cell_length_b   8.32702734
_cell_length_c   9.45999300
_cell_angle_alpha   90.00000000
_cell_angle_beta   90.00000000
_cell_angle_gamma   98.70905569
_symmetry_Int_Tables_number   1
_chemical_formula_structural   CuNiC9
_chemical_formula_sum   'Cu4 Ni4 C36'
_cell_volume   470.39216600
_cell_formula_units_Z   4
loop_
 _symmetry_equiv_pos_site_id
 _symmetry_equiv_pos_as_xyz
  1  'x, y, z'
loop_
 _atom_site_type_symbol
 _atom_site_label
 _atom_site_symmetry_multiplicity
 _atom_site_fract_x
 _atom_site_fract_y
 _atom_site_fract_z
 _atom_site_occupancy
  C  C0  1  0.02419200  0.08818500  0.76744400  1
  C  C1  1  0.97580800  0.41181500  0.26744400  1
  C  C2  1  0.97580800  0.91181500  0.23255600  1
  C  C3  1  0.02419200  0.58818500  0.73255600  1
  C  C4  1  0.93687400  0.12012900  0.61455500  1
  C  C5  1  0.06312600  0.37987100  0.11455500  1
  C  C6  1  0.06312600  0.87987100  0.38544500  1
  C  C7  1  0.93687400  0.62012900  0.88544500  1
  C  C8  1  0.77936000  0.81532100  0.62589900  1
  C  C9  1  0.22064000  0.68467900  0.12589900  1
  C  C10  1  0.22064000  0.18467900  0.37410100  1
  C  C11  1  0.77936000  0.31532100  0.87410100  1
  C  C12  1  0.67160400  0.63527400  0.53588500  1
  C  C13  1  0.32839600  0.86472600  0.03588500  1
  C  C14  1  0.32839600  0.36472600  0.46411500  1
  C  C15  1  0.67160400  0.13527400  0.96411500  1
  C  C16  1  0.54911100  0.98105600  0.71396000  1
  C  C17  1  0.45088900  0.51894400  0.21396000  1
  C  C18  1  0.45088900  0.01894400  0.28604000  1
  C  C19  1  0.54911100  0.48105600  0.78604000  1
  C  C20  1  0.26220000  0.95245600  0.66818300  1
  C  C21  1  0.73780000  0.54754400  0.16818300  1
  C  C22  1  0.73780000  0.04754400  0.33181700  1
  C  C23  1  0.26220000  0.45245600  0.83181700  1
  Ni  Ni24  1  0.43897300  0.77731700  0.59728500  1
  Ni  Ni25  1  0.56102700  0.72268300  0.09728500  1
  Ni  Ni26  1  0.56102700  0.22268300  0.40271500  1
  Ni  Ni27  1  0.43897300  0.27731700  0.90271500  1
  Cu  Cu28  1  0.21327100  0.66120500  0.51895300  1
  Cu  Cu29  1  0.78672900  0.83879500  0.01895300  1
  Cu  Cu30  1  0.78672900  0.33879500  0.48104700  1
  Cu  Cu31  1  0.21327100  0.16120500  0.98104700  1
  C  C32  1  0.64447400  0.73554200  0.59115100  1
  C  C33  1  0.35552600  0.76445800  0.09115100  1
  C  C34  1  0.35552600  0.26445800  0.40884900  1
  C  C35  1  0.64447400  0.23554200  0.90884900  1
  C  C36  1  0.41430600  0.91235500  0.66808000  1
  C  C37  1  0.58569400  0.58764500  0.16808000  1
  C  C38  1  0.58569400  0.08764500  0.33192000  1
  C  C39  1  0.41430600  0.41235500  0.83192000  1
  C  C40  1  0.97351900  0.03352500  0.67753600  1
  C  C41  1  0.02648100  0.46647500  0.17753600  1
  C  C42  1  0.02648100  0.96647500  0.32246400  1
  C  C43  1  0.97351900  0.53352500  0.82246400  1
