# generated using pymatgen
data_Cu4NiC6
_symmetry_space_group_name_H-M   'P 1'
_cell_length_a   8.11428616
_cell_length_b   8.11428616
_cell_length_c   14.09218800
_cell_angle_alpha   90.00000000
_cell_angle_beta   90.00000000
_cell_angle_gamma   120.00000134
_symmetry_Int_Tables_number   1
_chemical_formula_structural   Cu4NiC6
_chemical_formula_sum   'Cu8 Ni2 C12'
_cell_volume   803.54405772
_cell_formula_units_Z   2
loop_
 _symmetry_equiv_pos_site_id
 _symmetry_equiv_pos_as_xyz
  1  'x, y, z'
loop_
 _atom_site_type_symbol
 _atom_site_label
 _atom_site_symmetry_multiplicity
 _atom_site_fract_x
 _atom_site_fract_y
 _atom_site_fract_z
 _atom_site_occupancy
  Ni  Ni0  1  0.00000000  0.00000000  0.31293800  1
  Ni  Ni1  1  0.00000000  0.00000000  0.68706200  1
  Cu  Cu2  1  0.66666700  0.33333300  0.24924600  1
  Cu  Cu3  1  0.33333300  0.66666700  0.75075400  1
  Cu  Cu4  1  0.50000000  0.50000000  0.50000000  1
  Cu  Cu5  1  0.50000000  0.00000000  0.50000000  1
  Cu  Cu6  1  0.00000000  0.50000000  0.50000000  1
  Cu  Cu7  1  0.50000000  0.50000000  0.00000000  1
  Cu  Cu8  1  0.50000000  0.00000000  0.00000000  1
  Cu  Cu9  1  0.00000000  0.50000000  0.00000000  1
  C  C10  1  0.66666700  0.33333300  0.43040500  1
  C  C11  1  0.33333300  0.66666700  0.56959500  1
  C  C12  1  0.33333300  0.66666700  0.93221600  1
  C  C13  1  0.66666700  0.33333300  0.06778400  1
  C  C14  1  0.00000000  0.00000000  0.50000000  1
  C  C15  1  0.17206000  0.34412000  0.25039500  1
  C  C16  1  0.65588000  0.82794000  0.25039500  1
  C  C17  1  0.17206000  0.82794000  0.25039500  1
  C  C18  1  0.82794000  0.65588000  0.74960500  1
  C  C19  1  0.34412000  0.17206000  0.74960500  1
  C  C20  1  0.82794000  0.17206000  0.74960500  1
  C  C21  1  0.00000000  0.00000000  0.00000000  1
