# generated using pymatgen
data_Cu3NiC3
_symmetry_space_group_name_H-M   'P 1'
_cell_length_a   9.73232717
_cell_length_b   9.73232717
_cell_length_c   12.17554200
_cell_angle_alpha   90.00000000
_cell_angle_beta   90.00000000
_cell_angle_gamma   142.49224149
_symmetry_Int_Tables_number   1
_chemical_formula_structural   Cu3NiC3
_chemical_formula_sum   'Cu12 Ni4 C12'
_cell_volume   702.17515900
_cell_formula_units_Z   4
loop_
 _symmetry_equiv_pos_site_id
 _symmetry_equiv_pos_as_xyz
  1  'x, y, z'
loop_
 _atom_site_type_symbol
 _atom_site_label
 _atom_site_symmetry_multiplicity
 _atom_site_fract_x
 _atom_site_fract_y
 _atom_site_fract_z
 _atom_site_occupancy
  C  C0  1  0.82031900  0.82031900  0.64840900  1
  C  C1  1  0.17968100  0.17968100  0.35159100  1
  C  C2  1  0.67968100  0.67968100  0.14840900  1
  C  C3  1  0.32031900  0.32031900  0.85159100  1
  C  C4  1  0.13296000  0.48612100  0.13145200  1
  C  C5  1  0.51387900  0.86704000  0.86854800  1
  C  C6  1  0.01387900  0.36704000  0.63145200  1
  C  C7  1  0.63296000  0.98612100  0.36854800  1
  C  C8  1  0.86704000  0.51387900  0.86854800  1
  C  C9  1  0.48612100  0.13296000  0.13145200  1
  C  C10  1  0.98612100  0.63296000  0.36854800  1
  C  C11  1  0.36704000  0.01387900  0.63145200  1
  Ni  Ni12  1  0.91325800  0.08674200  0.00000000  1
  Ni  Ni13  1  0.41325800  0.58674200  0.50000000  1
  Ni  Ni14  1  0.08674200  0.91325800  0.00000000  1
  Ni  Ni15  1  0.58674200  0.41325800  0.50000000  1
  Cu  Cu16  1  0.28518600  0.28518600  0.60656400  1
  Cu  Cu17  1  0.71481400  0.71481400  0.39343600  1
  Cu  Cu18  1  0.21481400  0.21481400  0.10656400  1
  Cu  Cu19  1  0.78518600  0.78518600  0.89343600  1
  Cu  Cu20  1  0.55087500  0.87352800  0.62301800  1
  Cu  Cu21  1  0.12647200  0.44912500  0.37698200  1
  Cu  Cu22  1  0.62647200  0.94912500  0.12301800  1
  Cu  Cu23  1  0.05087500  0.37352800  0.87698200  1
  Cu  Cu24  1  0.44912500  0.12647200  0.37698200  1
  Cu  Cu25  1  0.87352800  0.55087500  0.62301800  1
  Cu  Cu26  1  0.37352800  0.05087500  0.87698200  1
  Cu  Cu27  1  0.94912500  0.62647200  0.12301800  1
