# generated using pymatgen
data_Cu4Ni4C7
_symmetry_space_group_name_H-M   'P 1'
_cell_length_a   5.14593100
_cell_length_b   9.79145117
_cell_length_c   9.79145117
_cell_angle_alpha   86.04048187
_cell_angle_beta   74.76510960
_cell_angle_gamma   74.76510960
_symmetry_Int_Tables_number   1
_chemical_formula_structural   Cu4Ni4C7
_chemical_formula_sum   'Cu8 Ni8 C14'
_cell_volume   459.28649603
_cell_formula_units_Z   2
loop_
 _symmetry_equiv_pos_site_id
 _symmetry_equiv_pos_as_xyz
  1  'x, y, z'
loop_
 _atom_site_type_symbol
 _atom_site_label
 _atom_site_symmetry_multiplicity
 _atom_site_fract_x
 _atom_site_fract_y
 _atom_site_fract_z
 _atom_site_occupancy
  Ni  Ni0  1  0.13963500  0.00000000  0.72073000  1
  Ni  Ni1  1  0.86036500  0.00000000  0.27927000  1
  Ni  Ni2  1  0.86036500  0.27927000  0.00000000  1
  Ni  Ni3  1  0.13963500  0.72073000  0.00000000  1
  Ni  Ni4  1  0.50000000  0.19492100  0.80507900  1
  Ni  Ni5  1  0.50000000  0.80507900  0.19492100  1
  Ni  Ni6  1  0.30507900  0.19492100  0.19492100  1
  Ni  Ni7  1  0.69492100  0.80507900  0.80507900  1
  Cu  Cu8  1  0.39879500  0.50000000  0.20241000  1
  Cu  Cu9  1  0.10120500  0.50000000  0.79759000  1
  Cu  Cu10  1  0.10120500  0.79759000  0.50000000  1
  Cu  Cu11  1  0.39879500  0.20241000  0.50000000  1
  Cu  Cu12  1  0.60120500  0.79759000  0.50000000  1
  Cu  Cu13  1  0.89879500  0.20241000  0.50000000  1
  Cu  Cu14  1  0.89879500  0.50000000  0.20241000  1
  Cu  Cu15  1  0.60120500  0.50000000  0.79759000  1
  C  C16  1  0.29379500  0.00000000  0.41241000  1
  C  C17  1  0.70620500  0.00000000  0.58759000  1
  C  C18  1  0.70620500  0.58759000  0.00000000  1
  C  C19  1  0.29379500  0.41241000  0.00000000  1
  C  C20  1  0.00000000  0.29031600  0.70968400  1
  C  C21  1  0.00000000  0.70968400  0.29031600  1
  C  C22  1  0.70968400  0.29031600  0.29031600  1
  C  C23  1  0.29031600  0.70968400  0.70968400  1
  C  C24  1  0.50000000  0.40627400  0.59372600  1
  C  C25  1  0.50000000  0.59372600  0.40627400  1
  C  C26  1  0.09372600  0.40627400  0.40627400  1
  C  C27  1  0.90627400  0.59372600  0.59372600  1
  C  C28  1  0.75125000  0.00000000  0.00000000  1
  C  C29  1  0.24875000  0.00000000  0.00000000  1
