# generated using pymatgen
data_Cu2NiC17
_symmetry_space_group_name_H-M   'P 1'
_cell_length_a   8.67493557
_cell_length_b   8.67493557
_cell_length_c   6.58659704
_cell_angle_alpha   73.88247110
_cell_angle_beta   73.88247110
_cell_angle_gamma   93.43907240
_symmetry_Int_Tables_number   1
_chemical_formula_structural   Cu2NiC17
_chemical_formula_sum   'Cu4 Ni2 C34'
_cell_volume   452.39935634
_cell_formula_units_Z   2
loop_
 _symmetry_equiv_pos_site_id
 _symmetry_equiv_pos_as_xyz
  1  'x, y, z'
loop_
 _atom_site_type_symbol
 _atom_site_label
 _atom_site_symmetry_multiplicity
 _atom_site_fract_x
 _atom_site_fract_y
 _atom_site_fract_z
 _atom_site_occupancy
  C  C0  1  0.98554800  0.01445200  0.25000000  1
  C  C1  1  0.01445200  0.98554800  0.75000000  1
  C  C2  1  0.50000000  0.50000000  0.00000000  1
  C  C3  1  0.50000000  0.50000000  0.50000000  1
  Ni  Ni4  1  0.26932300  0.73067700  0.25000000  1
  Ni  Ni5  1  0.73067700  0.26932300  0.75000000  1
  Cu  Cu6  1  0.38142700  0.05695300  0.37350700  1
  Cu  Cu7  1  0.61857300  0.94304700  0.62649300  1
  Cu  Cu8  1  0.94304700  0.61857300  0.12649300  1
  Cu  Cu9  1  0.05695300  0.38142700  0.87350700  1
  C  C10  1  0.71108100  0.28891900  0.25000000  1
  C  C11  1  0.28891900  0.71108100  0.75000000  1
  C  C12  1  0.65602200  0.87443200  0.11907700  1
  C  C13  1  0.34397800  0.12556800  0.88092300  1
  C  C14  1  0.12556800  0.34397800  0.38092300  1
  C  C15  1  0.87443200  0.65602200  0.61907700  1
  C  C16  1  0.53307500  0.26212200  0.25289400  1
  C  C17  1  0.46692500  0.73787800  0.74710600  1
  C  C18  1  0.73787800  0.46692500  0.24710600  1
  C  C19  1  0.26212200  0.53307500  0.75289400  1
  C  C20  1  0.52443200  0.72911300  0.16853100  1
  C  C21  1  0.47556800  0.27088700  0.83146900  1
  C  C22  1  0.27088700  0.47556800  0.33146900  1
  C  C23  1  0.72911300  0.52443200  0.66853100  1
  C  C24  1  0.74205100  0.17665800  0.46203500  1
  C  C25  1  0.25794900  0.82334200  0.53796500  1
  C  C26  1  0.82334200  0.25794900  0.03796500  1
  C  C27  1  0.17665800  0.74205100  0.96203500  1
  C  C28  1  0.60379700  0.95495400  0.30761000  1
  C  C29  1  0.39620300  0.04504600  0.69239000  1
  C  C30  1  0.04504600  0.39620300  0.19239000  1
  C  C31  1  0.95495400  0.60379700  0.80761000  1
  C  C32  1  0.82694300  0.82540500  0.10801400  1
  C  C33  1  0.17305700  0.17459500  0.89198600  1
  C  C34  1  0.17459500  0.17305700  0.39198600  1
  C  C35  1  0.82540500  0.82694300  0.60801400  1
  C  C36  1  0.32448300  0.99593100  0.11048100  1
  C  C37  1  0.67551700  0.00406900  0.88951900  1
  C  C38  1  0.00406900  0.67551700  0.38951900  1
  C  C39  1  0.99593100  0.32448300  0.61048100  1
