# generated using pymatgen
data_CuNiC8
_symmetry_space_group_name_H-M   'P 1'
_cell_length_a   6.02406797
_cell_length_b   6.02406797
_cell_length_c   6.02406791
_cell_angle_alpha   60.99923350
_cell_angle_beta   60.99923350
_cell_angle_gamma   60.99923628
_symmetry_Int_Tables_number   1
_chemical_formula_structural   CuNiC8
_chemical_formula_sum   'Cu1 Ni1 C8'
_cell_volume   158.05971493
_cell_formula_units_Z   1
loop_
 _symmetry_equiv_pos_site_id
 _symmetry_equiv_pos_as_xyz
  1  'x, y, z'
loop_
 _atom_site_type_symbol
 _atom_site_label
 _atom_site_symmetry_multiplicity
 _atom_site_fract_x
 _atom_site_fract_y
 _atom_site_fract_z
 _atom_site_occupancy
  C  C0  1  0.74976300  0.74976300  0.74976300  1
  C  C1  1  0.26024900  0.26024900  0.26024900  1
  Ni  Ni2  1  0.00071900  0.00071900  0.00071900  1
  Cu  Cu3  1  0.50053900  0.50053900  0.50053900  1
  C  C4  1  0.81149800  0.27688600  0.64719700  1
  C  C5  1  0.27688600  0.64719700  0.81149800  1
  C  C6  1  0.64719700  0.81149800  0.27688600  1
  C  C7  1  0.20712100  0.71891900  0.32710900  1
  C  C8  1  0.71891900  0.32710900  0.20712100  1
  C  C9  1  0.32710900  0.20712100  0.71891900  1
