# generated using pymatgen
data_Cu3(NiC4)2
_symmetry_space_group_name_H-M   'P 1'
_cell_length_a   5.75358048
_cell_length_b   5.75358048
_cell_length_c   9.18848900
_cell_angle_alpha   90.00000000
_cell_angle_beta   90.00000000
_cell_angle_gamma   120.00000555
_symmetry_Int_Tables_number   1
_chemical_formula_structural   Cu3(NiC4)2
_chemical_formula_sum   'Cu6 Ni4 C16'
_cell_volume   263.42142342
_cell_formula_units_Z   2
loop_
 _symmetry_equiv_pos_site_id
 _symmetry_equiv_pos_as_xyz
  1  'x, y, z'
loop_
 _atom_site_type_symbol
 _atom_site_label
 _atom_site_symmetry_multiplicity
 _atom_site_fract_x
 _atom_site_fract_y
 _atom_site_fract_z
 _atom_site_occupancy
  Ni  Ni0  1  0.66666700  0.33333300  0.03478100  1
  Ni  Ni1  1  0.33333300  0.66666700  0.53478100  1
  Ni  Ni2  1  0.66666700  0.33333300  0.41426300  1
  Ni  Ni3  1  0.33333300  0.66666700  0.91426300  1
  Cu  Cu4  1  0.66776200  0.83388100  0.24662800  1
  Cu  Cu5  1  0.83388100  0.16611900  0.74662800  1
  Cu  Cu6  1  0.16611900  0.33223800  0.24662800  1
  Cu  Cu7  1  0.83388100  0.66776200  0.74662800  1
  Cu  Cu8  1  0.33223800  0.16611900  0.74662800  1
  Cu  Cu9  1  0.16611900  0.83388100  0.24662800  1
  C  C10  1  0.84386700  0.15613300  0.14178400  1
  C  C11  1  0.68773500  0.84386700  0.64178400  1
  C  C12  1  0.15613300  0.31226500  0.64178400  1
  C  C13  1  0.84386700  0.68773500  0.14178400  1
  C  C14  1  0.31226500  0.15613300  0.14178400  1
  C  C15  1  0.15613300  0.84386700  0.64178400  1
  C  C16  1  0.51960800  0.48039200  0.86391500  1
  C  C17  1  0.03921600  0.51960800  0.36391500  1
  C  C18  1  0.48039200  0.96078400  0.36391500  1
  C  C19  1  0.51960800  0.03921600  0.86391500  1
  C  C20  1  0.00000000  0.00000000  0.34830500  1
  C  C21  1  0.00000000  0.00000000  0.84830500  1
  C  C22  1  0.33333300  0.66666700  0.13917100  1
  C  C23  1  0.96078400  0.48039200  0.86391500  1
  C  C24  1  0.48039200  0.51960800  0.36391500  1
  C  C25  1  0.66666700  0.33333300  0.63917100  1
