# generated using pymatgen
data_Cu8Ni2C3
_symmetry_space_group_name_H-M   'P 1'
_cell_length_a   8.71275200
_cell_length_b   9.41709800
_cell_length_c   16.91315200
_cell_angle_alpha   90.00000000
_cell_angle_beta   90.00000000
_cell_angle_gamma   90.00000000
_symmetry_Int_Tables_number   1
_chemical_formula_structural   Cu8Ni2C3
_chemical_formula_sum   'Cu64 Ni16 C24'
_cell_volume   1387.70449277
_cell_formula_units_Z   8
loop_
 _symmetry_equiv_pos_site_id
 _symmetry_equiv_pos_as_xyz
  1  'x, y, z'
loop_
 _atom_site_type_symbol
 _atom_site_label
 _atom_site_symmetry_multiplicity
 _atom_site_fract_x
 _atom_site_fract_y
 _atom_site_fract_z
 _atom_site_occupancy
  C  C0  1  0.77711500  0.66301100  0.20854200  1
  C  C1  1  0.72288500  0.33698900  0.70854200  1
  C  C2  1  0.27711500  0.83698900  0.79145800  1
  C  C3  1  0.22288500  0.16301100  0.29145800  1
  C  C4  1  0.33021400  0.45492800  0.42451200  1
  C  C5  1  0.16978600  0.54507200  0.92451200  1
  C  C6  1  0.83021400  0.04507200  0.57548800  1
  C  C7  1  0.66978600  0.95492800  0.07548800  1
  C  C8  1  0.97276700  0.50745700  0.56157900  1
  C  C9  1  0.52723300  0.49254300  0.06157900  1
  C  C10  1  0.47276700  0.99254300  0.43842100  1
  C  C11  1  0.02723300  0.00745700  0.93842100  1
  C  C12  1  0.15306000  0.78331200  0.34379600  1
  C  C13  1  0.34694000  0.21668800  0.84379600  1
  C  C14  1  0.65306000  0.71668800  0.65620400  1
  C  C15  1  0.84694000  0.28331200  0.15620400  1
  C  C16  1  0.82812400  0.10957400  0.36749600  1
  C  C17  1  0.67187600  0.89042600  0.86749600  1
  C  C18  1  0.32812400  0.39042600  0.63250400  1
  C  C19  1  0.17187600  0.60957400  0.13250400  1
  C  C20  1  0.71937600  0.51508600  0.38269400  1
  C  C21  1  0.78062400  0.48491400  0.88269400  1
  C  C22  1  0.21937600  0.98491400  0.61730600  1
  C  C23  1  0.28062400  0.01508600  0.11730600  1
  Ni  Ni24  1  0.99981400  0.45313100  0.30071700  1
  Ni  Ni25  1  0.50018600  0.54686900  0.80071700  1
  Ni  Ni26  1  0.49981400  0.04686900  0.69928300  1
  Ni  Ni27  1  0.00018600  0.95313100  0.19928300  1
  Ni  Ni28  1  0.79378300  0.75775200  0.45989800  1
  Ni  Ni29  1  0.70621700  0.24224800  0.95989800  1
  Ni  Ni30  1  0.29378300  0.74224800  0.54010200  1
  Ni  Ni31  1  0.20621700  0.25775200  0.04010200  1
  Ni  Ni32  1  0.55889800  0.37046500  0.26667000  1
  Ni  Ni33  1  0.94110200  0.62953500  0.76667000  1
  Ni  Ni34  1  0.05889800  0.12953500  0.73333000  1
  Ni  Ni35  1  0.44110200  0.87046500  0.23333000  1
  Ni  Ni36  1  0.67148400  0.32830200  0.50505100  1
  Ni  Ni37  1  0.82851600  0.67169800  0.00505100  1
  Ni  Ni38  1  0.17148400  0.17169800  0.49494900  1
  Ni  Ni39  1  0.32851600  0.82830200  0.99494900  1
  Cu  Cu40  1  0.12045600  0.52654200  0.34481200  1
  Cu  Cu41  1  0.37954400  0.47345800  0.84481200  1
  Cu  Cu42  1  0.62045600  0.97345800  0.65518800  1
  Cu  Cu43  1  0.87954400  0.02654200  0.15518800  1
  Cu  Cu44  1  0.00707100  0.47911800  0.21479600  1
  Cu  Cu45  1  0.49292900  0.52088200  0.71479600  1
  Cu  Cu46  1  0.50707100  0.02088200  0.78520400  1
  Cu  Cu47  1  0.99292900  0.97911800  0.28520400  1
  Cu  Cu48  1  0.99167400  0.30115900  0.31874300  1
  Cu  Cu49  1  0.50832600  0.69884100  0.81874300  1
  Cu  Cu50  1  0.49167400  0.19884100  0.68125700  1
  Cu  Cu51  1  0.00832600  0.80115900  0.18125700  1
  Cu  Cu52  1  0.72184000  0.89938500  0.45597400  1
  Cu  Cu53  1  0.77816000  0.10061500  0.95597400  1
  Cu  Cu54  1  0.22184000  0.60061500  0.54402600  1
  Cu  Cu55  1  0.27816000  0.39938500  0.04402600  1
  Cu  Cu56  1  0.79984600  0.70405900  0.54176000  1
  Cu  Cu57  1  0.70015400  0.29594100  0.04176000  1
  Cu  Cu58  1  0.29984600  0.79594100  0.45824000  1
  Cu  Cu59  1  0.20015400  0.20405900  0.95824000  1
  Cu  Cu60  1  0.94253000  0.75180900  0.42156500  1
  Cu  Cu61  1  0.55747000  0.24819100  0.92156500  1
  Cu  Cu62  1  0.44253000  0.74819100  0.57843500  1
  Cu  Cu63  1  0.05747000  0.25180900  0.07843500  1
  Cu  Cu64  1  0.65953500  0.24657700  0.27486200  1
  Cu  Cu65  1  0.84046500  0.75342300  0.77486200  1
  Cu  Cu66  1  0.15953500  0.25342300  0.72513800  1
  Cu  Cu67  1  0.34046500  0.74657700  0.22513800  1
  Cu  Cu68  1  0.39519700  0.33952600  0.26594900  1
  Cu  Cu69  1  0.10480300  0.66047400  0.76594900  1
  Cu  Cu70  1  0.89519700  0.16047400  0.73405100  1
  Cu  Cu71  1  0.60480300  0.83952600  0.23405100  1
  Cu  Cu72  1  0.60786400  0.46047200  0.19974000  1
  Cu  Cu73  1  0.89213600  0.53952800  0.69974000  1
  Cu  Cu74  1  0.10786400  0.03952800  0.80026000  1
  Cu  Cu75  1  0.39213600  0.96047200  0.30026000  1
  Cu  Cu76  1  0.77093200  0.31643800  0.57518800  1
  Cu  Cu77  1  0.72906800  0.68356200  0.07518800  1
  Cu  Cu78  1  0.27093200  0.18356200  0.42481200  1
  Cu  Cu79  1  0.22906800  0.81643800  0.92481200  1
  Cu  Cu80  1  0.52763100  0.40355500  0.51995500  1
  Cu  Cu81  1  0.97236900  0.59644500  0.01995500  1
  Cu  Cu82  1  0.02763100  0.09644500  0.48004500  1
  Cu  Cu83  1  0.47236900  0.90355500  0.98004500  1
  Cu  Cu84  1  0.65064700  0.18933000  0.46695500  1
  Cu  Cu85  1  0.84935300  0.81067000  0.96695500  1
  Cu  Cu86  1  0.15064700  0.31067000  0.53304500  1
  Cu  Cu87  1  0.34935300  0.68933000  0.03304500  1
  Cu  Cu88  1  0.84186500  0.52655800  0.32187800  1
  Cu  Cu89  1  0.65813500  0.47344200  0.82187800  1
  Cu  Cu90  1  0.34186500  0.97344200  0.67812200  1
  Cu  Cu91  1  0.15813500  0.02655800  0.17812200  1
  Cu  Cu92  1  0.67953700  0.65836400  0.41174300  1
  Cu  Cu93  1  0.82046300  0.34163600  0.91174300  1
  Cu  Cu94  1  0.17953700  0.84163600  0.58825700  1
  Cu  Cu95  1  0.32046300  0.15836400  0.08825700  1
  Cu  Cu96  1  0.57466000  0.46423300  0.34596500  1
  Cu  Cu97  1  0.92534000  0.53576700  0.84596500  1
  Cu  Cu98  1  0.07466000  0.03576700  0.65403500  1
  Cu  Cu99  1  0.42534000  0.96423300  0.15403500  1
  Cu  Cu100  1  0.77483400  0.42021300  0.44687000  1
  Cu  Cu101  1  0.72516600  0.57978700  0.94687000  1
  Cu  Cu102  1  0.27483400  0.07978700  0.55313000  1
  Cu  Cu103  1  0.22516600  0.92021300  0.05313000  1
