# generated using pymatgen
data_Cu3NiC12
_symmetry_space_group_name_H-M   'P 1'
_cell_length_a   3.01703169
_cell_length_b   3.01703169
_cell_length_c   27.31173200
_cell_angle_alpha   90.00000000
_cell_angle_beta   90.00000000
_cell_angle_gamma   119.99999324
_symmetry_Int_Tables_number   1
_chemical_formula_structural   Cu3NiC12
_chemical_formula_sum   'Cu3 Ni1 C12'
_cell_volume   215.29782763
_cell_formula_units_Z   1
loop_
 _symmetry_equiv_pos_site_id
 _symmetry_equiv_pos_as_xyz
  1  'x, y, z'
loop_
 _atom_site_type_symbol
 _atom_site_label
 _atom_site_symmetry_multiplicity
 _atom_site_fract_x
 _atom_site_fract_y
 _atom_site_fract_z
 _atom_site_occupancy
  C  C0  1  0.66666700  0.33333300  0.45741100  1
  C  C1  1  0.66666700  0.33333300  0.95752400  1
  C  C2  1  0.33333300  0.66666700  0.54258900  1
  C  C3  1  0.33333300  0.66666700  0.04247600  1
  C  C4  1  0.33333300  0.66666700  0.70802300  1
  C  C5  1  0.33333300  0.66666700  0.20743000  1
  C  C6  1  0.66666700  0.33333300  0.29197700  1
  C  C7  1  0.66666700  0.33333300  0.79257000  1
  C  C8  1  0.66666700  0.33333300  0.62570100  1
  C  C9  1  0.66666700  0.33333300  0.12496700  1
  C  C10  1  0.33333300  0.66666700  0.37429900  1
  C  C11  1  0.33333300  0.66666700  0.87503300  1
  Ni  Ni12  1  0.00000000  0.00000000  0.50000000  1
  Cu  Cu13  1  0.00000000  0.00000000  0.00000000  1
  Cu  Cu14  1  0.00000000  0.00000000  0.74997600  1
  Cu  Cu15  1  0.00000000  0.00000000  0.25002400  1
