# generated using pymatgen
data_Cu(NiC4)2
_symmetry_space_group_name_H-M   'P 1'
_cell_length_a   10.55228824
_cell_length_b   10.55228824
_cell_length_c   5.14275333
_cell_angle_alpha   89.84228224
_cell_angle_beta   89.84228224
_cell_angle_gamma   34.22094848
_symmetry_Int_Tables_number   1
_chemical_formula_structural   Cu(NiC4)2
_chemical_formula_sum   'Cu2 Ni4 C16'
_cell_volume   322.04864945
_cell_formula_units_Z   2
loop_
 _symmetry_equiv_pos_site_id
 _symmetry_equiv_pos_as_xyz
  1  'x, y, z'
loop_
 _atom_site_type_symbol
 _atom_site_label
 _atom_site_symmetry_multiplicity
 _atom_site_fract_x
 _atom_site_fract_y
 _atom_site_fract_z
 _atom_site_occupancy
  Ni  Ni0  1  0.05275900  0.68402900  0.75581100  1
  Ni  Ni1  1  0.31597100  0.94724100  0.74418900  1
  Ni  Ni2  1  0.94724100  0.31597100  0.24418900  1
  Ni  Ni3  1  0.68402900  0.05275900  0.25581100  1
  Cu  Cu4  1  0.66318500  0.33681500  0.75000000  1
  Cu  Cu5  1  0.33681500  0.66318500  0.25000000  1
  C  C6  1  0.10625400  0.78080300  0.08521800  1
  C  C7  1  0.21919700  0.89374600  0.41478200  1
  C  C8  1  0.89374600  0.21919700  0.91478200  1
  C  C9  1  0.78080300  0.10625400  0.58521800  1
  C  C10  1  0.33817800  0.55760600  0.56832400  1
  C  C11  1  0.44239400  0.66182200  0.93167600  1
  C  C12  1  0.66182200  0.44239400  0.43167600  1
  C  C13  1  0.55760600  0.33817800  0.06832400  1
  C  C14  1  0.92289900  0.75701000  0.42708000  1
  C  C15  1  0.24299000  0.07710100  0.07292000  1
  C  C16  1  0.43486000  0.19033500  0.35999300  1
  C  C17  1  0.80966500  0.56514000  0.14000700  1
  C  C18  1  0.56514000  0.80966500  0.64000700  1
  C  C19  1  0.19033500  0.43486000  0.85999300  1
  C  C20  1  0.75701000  0.92289900  0.92708000  1
  C  C21  1  0.07710100  0.24299000  0.57292000  1
