# generated using pymatgen
data_Cu3NiC6
_symmetry_space_group_name_H-M   'P 1'
_cell_length_a   6.05393600
_cell_length_b   9.01837000
_cell_length_c   14.79678400
_cell_angle_alpha   90.00000000
_cell_angle_beta   90.00000000
_cell_angle_gamma   90.00000000
_symmetry_Int_Tables_number   1
_chemical_formula_structural   Cu3NiC6
_chemical_formula_sum   'Cu12 Ni4 C24'
_cell_volume   807.85461233
_cell_formula_units_Z   4
loop_
 _symmetry_equiv_pos_site_id
 _symmetry_equiv_pos_as_xyz
  1  'x, y, z'
loop_
 _atom_site_type_symbol
 _atom_site_label
 _atom_site_symmetry_multiplicity
 _atom_site_fract_x
 _atom_site_fract_y
 _atom_site_fract_z
 _atom_site_occupancy
  C  C0  1  0.50766300  0.07609300  0.09299200  1
  C  C1  1  0.99233700  0.42390700  0.59299200  1
  C  C2  1  0.00766300  0.92390700  0.90700800  1
  C  C3  1  0.49233700  0.57609300  0.40700800  1
  C  C4  1  0.49233700  0.92390700  0.90700800  1
  C  C5  1  0.00766300  0.57609300  0.40700800  1
  C  C6  1  0.99233700  0.07609300  0.09299200  1
  C  C7  1  0.50766300  0.42390700  0.59299200  1
  C  C8  1  0.25000000  0.42953800  0.19958900  1
  C  C9  1  0.25000000  0.07046200  0.69958900  1
  C  C10  1  0.75000000  0.57046200  0.80041100  1
  C  C11  1  0.75000000  0.92953800  0.30041100  1
  C  C12  1  0.25000000  0.48466800  0.10049600  1
  C  C13  1  0.25000000  0.01533200  0.60049600  1
  C  C14  1  0.75000000  0.51533200  0.89950400  1
  C  C15  1  0.75000000  0.98466800  0.39950400  1
  C  C16  1  0.05571800  0.56830400  0.13092900  1
  C  C17  1  0.44428200  0.93169600  0.63092900  1
  C  C18  1  0.55571800  0.43169600  0.86907100  1
  C  C19  1  0.94428200  0.06830400  0.36907100  1
  C  C20  1  0.94428200  0.43169600  0.86907100  1
  C  C21  1  0.55571800  0.06830400  0.36907100  1
  C  C22  1  0.44428200  0.56830400  0.13092900  1
  C  C23  1  0.05571800  0.93169600  0.63092900  1
  Ni  Ni24  1  0.25000000  0.59948000  0.19153800  1
  Ni  Ni25  1  0.25000000  0.90052000  0.69153800  1
  Ni  Ni26  1  0.75000000  0.40052000  0.80846200  1
  Ni  Ni27  1  0.75000000  0.09948000  0.30846200  1
  Cu  Cu28  1  0.25000000  0.11714700  0.95666100  1
  Cu  Cu29  1  0.25000000  0.38285300  0.45666100  1
  Cu  Cu30  1  0.75000000  0.88285300  0.04333900  1
  Cu  Cu31  1  0.75000000  0.61714700  0.54333900  1
  Cu  Cu32  1  0.75000000  0.25933400  0.08235100  1
  Cu  Cu33  1  0.75000000  0.24066600  0.58235100  1
  Cu  Cu34  1  0.25000000  0.74066600  0.91764900  1
  Cu  Cu35  1  0.25000000  0.75933400  0.41764900  1
  Cu  Cu36  1  0.25000000  0.97727700  0.18002000  1
  Cu  Cu37  1  0.25000000  0.52272300  0.68002000  1
  Cu  Cu38  1  0.75000000  0.02272300  0.81998000  1
  Cu  Cu39  1  0.75000000  0.47727700  0.31998000  1
