# generated using pymatgen
data_CuNiC6
_symmetry_space_group_name_H-M   'P 1'
_cell_length_a   14.98631258
_cell_length_b   13.34295381
_cell_length_c   8.10174739
_cell_angle_alpha   84.93618496
_cell_angle_beta   62.48224300
_cell_angle_gamma   32.58157204
_symmetry_Int_Tables_number   1
_chemical_formula_structural   CuNiC6
_chemical_formula_sum   'Cu2 Ni2 C12'
_cell_volume   600.61982266
_cell_formula_units_Z   2
loop_
 _symmetry_equiv_pos_site_id
 _symmetry_equiv_pos_as_xyz
  1  'x, y, z'
loop_
 _atom_site_type_symbol
 _atom_site_label
 _atom_site_symmetry_multiplicity
 _atom_site_fract_x
 _atom_site_fract_y
 _atom_site_fract_z
 _atom_site_occupancy
  C  C0  1  0.92932800  0.92932800  0.57067200  1
  C  C1  1  0.57067200  0.57067200  0.92932800  1
  C  C2  1  0.67932800  0.67932800  0.32067200  1
  C  C3  1  0.32067200  0.32067200  0.67932800  1
  Ni  Ni4  1  0.75000000  0.75000000  0.75000000  1
  Ni  Ni5  1  0.50000000  0.50000000  0.50000000  1
  Cu  Cu6  1  0.00000000  0.00000000  0.00000000  1
  Cu  Cu7  1  0.25000000  0.25000000  0.25000000  1
  C  C8  1  0.56783600  0.32206400  0.23917300  1
  C  C9  1  0.87092700  0.23917300  0.32206400  1
  C  C10  1  0.23917300  0.87092700  0.56783600  1
  C  C11  1  0.32206400  0.56783600  0.87092700  1
  C  C12  1  0.92793600  0.68216400  0.37907300  1
  C  C13  1  0.37907300  0.01082700  0.92793600  1
  C  C14  1  0.01082700  0.37907300  0.68216400  1
  C  C15  1  0.68216400  0.92793600  0.01082700  1
