# generated using pymatgen
data_Cu(NiC4)4
_symmetry_space_group_name_H-M   'P 1'
_cell_length_a   13.99094800
_cell_length_b   13.99094800
_cell_length_c   6.56564900
_cell_angle_alpha   90.00000000
_cell_angle_beta   90.00000000
_cell_angle_gamma   90.00000000
_symmetry_Int_Tables_number   1
_chemical_formula_structural   Cu(NiC4)4
_chemical_formula_sum   'Cu2 Ni8 C32'
_cell_volume   1285.20363885
_cell_formula_units_Z   2
loop_
 _symmetry_equiv_pos_site_id
 _symmetry_equiv_pos_as_xyz
  1  'x, y, z'
loop_
 _atom_site_type_symbol
 _atom_site_label
 _atom_site_symmetry_multiplicity
 _atom_site_fract_x
 _atom_site_fract_y
 _atom_site_fract_z
 _atom_site_occupancy
  C  C0  1  0.19391000  0.48063300  0.54609900  1
  C  C1  1  0.69391000  0.01936700  0.95390100  1
  C  C2  1  0.80609000  0.51936700  0.54609900  1
  C  C3  1  0.30609000  0.98063300  0.95390100  1
  C  C4  1  0.51936700  0.19391000  0.45390100  1
  C  C5  1  0.98063300  0.69391000  0.04609900  1
  C  C6  1  0.48063300  0.80609000  0.45390100  1
  C  C7  1  0.01936700  0.30609000  0.04609900  1
  Ni  Ni8  1  0.14198500  0.75485400  0.55010300  1
  Ni  Ni9  1  0.64198500  0.74514600  0.94989700  1
  Ni  Ni10  1  0.85801500  0.24514600  0.55010300  1
  Ni  Ni11  1  0.35801500  0.25485400  0.94989700  1
  Ni  Ni12  1  0.24514600  0.14198500  0.44989700  1
  Ni  Ni13  1  0.25485400  0.64198500  0.05010300  1
  Ni  Ni14  1  0.75485400  0.85801500  0.44989700  1
  Ni  Ni15  1  0.74514600  0.35801500  0.05010300  1
  Cu  Cu16  1  0.50000000  0.50000000  0.00000000  1
  Cu  Cu17  1  0.00000000  0.00000000  0.50000000  1
  C  C18  1  0.40705600  0.39414500  0.74624400  1
  C  C19  1  0.90705600  0.10585500  0.75375600  1
  C  C20  1  0.59294400  0.60585500  0.74624400  1
  C  C21  1  0.09294400  0.89414500  0.75375600  1
  C  C22  1  0.60585500  0.40705600  0.25375600  1
  C  C23  1  0.89414500  0.90705600  0.24624400  1
  C  C24  1  0.39414500  0.59294400  0.25375600  1
  C  C25  1  0.10585500  0.09294400  0.24624400  1
  C  C26  1  0.29149400  0.69615200  0.70427500  1
  C  C27  1  0.79149400  0.80384800  0.79572500  1
  C  C28  1  0.70850600  0.30384800  0.70427500  1
  C  C29  1  0.20850600  0.19615200  0.79572500  1
  C  C30  1  0.30384800  0.29149400  0.29572500  1
  C  C31  1  0.19615200  0.79149400  0.20427500  1
  C  C32  1  0.69615200  0.70850600  0.29572500  1
  C  C33  1  0.80384800  0.20850600  0.20427500  1
  C  C34  1  0.98506000  0.35914600  0.54386200  1
  C  C35  1  0.48506000  0.14085400  0.95613800  1
  C  C36  1  0.01494000  0.64085400  0.54386200  1
  C  C37  1  0.51494000  0.85914600  0.95613800  1
  C  C38  1  0.64085400  0.98506000  0.45613800  1
  C  C39  1  0.85914600  0.48506000  0.04386200  1
  C  C40  1  0.35914600  0.01494000  0.45613800  1
  C  C41  1  0.14085400  0.51494000  0.04386200  1
