# generated using pymatgen
data_Cu9Ni9C2
_symmetry_space_group_name_H-M   'P 1'
_cell_length_a   8.79547139
_cell_length_b   8.79547139
_cell_length_c   21.70745042
_cell_angle_alpha   89.97215328
_cell_angle_beta   89.97215328
_cell_angle_gamma   60.06012944
_symmetry_Int_Tables_number   1
_chemical_formula_structural   Cu9Ni9C2
_chemical_formula_sum   'Cu36 Ni36 C8'
_cell_volume   1455.19248736
_cell_formula_units_Z   4
loop_
 _symmetry_equiv_pos_site_id
 _symmetry_equiv_pos_as_xyz
  1  'x, y, z'
loop_
 _atom_site_type_symbol
 _atom_site_label
 _atom_site_symmetry_multiplicity
 _atom_site_fract_x
 _atom_site_fract_y
 _atom_site_fract_z
 _atom_site_occupancy
  Ni  Ni0  1  0.54048800  0.54048800  0.64496500  1
  Ni  Ni1  1  0.20851800  0.20851800  0.98003500  1
  Ni  Ni2  1  0.87518900  0.87518900  0.31315300  1
  Ni  Ni3  1  0.12831800  0.12831800  0.43796200  1
  Ni  Ni4  1  0.79379300  0.79379300  0.77046400  1
  Ni  Ni5  1  0.46133900  0.46133900  0.10560900  1
  Ni  Ni6  1  0.91725200  0.54069200  0.64495500  1
  Ni  Ni7  1  0.58507100  0.20537100  0.97744400  1
  Ni  Ni8  1  0.25138100  0.87424200  0.31278000  1
  Ni  Ni9  1  0.74469700  0.12828600  0.43816100  1
  Ni  Ni10  1  0.41194600  0.79254300  0.77059600  1
  Ni  Ni11  1  0.07800300  0.45876800  0.10428700  1
  Ni  Ni12  1  0.12828600  0.74469700  0.43816100  1
  Ni  Ni13  1  0.79254300  0.41194600  0.77059600  1
  Ni  Ni14  1  0.45876800  0.07800300  0.10428700  1
  Ni  Ni15  1  0.54069200  0.91725200  0.64495500  1
  Ni  Ni16  1  0.20537100  0.58507100  0.97744400  1
  Ni  Ni17  1  0.87424200  0.25138100  0.31278000  1
  Ni  Ni18  1  0.45951200  0.45951200  0.35503500  1
  Ni  Ni19  1  0.12481100  0.12481100  0.68684700  1
  Ni  Ni20  1  0.79148200  0.79148200  0.01996500  1
  Ni  Ni21  1  0.87168300  0.87168300  0.56203800  1
  Ni  Ni22  1  0.53866100  0.53866100  0.89439100  1
  Ni  Ni23  1  0.20620700  0.20620700  0.22953600  1
  Ni  Ni24  1  0.08274800  0.45930800  0.35504500  1
  Ni  Ni25  1  0.74861900  0.12575800  0.68722000  1
  Ni  Ni26  1  0.41492900  0.79462900  0.02255600  1
  Ni  Ni27  1  0.25530300  0.87171400  0.56183900  1
  Ni  Ni28  1  0.92199700  0.54123200  0.89571300  1
  Ni  Ni29  1  0.58805400  0.20745700  0.22940400  1
  Ni  Ni30  1  0.87171400  0.25530300  0.56183900  1
  Ni  Ni31  1  0.54123200  0.92199700  0.89571300  1
  Ni  Ni32  1  0.20745700  0.58805400  0.22940400  1
  Ni  Ni33  1  0.45930800  0.08274800  0.35504500  1
  Ni  Ni34  1  0.12575800  0.74861900  0.68722000  1
  Ni  Ni35  1  0.79462900  0.41492900  0.02255600  1
  Cu  Cu36  1  0.33282100  0.33282100  0.45862600  1
  Cu  Cu37  1  0.00152000  0.00152000  0.79202900  1
  Cu  Cu38  1  0.66678000  0.66678000  0.12418100  1
  Cu  Cu39  1  0.22125200  0.22125200  0.56939700  1
  Cu  Cu40  1  0.88978400  0.88978400  0.90257700  1
  Cu  Cu41  1  0.55487100  0.55487100  0.23535000  1
  Cu  Cu42  1  0.55731600  0.22150200  0.56904400  1
  Cu  Cu43  1  0.22665100  0.88585900  0.90300900  1
  Cu  Cu44  1  0.89043500  0.55425500  0.23639900  1
  Cu  Cu45  1  0.22150200  0.55731600  0.56904400  1
  Cu  Cu46  1  0.88585900  0.22665100  0.90300900  1
  Cu  Cu47  1  0.55425500  0.89043500  0.23639900  1
  Cu  Cu48  1  0.66717900  0.66717900  0.54137400  1
  Cu  Cu49  1  0.33322000  0.33322000  0.87581900  1
  Cu  Cu50  1  0.99848000  0.99848000  0.20797100  1
  Cu  Cu51  1  0.77874800  0.77874800  0.43060300  1
  Cu  Cu52  1  0.44512900  0.44512900  0.76465000  1
  Cu  Cu53  1  0.11021600  0.11021600  0.09742300  1
  Cu  Cu54  1  0.44268400  0.77849800  0.43095600  1
  Cu  Cu55  1  0.10956500  0.44574500  0.76360100  1
  Cu  Cu56  1  0.77334900  0.11414100  0.09699100  1
  Cu  Cu57  1  0.77849800  0.44268400  0.43095600  1
  Cu  Cu58  1  0.44574500  0.10956500  0.76360100  1
  Cu  Cu59  1  0.11414100  0.77334900  0.09699100  1
  Cu  Cu60  1  0.66527000  0.66527000  0.33346500  1
  Cu  Cu61  1  0.33473000  0.33473000  0.66653500  1
  Cu  Cu62  1  0.00000000  0.00000000  0.00000000  1
  Cu  Cu63  1  0.50000000  0.50000000  0.50000000  1
  Cu  Cu64  1  0.16703700  0.16703700  0.83358200  1
  Cu  Cu65  1  0.83296300  0.83296300  0.16641800  1
  Cu  Cu66  1  0.00000000  0.50000000  0.50000000  1
  Cu  Cu67  1  0.66747500  0.16571400  0.83259800  1
  Cu  Cu68  1  0.33252500  0.83428600  0.16740200  1
  Cu  Cu69  1  0.50000000  0.00000000  0.50000000  1
  Cu  Cu70  1  0.16571400  0.66747500  0.83259800  1
  Cu  Cu71  1  0.83428600  0.33252500  0.16740200  1
  C  C72  1  0.16648600  0.16648600  0.33356600  1
  C  C73  1  0.83351400  0.83351400  0.66643400  1
  C  C74  1  0.00000000  0.50000000  0.00000000  1
  C  C75  1  0.66643400  0.16661100  0.33353300  1
  C  C76  1  0.33356600  0.83338900  0.66646700  1
  C  C77  1  0.83338900  0.33356600  0.66646700  1
  C  C78  1  0.50000000  0.00000000  0.00000000  1
  C  C79  1  0.16661100  0.66643400  0.33353300  1
