# generated using pymatgen
data_Cu4Ni9C
_symmetry_space_group_name_H-M   'P 1'
_cell_length_a   8.55942123
_cell_length_b   8.55942123
_cell_length_c   8.51252300
_cell_angle_alpha   90.00000000
_cell_angle_beta   90.00000000
_cell_angle_gamma   119.99999402
_symmetry_Int_Tables_number   1
_chemical_formula_structural   Cu4Ni9C
_chemical_formula_sum   'Cu8 Ni18 C2'
_cell_volume   540.10444937
_cell_formula_units_Z   2
loop_
 _symmetry_equiv_pos_site_id
 _symmetry_equiv_pos_as_xyz
  1  'x, y, z'
loop_
 _atom_site_type_symbol
 _atom_site_label
 _atom_site_symmetry_multiplicity
 _atom_site_fract_x
 _atom_site_fract_y
 _atom_site_fract_z
 _atom_site_occupancy
  Ni  Ni0  1  0.20369700  0.40739500  0.44460000  1
  Ni  Ni1  1  0.20369700  0.79630300  0.44460000  1
  Ni  Ni2  1  0.54045400  0.08090900  0.25000000  1
  Ni  Ni3  1  0.45954600  0.54045400  0.75000000  1
  Ni  Ni4  1  0.08090900  0.54045400  0.75000000  1
  Ni  Ni5  1  0.91909100  0.45954600  0.25000000  1
  Ni  Ni6  1  0.54045400  0.45954600  0.25000000  1
  Ni  Ni7  1  0.45954600  0.91909100  0.75000000  1
  Ni  Ni8  1  0.59260500  0.79630300  0.44460000  1
  Ni  Ni9  1  0.40739500  0.20369700  0.94460000  1
  Ni  Ni10  1  0.79630300  0.59260500  0.55540000  1
  Ni  Ni11  1  0.79630300  0.20369700  0.94460000  1
  Ni  Ni12  1  0.79630300  0.59260500  0.94460000  1
  Ni  Ni13  1  0.20369700  0.79630300  0.05540000  1
  Ni  Ni14  1  0.59260500  0.79630300  0.05540000  1
  Ni  Ni15  1  0.40739500  0.20369700  0.55540000  1
  Ni  Ni16  1  0.79630300  0.20369700  0.55540000  1
  Ni  Ni17  1  0.20369700  0.40739500  0.05540000  1
  C  C18  1  0.66666700  0.33333300  0.75000000  1
  C  C19  1  0.33333300  0.66666700  0.25000000  1
  Cu  Cu20  1  0.00000000  0.00000000  0.50000000  1
  Cu  Cu21  1  0.00000000  0.00000000  0.00000000  1
  Cu  Cu22  1  0.11119900  0.22239800  0.75000000  1
  Cu  Cu23  1  0.88880100  0.11119900  0.25000000  1
  Cu  Cu24  1  0.22239800  0.11119900  0.25000000  1
  Cu  Cu25  1  0.77760200  0.88880100  0.75000000  1
  Cu  Cu26  1  0.11119900  0.88880100  0.75000000  1
  Cu  Cu27  1  0.88880100  0.77760200  0.25000000  1
