# generated using pymatgen
data_CuNi2C11
_symmetry_space_group_name_H-M   'P 1'
_cell_length_a   3.91400100
_cell_length_b   3.91400700
_cell_length_c   12.10007400
_cell_angle_alpha   90.00003831
_cell_angle_beta   89.99998063
_cell_angle_gamma   90.00002928
_symmetry_Int_Tables_number   1
_chemical_formula_structural   CuNi2C11
_chemical_formula_sum   'Cu1 Ni2 C11'
_cell_volume   185.36620411
_cell_formula_units_Z   1
loop_
 _symmetry_equiv_pos_site_id
 _symmetry_equiv_pos_as_xyz
  1  'x, y, z'
loop_
 _atom_site_type_symbol
 _atom_site_label
 _atom_site_symmetry_multiplicity
 _atom_site_fract_x
 _atom_site_fract_y
 _atom_site_fract_z
 _atom_site_occupancy
  Ni  Ni0  1  0.49999900  0.50000000  0.16764500  1
  Ni  Ni1  1  0.49999900  0.50000000  0.83258400  1
  Cu  Cu2  1  0.50000100  0.50000000  0.49997400  1
  C  C3  1  0.00000000  0.00000100  0.33886400  1
  C  C4  1  0.00000000  0.00000000  0.00015100  1
  C  C5  1  0.00000000  0.99999900  0.66105200  1
  C  C6  1  0.00000000  0.50000100  0.38239600  1
  C  C7  1  0.50000000  0.00000100  0.38239600  1
  C  C8  1  0.50000100  0.00000000  0.00009900  1
  C  C9  1  0.99999900  0.00000000  0.19154400  1
  C  C10  1  0.00000000  0.50000000  0.61739800  1
  C  C11  1  0.50000100  0.99999900  0.61739800  1
  C  C12  1  0.99999900  0.00000000  0.80839800  1
  C  C13  1  0.00000100  0.50000000  0.00009900  1
