# generated using pymatgen
data_Cu3Ni3C46
_symmetry_space_group_name_H-M   'P 1'
_cell_length_a   14.07367159
_cell_length_b   14.07367159
_cell_length_c   7.31179100
_cell_angle_alpha   90.00000000
_cell_angle_beta   90.00000000
_cell_angle_gamma   119.99999806
_symmetry_Int_Tables_number   1
_chemical_formula_structural   Cu3Ni3C46
_chemical_formula_sum   'Cu6 Ni6 C92'
_cell_volume   1254.20703976
_cell_formula_units_Z   2
loop_
 _symmetry_equiv_pos_site_id
 _symmetry_equiv_pos_as_xyz
  1  'x, y, z'
loop_
 _atom_site_type_symbol
 _atom_site_label
 _atom_site_symmetry_multiplicity
 _atom_site_fract_x
 _atom_site_fract_y
 _atom_site_fract_z
 _atom_site_occupancy
  C  C0  1  0.33333300  0.66666700  0.75000000  1
  C  C1  1  0.66666700  0.33333300  0.25000000  1
  C  C2  1  0.36245400  0.86917400  0.54122400  1
  C  C3  1  0.13082600  0.49328000  0.54122400  1
  C  C4  1  0.50672000  0.63754600  0.54122400  1
  C  C5  1  0.63754600  0.13082600  0.04122400  1
  C  C6  1  0.86917400  0.50672000  0.04122400  1
  C  C7  1  0.49328000  0.36245400  0.04122400  1
  C  C8  1  0.63754600  0.13082600  0.45877600  1
  C  C9  1  0.86917400  0.50672000  0.45877600  1
  C  C10  1  0.49328000  0.36245400  0.45877600  1
  C  C11  1  0.36245400  0.86917400  0.95877600  1
  C  C12  1  0.13082600  0.49328000  0.95877600  1
  C  C13  1  0.50672000  0.63754600  0.95877600  1
  C  C14  1  0.27594600  0.76777500  0.42583300  1
  C  C15  1  0.23222500  0.50817100  0.42583300  1
  C  C16  1  0.49182900  0.72405400  0.42583300  1
  C  C17  1  0.72405400  0.23222500  0.92583300  1
  C  C18  1  0.76777500  0.49182900  0.92583300  1
  C  C19  1  0.50817100  0.27594600  0.92583300  1
  C  C20  1  0.72405400  0.23222500  0.57416700  1
  C  C21  1  0.76777500  0.49182900  0.57416700  1
  C  C22  1  0.50817100  0.27594600  0.57416700  1
  C  C23  1  0.27594600  0.76777500  0.07416700  1
  C  C24  1  0.23222500  0.50817100  0.07416700  1
  C  C25  1  0.49182900  0.72405400  0.07416700  1
  C  C26  1  0.09791800  0.64498100  0.64099500  1
  C  C27  1  0.35501900  0.45293700  0.64099500  1
  C  C28  1  0.54706300  0.90208200  0.64099500  1
  C  C29  1  0.90208200  0.35501900  0.14099500  1
  C  C30  1  0.64498100  0.54706300  0.14099500  1
  C  C31  1  0.45293700  0.09791800  0.14099500  1
  C  C32  1  0.90208200  0.35501900  0.35900500  1
  C  C33  1  0.64498100  0.54706300  0.35900500  1
  C  C34  1  0.45293700  0.09791800  0.35900500  1
  C  C35  1  0.09791800  0.64498100  0.85900500  1
  C  C36  1  0.35501900  0.45293700  0.85900500  1
  C  C37  1  0.54706300  0.90208200  0.85900500  1
  Ni  Ni38  1  0.23183500  0.00874300  0.75000000  1
  Ni  Ni39  1  0.99125700  0.22309200  0.75000000  1
  Ni  Ni40  1  0.77690800  0.76816500  0.75000000  1
  Ni  Ni41  1  0.76816500  0.99125700  0.25000000  1
  Ni  Ni42  1  0.00874300  0.77690800  0.25000000  1
  Ni  Ni43  1  0.22309200  0.23183500  0.25000000  1
  Cu  Cu44  1  0.38235700  0.05901900  0.75000000  1
  Cu  Cu45  1  0.94098100  0.32333800  0.75000000  1
  Cu  Cu46  1  0.67666200  0.61764300  0.75000000  1
  Cu  Cu47  1  0.61764300  0.94098100  0.25000000  1
  Cu  Cu48  1  0.05901900  0.67666200  0.25000000  1
  Cu  Cu49  1  0.32333800  0.38235700  0.25000000  1
  C  C50  1  0.34069400  0.79328000  0.50598200  1
  C  C51  1  0.20672000  0.54741400  0.50598200  1
  C  C52  1  0.45258600  0.65930600  0.50598200  1
  C  C53  1  0.65930600  0.20672000  0.00598200  1
  C  C54  1  0.79328000  0.45258600  0.00598200  1
  C  C55  1  0.54741400  0.34069400  0.00598200  1
  C  C56  1  0.65930600  0.20672000  0.49401800  1
  C  C57  1  0.79328000  0.45258600  0.49401800  1
  C  C58  1  0.54741400  0.34069400  0.49401800  1
  C  C59  1  0.34069400  0.79328000  0.99401800  1
  C  C60  1  0.20672000  0.54741400  0.99401800  1
  C  C61  1  0.45258600  0.65930600  0.99401800  1
  C  C62  1  0.14325000  0.65641700  0.75000000  1
  C  C63  1  0.34358300  0.48683300  0.75000000  1
  C  C64  1  0.51316700  0.85675000  0.75000000  1
  C  C65  1  0.85675000  0.34358300  0.25000000  1
  C  C66  1  0.65641700  0.51316700  0.25000000  1
  C  C67  1  0.48683300  0.14325000  0.25000000  1
  C  C68  1  0.39943500  0.01350900  0.58097200  1
  C  C69  1  0.98649100  0.38592600  0.58097200  1
  C  C70  1  0.61407400  0.60056500  0.58097200  1
  C  C71  1  0.60056500  0.98649100  0.08097200  1
  C  C72  1  0.01350900  0.61407400  0.08097200  1
  C  C73  1  0.38592600  0.39943500  0.08097200  1
  C  C74  1  0.60056500  0.98649100  0.41902800  1
  C  C75  1  0.01350900  0.61407400  0.41902800  1
  C  C76  1  0.38592600  0.39943500  0.41902800  1
  C  C77  1  0.39943500  0.01350900  0.91902800  1
  C  C78  1  0.98649100  0.38592600  0.91902800  1
  C  C79  1  0.61407400  0.60056500  0.91902800  1
  C  C80  1  0.43416700  0.17881000  0.75000000  1
  C  C81  1  0.82119000  0.25535700  0.75000000  1
  C  C82  1  0.74464300  0.56583300  0.75000000  1
  C  C83  1  0.56583300  0.82119000  0.25000000  1
  C  C84  1  0.17881000  0.74464300  0.25000000  1
  C  C85  1  0.25535700  0.43416700  0.25000000  1
  C  C86  1  0.17606900  0.89760900  0.75000000  1
  C  C87  1  0.10239100  0.27846000  0.75000000  1
  C  C88  1  0.72154000  0.82393100  0.75000000  1
  C  C89  1  0.82393100  0.10239100  0.25000000  1
  C  C90  1  0.89760900  0.72154000  0.25000000  1
  C  C91  1  0.27846000  0.17606900  0.25000000  1
  C  C92  1  0.20384500  0.04484400  0.59957900  1
  C  C93  1  0.95515600  0.15900100  0.59957900  1
  C  C94  1  0.84099900  0.79615500  0.59957900  1
  C  C95  1  0.79615500  0.95515600  0.09957900  1
  C  C96  1  0.04484400  0.84099900  0.09957900  1
  C  C97  1  0.15900100  0.20384500  0.09957900  1
  C  C98  1  0.79615500  0.95515600  0.40042100  1
  C  C99  1  0.04484400  0.84099900  0.40042100  1
  C  C100  1  0.15900100  0.20384500  0.40042100  1
  C  C101  1  0.20384500  0.04484400  0.90042100  1
  C  C102  1  0.95515600  0.15900100  0.90042100  1
  C  C103  1  0.84099900  0.79615500  0.90042100  1
