# generated using pymatgen
data_Cu(Ni3C14)2
_symmetry_space_group_name_H-M   'P 1'
_cell_length_a   12.08424134
_cell_length_b   12.08424134
_cell_length_c   12.08424134
_cell_angle_alpha   60.00000000
_cell_angle_beta   60.00000000
_cell_angle_gamma   60.00000000
_symmetry_Int_Tables_number   1
_chemical_formula_structural   Cu(Ni3C14)2
_chemical_formula_sum   'Cu1 Ni6 C28'
_cell_volume   1247.79480499
_cell_formula_units_Z   1
loop_
 _symmetry_equiv_pos_site_id
 _symmetry_equiv_pos_as_xyz
  1  'x, y, z'
loop_
 _atom_site_type_symbol
 _atom_site_label
 _atom_site_symmetry_multiplicity
 _atom_site_fract_x
 _atom_site_fract_y
 _atom_site_fract_z
 _atom_site_occupancy
  C  C0  1  0.35961800  0.35961800  0.35961800  1
  C  C1  1  0.64038200  0.64038200  0.64038200  1
  C  C2  1  0.35961800  0.35961800  0.92114700  1
  C  C3  1  0.35961800  0.92114700  0.35961800  1
  C  C4  1  0.64038200  0.64038200  0.07885300  1
  C  C5  1  0.64038200  0.07885300  0.64038200  1
  C  C6  1  0.92114700  0.35961800  0.35961800  1
  C  C7  1  0.07885300  0.64038200  0.64038200  1
  Ni  Ni8  1  0.85729400  0.14270600  0.14270600  1
  Ni  Ni9  1  0.14270600  0.85729400  0.85729400  1
  Ni  Ni10  1  0.14270600  0.85729400  0.14270600  1
  Ni  Ni11  1  0.85729400  0.14270600  0.85729400  1
  Ni  Ni12  1  0.14270600  0.14270600  0.85729400  1
  Ni  Ni13  1  0.85729400  0.85729400  0.14270600  1
  Cu  Cu14  1  0.00000000  0.00000000  0.00000000  1
  C  C15  1  0.32344200  0.00000000  0.00000000  1
  C  C16  1  0.67655800  0.00000000  0.00000000  1
  C  C17  1  0.00000000  0.32344200  0.67655800  1
  C  C18  1  0.00000000  0.67655800  0.32344200  1
  C  C19  1  0.00000000  0.32344200  0.00000000  1
  C  C20  1  0.67655800  0.00000000  0.32344200  1
  C  C21  1  0.00000000  0.67655800  0.00000000  1
  C  C22  1  0.32344200  0.00000000  0.67655800  1
  C  C23  1  0.00000000  0.00000000  0.32344200  1
  C  C24  1  0.00000000  0.00000000  0.67655800  1
  C  C25  1  0.67655800  0.32344200  0.00000000  1
  C  C26  1  0.32344200  0.67655800  0.00000000  1
  C  C27  1  0.68518500  0.31481500  0.31481500  1
  C  C28  1  0.31481500  0.68518500  0.68518500  1
  C  C29  1  0.31481500  0.68518500  0.31481500  1
  C  C30  1  0.68518500  0.31481500  0.68518500  1
  C  C31  1  0.31481500  0.31481500  0.68518500  1
  C  C32  1  0.68518500  0.68518500  0.31481500  1
  C  C33  1  0.25000000  0.25000000  0.25000000  1
  C  C34  1  0.75000000  0.75000000  0.75000000  1
