# generated using pymatgen
data_Cu19Ni5C7
_symmetry_space_group_name_H-M   'P 1'
_cell_length_a   5.45054841
_cell_length_b   5.36651492
_cell_length_c   15.58231846
_cell_angle_alpha   89.85365017
_cell_angle_beta   99.76418078
_cell_angle_gamma   88.57727176
_symmetry_Int_Tables_number   1
_chemical_formula_structural   Cu19Ni5C7
_chemical_formula_sum   'Cu19 Ni5 C7'
_cell_volume   449.03823510
_cell_formula_units_Z   1
loop_
 _symmetry_equiv_pos_site_id
 _symmetry_equiv_pos_as_xyz
  1  'x, y, z'
loop_
 _atom_site_type_symbol
 _atom_site_label
 _atom_site_symmetry_multiplicity
 _atom_site_fract_x
 _atom_site_fract_y
 _atom_site_fract_z
 _atom_site_occupancy
  C  C0  1  0.16783600  0.27544800  0.84129000  1
  C  C1  1  0.04414300  0.97006300  0.01715700  1
  C  C2  1  0.11918100  0.47085400  0.33055200  1
  C  C3  1  0.31805000  0.99178100  0.65212400  1
  C  C4  1  0.55290900  0.45600200  0.01371400  1
  C  C5  1  0.64958000  0.99003700  0.33408300  1
  C  C6  1  0.80242200  0.44632700  0.64891600  1
  Ni  Ni7  1  0.03557900  0.23288000  0.64219300  1
  Ni  Ni8  1  0.54654800  0.27328700  0.64310500  1
  Ni  Ni9  1  0.73981600  0.22095100  0.99156100  1
  Ni  Ni10  1  0.28236500  0.77595800  0.02480100  1
  Ni  Ni11  1  0.87654400  0.29159000  0.31636100  1
  Cu  Cu12  1  0.23376700  0.26894300  0.00215800  1
  Cu  Cu13  1  0.11191900  0.73371000  0.67668600  1
  Cu  Cu14  1  0.05738800  0.05474900  0.12650200  1
  Cu  Cu15  1  0.23603800  0.43064100  0.44272100  1
  Cu  Cu16  1  0.36379400  0.07670500  0.77483200  1
  Cu  Cu17  1  0.11814700  0.58826000  0.22404700  1
  Cu  Cu18  1  0.28123300  0.94253100  0.53995200  1
  Cu  Cu19  1  0.40020600  0.52269300  0.89091800  1
  Cu  Cu20  1  0.35478100  0.21519900  0.30743300  1
  Cu  Cu21  1  0.45912500  0.71834700  0.35033100  1
  Cu  Cu22  1  0.60490400  0.77056000  0.67947100  1
  Cu  Cu23  1  0.57786600  0.47442400  0.12978900  1
  Cu  Cu24  1  0.70261200  0.08783700  0.44364300  1
  Cu  Cu25  1  0.88814300  0.44883800  0.77573400  1
  Cu  Cu26  1  0.64032300  0.94855800  0.22107600  1
  Cu  Cu27  1  0.76516400  0.58261400  0.54408900  1
  Cu  Cu28  1  0.00637300  0.99828000  0.89232100  1
  Cu  Cu29  1  0.79818400  0.72967200  0.01106700  1
  Cu  Cu30  1  0.95553400  0.77475900  0.35810200  1
