# generated using pymatgen
data_Cu2NiC11
_symmetry_space_group_name_H-M   'P 1'
_cell_length_a   12.82913280
_cell_length_b   12.82913280
_cell_length_c   12.82913280
_cell_angle_alpha   154.47350263
_cell_angle_beta   154.47350263
_cell_angle_gamma   36.41174059
_symmetry_Int_Tables_number   1
_chemical_formula_structural   Cu2NiC11
_chemical_formula_sum   'Cu4 Ni2 C22'
_cell_volume   391.58838258
_cell_formula_units_Z   2
loop_
 _symmetry_equiv_pos_site_id
 _symmetry_equiv_pos_as_xyz
  1  'x, y, z'
loop_
 _atom_site_type_symbol
 _atom_site_label
 _atom_site_symmetry_multiplicity
 _atom_site_fract_x
 _atom_site_fract_y
 _atom_site_fract_z
 _atom_site_occupancy
  C  C0  1  0.59769300  0.09769300  0.50000000  1
  C  C1  1  0.40230700  0.90230700  0.50000000  1
  C  C2  1  0.09769300  0.59769300  0.50000000  1
  C  C3  1  0.90230700  0.40230700  0.50000000  1
  C  C4  1  0.75000000  0.25000000  0.50000000  1
  C  C5  1  0.25000000  0.75000000  0.50000000  1
  Ni  Ni6  1  0.00000000  0.00000000  0.00000000  1
  Ni  Ni7  1  0.50000000  0.50000000  0.00000000  1
  Cu  Cu8  1  0.17799200  0.17799200  0.00000000  1
  Cu  Cu9  1  0.82200800  0.82200800  0.00000000  1
  Cu  Cu10  1  0.32200800  0.32200800  0.00000000  1
  Cu  Cu11  1  0.67799200  0.67799200  0.00000000  1
  C  C12  1  0.08167600  0.08167600  0.00000000  1
  C  C13  1  0.91832400  0.91832400  0.00000000  1
  C  C14  1  0.41832400  0.41832400  0.00000000  1
  C  C15  1  0.58167600  0.58167600  0.00000000  1
  C  C16  1  0.43477500  0.93477500  0.99817500  1
  C  C17  1  0.56522500  0.06522500  0.00182500  1
  C  C18  1  0.93660000  0.43660000  0.00182500  1
  C  C19  1  0.93477500  0.93660000  0.50000000  1
  C  C20  1  0.56340000  0.56522500  0.50000000  1
  C  C21  1  0.06340000  0.56340000  0.99817500  1
  C  C22  1  0.06522500  0.06340000  0.50000000  1
  C  C23  1  0.43660000  0.43477500  0.50000000  1
  C  C24  1  0.72193600  0.22193600  0.94387100  1
  C  C25  1  0.27806400  0.77806400  0.05612900  1
  C  C26  1  0.22193600  0.27806400  0.50000000  1
  C  C27  1  0.77806400  0.72193600  0.50000000  1
