# generated using pymatgen
data_Cu3Ni3C34
_symmetry_space_group_name_H-M   'P 1'
_cell_length_a   8.48974800
_cell_length_b   8.57207245
_cell_length_c   8.59201541
_cell_angle_alpha   62.87410692
_cell_angle_beta   63.09012162
_cell_angle_gamma   64.01453942
_symmetry_Int_Tables_number   1
_chemical_formula_structural   Cu3Ni3C34
_chemical_formula_sum   'Cu3 Ni3 C34'
_cell_volume   474.61051688
_cell_formula_units_Z   1
loop_
 _symmetry_equiv_pos_site_id
 _symmetry_equiv_pos_as_xyz
  1  'x, y, z'
loop_
 _atom_site_type_symbol
 _atom_site_label
 _atom_site_symmetry_multiplicity
 _atom_site_fract_x
 _atom_site_fract_y
 _atom_site_fract_z
 _atom_site_occupancy
  C  C0  1  0.84930200  0.25999300  0.64379600  1
  C  C1  1  0.14842500  0.73131400  0.34471800  1
  C  C2  1  0.73472800  0.35092100  0.14372500  1
  C  C3  1  0.35057300  0.14276500  0.73444000  1
  Ni  Ni4  1  0.64681100  0.64683300  0.64904200  1
  Ni  Ni5  1  0.85525900  0.85197900  0.85033800  1
  Ni  Ni6  1  0.34490700  0.34811900  0.34739500  1
  Cu  Cu7  1  0.99610000  0.99200500  0.00631900  1
  Cu  Cu8  1  0.15361300  0.15214500  0.14901000  1
  Cu  Cu9  1  0.49677000  0.50926500  0.49985900  1
  C  C10  1  0.24876600  0.94028500  0.55734900  1
  C  C11  1  0.94787200  0.55697900  0.24309600  1
  C  C12  1  0.56052900  0.24999900  0.94999300  1
  C  C13  1  0.45059100  0.75670100  0.04640600  1
  C  C14  1  0.04896500  0.43675000  0.75025400  1
  C  C15  1  0.75381600  0.05950900  0.45360000  1
  C  C16  1  0.09624100  0.54625500  0.30712800  1
  C  C17  1  0.53712700  0.32240900  0.09523100  1
  C  C18  1  0.31382100  0.08935900  0.54406500  1
  C  C19  1  0.08191800  0.92937600  0.74485900  1
  C  C20  1  0.18230300  0.99971100  0.39257700  1
  C  C21  1  0.39162300  0.75061400  0.56794800  1
  C  C22  1  0.92643000  0.74509900  0.08506500  1
  C  C23  1  0.76290300  0.54694800  0.40140500  1
  C  C24  1  0.60827100  0.83116400  0.99617900  1
  C  C25  1  0.57457600  0.38919300  0.75216500  1
  C  C26  1  0.25313400  0.90965900  0.07168600  1
  C  C27  1  0.98404300  0.60255000  0.80908400  1
  C  C28  1  0.00723300  0.39336500  0.17617400  1
  C  C29  1  0.75517100  0.10236300  0.92915700  1
  C  C30  1  0.43096900  0.61084400  0.24393700  1
  C  C31  1  0.39816500  0.17864900  0.00515300  1
  C  C32  1  0.24616600  0.42610400  0.60159100  1
  C  C33  1  0.07913800  0.24570000  0.91113300  1
  C  C34  1  0.60383600  0.25195500  0.42592500  1
  C  C35  1  0.81509300  0.03934300  0.60808500  1
  C  C36  1  0.90900900  0.07840700  0.25683800  1
  C  C37  1  0.69412700  0.89839900  0.49767500  1
  C  C38  1  0.47656400  0.68938700  0.89947400  1
  C  C39  1  0.90811200  0.43758300  0.68512700  1
