# generated using pymatgen
data_Cu4Ni3C7
_symmetry_space_group_name_H-M   'P 1'
_cell_length_a   6.49506800
_cell_length_b   9.83771500
_cell_length_c   15.43396700
_cell_angle_alpha   90.00000000
_cell_angle_beta   90.00000000
_cell_angle_gamma   90.00000000
_symmetry_Int_Tables_number   1
_chemical_formula_structural   Cu4Ni3C7
_chemical_formula_sum   'Cu16 Ni12 C28'
_cell_volume   986.17844626
_cell_formula_units_Z   4
loop_
 _symmetry_equiv_pos_site_id
 _symmetry_equiv_pos_as_xyz
  1  'x, y, z'
loop_
 _atom_site_type_symbol
 _atom_site_label
 _atom_site_symmetry_multiplicity
 _atom_site_fract_x
 _atom_site_fract_y
 _atom_site_fract_z
 _atom_site_occupancy
  C  C0  1  0.50000000  0.44787300  0.82980100  1
  C  C1  1  0.50000000  0.55212700  0.17019900  1
  C  C2  1  0.00000000  0.05212700  0.32980100  1
  C  C3  1  0.00000000  0.94787300  0.67019900  1
  C  C4  1  0.50000000  0.23342300  0.97328700  1
  C  C5  1  0.50000000  0.76657700  0.02671300  1
  C  C6  1  0.00000000  0.26657700  0.47328700  1
  C  C7  1  0.00000000  0.73342300  0.52671300  1
  Ni  Ni8  1  0.00000000  0.61337600  0.91791300  1
  Ni  Ni9  1  0.00000000  0.38662400  0.08208700  1
  Ni  Ni10  1  0.50000000  0.88662400  0.41791300  1
  Ni  Ni11  1  0.50000000  0.11337600  0.58208700  1
  Ni  Ni12  1  0.50000000  0.16259300  0.21680100  1
  Ni  Ni13  1  0.50000000  0.83740700  0.78319900  1
  Ni  Ni14  1  0.00000000  0.33740700  0.71680100  1
  Ni  Ni15  1  0.00000000  0.66259300  0.28319900  1
  Ni  Ni16  1  0.00000000  0.93665800  0.10483100  1
  Ni  Ni17  1  0.00000000  0.06334200  0.89516900  1
  Ni  Ni18  1  0.50000000  0.56334200  0.60483100  1
  Ni  Ni19  1  0.50000000  0.43665800  0.39516900  1
  Cu  Cu20  1  0.69063000  0.35648700  0.91102600  1
  Cu  Cu21  1  0.69063000  0.64351300  0.08897400  1
  Cu  Cu22  1  0.80937000  0.14351300  0.41102600  1
  Cu  Cu23  1  0.80937000  0.85648700  0.58897400  1
  Cu  Cu24  1  0.30937000  0.64351300  0.08897400  1
  Cu  Cu25  1  0.30937000  0.35648700  0.91102600  1
  Cu  Cu26  1  0.19063000  0.85648700  0.58897400  1
  Cu  Cu27  1  0.19063000  0.14351300  0.41102600  1
  Cu  Cu28  1  0.50000000  0.32397800  0.75205600  1
  Cu  Cu29  1  0.50000000  0.67602200  0.24794400  1
  Cu  Cu30  1  0.00000000  0.17602200  0.25205600  1
  Cu  Cu31  1  0.00000000  0.82397800  0.74794400  1
  Cu  Cu32  1  0.50000000  0.10614300  0.89781300  1
  Cu  Cu33  1  0.50000000  0.89385700  0.10218700  1
  Cu  Cu34  1  0.00000000  0.39385700  0.39781300  1
  Cu  Cu35  1  0.00000000  0.60614300  0.60218700  1
  C  C36  1  0.71731100  0.55615000  0.78557600  1
  C  C37  1  0.71731100  0.44385000  0.21442400  1
  C  C38  1  0.78268900  0.94385000  0.28557600  1
  C  C39  1  0.78268900  0.05615000  0.71442400  1
  C  C40  1  0.28268900  0.44385000  0.21442400  1
  C  C41  1  0.28268900  0.55615000  0.78557600  1
  C  C42  1  0.21731100  0.05615000  0.71442400  1
  C  C43  1  0.21731100  0.94385000  0.28557600  1
  C  C44  1  0.28107800  0.16831200  0.04304500  1
  C  C45  1  0.28107800  0.83168800  0.95695500  1
  C  C46  1  0.21892200  0.33168800  0.54304500  1
  C  C47  1  0.21892200  0.66831200  0.45695500  1
  C  C48  1  0.71892200  0.83168800  0.95695500  1
  C  C49  1  0.71892200  0.16831200  0.04304500  1
  C  C50  1  0.78107800  0.66831200  0.45695500  1
  C  C51  1  0.78107800  0.33168800  0.54304500  1
  C  C52  1  0.50000000  0.39475800  0.06985600  1
  C  C53  1  0.50000000  0.60524200  0.93014400  1
  C  C54  1  0.00000000  0.10524200  0.56985600  1
  C  C55  1  0.00000000  0.89475800  0.43014400  1
