# generated using pymatgen
data_Cu(NiC)2
_symmetry_space_group_name_H-M   'P 1'
_cell_length_a   19.34724200
_cell_length_b   6.68257200
_cell_length_c   10.33492218
_cell_angle_alpha   64.99415718
_cell_angle_beta   90.00000000
_cell_angle_gamma   90.00000000
_symmetry_Int_Tables_number   1
_chemical_formula_structural   Cu(NiC)2
_chemical_formula_sum   'Cu8 Ni16 C16'
_cell_volume   1210.94656222
_cell_formula_units_Z   8
loop_
 _symmetry_equiv_pos_site_id
 _symmetry_equiv_pos_as_xyz
  1  'x, y, z'
loop_
 _atom_site_type_symbol
 _atom_site_label
 _atom_site_symmetry_multiplicity
 _atom_site_fract_x
 _atom_site_fract_y
 _atom_site_fract_z
 _atom_site_occupancy
  C  C0  1  0.30993400  0.04254900  0.95230300  1
  C  C1  1  0.19006600  0.04254900  0.45230300  1
  C  C2  1  0.69006600  0.95745100  0.04769700  1
  C  C3  1  0.80993400  0.95745100  0.54769700  1
  C  C4  1  0.50468900  0.78589600  0.42957600  1
  C  C5  1  0.99531100  0.78589600  0.92957600  1
  C  C6  1  0.49531100  0.21410400  0.57042400  1
  C  C7  1  0.00468900  0.21410400  0.07042400  1
  C  C8  1  0.44090000  0.17144200  0.34828900  1
  C  C9  1  0.05910000  0.17144200  0.84828900  1
  C  C10  1  0.55910000  0.82855800  0.65171100  1
  C  C11  1  0.94090000  0.82855800  0.15171100  1
  C  C12  1  0.57847800  0.14093500  0.39171500  1
  C  C13  1  0.92152200  0.14093500  0.89171500  1
  C  C14  1  0.42152200  0.85906500  0.60828500  1
  C  C15  1  0.07847800  0.85906500  0.10828500  1
  Ni  Ni16  1  0.52268200  0.09531700  0.18100900  1
  Ni  Ni17  1  0.97731800  0.09531700  0.68100900  1
  Ni  Ni18  1  0.47731800  0.90468300  0.81899100  1
  Ni  Ni19  1  0.02268200  0.90468300  0.31899100  1
  Ni  Ni20  1  0.37498100  0.82127200  0.38872300  1
  Ni  Ni21  1  0.12501900  0.82127200  0.88872300  1
  Ni  Ni22  1  0.62501900  0.17872800  0.61127700  1
  Ni  Ni23  1  0.87498100  0.17872800  0.11127700  1
  Ni  Ni24  1  0.63441800  0.76309000  0.47081900  1
  Ni  Ni25  1  0.86558200  0.76309000  0.97081900  1
  Ni  Ni26  1  0.36558200  0.23691000  0.52918100  1
  Ni  Ni27  1  0.13441800  0.23691000  0.02918100  1
  Ni  Ni28  1  0.48512600  0.48913900  0.69691700  1
  Ni  Ni29  1  0.01487400  0.48913900  0.19691700  1
  Ni  Ni30  1  0.51487400  0.51086100  0.30308300  1
  Ni  Ni31  1  0.98512600  0.51086100  0.80308300  1
  Cu  Cu32  1  0.35765500  0.39860700  0.14130500  1
  Cu  Cu33  1  0.14234500  0.39860700  0.64130500  1
  Cu  Cu34  1  0.64234500  0.60139300  0.85869500  1
  Cu  Cu35  1  0.85765500  0.60139300  0.35869500  1
  Cu  Cu36  1  0.69093700  0.32129900  0.25034800  1
  Cu  Cu37  1  0.80906300  0.32129900  0.75034800  1
  Cu  Cu38  1  0.30906300  0.67870100  0.74965200  1
  Cu  Cu39  1  0.19093700  0.67870100  0.24965200  1
