# generated using pymatgen
data_Cu9Ni3C19
_symmetry_space_group_name_H-M   'P 1'
_cell_length_a   9.62718419
_cell_length_b   9.62718419
_cell_length_c   9.62718475
_cell_angle_alpha   110.00856101
_cell_angle_beta   110.00856101
_cell_angle_gamma   110.00855841
_symmetry_Int_Tables_number   1
_chemical_formula_structural   Cu9Ni3C19
_chemical_formula_sum   'Cu18 Ni6 C38'
_cell_volume   672.86065457
_cell_formula_units_Z   2
loop_
 _symmetry_equiv_pos_site_id
 _symmetry_equiv_pos_as_xyz
  1  'x, y, z'
loop_
 _atom_site_type_symbol
 _atom_site_label
 _atom_site_symmetry_multiplicity
 _atom_site_fract_x
 _atom_site_fract_y
 _atom_site_fract_z
 _atom_site_occupancy
  Ni  Ni0  1  0.74888500  0.41738100  0.08371500  1
  Ni  Ni1  1  0.41738100  0.08371500  0.74888500  1
  Ni  Ni2  1  0.08371500  0.74888500  0.41738100  1
  Ni  Ni3  1  0.91628500  0.25111500  0.58261900  1
  Ni  Ni4  1  0.58261900  0.91628500  0.25111500  1
  Ni  Ni5  1  0.25111500  0.58261900  0.91628500  1
  C  C6  1  0.74999900  0.74999900  0.74999900  1
  C  C7  1  0.25000100  0.25000100  0.25000100  1
  Cu  Cu8  1  0.88114300  0.51588200  0.85273300  1
  Cu  Cu9  1  0.21192400  0.85054000  0.18161900  1
  Cu  Cu10  1  0.54971100  0.18723600  0.51923100  1
  Cu  Cu11  1  0.18161900  0.21192400  0.85054000  1
  Cu  Cu12  1  0.51923100  0.54971100  0.18723600  1
  Cu  Cu13  1  0.85273300  0.88114300  0.51588200  1
  Cu  Cu14  1  0.18723600  0.51923100  0.54971100  1
  Cu  Cu15  1  0.51588200  0.85273300  0.88114300  1
  Cu  Cu16  1  0.85054000  0.18161900  0.21192400  1
  Cu  Cu17  1  0.45028900  0.81276400  0.48076900  1
  Cu  Cu18  1  0.78807600  0.14946000  0.81838100  1
  Cu  Cu19  1  0.11885700  0.48411800  0.14726700  1
  Cu  Cu20  1  0.14726700  0.11885700  0.48411800  1
  Cu  Cu21  1  0.48076900  0.45028900  0.81276400  1
  Cu  Cu22  1  0.81838100  0.78807600  0.14946000  1
  Cu  Cu23  1  0.14946000  0.81838100  0.78807600  1
  Cu  Cu24  1  0.48411800  0.14726700  0.11885700  1
  Cu  Cu25  1  0.81276400  0.48076900  0.45028900  1
  C  C26  1  0.85462800  0.39796300  0.99607700  1
  C  C27  1  0.52449500  0.06606200  0.66260300  1
  C  C28  1  0.18845200  0.73164200  0.32829000  1
  C  C29  1  0.66260300  0.52449500  0.06606200  1
  C  C30  1  0.32829000  0.18845200  0.73164200  1
  C  C31  1  0.99607700  0.85462800  0.39796300  1
  C  C32  1  0.73164200  0.32829000  0.18845200  1
  C  C33  1  0.39796300  0.99607700  0.85462800  1
  C  C34  1  0.06606200  0.66260300  0.52449500  1
  C  C35  1  0.81154800  0.26835800  0.67171000  1
  C  C36  1  0.47550500  0.93393800  0.33739700  1
  C  C37  1  0.14537200  0.60203700  0.00392300  1
  C  C38  1  0.00392300  0.14537200  0.60203700  1
  C  C39  1  0.67171000  0.81154800  0.26835800  1
  C  C40  1  0.33739700  0.47550500  0.93393800  1
  C  C41  1  0.93393800  0.33739700  0.47550500  1
  C  C42  1  0.60203700  0.00392300  0.14537200  1
  C  C43  1  0.26835800  0.67171000  0.81154800  1
  C  C44  1  0.97052300  0.04738300  0.24292100  1
  C  C45  1  0.62562500  0.70970700  0.91428700  1
  C  C46  1  0.29657200  0.37359000  0.56954500  1
  C  C47  1  0.56954500  0.29657200  0.37359000  1
  C  C48  1  0.24292100  0.97052300  0.04738300  1
  C  C49  1  0.91428700  0.62562500  0.70970700  1
  C  C50  1  0.70970700  0.91428700  0.62562500  1
  C  C51  1  0.37359000  0.56954500  0.29657200  1
  C  C52  1  0.04738300  0.24292100  0.97052300  1
  C  C53  1  0.70342800  0.62641000  0.43045500  1
  C  C54  1  0.37437500  0.29029300  0.08571300  1
  C  C55  1  0.02947700  0.95261700  0.75707900  1
  C  C56  1  0.08571300  0.37437500  0.29029300  1
  C  C57  1  0.75707900  0.02947700  0.95261700  1
  C  C58  1  0.43045500  0.70342800  0.62641000  1
  C  C59  1  0.95261700  0.75707900  0.02947700  1
  C  C60  1  0.62641000  0.43045500  0.70342800  1
  C  C61  1  0.29029300  0.08571300  0.37437500  1
