# generated using pymatgen
data_Cu(NiC2)2
_symmetry_space_group_name_H-M   'P 1'
_cell_length_a   5.14286400
_cell_length_b   6.74391300
_cell_length_c   10.43549800
_cell_angle_alpha   90.00000000
_cell_angle_beta   90.00000000
_cell_angle_gamma   90.00000000
_symmetry_Int_Tables_number   1
_chemical_formula_structural   Cu(NiC2)2
_chemical_formula_sum   'Cu4 Ni8 C16'
_cell_volume   361.93466293
_cell_formula_units_Z   4
loop_
 _symmetry_equiv_pos_site_id
 _symmetry_equiv_pos_as_xyz
  1  'x, y, z'
loop_
 _atom_site_type_symbol
 _atom_site_label
 _atom_site_symmetry_multiplicity
 _atom_site_fract_x
 _atom_site_fract_y
 _atom_site_fract_z
 _atom_site_occupancy
  Ni  Ni0  1  0.67403400  0.99936700  0.65562600  1
  Ni  Ni1  1  0.82596600  0.50063300  0.15562600  1
  Ni  Ni2  1  0.32596600  0.49936700  0.34437400  1
  Ni  Ni3  1  0.17403400  0.00063300  0.84437400  1
  Ni  Ni4  1  0.32596600  0.00063300  0.34437400  1
  Ni  Ni5  1  0.17403400  0.49936700  0.84437400  1
  Ni  Ni6  1  0.67403400  0.50063300  0.65562600  1
  Ni  Ni7  1  0.82596600  0.99936700  0.15562600  1
  Cu  Cu8  1  0.17653400  0.25000000  0.59301800  1
  Cu  Cu9  1  0.32346600  0.25000000  0.09301800  1
  Cu  Cu10  1  0.82346600  0.75000000  0.40698200  1
  Cu  Cu11  1  0.67653400  0.75000000  0.90698200  1
  C  C12  1  0.85777900  0.25000000  0.61204500  1
  C  C13  1  0.64222100  0.25000000  0.11204500  1
  C  C14  1  0.14222100  0.75000000  0.38795500  1
  C  C15  1  0.35777900  0.75000000  0.88795500  1
  C  C16  1  0.23594000  0.25000000  0.94141800  1
  C  C17  1  0.26406000  0.25000000  0.44141800  1
  C  C18  1  0.76406000  0.75000000  0.05858200  1
  C  C19  1  0.73594000  0.75000000  0.55858200  1
  C  C20  1  0.29421400  0.05063100  0.66396400  1
  C  C21  1  0.20578600  0.44936900  0.16396400  1
  C  C22  1  0.70578600  0.55063100  0.33603600  1
  C  C23  1  0.79421400  0.94936900  0.83603600  1
  C  C24  1  0.70578600  0.94936900  0.33603600  1
  C  C25  1  0.79421400  0.55063100  0.83603600  1
  C  C26  1  0.29421400  0.44936900  0.66396400  1
  C  C27  1  0.20578600  0.05063100  0.16396400  1
