# generated using pymatgen
data_Cu(NiC5)4
_symmetry_space_group_name_H-M   'P 1'
_cell_length_a   8.83356508
_cell_length_b   8.83356508
_cell_length_c   6.84162570
_cell_angle_alpha   75.04614325
_cell_angle_beta   75.04614325
_cell_angle_gamma   36.89161878
_symmetry_Int_Tables_number   1
_chemical_formula_structural   Cu(NiC5)4
_chemical_formula_sum   'Cu1 Ni4 C20'
_cell_volume   308.39631841
_cell_formula_units_Z   1
loop_
 _symmetry_equiv_pos_site_id
 _symmetry_equiv_pos_as_xyz
  1  'x, y, z'
loop_
 _atom_site_type_symbol
 _atom_site_label
 _atom_site_symmetry_multiplicity
 _atom_site_fract_x
 _atom_site_fract_y
 _atom_site_fract_z
 _atom_site_occupancy
  Ni  Ni0  1  0.60045800  0.60045800  0.59977800  1
  Ni  Ni1  1  0.20034700  0.20034700  0.20013100  1
  Ni  Ni2  1  0.79965300  0.79965300  0.79986900  1
  Ni  Ni3  1  0.39954200  0.39954200  0.40022200  1
  Cu  Cu4  1  0.00000000  0.00000000  0.00000000  1
  C  C5  1  0.20068800  0.20068800  0.69821100  1
  C  C6  1  0.79931200  0.79931200  0.30178900  1
  C  C7  1  0.39907000  0.39907000  0.90031700  1
  C  C8  1  0.00000000  0.00000000  0.50000000  1
  C  C9  1  0.60093000  0.60093000  0.09968300  1
  C  C10  1  0.39364400  0.90103600  0.90151600  1
  C  C11  1  0.00000000  0.50000000  0.50000000  1
  C  C12  1  0.60635600  0.09896400  0.09848400  1
  C  C13  1  0.19720100  0.70456600  0.70460200  1
  C  C14  1  0.80279900  0.29543400  0.29539800  1
  C  C15  1  0.29990000  0.29990000  0.80077700  1
  C  C16  1  0.90168500  0.90168500  0.39414400  1
  C  C17  1  0.50000000  0.50000000  0.00000000  1
  C  C18  1  0.09831500  0.09831500  0.60585600  1
  C  C19  1  0.70010000  0.70010000  0.19922300  1
  C  C20  1  0.50000000  0.00000000  0.50000000  1
  C  C21  1  0.09896400  0.60635600  0.09848400  1
  C  C22  1  0.70456600  0.19720100  0.70460200  1
  C  C23  1  0.29543400  0.80279900  0.29539800  1
  C  C24  1  0.90103600  0.39364400  0.90151600  1
