# generated using pymatgen
data_Cu5(Ni2C3)2
_symmetry_space_group_name_H-M   'P 1'
_cell_length_a   17.46871964
_cell_length_b   17.46871964
_cell_length_c   17.46871913
_cell_angle_alpha   13.92651775
_cell_angle_beta   13.92651775
_cell_angle_gamma   13.92652057
_symmetry_Int_Tables_number   1
_chemical_formula_structural   Cu5(Ni2C3)2
_chemical_formula_sum   'Cu5 Ni4 C6'
_cell_volume   268.73046374
_cell_formula_units_Z   1
loop_
 _symmetry_equiv_pos_site_id
 _symmetry_equiv_pos_as_xyz
  1  'x, y, z'
loop_
 _atom_site_type_symbol
 _atom_site_label
 _atom_site_symmetry_multiplicity
 _atom_site_fract_x
 _atom_site_fract_y
 _atom_site_fract_z
 _atom_site_occupancy
  C  C0  1  0.95050900  0.95050900  0.95050900  1
  Ni  Ni1  1  0.35058500  0.35058500  0.35058500  1
  Ni  Ni2  1  0.75008900  0.75008900  0.75008900  1
  Ni  Ni3  1  0.14970600  0.14970600  0.14970600  1
  Ni  Ni4  1  0.54908400  0.54908400  0.54908400  1
  Cu  Cu5  1  0.00198800  0.00198800  0.00198800  1
  Cu  Cu6  1  0.40049900  0.40049900  0.40049900  1
  Cu  Cu7  1  0.79990300  0.79990300  0.79990300  1
  Cu  Cu8  1  0.19882800  0.19882800  0.19882800  1
  Cu  Cu9  1  0.59819300  0.59819300  0.59819300  1
  C  C10  1  0.65127300  0.65127300  0.65127300  1
  C  C11  1  0.24837300  0.24837300  0.24837300  1
  C  C12  1  0.84964900  0.84964900  0.84964900  1
  C  C13  1  0.05116600  0.05116600  0.05116600  1
  C  C14  1  0.45015400  0.45015400  0.45015400  1
