# generated using pymatgen
data_Cu14Ni2C9
_symmetry_space_group_name_H-M   'P 1'
_cell_length_a   9.27368937
_cell_length_b   10.90484996
_cell_length_c   3.96856148
_cell_angle_alpha   79.41574678
_cell_angle_beta   90.01147866
_cell_angle_gamma   89.15679120
_symmetry_Int_Tables_number   1
_chemical_formula_structural   Cu14Ni2C9
_chemical_formula_sum   'Cu14 Ni2 C9'
_cell_volume   394.46066121
_cell_formula_units_Z   1
loop_
 _symmetry_equiv_pos_site_id
 _symmetry_equiv_pos_as_xyz
  1  'x, y, z'
loop_
 _atom_site_type_symbol
 _atom_site_label
 _atom_site_symmetry_multiplicity
 _atom_site_fract_x
 _atom_site_fract_y
 _atom_site_fract_z
 _atom_site_occupancy
  C  C0  1  0.25101300  0.77057000  0.11080400  1
  C  C1  1  0.78160700  0.04257600  0.97731400  1
  C  C2  1  0.25140100  0.16445400  0.91761900  1
  C  C3  1  0.03526100  0.29761700  0.35001300  1
  C  C4  1  0.26085700  0.47721900  0.75941000  1
  C  C5  1  0.46482200  0.27478900  0.36169200  1
  C  C6  1  0.58097500  0.75414900  0.62001900  1
  C  C7  1  0.73526300  0.53823300  0.22856700  1
  C  C8  1  0.93276600  0.71493100  0.63956700  1
  Ni  Ni9  1  0.73161300  0.59770100  0.69854000  1
  Ni  Ni10  1  0.88672100  0.41432500  0.29110000  1
  Cu  Cu11  1  0.05343000  0.85262500  0.56917800  1
  Cu  Cu12  1  0.10070500  0.30149900  0.84806200  1
  Cu  Cu13  1  0.09743300  0.59473500  0.70018100  1
  Cu  Cu14  1  0.23638900  0.43105800  0.28270300  1
  Cu  Cu15  1  0.27168800  0.16510200  0.41726300  1
  Cu  Cu16  1  0.39509600  0.60040000  0.69729900  1
  Cu  Cu17  1  0.40707300  0.29802800  0.84995600  1
  Cu  Cu18  1  0.41548000  0.85823100  0.56646800  1
  Cu  Cu19  1  0.60451300  0.15433600  0.42207600  1
  Cu  Cu20  1  0.57107900  0.72206600  0.13592300  1
  Cu  Cu21  1  0.57256800  0.42865200  0.28396800  1
  Cu  Cu22  1  0.74278500  0.86223100  0.56604500  1
  Cu  Cu23  1  0.90276400  0.69654100  0.14877400  1
  Cu  Cu24  1  0.94139300  0.14595400  0.42582500  1
