# generated using pymatgen
data_Cu3NiC5
_symmetry_space_group_name_H-M   'P 1'
_cell_length_a   6.02208622
_cell_length_b   6.02208622
_cell_length_c   6.02208622
_cell_angle_alpha   60.00000000
_cell_angle_beta   60.00000000
_cell_angle_gamma   60.00000000
_symmetry_Int_Tables_number   1
_chemical_formula_structural   Cu3NiC5
_chemical_formula_sum   'Cu6 Ni2 C10'
_cell_volume   154.42795084
_cell_formula_units_Z   2
loop_
 _symmetry_equiv_pos_site_id
 _symmetry_equiv_pos_as_xyz
  1  'x, y, z'
loop_
 _atom_site_type_symbol
 _atom_site_label
 _atom_site_symmetry_multiplicity
 _atom_site_fract_x
 _atom_site_fract_y
 _atom_site_fract_z
 _atom_site_occupancy
  C  C0  1  0.50000000  0.50000000  0.50000000  1
  C  C1  1  0.00000000  0.00000000  0.00000000  1
  C  C2  1  0.81979800  0.81979800  0.81979800  1
  C  C3  1  0.54060700  0.81979800  0.81979800  1
  C  C4  1  0.81979800  0.54060700  0.81979800  1
  C  C5  1  0.81979800  0.81979800  0.54060700  1
  C  C6  1  0.18020200  0.18020200  0.18020200  1
  C  C7  1  0.45939300  0.18020200  0.18020200  1
  C  C8  1  0.18020200  0.45939300  0.18020200  1
  C  C9  1  0.18020200  0.18020200  0.45939300  1
  Ni  Ni10  1  0.75000000  0.75000000  0.75000000  1
  Ni  Ni11  1  0.25000000  0.25000000  0.25000000  1
  Cu  Cu12  1  0.78424900  0.21575100  0.21575100  1
  Cu  Cu13  1  0.78424900  0.78424900  0.21575100  1
  Cu  Cu14  1  0.21575100  0.78424900  0.21575100  1
  Cu  Cu15  1  0.21575100  0.21575100  0.78424900  1
  Cu  Cu16  1  0.78424900  0.21575100  0.78424900  1
  Cu  Cu17  1  0.21575100  0.78424900  0.78424900  1
