# generated using pymatgen
data_Cu2Ni2C7
_symmetry_space_group_name_H-M   'P 1'
_cell_length_a   6.72321800
_cell_length_b   6.72321800
_cell_length_c   5.47736348
_cell_angle_alpha   76.38456061
_cell_angle_beta   76.38456061
_cell_angle_gamma   72.02860437
_symmetry_Int_Tables_number   1
_chemical_formula_structural   Cu2Ni2C7
_chemical_formula_sum   'Cu2 Ni2 C7'
_cell_volume   225.31235865
_cell_formula_units_Z   1
loop_
 _symmetry_equiv_pos_site_id
 _symmetry_equiv_pos_as_xyz
  1  'x, y, z'
loop_
 _atom_site_type_symbol
 _atom_site_label
 _atom_site_symmetry_multiplicity
 _atom_site_fract_x
 _atom_site_fract_y
 _atom_site_fract_z
 _atom_site_occupancy
  C  C0  1  0.00000000  0.00000000  0.00000000  1
  Ni  Ni1  1  0.23518100  0.23518100  0.54706200  1
  Ni  Ni2  1  0.76481900  0.76481900  0.45293800  1
  Cu  Cu3  1  0.36024600  0.36024600  0.30753000  1
  Cu  Cu4  1  0.63975400  0.63975400  0.69247000  1
  C  C5  1  0.90295500  0.24845400  0.15619000  1
  C  C6  1  0.24845400  0.90295500  0.15619000  1
  C  C7  1  0.09704500  0.75154600  0.84381000  1
  C  C8  1  0.75154600  0.09704500  0.84381000  1
  C  C9  1  0.14165400  0.14165400  0.72568900  1
  C  C10  1  0.85834600  0.85834600  0.27431100  1
