# generated using pymatgen
data_Cu5(NiC4)2
_symmetry_space_group_name_H-M   'P 1'
_cell_length_a   8.40451700
_cell_length_b   8.44335121
_cell_length_c   27.92205420
_cell_angle_alpha   97.16799001
_cell_angle_beta   90.48170215
_cell_angle_gamma   118.44816971
_symmetry_Int_Tables_number   1
_chemical_formula_structural   Cu5(NiC4)2
_chemical_formula_sum   'Cu20 Ni8 C32'
_cell_volume   1723.30282280
_cell_formula_units_Z   4
loop_
 _symmetry_equiv_pos_site_id
 _symmetry_equiv_pos_as_xyz
  1  'x, y, z'
loop_
 _atom_site_type_symbol
 _atom_site_label
 _atom_site_symmetry_multiplicity
 _atom_site_fract_x
 _atom_site_fract_y
 _atom_site_fract_z
 _atom_site_occupancy
  Ni  Ni0  1  0.93195500  0.72270400  0.84047400  1
  Ni  Ni1  1  0.18337400  0.33813100  0.97380400  1
  Ni  Ni2  1  0.43233700  0.46957800  0.59423900  1
  Ni  Ni3  1  0.68940800  0.09046800  0.71966900  1
  Ni  Ni4  1  0.45203100  0.23384800  0.34446800  1
  Ni  Ni5  1  0.20179100  0.85692800  0.46671400  1
  Ni  Ni6  1  0.94337500  0.97688400  0.09860700  1
  Ni  Ni7  1  0.69592500  0.60535400  0.22107400  1
  Cu  Cu8  1  0.46362300  0.73319500  0.84022600  1
  Cu  Cu9  1  0.20133800  0.86988900  0.97254600  1
  Cu  Cu10  1  0.92604000  0.19221500  0.83933100  1
  Cu  Cu11  1  0.96983600  0.48814700  0.58552900  1
  Cu  Cu12  1  0.69963500  0.62025500  0.72361200  1
  Cu  Cu13  1  0.64786300  0.32037100  0.97107100  1
  Cu  Cu14  1  0.43685000  0.21781100  0.84389300  1
  Cu  Cu15  1  0.42617400  0.94160400  0.58907900  1
  Cu  Cu16  1  0.21326200  0.37147900  0.47391600  1
  Cu  Cu17  1  0.15610600  0.07656500  0.72386500  1
  Cu  Cu18  1  0.91640900  0.22843300  0.33508900  1
  Cu  Cu19  1  0.93820100  0.96775000  0.59329000  1
  Cu  Cu20  1  0.90094900  0.68798700  0.33786800  1
  Cu  Cu21  1  0.71461600  0.11928700  0.22377800  1
  Cu  Cu22  1  0.64400200  0.81216800  0.47690700  1
  Cu  Cu23  1  0.41798800  0.98136200  0.08050100  1
  Cu  Cu24  1  0.45806600  0.71648000  0.34334800  1
  Cu  Cu25  1  0.39927800  0.43658000  0.08765400  1
  Cu  Cu26  1  0.13638200  0.55713800  0.22401200  1
  Cu  Cu27  1  0.95749100  0.46595100  0.09321200  1
  C  C28  1  0.98998400  0.01593200  0.00884200  1
  C  C29  1  0.53476100  0.97501100  0.99008800  1
  C  C30  1  0.75659900  0.85202600  0.88222100  1
  C  C31  1  0.48474800  0.76897400  0.74453100  1
  C  C32  1  0.21892700  0.85627500  0.87353300  1
  C  C33  1  0.48797400  0.51952700  0.99242700  1
  C  C34  1  0.23285900  0.36670000  0.88435600  1
  C  C35  1  0.00229600  0.49133100  0.99582500  1
  C  C36  1  0.25346400  0.60214200  0.63201400  1
  C  C37  1  0.01565200  0.72865000  0.75443200  1
  C  C38  1  0.76683800  0.39999700  0.87157900  1
  C  C39  1  0.00445200  0.53169600  0.48900200  1
  C  C40  1  0.72667200  0.60685500  0.62417400  1
  C  C41  1  0.98496900  0.26860400  0.74338800  1
  C  C42  1  0.74155500  0.12815400  0.62995600  1
  C  C43  1  0.50862700  0.24288900  0.74614900  1
  C  C44  1  0.52059300  0.47155400  0.50890300  1
  C  C45  1  0.71756200  0.35333500  0.38377100  1
  C  C46  1  0.26364400  0.14415400  0.62455400  1
  C  C47  1  0.50735900  0.27837700  0.25407200  1
  C  C48  1  0.25385500  0.35918200  0.37411700  1
  C  C49  1  0.49357300  0.02364600  0.49318200  1
  C  C50  1  0.01067100  0.99549500  0.49551400  1
  C  C51  1  0.26111800  0.90167400  0.37506900  1
  C  C52  1  0.04147200  0.21936100  0.24585500  1
  C  C53  1  0.22049700  0.10147200  0.13352700  1
  C  C54  1  0.75948300  0.88089500  0.37979300  1
  C  C55  1  0.74584900  0.10847100  0.12430200  1
  C  C56  1  0.99661400  0.77399800  0.24283900  1
  C  C57  1  0.75311900  0.64219000  0.12947700  1
  C  C58  1  0.50434600  0.74395900  0.24580200  1
  C  C59  1  0.26385700  0.63805100  0.12675100  1
