# generated using pymatgen
data_CuNi2C9
_symmetry_space_group_name_H-M   'P 1'
_cell_length_a   7.34427100
_cell_length_b   7.34427100
_cell_length_c   4.79225500
_cell_angle_alpha   90.00000000
_cell_angle_beta   90.00000000
_cell_angle_gamma   90.00000000
_symmetry_Int_Tables_number   1
_chemical_formula_structural   CuNi2C9
_chemical_formula_sum   'Cu2 Ni4 C18'
_cell_volume   258.48616704
_cell_formula_units_Z   2
loop_
 _symmetry_equiv_pos_site_id
 _symmetry_equiv_pos_as_xyz
  1  'x, y, z'
loop_
 _atom_site_type_symbol
 _atom_site_label
 _atom_site_symmetry_multiplicity
 _atom_site_fract_x
 _atom_site_fract_y
 _atom_site_fract_z
 _atom_site_occupancy
  C  C0  1  0.15867000  0.34133000  0.51040400  1
  C  C1  1  0.84133000  0.65867000  0.51040400  1
  C  C2  1  0.65867000  0.15867000  0.48959600  1
  C  C3  1  0.34133000  0.84133000  0.48959600  1
  Ni  Ni4  1  0.63603000  0.86397000  0.95900600  1
  Ni  Ni5  1  0.36397000  0.13603000  0.95900600  1
  Ni  Ni6  1  0.13603000  0.63603000  0.04099400  1
  Ni  Ni7  1  0.86397000  0.36397000  0.04099400  1
  Cu  Cu8  1  0.00000000  0.00000000  0.00000000  1
  Cu  Cu9  1  0.50000000  0.50000000  0.00000000  1
  C  C10  1  0.00000000  0.50000000  0.18418900  1
  C  C11  1  0.50000000  0.00000000  0.81581100  1
  C  C12  1  0.64048700  0.85951300  0.29126400  1
  C  C13  1  0.35951300  0.14048700  0.29126400  1
  C  C14  1  0.14048700  0.64048700  0.70873600  1
  C  C15  1  0.85951300  0.35951300  0.70873600  1
  C  C16  1  0.08090900  0.83662200  0.19969800  1
  C  C17  1  0.91909100  0.16337800  0.19969800  1
  C  C18  1  0.16337800  0.08090900  0.80030200  1
  C  C19  1  0.41909100  0.33662200  0.80030200  1
  C  C20  1  0.83662200  0.91909100  0.80030200  1
  C  C21  1  0.58090900  0.66337800  0.80030200  1
  C  C22  1  0.33662200  0.58090900  0.19969800  1
  C  C23  1  0.66337800  0.41909100  0.19969800  1
