# generated using pymatgen
data_Cu3Ni2C9
_symmetry_space_group_name_H-M   'P 1'
_cell_length_a   5.33640647
_cell_length_b   11.73888874
_cell_length_c   23.89126922
_cell_angle_alpha   90.00000000
_cell_angle_beta   90.43461865
_cell_angle_gamma   90.00000000
_symmetry_Int_Tables_number   1
_chemical_formula_structural   Cu3Ni2C9
_chemical_formula_sum   'Cu24 Ni16 C72'
_cell_volume   1496.58923154
_cell_formula_units_Z   8
loop_
 _symmetry_equiv_pos_site_id
 _symmetry_equiv_pos_as_xyz
  1  'x, y, z'
loop_
 _atom_site_type_symbol
 _atom_site_label
 _atom_site_symmetry_multiplicity
 _atom_site_fract_x
 _atom_site_fract_y
 _atom_site_fract_z
 _atom_site_occupancy
  Ni  Ni0  1  0.25330355  0.53194410  0.52465125  1
  Ni  Ni1  1  0.75330355  0.96805590  0.02465125  1
  Ni  Ni2  1  0.74669645  0.46805590  0.47534875  1
  Ni  Ni3  1  0.24669645  0.03194410  0.97534875  1
  Ni  Ni4  1  0.76384286  0.60781181  0.58547383  1
  Ni  Ni5  1  0.26384286  0.89218819  0.08547383  1
  Ni  Ni6  1  0.23615714  0.39218819  0.41452617  1
  Ni  Ni7  1  0.73615714  0.10781181  0.91452617  1
  Ni  Ni8  1  0.27608571  0.68181421  0.64798095  1
  Ni  Ni9  1  0.77608571  0.81818579  0.14798095  1
  Ni  Ni10  1  0.72391429  0.31818579  0.35201905  1
  Ni  Ni11  1  0.22391429  0.18181421  0.85201905  1
  Ni  Ni12  1  0.78055010  0.74182559  0.69655989  1
  Ni  Ni13  1  0.28055010  0.75817441  0.19655989  1
  Ni  Ni14  1  0.21944990  0.25817441  0.30344011  1
  Ni  Ni15  1  0.71944990  0.24182559  0.80344011  1
  Cu  Cu16  1  0.91641961  0.33261236  0.58687147  1
  Cu  Cu17  1  0.41641961  0.16738764  0.08687147  1
  Cu  Cu18  1  0.08358039  0.66738764  0.41312853  1
  Cu  Cu19  1  0.58358039  0.83261236  0.91312853  1
  Cu  Cu20  1  0.94943861  0.46670254  0.69794336  1
  Cu  Cu21  1  0.44943861  0.03329746  0.19794336  1
  Cu  Cu22  1  0.05056139  0.53329746  0.30205664  1
  Cu  Cu23  1  0.55056139  0.96670254  0.80205664  1
  Cu  Cu24  1  0.45705657  0.53053054  0.75446419  1
  Cu  Cu25  1  0.95705657  0.96946946  0.25446419  1
  Cu  Cu26  1  0.54294343  0.46946946  0.24553581  1
  Cu  Cu27  1  0.04294343  0.03053054  0.74553581  1
  Cu  Cu28  1  0.58637066  0.73590980  0.46862030  1
  Cu  Cu29  1  0.08637066  0.76409020  0.96862030  1
  Cu  Cu30  1  0.41362934  0.26409020  0.53137970  1
  Cu  Cu31  1  0.91362934  0.23590980  0.03137970  1
  Cu  Cu32  1  0.59609805  0.87710879  0.57917695  1
  Cu  Cu33  1  0.09609805  0.62289121  0.07917695  1
  Cu  Cu34  1  0.40390195  0.12289121  0.42082305  1
  Cu  Cu35  1  0.90390195  0.37710879  0.92082305  1
  Cu  Cu36  1  0.09094882  0.94171578  0.63161504  1
  Cu  Cu37  1  0.59094882  0.55828422  0.13161504  1
  Cu  Cu38  1  0.90905118  0.05828422  0.36838496  1
  Cu  Cu39  1  0.40905118  0.44171578  0.86838496  1
  C  C40  1  0.91239935  0.45408747  0.55234410  1
  C  C41  1  0.41239935  0.04591253  0.05234410  1
  C  C42  1  0.08760065  0.54591253  0.44765590  1
  C  C43  1  0.58760065  0.95408747  0.94765590  1
  C  C44  1  0.40894117  0.54773446  0.60204372  1
  C  C45  1  0.90894117  0.95226554  0.10204372  1
  C  C46  1  0.59105883  0.45226554  0.39795628  1
  C  C47  1  0.09105883  0.04773446  0.89795628  1
  C  C48  1  0.93405376  0.59081380  0.66651393  1
  C  C49  1  0.43405376  0.90918620  0.16651393  1
  C  C50  1  0.06594624  0.40918620  0.33348607  1
  C  C51  1  0.56594624  0.09081380  0.83348607  1
  C  C52  1  0.47273088  0.65167281  0.72142804  1
  C  C53  1  0.97273088  0.84832719  0.22142804  1
  C  C54  1  0.52726912  0.34832719  0.27857196  1
  C  C55  1  0.02726912  0.15167281  0.77857196  1
  C  C56  1  0.16208313  0.25705063  0.57005816  1
  C  C57  1  0.66208313  0.24294937  0.07005816  1
  C  C58  1  0.83791687  0.74294937  0.42994184  1
  C  C59  1  0.33791687  0.75705063  0.92994184  1
  C  C60  1  0.92422174  0.36104610  0.65398353  1
  C  C61  1  0.42422174  0.13895390  0.15398353  1
  C  C62  1  0.07577826  0.63895390  0.34601647  1
  C  C63  1  0.57577826  0.86104610  0.84601647  1
  C  C64  1  0.21523324  0.45604553  0.73166098  1
  C  C65  1  0.71523324  0.04395447  0.23166098  1
  C  C66  1  0.78476676  0.54395447  0.26833902  1
  C  C67  1  0.28476676  0.95604553  0.76833902  1
  C  C68  1  0.71653914  0.45290312  0.74329446  1
  C  C69  1  0.21653914  0.04709688  0.24329446  1
  C  C70  1  0.28346086  0.54709688  0.25670554  1
  C  C71  1  0.78346086  0.95290312  0.75670554  1
  C  C72  1  0.43041889  0.54511375  0.82210617  1
  C  C73  1  0.93041889  0.95488625  0.32210617  1
  C  C74  1  0.56958111  0.45488625  0.17789383  1
  C  C75  1  0.06958111  0.04511375  0.67789383  1
  C  C76  1  0.98973719  0.71526944  0.77065941  1
  C  C77  1  0.48973719  0.78473056  0.27065941  1
  C  C78  1  0.01026281  0.28473056  0.22934059  1
  C  C79  1  0.51026281  0.21526944  0.72934059  1
  C  C80  1  0.59600348  0.61579321  0.50418907  1
  C  C81  1  0.09600348  0.88420679  0.00418907  1
  C  C82  1  0.40399652  0.38420679  0.49581093  1
  C  C83  1  0.90399652  0.11579321  0.99581093  1
  C  C84  1  0.11842342  0.66673067  0.56822639  1
  C  C85  1  0.61842342  0.83326933  0.06822639  1
  C  C86  1  0.88157658  0.33326933  0.43177361  1
  C  C87  1  0.38157658  0.16673067  0.93177361  1
  C  C88  1  0.60621738  0.76173437  0.61904916  1
  C  C89  1  0.10621738  0.73826563  0.11904916  1
  C  C90  1  0.39378262  0.23826563  0.38095084  1
  C  C91  1  0.89378262  0.26173437  0.88095084  1
  C  C92  1  0.08133724  0.82148128  0.66576400  1
  C  C93  1  0.58133724  0.67851872  0.16576400  1
  C  C94  1  0.91866276  0.17851872  0.33423600  1
  C  C95  1  0.41866276  0.32148128  0.83423600  1
  C  C96  1  0.33782719  0.73901305  0.42819488  1
  C  C97  1  0.83782719  0.76098695  0.92819488  1
  C  C98  1  0.66217281  0.26098695  0.57180512  1
  C  C99  1  0.16217281  0.23901305  0.07180512  1
  C  C100  1  0.57422138  0.84174101  0.51295265  1
  C  C101  1  0.07422138  0.65825899  0.01295265  1
  C  C102  1  0.42577862  0.15825899  0.48704735  1
  C  C103  1  0.92577862  0.34174101  0.98704735  1
  C  C104  1  0.35332104  0.95404461  0.59669944  1
  C  C105  1  0.85332104  0.54595539  0.09669944  1
  C  C106  1  0.64667896  0.04595539  0.40330056  1
  C  C107  1  0.14667896  0.45404461  0.90330056  1
  C  C108  1  0.85189103  0.95167873  0.58824519  1
  C  C109  1  0.35189103  0.54832127  0.08824519  1
  C  C110  1  0.14810897  0.04832127  0.41175481  1
  C  C111  1  0.64810897  0.45167873  0.91175481  1
