# generated using pymatgen
data_Cu(Ni3C11)2
_symmetry_space_group_name_H-M   'P 1'
_cell_length_a   10.66217600
_cell_length_b   10.79986007
_cell_length_c   10.90768697
_cell_angle_alpha   118.52822734
_cell_angle_beta   100.03339696
_cell_angle_gamma   103.75204065
_symmetry_Int_Tables_number   1
_chemical_formula_structural   Cu(Ni3C11)2
_chemical_formula_sum   'Cu1 Ni6 C22'
_cell_volume   1009.11027826
_cell_formula_units_Z   1
loop_
 _symmetry_equiv_pos_site_id
 _symmetry_equiv_pos_as_xyz
  1  'x, y, z'
loop_
 _atom_site_type_symbol
 _atom_site_label
 _atom_site_symmetry_multiplicity
 _atom_site_fract_x
 _atom_site_fract_y
 _atom_site_fract_z
 _atom_site_occupancy
  C  C0  1  0.65360300  0.31077000  0.22787900  1
  C  C1  1  0.34639700  0.68923000  0.77212000  1
  C  C2  1  0.68693500  0.66057600  0.56334400  1
  C  C3  1  0.31306500  0.33942400  0.43665600  1
  Ni  Ni4  1  0.15244300  0.82291200  0.23438700  1
  Ni  Ni5  1  0.84755700  0.17708800  0.76561300  1
  Ni  Ni6  1  0.85851600  0.99340700  0.13501000  1
  Ni  Ni7  1  0.14148400  0.00659300  0.86499000  1
  Ni  Ni8  1  0.14764200  0.19697700  0.04599000  1
  Ni  Ni9  1  0.85235800  0.80302300  0.95401000  1
  Cu  Cu10  1  0.00000000  0.00000000  0.00000000  1
  C  C11  1  0.00707600  0.21178300  0.19672100  1
  C  C12  1  0.99292400  0.78821700  0.80327900  1
  C  C13  1  0.32761600  0.02241300  0.31060500  1
  C  C14  1  0.67238400  0.97758700  0.68939500  1
  C  C15  1  0.32208000  0.42380000  0.10039700  1
  C  C16  1  0.67792000  0.57620000  0.89960300  1
  C  C17  1  0.00390900  0.58756200  0.20872400  1
  C  C18  1  0.99609100  0.41243800  0.79127600  1
  C  C19  1  0.70091600  0.98737800  0.28891600  1
  C  C20  1  0.29908400  0.01262200  0.71108400  1
  C  C21  1  0.31643300  0.22395000  0.90336500  1
  C  C22  1  0.68356700  0.77605000  0.09663500  1
  C  C23  1  0.01359700  0.79694200  0.40737200  1
  C  C24  1  0.98640300  0.20305800  0.59262800  1
  C  C25  1  0.32012000  0.81311300  0.10984300  1
  C  C26  1  0.67988000  0.18688700  0.89015700  1
  C  C27  1  0.33287600  0.61753900  0.50355700  1
  C  C28  1  0.66712400  0.38246100  0.49644300  1
