# generated using pymatgen
data_Cu5(NiC3)2
_symmetry_space_group_name_H-M   'P 1'
_cell_length_a   6.84271900
_cell_length_b   7.45270129
_cell_length_c   7.45270129
_cell_angle_alpha   58.26139980
_cell_angle_beta   62.67246843
_cell_angle_gamma   62.67246843
_symmetry_Int_Tables_number   1
_chemical_formula_structural   Cu5(NiC3)2
_chemical_formula_sum   'Cu10 Ni4 C12'
_cell_volume   274.98942039
_cell_formula_units_Z   2
loop_
 _symmetry_equiv_pos_site_id
 _symmetry_equiv_pos_as_xyz
  1  'x, y, z'
loop_
 _atom_site_type_symbol
 _atom_site_label
 _atom_site_symmetry_multiplicity
 _atom_site_fract_x
 _atom_site_fract_y
 _atom_site_fract_z
 _atom_site_occupancy
  C  C0  1  0.50000000  0.00000000  0.50000000  1
  C  C1  1  0.50000000  0.50000000  0.00000000  1
  C  C2  1  0.50000000  0.00000000  0.00000000  1
  C  C3  1  0.00000000  0.50000000  0.50000000  1
  C  C4  1  0.05930400  0.75260200  0.54108100  1
  C  C5  1  0.94069600  0.45891900  0.24739800  1
  C  C6  1  0.14701300  0.25260200  0.04108100  1
  C  C7  1  0.85298700  0.95891900  0.74739800  1
  C  C8  1  0.94069600  0.24739800  0.45891900  1
  C  C9  1  0.05930400  0.54108100  0.75260200  1
  C  C10  1  0.85298700  0.74739800  0.95891900  1
  C  C11  1  0.14701300  0.04108100  0.25260200  1
  Ni  Ni12  1  0.15485900  0.59992800  0.59992800  1
  Ni  Ni13  1  0.84514100  0.40007200  0.40007200  1
  Ni  Ni14  1  0.14528500  0.09992800  0.09992800  1
  Ni  Ni15  1  0.85471500  0.90007200  0.90007200  1
  Cu  Cu16  1  0.56724100  0.06636100  0.66638800  1
  Cu  Cu17  1  0.43275900  0.33361200  0.93363900  1
  Cu  Cu18  1  0.20001000  0.56636100  0.16638800  1
  Cu  Cu19  1  0.79999000  0.83361200  0.43363900  1
  Cu  Cu20  1  0.43275900  0.93363900  0.33361200  1
  Cu  Cu21  1  0.56724100  0.66638800  0.06636100  1
  Cu  Cu22  1  0.79999000  0.43363900  0.83361200  1
  Cu  Cu23  1  0.20001000  0.16638800  0.56636100  1
  Cu  Cu24  1  0.42807100  0.75000000  0.75000000  1
  Cu  Cu25  1  0.57192900  0.25000000  0.25000000  1
