# generated using pymatgen
data_Cu4NiC23
_symmetry_space_group_name_H-M   'P 1'
_cell_length_a   10.11727810
_cell_length_b   10.07535209
_cell_length_c   10.01672056
_cell_angle_alpha   60.46889187
_cell_angle_beta   60.05242846
_cell_angle_gamma   59.47867967
_symmetry_Int_Tables_number   1
_chemical_formula_structural   Cu4NiC23
_chemical_formula_sum   'Cu8 Ni2 C46'
_cell_volume   721.88691673
_cell_formula_units_Z   2
loop_
 _symmetry_equiv_pos_site_id
 _symmetry_equiv_pos_as_xyz
  1  'x, y, z'
loop_
 _atom_site_type_symbol
 _atom_site_label
 _atom_site_symmetry_multiplicity
 _atom_site_fract_x
 _atom_site_fract_y
 _atom_site_fract_z
 _atom_site_occupancy
  C  C0  1  0.78915700  0.21084300  0.21084300  1
  C  C1  1  0.54063300  0.54063300  0.95936700  1
  C  C2  1  0.53697200  0.96302800  0.96302800  1
  C  C3  1  0.79199800  0.79199800  0.20800200  1
  C  C4  1  0.21175900  0.78824100  0.21175900  1
  C  C5  1  0.78824100  0.21175900  0.78824100  1
  C  C6  1  0.95936700  0.95936700  0.54063300  1
  C  C7  1  0.21084300  0.78915700  0.78915700  1
  C  C8  1  0.20800200  0.20800200  0.79199800  1
  C  C9  1  0.96302800  0.53697200  0.53697200  1
  C  C10  1  0.36998700  0.37739600  0.87592000  1
  C  C11  1  0.37739600  0.36998700  0.37669700  1
  C  C12  1  0.37669700  0.87592000  0.37739600  1
  C  C13  1  0.87592000  0.37669700  0.36998700  1
  Ni  Ni14  1  0.00000000  0.00000000  0.00000000  1
  Ni  Ni15  1  0.75000000  0.75000000  0.75000000  1
  Cu  Cu16  1  0.58751800  0.22968000  0.59144800  1
  Cu  Cu17  1  0.59135500  0.59144800  0.22968000  1
  Cu  Cu18  1  0.22968000  0.58751800  0.59135500  1
  Cu  Cu19  1  0.59144800  0.59135500  0.58751800  1
  Cu  Cu20  1  0.16014500  0.15333700  0.16386800  1
  Cu  Cu21  1  0.52264900  0.16386800  0.15333700  1
  Cu  Cu22  1  0.15333700  0.16014500  0.52264900  1
  Cu  Cu23  1  0.16386800  0.52264900  0.16014500  1
  C  C24  1  0.51822000  0.28111600  0.01443000  1
  C  C25  1  0.57276900  0.47942300  0.21994300  1
  C  C26  1  0.72786500  0.21994300  0.47942300  1
  C  C27  1  0.28111600  0.51822000  0.18623400  1
  C  C28  1  0.72266200  0.56816000  0.24333500  1
  C  C29  1  0.20970300  0.92684800  0.93363700  1
  C  C30  1  0.92981100  0.93363700  0.92684800  1
  C  C31  1  0.56673600  0.22313900  0.73426400  1
  C  C32  1  0.47586000  0.73426400  0.22313900  1
  C  C33  1  0.22313900  0.56673600  0.47586000  1
  C  C34  1  0.73426400  0.47586000  0.56673600  1
  C  C35  1  0.92684800  0.20970300  0.92981100  1
  C  C36  1  0.93363700  0.92981100  0.20970300  1
  C  C37  1  0.27213800  0.17507100  0.02384900  1
  C  C38  1  0.52894300  0.02384900  0.17507100  1
  C  C39  1  0.56816000  0.72266200  0.46584300  1
  C  C40  1  0.18623400  0.01443000  0.28111600  1
  C  C41  1  0.21994300  0.72786500  0.57276900  1
  C  C42  1  0.47942300  0.57276900  0.72786500  1
  C  C43  1  0.83306200  0.80948700  0.54097700  1
  C  C44  1  0.81647400  0.54097700  0.80948700  1
  C  C45  1  0.01827300  0.26567600  0.18925000  1
  C  C46  1  0.52680100  0.18925000  0.26567600  1
  C  C47  1  0.18925000  0.52680100  0.01827300  1
  C  C48  1  0.26567600  0.01827300  0.52680100  1
  C  C49  1  0.80948700  0.83306200  0.81647400  1
  C  C50  1  0.54097700  0.81647400  0.83306200  1
  C  C51  1  0.01443000  0.18623400  0.51822000  1
  C  C52  1  0.46584300  0.24333500  0.56816000  1
  C  C53  1  0.17507100  0.27213800  0.52894300  1
  C  C54  1  0.02384900  0.52894300  0.27213800  1
  C  C55  1  0.24333500  0.46584300  0.72266200  1
