# generated using pymatgen
data_CuNiC8
_symmetry_space_group_name_H-M   'P 1'
_cell_length_a   8.50917748
_cell_length_b   8.50917748
_cell_length_c   8.50917748
_cell_angle_alpha   90.00000000
_cell_angle_beta   90.00000000
_cell_angle_gamma   90.00000000
_symmetry_Int_Tables_number   1
_chemical_formula_structural   CuNiC8
_chemical_formula_sum   'Cu4 Ni4 C32'
_cell_volume   616.11636733
_cell_formula_units_Z   4
loop_
 _symmetry_equiv_pos_site_id
 _symmetry_equiv_pos_as_xyz
  1  'x, y, z'
loop_
 _atom_site_type_symbol
 _atom_site_label
 _atom_site_symmetry_multiplicity
 _atom_site_fract_x
 _atom_site_fract_y
 _atom_site_fract_z
 _atom_site_occupancy
  C  C0  1  0.50000000  0.50000000  0.50000000  1
  C  C1  1  0.00000000  0.00000000  0.00000000  1
  C  C2  1  0.00000000  0.00000000  0.50000000  1
  C  C3  1  0.00000000  0.50000000  0.00000000  1
  C  C4  1  0.50000000  0.00000000  0.00000000  1
  C  C5  1  0.50000000  0.50000000  0.00000000  1
  C  C6  1  0.50000000  0.00000000  0.50000000  1
  C  C7  1  -0.00000000  0.50000000  0.50000000  1
  Ni  Ni8  1  0.75000000  0.75000000  0.75000000  1
  Ni  Ni9  1  0.75000000  0.25000000  0.25000000  1
  Ni  Ni10  1  0.25000000  0.75000000  0.25000000  1
  Ni  Ni11  1  0.25000000  0.25000000  0.75000000  1
  Cu  Cu12  1  0.25000000  0.25000000  0.25000000  1
  Cu  Cu13  1  0.25000000  0.75000000  0.75000000  1
  Cu  Cu14  1  0.75000000  0.25000000  0.75000000  1
  Cu  Cu15  1  0.75000000  0.75000000  0.25000000  1
  C  C16  1  0.20974963  0.29975683  0.48037507  1
  C  C17  1  0.20974963  0.70024317  0.51962493  1
  C  C18  1  0.79025037  0.29975683  0.51962493  1
  C  C19  1  0.79025037  0.70024317  0.48037507  1
  C  C20  1  0.29975683  0.48037507  0.20974963  1
  C  C21  1  0.70024317  0.51962493  0.20974963  1
  C  C22  1  0.29975683  0.51962493  0.79025037  1
  C  C23  1  0.70024317  0.48037507  0.79025037  1
  C  C24  1  0.48037507  0.20974963  0.29975683  1
  C  C25  1  0.51962493  0.20974963  0.70024317  1
  C  C26  1  0.51962493  0.79025037  0.29975683  1
  C  C27  1  0.48037507  0.79025037  0.70024317  1
  C  C28  1  0.29025037  0.20024317  0.01962493  1
  C  C29  1  0.29025037  0.79975683  0.98037507  1
  C  C30  1  0.70974963  0.20024317  0.98037507  1
  C  C31  1  0.70974963  0.79975683  0.01962493  1
  C  C32  1  0.20024317  0.01962493  0.29025037  1
  C  C33  1  0.79975683  0.98037507  0.29025037  1
  C  C34  1  0.20024317  0.98037507  0.70974963  1
  C  C35  1  0.79975683  0.01962493  0.70974963  1
  C  C36  1  0.01962493  0.29025037  0.20024317  1
  C  C37  1  0.98037507  0.29025037  0.79975683  1
  C  C38  1  0.98037507  0.70974963  0.20024317  1
  C  C39  1  0.01962493  0.70974963  0.79975683  1
