# generated using pymatgen
data_Cu2NiC11
_symmetry_space_group_name_H-M   'P 1'
_cell_length_a   6.96987338
_cell_length_b   6.96987338
_cell_length_c   6.96987338
_cell_angle_alpha   60.01783454
_cell_angle_beta   60.01783454
_cell_angle_gamma   60.01783305
_symmetry_Int_Tables_number   1
_chemical_formula_structural   Cu2NiC11
_chemical_formula_sum   'Cu2 Ni1 C11'
_cell_volume   239.51637831
_cell_formula_units_Z   1
loop_
 _symmetry_equiv_pos_site_id
 _symmetry_equiv_pos_as_xyz
  1  'x, y, z'
loop_
 _atom_site_type_symbol
 _atom_site_label
 _atom_site_symmetry_multiplicity
 _atom_site_fract_x
 _atom_site_fract_y
 _atom_site_fract_z
 _atom_site_occupancy
  C  C0  1  0.00000000  0.50000000  0.50000000  1
  C  C1  1  0.50000000  0.50000000  0.00000000  1
  C  C2  1  0.50000000  0.00000000  0.50000000  1
  Ni  Ni3  1  0.50000000  0.50000000  0.50000000  1
  Cu  Cu4  1  0.12366000  0.12366000  0.12366000  1
  Cu  Cu5  1  0.87634000  0.87634000  0.87634000  1
  C  C6  1  0.26294200  0.73037900  0.26294200  1
  C  C7  1  0.26294200  0.26294200  0.73037900  1
  C  C8  1  0.73037900  0.26294200  0.26294200  1
  C  C9  1  0.25439900  0.25439900  0.25439900  1
  C  C10  1  0.73705800  0.26962100  0.73705800  1
  C  C11  1  0.73705800  0.73705800  0.26962100  1
  C  C12  1  0.26962100  0.73705800  0.73705800  1
  C  C13  1  0.74560100  0.74560100  0.74560100  1
