# generated using pymatgen
data_Cu5Ni2C3
_symmetry_space_group_name_H-M   'P 1'
_cell_length_a   9.06684507
_cell_length_b   9.06684507
_cell_length_c   6.86678500
_cell_angle_alpha   90.00000000
_cell_angle_beta   90.00000000
_cell_angle_gamma   133.99858038
_symmetry_Int_Tables_number   1
_chemical_formula_structural   Cu5Ni2C3
_chemical_formula_sum   'Cu10 Ni4 C6'
_cell_volume   406.07880289
_cell_formula_units_Z   2
loop_
 _symmetry_equiv_pos_site_id
 _symmetry_equiv_pos_as_xyz
  1  'x, y, z'
loop_
 _atom_site_type_symbol
 _atom_site_label
 _atom_site_symmetry_multiplicity
 _atom_site_fract_x
 _atom_site_fract_y
 _atom_site_fract_z
 _atom_site_occupancy
  C  C0  1  0.86801100  0.13198900  0.25000000  1
  C  C1  1  0.13198900  0.86801100  0.75000000  1
  C  C2  1  0.58166600  0.41833400  0.25000000  1
  C  C3  1  0.41833400  0.58166600  0.75000000  1
  C  C4  1  0.66343000  0.33657000  0.25000000  1
  C  C5  1  0.33657000  0.66343000  0.75000000  1
  Ni  Ni6  1  0.73290900  0.26709100  0.25000000  1
  Ni  Ni7  1  0.26709100  0.73290900  0.75000000  1
  Ni  Ni8  1  0.51167300  0.48832700  0.25000000  1
  Ni  Ni9  1  0.48832700  0.51167300  0.75000000  1
  Cu  Cu10  1  0.05472700  0.34191700  0.43422000  1
  Cu  Cu11  1  0.94527300  0.65808300  0.93422000  1
  Cu  Cu12  1  0.65808300  0.94527300  0.06578000  1
  Cu  Cu13  1  0.34191700  0.05472700  0.56578000  1
  Cu  Cu14  1  0.03400400  0.32310300  0.04506800  1
  Cu  Cu15  1  0.96599600  0.67689700  0.54506800  1
  Cu  Cu16  1  0.67689700  0.96599600  0.45493200  1
  Cu  Cu17  1  0.32310300  0.03400400  0.95493200  1
  Cu  Cu18  1  0.98084700  0.01915300  0.25000000  1
  Cu  Cu19  1  0.01915300  0.98084700  0.75000000  1
