# generated using pymatgen
data_CuNiC2
_symmetry_space_group_name_H-M   'P 1'
_cell_length_a   8.11403349
_cell_length_b   8.11403349
_cell_length_c   9.62464159
_cell_angle_alpha   60.58571730
_cell_angle_beta   60.58571730
_cell_angle_gamma   20.94880960
_symmetry_Int_Tables_number   1
_chemical_formula_structural   CuNiC2
_chemical_formula_sum   'Cu4 Ni4 C8'
_cell_volume   196.27579548
_cell_formula_units_Z   4
loop_
 _symmetry_equiv_pos_site_id
 _symmetry_equiv_pos_as_xyz
  1  'x, y, z'
loop_
 _atom_site_type_symbol
 _atom_site_label
 _atom_site_symmetry_multiplicity
 _atom_site_fract_x
 _atom_site_fract_y
 _atom_site_fract_z
 _atom_site_occupancy
  Ni  Ni0  1  0.67046100  0.67046100  0.29035400  1
  Ni  Ni1  1  0.32953900  0.32953900  0.70964600  1
  Ni  Ni2  1  0.98194300  0.98194300  0.36312500  1
  Ni  Ni3  1  0.01805700  0.01805700  0.63687500  1
  Cu  Cu4  1  0.36015500  0.36015500  0.97792400  1
  Cu  Cu5  1  0.81936700  0.81936700  0.34517000  1
  Cu  Cu6  1  0.18063300  0.18063300  0.65483000  1
  Cu  Cu7  1  0.63984500  0.63984500  0.02207600  1
  C  C8  1  0.17745500  0.17745500  0.86135200  1
  C  C9  1  0.57991100  0.57991100  0.69990200  1
  C  C10  1  0.42008900  0.42008900  0.30009800  1
  C  C11  1  0.82254500  0.82254500  0.13864800  1
  C  C12  1  0.87282400  0.87282400  0.81031700  1
  C  C13  1  0.21302500  0.21302500  0.41392100  1
  C  C14  1  0.12717600  0.12717600  0.18968300  1
  C  C15  1  0.78697500  0.78697500  0.58607900  1
