# generated using pymatgen
data_Cu3NiC8
_symmetry_space_group_name_H-M   'P 1'
_cell_length_a   7.04844700
_cell_length_b   9.49597100
_cell_length_c   9.61371800
_cell_angle_alpha   90.00000000
_cell_angle_beta   90.00000000
_cell_angle_gamma   90.00000000
_symmetry_Int_Tables_number   1
_chemical_formula_structural   Cu3NiC8
_chemical_formula_sum   'Cu12 Ni4 C32'
_cell_volume   643.46391484
_cell_formula_units_Z   4
loop_
 _symmetry_equiv_pos_site_id
 _symmetry_equiv_pos_as_xyz
  1  'x, y, z'
loop_
 _atom_site_type_symbol
 _atom_site_label
 _atom_site_symmetry_multiplicity
 _atom_site_fract_x
 _atom_site_fract_y
 _atom_site_fract_z
 _atom_site_occupancy
  C  C0  1  0.75413000  0.51463700  0.17435800  1
  C  C1  1  0.25413000  0.48536300  0.82564200  1
  C  C2  1  0.25413000  0.98536300  0.67435800  1
  C  C3  1  0.75413000  0.01463700  0.32564200  1
  Ni  Ni4  1  0.27066400  0.75697600  0.10014200  1
  Ni  Ni5  1  0.77066400  0.24302400  0.89985800  1
  Ni  Ni6  1  0.77066400  0.74302400  0.60014200  1
  Ni  Ni7  1  0.27066400  0.25697600  0.39985800  1
  Cu  Cu8  1  0.30517800  0.52523700  0.27693500  1
  Cu  Cu9  1  0.80517800  0.47476300  0.72306500  1
  Cu  Cu10  1  0.80517800  0.97476300  0.77693500  1
  Cu  Cu11  1  0.30517800  0.02523700  0.22306500  1
  Cu  Cu12  1  0.89669900  0.82283600  0.98126600  1
  Cu  Cu13  1  0.39669900  0.17716400  0.01873400  1
  Cu  Cu14  1  0.39669900  0.67716400  0.48126600  1
  Cu  Cu15  1  0.89669900  0.32283600  0.51873400  1
  Cu  Cu16  1  0.56579000  0.84893000  0.92551600  1
  Cu  Cu17  1  0.06579000  0.15107000  0.07448400  1
  Cu  Cu18  1  0.06579000  0.65107000  0.42551600  1
  Cu  Cu19  1  0.56579000  0.34893000  0.57448400  1
  C  C20  1  0.60903300  0.93782300  0.81898800  1
  C  C21  1  0.10903300  0.06217700  0.18101200  1
  C  C22  1  0.10903300  0.56217700  0.31898800  1
  C  C23  1  0.60903300  0.43782300  0.68101200  1
  C  C24  1  0.70516500  0.79626000  0.01410900  1
  C  C25  1  0.20516500  0.20374000  0.98589100  1
  C  C26  1  0.20516500  0.70374000  0.51410900  1
  C  C27  1  0.70516500  0.29626000  0.48589100  1
  C  C28  1  0.44536300  0.58452600  0.37938900  1
  C  C29  1  0.94536300  0.41547400  0.62061100  1
  C  C30  1  0.94536300  0.91547400  0.87938900  1
  C  C31  1  0.44536300  0.08452600  0.12061100  1
  C  C32  1  0.02224900  0.74894100  0.06389500  1
  C  C33  1  0.52224900  0.25105900  0.93610500  1
  C  C34  1  0.52224900  0.75105900  0.56389500  1
  C  C35  1  0.02224900  0.24894100  0.43610500  1
  C  C36  1  0.37839400  0.80757600  0.93914200  1
  C  C37  1  0.87839400  0.19242400  0.06085800  1
  C  C38  1  0.87839400  0.69242400  0.43914200  1
  C  C39  1  0.37839400  0.30757600  0.56085800  1
  C  C40  1  0.34434500  0.58384600  0.13614100  1
  C  C41  1  0.84434500  0.41615400  0.86385900  1
  C  C42  1  0.84434500  0.91615400  0.63614100  1
  C  C43  1  0.34434500  0.08384600  0.36385900  1
  C  C44  1  0.32877000  0.87219300  0.23583500  1
  C  C45  1  0.82877000  0.12780700  0.76416500  1
  C  C46  1  0.82877000  0.62780700  0.73583500  1
  C  C47  1  0.32877000  0.37219300  0.26416500  1
