# generated using pymatgen
data_Cu3NiC10
_symmetry_space_group_name_H-M   'P 1'
_cell_length_a   3.46705000
_cell_length_b   11.16676000
_cell_length_c   13.08904900
_cell_angle_alpha   90.00000000
_cell_angle_beta   90.00000000
_cell_angle_gamma   90.00000000
_symmetry_Int_Tables_number   1
_chemical_formula_structural   Cu3NiC10
_chemical_formula_sum   'Cu6 Ni2 C20'
_cell_volume   506.75189408
_cell_formula_units_Z   2
loop_
 _symmetry_equiv_pos_site_id
 _symmetry_equiv_pos_as_xyz
  1  'x, y, z'
loop_
 _atom_site_type_symbol
 _atom_site_label
 _atom_site_symmetry_multiplicity
 _atom_site_fract_x
 _atom_site_fract_y
 _atom_site_fract_z
 _atom_site_occupancy
  Ni  Ni0  1  0.50000000  0.91498300  0.34639100  1
  Ni  Ni1  1  0.50000000  0.41498300  0.65360900  1
  Cu  Cu2  1  0.50000000  0.94039000  0.86589300  1
  Cu  Cu3  1  0.00000000  0.05569600  0.64448300  1
  Cu  Cu4  1  0.00000000  0.55569600  0.35551700  1
  Cu  Cu5  1  0.50000000  0.44039000  0.13410700  1
  Cu  Cu6  1  0.00000000  0.08606500  0.14946400  1
  Cu  Cu7  1  0.00000000  0.58606500  0.85053600  1
  C  C8  1  0.50000000  0.74511700  0.07257700  1
  C  C9  1  0.00000000  0.24838700  0.40943600  1
  C  C10  1  0.00000000  0.74838700  0.59056400  1
  C  C11  1  0.50000000  0.24511700  0.92742300  1
  C  C12  1  0.00000000  0.97618200  0.46747900  1
  C  C13  1  0.50000000  0.03141300  0.03655300  1
  C  C14  1  0.50000000  0.53141300  0.96344700  1
  C  C15  1  0.00000000  0.47618200  0.53252100  1
  C  C16  1  0.50000000  0.91713200  0.68360800  1
  C  C17  1  0.00000000  0.08245500  0.82267700  1
  C  C18  1  0.00000000  0.58245500  0.17732300  1
  C  C19  1  0.50000000  0.41713200  0.31639200  1
  C  C20  1  0.00000000  0.87979600  0.21427500  1
  C  C21  1  0.50000000  0.12140500  0.27548300  1
  C  C22  1  0.50000000  0.62140500  0.72451700  1
  C  C23  1  0.00000000  0.37979600  0.78572500  1
  C  C24  1  0.00000000  0.79660300  0.90686000  1
  C  C25  1  0.50000000  0.20437600  0.60018600  1
  C  C26  1  0.50000000  0.70437600  0.39981400  1
  C  C27  1  0.00000000  0.29660300  0.09314000  1
