# generated using pymatgen
data_CuNiC8
_symmetry_space_group_name_H-M   'P 1'
_cell_length_a   6.48047443
_cell_length_b   6.48047443
_cell_length_c   6.30848768
_cell_angle_alpha   86.29906366
_cell_angle_beta   86.29906366
_cell_angle_gamma   91.61646571
_symmetry_Int_Tables_number   1
_chemical_formula_structural   CuNiC8
_chemical_formula_sum   'Cu2 Ni2 C16'
_cell_volume   263.69138791
_cell_formula_units_Z   2
loop_
 _symmetry_equiv_pos_site_id
 _symmetry_equiv_pos_as_xyz
  1  'x, y, z'
loop_
 _atom_site_type_symbol
 _atom_site_label
 _atom_site_symmetry_multiplicity
 _atom_site_fract_x
 _atom_site_fract_y
 _atom_site_fract_z
 _atom_site_occupancy
  C  C0  1  0.87970100  0.12029900  0.50000000  1
  C  C1  1  0.62084000  0.73805400  0.86982500  1
  C  C2  1  0.11691800  0.88308200  0.00000000  1
  C  C3  1  0.26194600  0.37916000  0.13017500  1
  Ni  Ni4  1  0.25697400  0.74302600  0.50000000  1
  Ni  Ni5  1  0.75069200  0.24930800  0.00000000  1
  Cu  Cu6  1  0.00299100  0.50050700  0.73795900  1
  Cu  Cu7  1  0.49949300  0.99700900  0.26204100  1
  C  C8  1  0.91912200  0.51750500  0.04082400  1
  C  C9  1  0.54070200  0.91937900  0.54967400  1
  C  C10  1  0.29474000  0.61212900  0.78634400  1
  C  C11  1  0.01266000  0.19947000  0.84269700  1
  C  C12  1  0.38787100  0.70526000  0.21365600  1
  C  C13  1  0.80053000  0.98734000  0.15730300  1
  C  C14  1  0.96730200  0.80335100  0.67374000  1
  C  C15  1  0.48249500  0.08087800  0.95917600  1
  C  C16  1  0.08062100  0.45929800  0.45032600  1
  C  C17  1  0.70842900  0.40061700  0.74758700  1
  C  C18  1  0.19664900  0.03269800  0.32626000  1
  C  C19  1  0.59938300  0.29157100  0.25241300  1
