# generated using pymatgen
data_Cu4NiC7
_symmetry_space_group_name_H-M   'P 1'
_cell_length_a   7.45898615
_cell_length_b   7.45898615
_cell_length_c   11.90450036
_cell_angle_alpha   91.56641592
_cell_angle_beta   91.56641592
_cell_angle_gamma   113.00067357
_symmetry_Int_Tables_number   1
_chemical_formula_structural   Cu4NiC7
_chemical_formula_sum   'Cu16 Ni4 C28'
_cell_volume   608.92160475
_cell_formula_units_Z   4
loop_
 _symmetry_equiv_pos_site_id
 _symmetry_equiv_pos_as_xyz
  1  'x, y, z'
loop_
 _atom_site_type_symbol
 _atom_site_label
 _atom_site_symmetry_multiplicity
 _atom_site_fract_x
 _atom_site_fract_y
 _atom_site_fract_z
 _atom_site_occupancy
  C  C0  1  0.00546500  0.06621600  0.75650300  1
  C  C1  1  0.06621600  0.00546500  0.25650300  1
  C  C2  1  0.41436900  0.18963600  0.01208800  1
  C  C3  1  0.18963600  0.41436900  0.51208800  1
  C  C4  1  0.41190200  0.66237800  0.18684900  1
  C  C5  1  0.66237800  0.41190200  0.68684900  1
  C  C6  1  0.86253200  0.47921400  0.22027400  1
  C  C7  1  0.47921400  0.86253200  0.72027400  1
  Ni  Ni8  1  0.06536500  0.72626600  0.96724000  1
  Ni  Ni9  1  0.72626600  0.06536500  0.46724000  1
  Ni  Ni10  1  0.77348900  0.73613800  0.97122900  1
  Ni  Ni11  1  0.73613800  0.77348900  0.47122900  1
  Cu  Cu12  1  0.82529300  0.31435600  0.89657400  1
  Cu  Cu13  1  0.31435600  0.82529300  0.39657400  1
  Cu  Cu14  1  0.74622000  0.09247300  0.92338800  1
  Cu  Cu15  1  0.09247300  0.74622000  0.42338800  1
  Cu  Cu16  1  0.38214700  0.08585700  0.53846500  1
  Cu  Cu17  1  0.08585700  0.38214700  0.03846500  1
  Cu  Cu18  1  0.16181800  0.00638900  0.56349800  1
  Cu  Cu19  1  0.00638900  0.16181800  0.06349800  1
  Cu  Cu20  1  0.44926800  0.51923300  0.84514700  1
  Cu  Cu21  1  0.51923300  0.44926800  0.34514700  1
  Cu  Cu22  1  0.22546500  0.46342900  0.86476200  1
  Cu  Cu23  1  0.46342900  0.22546500  0.36476200  1
  Cu  Cu24  1  0.69519600  0.02302200  0.11814600  1
  Cu  Cu25  1  0.02302200  0.69519600  0.61814600  1
  Cu  Cu26  1  0.68586500  0.08833400  0.24602500  1
  Cu  Cu27  1  0.08833400  0.68586500  0.74602500  1
  C  C28  1  0.15483800  0.79327300  0.08660500  1
  C  C29  1  0.79327300  0.15483800  0.58660500  1
  C  C30  1  0.17648200  0.85995000  0.87338900  1
  C  C31  1  0.85995000  0.17648200  0.37338900  1
  C  C32  1  0.03600200  0.51004600  0.93853500  1
  C  C33  1  0.51004600  0.03600200  0.43853500  1
  C  C34  1  0.65557700  0.58283400  0.05307600  1
  C  C35  1  0.58283400  0.65557700  0.55307600  1
  C  C36  1  0.68491900  0.70169600  0.84953700  1
  C  C37  1  0.70169600  0.68491900  0.34953700  1
  C  C38  1  0.81245500  0.95012500  0.01476700  1
  C  C39  1  0.95012500  0.81245500  0.51476800  1
  C  C40  1  0.72028700  0.18527800  0.87262600  1
  C  C41  1  0.18527800  0.72028700  0.37262600  1
  C  C42  1  0.28981100  0.10417000  0.59349600  1
  C  C43  1  0.10417000  0.28981100  0.09349600  1
  C  C44  1  0.31692200  0.41531000  0.82770400  1
  C  C45  1  0.41531000  0.31692200  0.32770400  1
  C  C46  1  0.62108200  0.07252600  0.17048800  1
  C  C47  1  0.07252600  0.62108200  0.67048800  1
