# generated using pymatgen
data_CuNiC6
_symmetry_space_group_name_H-M   'P 1'
_cell_length_a   6.41493400
_cell_length_b   8.59957800
_cell_length_c   10.47265000
_cell_angle_alpha   90.00000000
_cell_angle_beta   90.00000000
_cell_angle_gamma   90.00000000
_symmetry_Int_Tables_number   1
_chemical_formula_structural   CuNiC6
_chemical_formula_sum   'Cu2 Ni2 C12'
_cell_volume   577.73133304
_cell_formula_units_Z   2
loop_
 _symmetry_equiv_pos_site_id
 _symmetry_equiv_pos_as_xyz
  1  'x, y, z'
loop_
 _atom_site_type_symbol
 _atom_site_label
 _atom_site_symmetry_multiplicity
 _atom_site_fract_x
 _atom_site_fract_y
 _atom_site_fract_z
 _atom_site_occupancy
  C  C0  1  0.25000000  0.50000000  0.78616500  1
  C  C1  1  0.75000000  0.50000000  0.21383500  1
  Ni  Ni2  1  0.50000000  0.00000000  0.00000000  1
  Ni  Ni3  1  0.00000000  0.00000000  0.00000000  1
  Cu  Cu4  1  0.25000000  0.00000000  0.34035000  1
  Cu  Cu5  1  0.75000000  0.00000000  0.65965000  1
  C  C6  1  0.25000000  0.75504800  0.12225500  1
  C  C7  1  0.75000000  0.75504800  0.87774500  1
  C  C8  1  0.75000000  0.24495200  0.87774500  1
  C  C9  1  0.25000000  0.24495200  0.12225500  1
  C  C10  1  0.50000000  0.75865700  0.50000000  1
  C  C11  1  0.00000000  0.75865700  0.50000000  1
  C  C12  1  0.50000000  0.24134300  0.50000000  1
  C  C13  1  0.00000000  0.24134300  0.50000000  1
  C  C14  1  0.25000000  0.00000000  0.76620800  1
  C  C15  1  0.75000000  0.00000000  0.23379200  1
