# generated using pymatgen
data_Cu5NiC14
_symmetry_space_group_name_H-M   'P 1'
_cell_length_a   13.81245573
_cell_length_b   13.83089711
_cell_length_c   13.87285465
_cell_angle_alpha   90.00000000
_cell_angle_beta   90.00000000
_cell_angle_gamma   90.00000000
_symmetry_Int_Tables_number   1
_chemical_formula_structural   Cu5NiC14
_chemical_formula_sum   'Cu40 Ni8 C112'
_cell_volume   2650.25148000
_cell_formula_units_Z   8
loop_
 _symmetry_equiv_pos_site_id
 _symmetry_equiv_pos_as_xyz
  1  'x, y, z'
loop_
 _atom_site_type_symbol
 _atom_site_label
 _atom_site_symmetry_multiplicity
 _atom_site_fract_x
 _atom_site_fract_y
 _atom_site_fract_z
 _atom_site_occupancy
  C  C0  1  0.87013919  0.37333905  0.64745973  1
  C  C1  1  0.62986081  0.87333905  0.35254027  1
  C  C2  1  0.37013919  0.62666095  0.85254027  1
  C  C3  1  0.12986081  0.12666095  0.14745973  1
  C  C4  1  0.12986081  0.62666095  0.35254027  1
  C  C5  1  0.37013919  0.12666095  0.64745973  1
  C  C6  1  0.62986081  0.37333905  0.14745973  1
  C  C7  1  0.87013919  0.87333905  0.85254027  1
  C  C8  1  0.61354453  0.12184146  0.88517814  1
  C  C9  1  0.88645547  0.62184146  0.11482186  1
  C  C10  1  0.11354453  0.87815854  0.61482186  1
  C  C11  1  0.38645547  0.37815854  0.38517814  1
  C  C12  1  0.38645547  0.87815854  0.11482186  1
  C  C13  1  0.11354453  0.37815854  0.88517814  1
  C  C14  1  0.88645547  0.12184146  0.38517814  1
  C  C15  1  0.61354453  0.62184146  0.61482186  1
  Ni  Ni16  1  0.16053055  0.12047575  0.43170086  1
  Ni  Ni17  1  0.33946945  0.62047575  0.56829914  1
  Ni  Ni18  1  0.66053055  0.87952425  0.06829914  1
  Ni  Ni19  1  0.83946945  0.37952425  0.93170086  1
  Ni  Ni20  1  0.83946945  0.87952425  0.56829914  1
  Ni  Ni21  1  0.66053055  0.37952425  0.43170086  1
  Ni  Ni22  1  0.33946945  0.12047575  0.93170086  1
  Ni  Ni23  1  0.16053055  0.62047575  0.06829914  1
  Cu  Cu24  1  0.32451290  0.36848086  0.09459108  1
  Cu  Cu25  1  0.17548710  0.86848086  0.90540892  1
  Cu  Cu26  1  0.82451290  0.63151914  0.40540892  1
  Cu  Cu27  1  0.67548710  0.13151914  0.59459108  1
  Cu  Cu28  1  0.67548710  0.63151914  0.90540892  1
  Cu  Cu29  1  0.82451290  0.13151914  0.09459108  1
  Cu  Cu30  1  0.17548710  0.36848086  0.59459108  1
  Cu  Cu31  1  0.32451290  0.86848086  0.40540892  1
  Cu  Cu32  1  0.87830576  0.91722168  0.13585597  1
  Cu  Cu33  1  0.62169424  0.41722168  0.86414403  1
  Cu  Cu34  1  0.37830576  0.08277832  0.36414403  1
  Cu  Cu35  1  0.12169424  0.58277832  0.63585597  1
  Cu  Cu36  1  0.12169424  0.08277832  0.86414403  1
  Cu  Cu37  1  0.37830576  0.58277832  0.13585597  1
  Cu  Cu38  1  0.62169424  0.91722168  0.63585597  1
  Cu  Cu39  1  0.87830576  0.41722168  0.36414403  1
  Cu  Cu40  1  0.40999360  0.83969378  0.61113463  1
  Cu  Cu41  1  0.09000640  0.33969378  0.38886537  1
  Cu  Cu42  1  0.90999360  0.16030622  0.88886537  1
  Cu  Cu43  1  0.59000640  0.66030622  0.11113463  1
  Cu  Cu44  1  0.59000640  0.16030622  0.38886537  1
  Cu  Cu45  1  0.90999360  0.66030622  0.61113463  1
  Cu  Cu46  1  0.09000640  0.83969378  0.11113463  1
  Cu  Cu47  1  0.40999360  0.33969378  0.88886537  1
  Cu  Cu48  1  0.62062197  0.59166601  0.32174595  1
  Cu  Cu49  1  0.87937803  0.09166601  0.67825405  1
  Cu  Cu50  1  0.12062197  0.40833399  0.17825405  1
  Cu  Cu51  1  0.37937803  0.90833399  0.82174595  1
  Cu  Cu52  1  0.37937803  0.40833399  0.67825405  1
  Cu  Cu53  1  0.12062197  0.90833399  0.32174595  1
  Cu  Cu54  1  0.87937803  0.59166601  0.82174595  1
  Cu  Cu55  1  0.62062197  0.09166601  0.17825405  1
  Cu  Cu56  1  0.09156679  0.66293529  0.85087542  1
  Cu  Cu57  1  0.40843321  0.16293529  0.14912458  1
  Cu  Cu58  1  0.59156679  0.33706471  0.64912458  1
  Cu  Cu59  1  0.90843321  0.83706471  0.35087542  1
  Cu  Cu60  1  0.90843321  0.33706471  0.14912458  1
  Cu  Cu61  1  0.59156679  0.83706471  0.85087542  1
  Cu  Cu62  1  0.40843321  0.66293529  0.35087542  1
  Cu  Cu63  1  0.09156679  0.16293529  0.64912458  1
  C  C64  1  0.63212591  0.03589665  0.64816020  1
  C  C65  1  0.86787409  0.53589665  0.35183980  1
  C  C66  1  0.13212591  0.96410335  0.85183980  1
  C  C67  1  0.36787409  0.46410335  0.14816020  1
  C  C68  1  0.36787409  0.96410335  0.35183980  1
  C  C69  1  0.13212591  0.46410335  0.64816020  1
  C  C70  1  0.86787409  0.03589665  0.14816020  1
  C  C71  1  0.63212591  0.53589665  0.85183980  1
  C  C72  1  0.51173421  0.39977474  0.90626086  1
  C  C73  1  0.98826579  0.89977474  0.09373914  1
  C  C74  1  0.01173421  0.60022526  0.59373914  1
  C  C75  1  0.48826579  0.10022526  0.40626086  1
  C  C76  1  0.48826579  0.60022526  0.09373914  1
  C  C77  1  0.01173421  0.10022526  0.90626086  1
  C  C78  1  0.98826579  0.39977474  0.40626086  1
  C  C79  1  0.51173421  0.89977474  0.59373914  1
  C  C80  1  0.83741888  0.12677982  0.97815105  1
  C  C81  1  0.66258112  0.62677982  0.02184895  1
  C  C82  1  0.33741888  0.87322018  0.52184895  1
  C  C83  1  0.16258112  0.37322018  0.47815105  1
  C  C84  1  0.16258112  0.87322018  0.02184895  1
  C  C85  1  0.33741888  0.37322018  0.97815105  1
  C  C86  1  0.66258112  0.12677982  0.47815105  1
  C  C87  1  0.83741888  0.62677982  0.52184895  1
  C  C88  1  0.57518730  0.77444011  0.11893531  1
  C  C89  1  0.92481270  0.27444011  0.88106469  1
  C  C90  1  0.07518730  0.22555989  0.38106469  1
  C  C91  1  0.42481270  0.72555989  0.61893531  1
  C  C92  1  0.42481270  0.22555989  0.88106469  1
  C  C93  1  0.07518730  0.72555989  0.11893531  1
  C  C94  1  0.92481270  0.77444011  0.61893531  1
  C  C95  1  0.57518730  0.27444011  0.38106469  1
  C  C96  1  0.29095398  0.85621802  0.88396093  1
  C  C97  1  0.20904602  0.35621802  0.11603907  1
  C  C98  1  0.79095398  0.14378198  0.61603907  1
  C  C99  1  0.70904602  0.64378198  0.38396093  1
  C  C100  1  0.70904602  0.14378198  0.11603907  1
  C  C101  1  0.79095398  0.64378198  0.88396093  1
  C  C102  1  0.20904602  0.85621802  0.38396093  1
  C  C103  1  0.29095398  0.35621802  0.61603907  1
  C  C104  1  0.36992773  0.12757181  0.25513313  1
  C  C105  1  0.13007227  0.62757181  0.74486687  1
  C  C106  1  0.86992773  0.87242819  0.24486687  1
  C  C107  1  0.63007227  0.37242819  0.75513313  1
  C  C108  1  0.63007227  0.87242819  0.74486687  1
  C  C109  1  0.86992773  0.37242819  0.25513313  1
  C  C110  1  0.13007227  0.12757181  0.75513313  1
  C  C111  1  0.36992773  0.62757181  0.24486687  1
  C  C112  1  0.10709978  0.52080125  0.15830147  1
  C  C113  1  0.39290022  0.02080125  0.84169853  1
  C  C114  1  0.60709978  0.47919875  0.34169853  1
  C  C115  1  0.89290022  0.97919875  0.65830147  1
  C  C116  1  0.89290022  0.47919875  0.84169853  1
  C  C117  1  0.60709978  0.97919875  0.15830147  1
  C  C118  1  0.39290022  0.52080125  0.65830147  1
  C  C119  1  0.10709978  0.02080125  0.34169853  1
  C  C120  1  0.02751121  0.84057964  0.35373322  1
  C  C121  1  0.47248879  0.34057964  0.64626678  1
  C  C122  1  0.52751121  0.15942036  0.14626678  1
  C  C123  1  0.97248879  0.65942036  0.85373322  1
  C  C124  1  0.97248879  0.15942036  0.64626678  1
  C  C125  1  0.52751121  0.65942036  0.35373322  1
  C  C126  1  0.47248879  0.84057964  0.85373322  1
  C  C127  1  0.02751121  0.34057964  0.14626678  1
  C  C128  1  0.35636608  0.59941175  0.43156641  1
  C  C129  1  0.14363392  0.09941175  0.56843359  1
  C  C130  1  0.85636608  0.40058825  0.06843359  1
  C  C131  1  0.64363392  0.90058825  0.93156641  1
  C  C132  1  0.64363392  0.40058825  0.56843359  1
  C  C133  1  0.85636608  0.90058825  0.43156641  1
  C  C134  1  0.14363392  0.59941175  0.93156641  1
  C  C135  1  0.35636608  0.09941175  0.06843359  1
  C  C136  1  0.11624204  0.27945877  0.64331696  1
  C  C137  1  0.38375796  0.77945877  0.35668304  1
  C  C138  1  0.61624204  0.72054123  0.85668304  1
  C  C139  1  0.88375796  0.22054123  0.14331696  1
  C  C140  1  0.88375796  0.72054123  0.35668304  1
  C  C141  1  0.61624204  0.22054123  0.64331696  1
  C  C142  1  0.38375796  0.27945877  0.14331696  1
  C  C143  1  0.11624204  0.77945877  0.85668304  1
  C  C144  1  0.80000714  0.37028638  0.43455404  1
  C  C145  1  0.69999286  0.87028638  0.56544596  1
  C  C146  1  0.30000714  0.62971362  0.06544596  1
  C  C147  1  0.19999286  0.12971362  0.93455404  1
  C  C148  1  0.19999286  0.62971362  0.56544596  1
  C  C149  1  0.30000714  0.12971362  0.43455404  1
  C  C150  1  0.69999286  0.37028638  0.93455404  1
  C  C151  1  0.80000714  0.87028638  0.06544596  1
  C  C152  1  0.85645590  0.61156209  0.70628987  1
  C  C153  1  0.64354410  0.11156209  0.29371013  1
  C  C154  1  0.35645590  0.38843791  0.79371013  1
  C  C155  1  0.14354410  0.88843791  0.20628987  1
  C  C156  1  0.14354410  0.38843791  0.29371013  1
  C  C157  1  0.35645590  0.88843791  0.70628987  1
  C  C158  1  0.64354410  0.61156209  0.20628987  1
  C  C159  1  0.85645590  0.11156209  0.79371013  1
