# generated using pymatgen
data_Cu15NiC4
_symmetry_space_group_name_H-M   'P 1'
_cell_length_a   7.72102474
_cell_length_b   13.97837748
_cell_length_c   15.02341097
_cell_angle_alpha   90.00000000
_cell_angle_beta   90.00000000
_cell_angle_gamma   90.00000000
_symmetry_Int_Tables_number   1
_chemical_formula_structural   Cu15NiC4
_chemical_formula_sum   'Cu60 Ni4 C16'
_cell_volume   1621.43766031
_cell_formula_units_Z   4
loop_
 _symmetry_equiv_pos_site_id
 _symmetry_equiv_pos_as_xyz
  1  'x, y, z'
loop_
 _atom_site_type_symbol
 _atom_site_label
 _atom_site_symmetry_multiplicity
 _atom_site_fract_x
 _atom_site_fract_y
 _atom_site_fract_z
 _atom_site_occupancy
  C  C0  1  0.60350712  0.68524655  0.87620100  1
  C  C1  1  0.89649288  0.31475345  0.37620100  1
  C  C2  1  0.10350712  0.81475345  0.12379900  1
  C  C3  1  0.39649288  0.18524655  0.62379900  1
  C  C4  1  0.86968408  0.51896014  0.06805363  1
  C  C5  1  0.63031592  0.48103986  0.56805363  1
  C  C6  1  0.36968408  0.98103986  0.93194637  1
  C  C7  1  0.13031592  0.01896014  0.43194637  1
  C  C8  1  0.75132803  0.20664094  0.11361992  1
  C  C9  1  0.74867197  0.79335906  0.61361992  1
  C  C10  1  0.25132803  0.29335906  0.88638008  1
  C  C11  1  0.24867197  0.70664094  0.38638008  1
  C  C12  1  0.84186598  0.00084958  0.22781277  1
  C  C13  1  0.65813402  0.99915042  0.72781277  1
  C  C14  1  0.34186598  0.49915042  0.77218723  1
  C  C15  1  0.15813402  0.50084958  0.27218723  1
  Ni  Ni16  1  0.82418214  0.75110242  0.30324147  1
  Ni  Ni17  1  0.67581786  0.24889758  0.80324147  1
  Ni  Ni18  1  0.32418214  0.74889758  0.69675853  1
  Ni  Ni19  1  0.17581786  0.25110242  0.19675853  1
  Cu  Cu20  1  0.91672848  0.93587181  0.14337113  1
  Cu  Cu21  1  0.58327152  0.06412819  0.64337113  1
  Cu  Cu22  1  0.41672848  0.56412819  0.85662887  1
  Cu  Cu23  1  0.08327152  0.43587181  0.35662887  1
  Cu  Cu24  1  0.92367768  0.98675437  0.32944869  1
  Cu  Cu25  1  0.57632232  0.01324563  0.82944869  1
  Cu  Cu26  1  0.42367768  0.51324563  0.67055131  1
  Cu  Cu27  1  0.07632232  0.48675437  0.17055131  1
  Cu  Cu28  1  0.68703380  0.08116770  0.20818536  1
  Cu  Cu29  1  0.81296620  0.91883230  0.70818536  1
  Cu  Cu30  1  0.18703380  0.41883230  0.79181464  1
  Cu  Cu31  1  0.31296620  0.58116770  0.29181464  1
  Cu  Cu32  1  0.51797584  0.75502899  0.71453134  1
  Cu  Cu33  1  0.98202416  0.24497101  0.21453134  1
  Cu  Cu34  1  0.01797584  0.74497101  0.28546866  1
  Cu  Cu35  1  0.48202416  0.25502899  0.78546866  1
  Cu  Cu36  1  0.46026048  0.81792171  0.03108320  1
  Cu  Cu37  1  0.03973952  0.18207829  0.53108320  1
  Cu  Cu38  1  0.96026048  0.68207829  0.96891680  1
  Cu  Cu39  1  0.53973952  0.31792171  0.46891680  1
  Cu  Cu40  1  0.93944182  0.85168493  0.88132249  1
  Cu  Cu41  1  0.56055818  0.14831507  0.38132249  1
  Cu  Cu42  1  0.43944182  0.64831507  0.11867751  1
  Cu  Cu43  1  0.06055818  0.35168493  0.61867751  1
  Cu  Cu44  1  0.53239065  0.60016891  0.06883226  1
  Cu  Cu45  1  0.96760935  0.39983109  0.56883226  1
  Cu  Cu46  1  0.03239065  0.89983109  0.93116774  1
  Cu  Cu47  1  0.46760935  0.10016891  0.43116774  1
  Cu  Cu48  1  0.96875595  0.68179362  0.05943677  1
  Cu  Cu49  1  0.53124405  0.31820638  0.55943677  1
  Cu  Cu50  1  0.46875595  0.81820638  0.94056323  1
  Cu  Cu51  1  0.03124405  0.18179362  0.44056323  1
  Cu  Cu52  1  0.85479995  0.61213103  0.93595362  1
  Cu  Cu53  1  0.64520005  0.38786897  0.43595362  1
  Cu  Cu54  1  0.35479995  0.88786897  0.06404638  1
  Cu  Cu55  1  0.14520005  0.11213103  0.56404638  1
  Cu  Cu56  1  0.65593644  0.39705113  0.17473915  1
  Cu  Cu57  1  0.84406356  0.60294887  0.67473915  1
  Cu  Cu58  1  0.15593644  0.10294887  0.82526085  1
  Cu  Cu59  1  0.34406356  0.89705113  0.32526085  1
  Cu  Cu60  1  0.62342349  0.35362283  0.98333997  1
  Cu  Cu61  1  0.87657651  0.64637717  0.48333997  1
  Cu  Cu62  1  0.12342349  0.14637717  0.01666003  1
  Cu  Cu63  1  0.37657651  0.85362283  0.51666003  1
  Cu  Cu64  1  0.96573033  0.35949663  0.00707247  1
  Cu  Cu65  1  0.53426967  0.64050337  0.50707247  1
  Cu  Cu66  1  0.46573033  0.14050337  0.99292753  1
  Cu  Cu67  1  0.03426967  0.85949663  0.49292753  1
  Cu  Cu68  1  0.96242438  0.13066196  0.01069930  1
  Cu  Cu69  1  0.53757562  0.86933804  0.51069930  1
  Cu  Cu70  1  0.46242438  0.36933804  0.98930070  1
  Cu  Cu71  1  0.03757562  0.63066196  0.48930070  1
  Cu  Cu72  1  0.45324405  0.17382981  0.07147019  1
  Cu  Cu73  1  0.04675595  0.82617019  0.57147019  1
  Cu  Cu74  1  0.95324405  0.32617019  0.92852981  1
  Cu  Cu75  1  0.54675595  0.67382981  0.42852981  1
  Cu  Cu76  1  0.70003781  0.42882064  0.24902308  1
  Cu  Cu77  1  0.79996219  0.57117936  0.74902308  1
  Cu  Cu78  1  0.20003781  0.07117936  0.75097692  1
  Cu  Cu79  1  0.29996219  0.92882064  0.25097692  1
