# generated using pymatgen
data_Cu5Ni2C5
_symmetry_space_group_name_H-M   'P 1'
_cell_length_a   4.10405500
_cell_length_b   3.92196900
_cell_length_c   11.65906005
_cell_angle_alpha   99.68283623
_cell_angle_beta   100.13702407
_cell_angle_gamma   90.00000000
_symmetry_Int_Tables_number   1
_chemical_formula_structural   Cu5Ni2C5
_chemical_formula_sum   'Cu5 Ni2 C5'
_cell_volume   182.01795382
_cell_formula_units_Z   1
loop_
 _symmetry_equiv_pos_site_id
 _symmetry_equiv_pos_as_xyz
  1  'x, y, z'
loop_
 _atom_site_type_symbol
 _atom_site_label
 _atom_site_symmetry_multiplicity
 _atom_site_fract_x
 _atom_site_fract_y
 _atom_site_fract_z
 _atom_site_occupancy
  C  C0  1  0.50000000  0.50000000  0.00000000  1
  C  C1  1  0.66275000  0.66275000  0.32549800  1
  C  C2  1  0.33725000  0.33725000  0.67450200  1
  C  C3  1  0.08439800  0.08439800  0.16879600  1
  C  C4  1  0.91560200  0.91560200  0.83120400  1
  Ni  Ni5  1  0.19380600  0.19380600  0.38761200  1
  Ni  Ni6  1  0.80619400  0.80619400  0.61238800  1
  Cu  Cu7  1  0.08536100  0.58536100  0.17072300  1
  Cu  Cu8  1  0.58492800  0.08492800  0.16985800  1
  Cu  Cu9  1  0.91463900  0.41463900  0.82927700  1
  Cu  Cu10  1  0.41507200  0.91507200  0.83014200  1
  Cu  Cu11  1  0.00000000  0.00000000  0.00000000  1
