# generated using pymatgen
data_Cu4NiC6
_symmetry_space_group_name_H-M   'P 1'
_cell_length_a   7.14269200
_cell_length_b   7.14269200
_cell_length_c   5.84052000
_cell_angle_alpha   90.00000000
_cell_angle_beta   90.00000000
_cell_angle_gamma   90.00000000
_symmetry_Int_Tables_number   1
_chemical_formula_structural   Cu4NiC6
_chemical_formula_sum   'Cu8 Ni2 C12'
_cell_volume   297.97193559
_cell_formula_units_Z   2
loop_
 _symmetry_equiv_pos_site_id
 _symmetry_equiv_pos_as_xyz
  1  'x, y, z'
loop_
 _atom_site_type_symbol
 _atom_site_label
 _atom_site_symmetry_multiplicity
 _atom_site_fract_x
 _atom_site_fract_y
 _atom_site_fract_z
 _atom_site_occupancy
  C  C0  1  0.00000000  0.50000000  0.69782900  1
  C  C1  1  0.50000000  0.00000000  0.80217100  1
  C  C2  1  0.50000000  0.00000000  0.30217100  1
  C  C3  1  0.00000000  0.50000000  0.19782900  1
  C  C4  1  0.20501400  0.20501400  0.50000000  1
  C  C5  1  0.79498600  0.79498600  0.50000000  1
  C  C6  1  0.70501400  0.70501400  0.00000000  1
  C  C7  1  0.29498600  0.29498600  0.00000000  1
  C  C8  1  0.79498600  0.20501400  0.50000000  1
  C  C9  1  0.20501400  0.79498600  0.50000000  1
  C  C10  1  0.29498600  0.70501400  0.00000000  1
  C  C11  1  0.70501400  0.29498600  0.00000000  1
  Ni  Ni12  1  0.50000000  0.50000000  0.50000000  1
  Ni  Ni13  1  0.00000000  0.00000000  0.00000000  1
  Cu  Cu14  1  0.30939000  0.50000000  0.34077600  1
  Cu  Cu15  1  0.69061000  0.50000000  0.34077600  1
  Cu  Cu16  1  0.80939000  0.00000000  0.15922400  1
  Cu  Cu17  1  0.19061000  0.00000000  0.15922400  1
  Cu  Cu18  1  0.50000000  0.30939000  0.65922400  1
  Cu  Cu19  1  0.50000000  0.69061000  0.65922400  1
  Cu  Cu20  1  0.00000000  0.80939000  0.84077600  1
  Cu  Cu21  1  0.00000000  0.19061000  0.84077600  1
