# generated using pymatgen
data_Cu(NiC3)3
_symmetry_space_group_name_H-M   'P 1'
_cell_length_a   9.93255392
_cell_length_b   9.93255392
_cell_length_c   14.46513200
_cell_angle_alpha   90.00000000
_cell_angle_beta   90.00000000
_cell_angle_gamma   119.99999949
_symmetry_Int_Tables_number   1
_chemical_formula_structural   Cu(NiC3)3
_chemical_formula_sum   'Cu6 Ni18 C54'
_cell_volume   1235.87599848
_cell_formula_units_Z   6
loop_
 _symmetry_equiv_pos_site_id
 _symmetry_equiv_pos_as_xyz
  1  'x, y, z'
loop_
 _atom_site_type_symbol
 _atom_site_label
 _atom_site_symmetry_multiplicity
 _atom_site_fract_x
 _atom_site_fract_y
 _atom_site_fract_z
 _atom_site_occupancy
  Ni  Ni0  1  0.00000000  0.00000000  0.50000000  1
  Ni  Ni1  1  0.33187800  0.00000000  0.09183400  1
  Ni  Ni2  1  0.33187800  0.33187800  0.59183400  1
  Ni  Ni3  1  0.00000000  0.66812200  0.59183400  1
  Ni  Ni4  1  0.00000000  0.33187800  0.09183400  1
  Ni  Ni5  1  0.66812200  0.66812200  0.09183400  1
  Ni  Ni6  1  0.33187800  0.00000000  0.40816600  1
  Ni  Ni7  1  0.00000000  0.00000000  0.00000000  1
  Ni  Ni8  1  0.33333300  0.66666700  0.75000000  1
  Ni  Ni9  1  0.66666700  0.33333300  0.25000000  1
  Ni  Ni10  1  0.66666700  0.33333300  0.75000000  1
  Ni  Ni11  1  0.33333300  0.66666700  0.25000000  1
  Ni  Ni12  1  0.66812200  0.66812200  0.40816600  1
  Ni  Ni13  1  0.66812200  0.00000000  0.90816600  1
  Ni  Ni14  1  0.00000000  0.66812200  0.90816600  1
  Ni  Ni15  1  0.00000000  0.33187800  0.40816600  1
  Ni  Ni16  1  0.66812200  0.00000000  0.59183400  1
  Ni  Ni17  1  0.33187800  0.33187800  0.90816600  1
  Cu  Cu18  1  0.00000000  0.00000000  0.75000000  1
  Cu  Cu19  1  0.33333300  0.66666700  0.00000000  1
  Cu  Cu20  1  0.66666700  0.33333300  0.50000000  1
  Cu  Cu21  1  0.66666700  0.33333300  0.00000000  1
  Cu  Cu22  1  0.33333300  0.66666700  0.50000000  1
  Cu  Cu23  1  0.00000000  0.00000000  0.25000000  1
  C  C24  1  0.65824800  0.65824800  0.85733400  1
  C  C25  1  0.34175200  0.00000000  0.85733400  1
  C  C26  1  0.00000000  0.34175200  0.85733400  1
  C  C27  1  0.00000000  0.65824800  0.35733400  1
  C  C28  1  0.34175200  0.00000000  0.64266600  1
  C  C29  1  0.34175200  0.34175200  0.35733400  1
  C  C30  1  0.65824800  0.00000000  0.35733400  1
  C  C31  1  0.34175200  0.34175200  0.14266600  1
  C  C32  1  0.00000000  0.65824800  0.14266600  1
  C  C33  1  0.00000000  0.34175200  0.64266600  1
  C  C34  1  0.65824800  0.65824800  0.64266600  1
  C  C35  1  0.65824800  0.00000000  0.14266600  1
  C  C36  1  0.40863900  0.00000000  0.75000000  1
  C  C37  1  0.40863900  0.40863900  0.25000000  1
  C  C38  1  0.00000000  0.59136100  0.25000000  1
  C  C39  1  0.00000000  0.40863900  0.75000000  1
  C  C40  1  0.59136100  0.59136100  0.75000000  1
  C  C41  1  0.59136100  0.00000000  0.25000000  1
  C  C42  1  0.82302600  0.82302600  0.85172000  1
  C  C43  1  0.17697400  0.00000000  0.85172000  1
  C  C44  1  0.00000000  0.17697400  0.85172000  1
  C  C45  1  0.00000000  0.82302600  0.35172000  1
  C  C46  1  0.17697400  0.00000000  0.64828000  1
  C  C47  1  0.17697400  0.17697400  0.35172000  1
  C  C48  1  0.82302600  0.00000000  0.35172000  1
  C  C49  1  0.17697400  0.17697400  0.14828000  1
  C  C50  1  0.00000000  0.82302600  0.14828000  1
  C  C51  1  0.00000000  0.17697400  0.64828000  1
  C  C52  1  0.82302600  0.82302600  0.64828000  1
  C  C53  1  0.82302600  0.00000000  0.14828000  1
  C  C54  1  0.32193900  0.84419300  0.90863900  1
  C  C55  1  0.15580700  0.47774600  0.90863900  1
  C  C56  1  0.52225400  0.67806100  0.90863900  1
  C  C57  1  0.47774600  0.32193900  0.40863900  1
  C  C58  1  0.67806100  0.52225400  0.59136100  1
  C  C59  1  0.67806100  0.15580700  0.40863900  1
  C  C60  1  0.84419300  0.52225400  0.40863900  1
  C  C61  1  0.15580700  0.67806100  0.09136100  1
  C  C62  1  0.52225400  0.84419300  0.09136100  1
  C  C63  1  0.47774600  0.15580700  0.59136100  1
  C  C64  1  0.84419300  0.32193900  0.59136100  1
  C  C65  1  0.32193900  0.47774600  0.09136100  1
  C  C66  1  0.67806100  0.15580700  0.09136100  1
  C  C67  1  0.84419300  0.52225400  0.09136100  1
  C  C68  1  0.47774600  0.32193900  0.09136100  1
  C  C69  1  0.52225400  0.67806100  0.59136100  1
  C  C70  1  0.32193900  0.47774600  0.40863900  1
  C  C71  1  0.32193900  0.84419300  0.59136100  1
  C  C72  1  0.67806100  0.52225400  0.90863900  1
  C  C73  1  0.15580700  0.67806100  0.40863900  1
  C  C74  1  0.52225400  0.84419300  0.40863900  1
  C  C75  1  0.47774600  0.15580700  0.90863900  1
  C  C76  1  0.84419300  0.32193900  0.90863900  1
  C  C77  1  0.15580700  0.47774600  0.59136100  1
