# generated using pymatgen
data_Cu4NiC18
_symmetry_space_group_name_H-M   'P 1'
_cell_length_a   7.11440498
_cell_length_b   7.11440494
_cell_length_c   6.25834000
_cell_angle_alpha   63.90658592
_cell_angle_beta   63.90658607
_cell_angle_gamma   66.43671859
_symmetry_Int_Tables_number   1
_chemical_formula_structural   Cu4NiC18
_chemical_formula_sum   'Cu4 Ni1 C18'
_cell_volume   246.98513772
_cell_formula_units_Z   1
loop_
 _symmetry_equiv_pos_site_id
 _symmetry_equiv_pos_as_xyz
  1  'x, y, z'
loop_
 _atom_site_type_symbol
 _atom_site_label
 _atom_site_symmetry_multiplicity
 _atom_site_fract_x
 _atom_site_fract_y
 _atom_site_fract_z
 _atom_site_occupancy
  Ni  Ni0  1  0.67125300  0.67125300  0.57874700  1
  C  C1  1  0.96839400  0.49205700  0.01977500  1
  C  C2  1  0.49205700  0.96839400  0.01977500  1
  C  C3  1  0.00169000  0.00169000  0.48483100  1
  C  C4  1  0.00169000  0.00169000  0.01178800  1
  Cu  Cu5  1  0.43811400  0.04535000  0.50826800  1
  Cu  Cu6  1  0.04535000  0.43811400  0.50826800  1
  Cu  Cu7  1  0.45773200  0.45773200  0.05859400  1
  Cu  Cu8  1  0.45773200  0.45773200  0.52594300  1
  C  C9  1  0.43510200  0.85266400  0.80344800  1
  C  C10  1  0.19047200  0.53290200  0.59211000  1
  C  C11  1  0.85266400  0.43510200  0.80344800  1
  C  C12  1  0.86241900  0.86241900  0.38758100  1
  C  C13  1  0.47380100  0.47380100  0.77619900  1
  C  C14  1  0.43510200  0.85266400  0.40878500  1
  C  C15  1  0.19047200  0.53290200  0.18451600  1
  C  C16  1  0.53290200  0.19047200  0.59211000  1
  C  C17  1  0.16126000  0.16126000  0.08874000  1
  C  C18  1  0.86052200  0.86052200  0.88947800  1
  C  C19  1  0.85266400  0.43510200  0.40878500  1
  C  C20  1  0.54910700  0.54910700  0.20089300  1
  C  C21  1  0.16659700  0.16659700  0.58340300  1
  C  C22  1  0.53290200  0.19047200  0.18451600  1
