# generated using pymatgen
data_CuNiC3
_symmetry_space_group_name_H-M   'P 1'
_cell_length_a   7.78221800
_cell_length_b   8.06059300
_cell_length_c   11.15511500
_cell_angle_alpha   90.00000000
_cell_angle_beta   90.00000000
_cell_angle_gamma   90.00000000
_symmetry_Int_Tables_number   1
_chemical_formula_structural   CuNiC3
_chemical_formula_sum   'Cu4 Ni4 C12'
_cell_volume   699.75246541
_cell_formula_units_Z   4
loop_
 _symmetry_equiv_pos_site_id
 _symmetry_equiv_pos_as_xyz
  1  'x, y, z'
loop_
 _atom_site_type_symbol
 _atom_site_label
 _atom_site_symmetry_multiplicity
 _atom_site_fract_x
 _atom_site_fract_y
 _atom_site_fract_z
 _atom_site_occupancy
  Ni  Ni0  1  0.01659500  0.43627800  0.25000000  1
  Ni  Ni1  1  0.98340500  0.56372200  0.75000000  1
  Ni  Ni2  1  0.51659500  0.06372200  0.75000000  1
  Ni  Ni3  1  0.48340500  0.93627800  0.25000000  1
  Cu  Cu4  1  0.00000000  0.00000000  0.00000000  1
  Cu  Cu5  1  0.50000000  0.50000000  0.00000000  1
  Cu  Cu6  1  0.00000000  0.00000000  0.50000000  1
  Cu  Cu7  1  0.50000000  0.50000000  0.50000000  1
  C  C8  1  0.30466000  0.19843000  0.05120000  1
  C  C9  1  0.69534000  0.80157000  0.94880000  1
  C  C10  1  0.80466000  0.30157000  0.94880000  1
  C  C11  1  0.69534000  0.80157000  0.55120000  1
  C  C12  1  0.19534000  0.69843000  0.05120000  1
  C  C13  1  0.30466000  0.19843000  0.44880000  1
  C  C14  1  0.19534000  0.69843000  0.44880000  1
  C  C15  1  0.80466000  0.30157000  0.55120000  1
  C  C16  1  0.60055200  0.53251500  0.25000000  1
  C  C17  1  0.39944800  0.46748500  0.75000000  1
  C  C18  1  0.10055200  0.96748500  0.75000000  1
  C  C19  1  0.89944800  0.03251500  0.25000000  1
