# generated using pymatgen
data_CuNiC7
_symmetry_space_group_name_H-M   'P 1'
_cell_length_a   8.93446000
_cell_length_b   9.40250900
_cell_length_c   11.61100821
_cell_angle_alpha   66.27408623
_cell_angle_beta   90.00000000
_cell_angle_gamma   90.00000000
_symmetry_Int_Tables_number   1
_chemical_formula_structural   CuNiC7
_chemical_formula_sum   'Cu8 Ni8 C56'
_cell_volume   892.95833396
_cell_formula_units_Z   8
loop_
 _symmetry_equiv_pos_site_id
 _symmetry_equiv_pos_as_xyz
  1  'x, y, z'
loop_
 _atom_site_type_symbol
 _atom_site_label
 _atom_site_symmetry_multiplicity
 _atom_site_fract_x
 _atom_site_fract_y
 _atom_site_fract_z
 _atom_site_occupancy
  C  C0  1  0.64832900  0.32987200  0.67860000  1
  C  C1  1  0.14832900  0.17012800  0.32140000  1
  C  C2  1  0.35167100  0.67012800  0.32140000  1
  C  C3  1  0.85167100  0.82987200  0.67860000  1
  C  C4  1  0.09825000  0.27568600  0.61117200  1
  C  C5  1  0.59825000  0.22431400  0.38882800  1
  C  C6  1  0.90175000  0.72431400  0.38882800  1
  C  C7  1  0.40175000  0.77568600  0.61117200  1
  C  C8  1  0.21270400  0.10434500  0.68926700  1
  C  C9  1  0.71270400  0.39565500  0.31073300  1
  C  C10  1  0.78729600  0.89565500  0.31073300  1
  C  C11  1  0.28729600  0.60434500  0.68926700  1
  C  C12  1  0.23556300  0.27205200  0.72643100  1
  C  C13  1  0.73556300  0.22794800  0.27356900  1
  C  C14  1  0.76443700  0.72794800  0.27356900  1
  C  C15  1  0.26443700  0.77205200  0.72643100  1
  C  C16  1  0.84209500  0.37318900  0.05256300  1
  C  C17  1  0.34209500  0.12681100  0.94743700  1
  C  C18  1  0.15790500  0.62681100  0.94743700  1
  C  C19  1  0.65790500  0.87318900  0.05256300  1
  C  C20  1  0.68504400  0.33298900  0.97074700  1
  C  C21  1  0.18504400  0.16701100  0.02925300  1
  C  C22  1  0.31495600  0.66701100  0.02925300  1
  C  C23  1  0.81495600  0.83298900  0.97074700  1
  C  C24  1  0.84969900  0.21274400  0.00569200  1
  C  C25  1  0.34969900  0.28725600  0.99430800  1
  C  C26  1  0.15030100  0.78725600  0.99430800  1
  C  C27  1  0.65030100  0.71274400  0.00569200  1
  Ni  Ni28  1  0.20746300  0.23122100  0.65302100  1
  Ni  Ni29  1  0.70746300  0.26877900  0.34697900  1
  Ni  Ni30  1  0.79253700  0.76877900  0.34697900  1
  Ni  Ni31  1  0.29253700  0.73122100  0.65302100  1
  Ni  Ni32  1  0.80676200  0.33025900  0.98185800  1
  Ni  Ni33  1  0.30676200  0.16974100  0.01814200  1
  Ni  Ni34  1  0.19323800  0.66974100  0.01814200  1
  Ni  Ni35  1  0.69323800  0.83025900  0.98185800  1
  Cu  Cu36  1  0.34099300  0.30690300  0.53219100  1
  Cu  Cu37  1  0.84099300  0.19309700  0.46780900  1
  Cu  Cu38  1  0.65900700  0.69309700  0.46780900  1
  Cu  Cu39  1  0.15900700  0.80690300  0.53219100  1
  Cu  Cu40  1  0.88940800  0.45097900  0.83675800  1
  Cu  Cu41  1  0.38940800  0.04902100  0.16324200  1
  Cu  Cu42  1  0.11059200  0.54902100  0.16324200  1
  Cu  Cu43  1  0.61059200  0.95097900  0.83675800  1
  C  C44  1  0.53067500  0.39412300  0.75274100  1
  C  C45  1  0.03067500  0.10587700  0.24725900  1
  C  C46  1  0.46932500  0.60587700  0.24725900  1
  C  C47  1  0.96932500  0.89412300  0.75274100  1
  C  C48  1  0.31112100  0.25149000  0.43375900  1
  C  C49  1  0.81112100  0.24851000  0.56624100  1
  C  C50  1  0.68887900  0.74851000  0.56624100  1
  C  C51  1  0.18887900  0.75149000  0.43375900  1
  C  C52  1  0.32696100  0.47798200  0.48865700  1
  C  C53  1  0.82696100  0.02201800  0.51134300  1
  C  C54  1  0.67303900  0.52201800  0.51134300  1
  C  C55  1  0.17303900  0.97798200  0.48865700  1
  C  C56  1  0.49079100  0.25039100  0.58796400  1
  C  C57  1  0.99079100  0.24960900  0.41203600  1
  C  C58  1  0.50920900  0.74960900  0.41203600  1
  C  C59  1  0.00920900  0.75039100  0.58796400  1
  C  C60  1  0.05024300  0.44650700  0.85073200  1
  C  C61  1  0.55024300  0.05349300  0.14926800  1
  C  C62  1  0.94975700  0.55349300  0.14926800  1
  C  C63  1  0.44975700  0.94650700  0.85073200  1
  C  C64  1  0.81984600  0.60706700  0.80814200  1
  C  C65  1  0.31984600  0.89293300  0.19185800  1
  C  C66  1  0.18015400  0.39293300  0.19185800  1
  C  C67  1  0.68015400  0.10706700  0.80814200  1
  C  C68  1  0.84263500  0.38987000  0.74137300  1
  C  C69  1  0.34263500  0.11013000  0.25862700  1
  C  C70  1  0.15736500  0.61013000  0.25862700  1
  C  C71  1  0.65736500  0.88987000  0.74137300  1
