# generated using pymatgen
data_CuNiC5
_symmetry_space_group_name_H-M   'P 1'
_cell_length_a   5.75935900
_cell_length_b   10.38314100
_cell_length_c   13.35618300
_cell_angle_alpha   90.00000000
_cell_angle_beta   90.00000000
_cell_angle_gamma   90.00000000
_symmetry_Int_Tables_number   1
_chemical_formula_structural   CuNiC5
_chemical_formula_sum   'Cu8 Ni8 C40'
_cell_volume   798.70290303
_cell_formula_units_Z   8
loop_
 _symmetry_equiv_pos_site_id
 _symmetry_equiv_pos_as_xyz
  1  'x, y, z'
loop_
 _atom_site_type_symbol
 _atom_site_label
 _atom_site_symmetry_multiplicity
 _atom_site_fract_x
 _atom_site_fract_y
 _atom_site_fract_z
 _atom_site_occupancy
  Ni  Ni0  1  0.25000000  0.82634100  0.71252800  1
  Ni  Ni1  1  0.25000000  0.67365900  0.21252800  1
  Ni  Ni2  1  0.75000000  0.17365900  0.28747200  1
  Ni  Ni3  1  0.75000000  0.32634100  0.78747200  1
  Ni  Ni4  1  0.25000000  0.10295700  0.91581100  1
  Ni  Ni5  1  0.25000000  0.39704300  0.41581100  1
  Ni  Ni6  1  0.75000000  0.89704300  0.08418900  1
  Ni  Ni7  1  0.75000000  0.60295700  0.58418900  1
  Cu  Cu8  1  0.25000000  0.48546600  0.91535200  1
  Cu  Cu9  1  0.25000000  0.01453400  0.41535200  1
  Cu  Cu10  1  0.75000000  0.51453400  0.08464800  1
  Cu  Cu11  1  0.75000000  0.98546600  0.58464800  1
  Cu  Cu12  1  0.25000000  0.19038100  0.64326300  1
  Cu  Cu13  1  0.25000000  0.30961900  0.14326300  1
  Cu  Cu14  1  0.75000000  0.80961900  0.35673700  1
  Cu  Cu15  1  0.75000000  0.69038100  0.85673700  1
  C  C16  1  0.25000000  0.78320100  0.96912600  1
  C  C17  1  0.25000000  0.71679900  0.46912600  1
  C  C18  1  0.75000000  0.21679900  0.03087400  1
  C  C19  1  0.75000000  0.28320100  0.53087400  1
  C  C20  1  0.25000000  0.47689000  0.69249300  1
  C  C21  1  0.25000000  0.02311000  0.19249300  1
  C  C22  1  0.75000000  0.52311000  0.30750700  1
  C  C23  1  0.75000000  0.97689000  0.80750700  1
  C  C24  1  0.25000000  0.88146600  0.08831900  1
  C  C25  1  0.25000000  0.61853400  0.58831900  1
  C  C26  1  0.75000000  0.11853400  0.91168100  1
  C  C27  1  0.75000000  0.38146600  0.41168100  1
  C  C28  1  0.25000000  0.31895500  0.79036600  1
  C  C29  1  0.25000000  0.18104500  0.29036600  1
  C  C30  1  0.75000000  0.68104500  0.20963400  1
  C  C31  1  0.75000000  0.81895500  0.70963400  1
  C  C32  1  0.50966500  0.13963900  0.50703600  1
  C  C33  1  0.99033500  0.36036100  0.00703600  1
  C  C34  1  0.00966500  0.86036100  0.49296400  1
  C  C35  1  0.49033500  0.63963900  0.99296400  1
  C  C36  1  0.49033500  0.86036100  0.49296400  1
  C  C37  1  0.00966500  0.63963900  0.99296400  1
  C  C38  1  0.99033500  0.13963900  0.50703600  1
  C  C39  1  0.50966500  0.36036100  0.00703600  1
  C  C40  1  0.51000200  0.05801700  0.71720600  1
  C  C41  1  0.98999800  0.44198300  0.21720600  1
  C  C42  1  0.01000200  0.94198300  0.28279400  1
  C  C43  1  0.48999800  0.55801700  0.78279400  1
  C  C44  1  0.48999800  0.94198300  0.28279400  1
  C  C45  1  0.01000200  0.55801700  0.78279400  1
  C  C46  1  0.98999800  0.05801700  0.71720600  1
  C  C47  1  0.51000200  0.44198300  0.21720600  1
  C  C48  1  0.99911800  0.36780700  0.61113500  1
  C  C49  1  0.50088200  0.13219300  0.11113500  1
  C  C50  1  0.49911800  0.63219300  0.38886500  1
  C  C51  1  0.00088200  0.86780700  0.88886500  1
  C  C52  1  0.00088200  0.63219300  0.38886500  1
  C  C53  1  0.49911800  0.86780700  0.88886500  1
  C  C54  1  0.50088200  0.36780700  0.61113500  1
  C  C55  1  0.99911800  0.13219300  0.11113500  1
