# generated using pymatgen
data_CuNiC6
_symmetry_space_group_name_H-M   'P 1'
_cell_length_a   5.53821600
_cell_length_b   11.11310200
_cell_length_c   15.78207200
_cell_angle_alpha   90.00000000
_cell_angle_beta   90.00000000
_cell_angle_gamma   90.00000000
_symmetry_Int_Tables_number   1
_chemical_formula_structural   CuNiC6
_chemical_formula_sum   'Cu8 Ni8 C48'
_cell_volume   971.33538673
_cell_formula_units_Z   8
loop_
 _symmetry_equiv_pos_site_id
 _symmetry_equiv_pos_as_xyz
  1  'x, y, z'
loop_
 _atom_site_type_symbol
 _atom_site_label
 _atom_site_symmetry_multiplicity
 _atom_site_fract_x
 _atom_site_fract_y
 _atom_site_fract_z
 _atom_site_occupancy
  C  C0  1  0.05143200  0.23506300  0.68603200  1
  C  C1  1  0.94856800  0.76493700  0.18603200  1
  C  C2  1  0.94856800  0.73506300  0.68603200  1
  C  C3  1  0.05143200  0.26493700  0.18603200  1
  C  C4  1  0.00460200  0.49014300  0.56182100  1
  C  C5  1  0.99539800  0.50985700  0.06182100  1
  C  C6  1  0.99539800  0.99014300  0.56182100  1
  C  C7  1  0.00460200  0.00985700  0.06182100  1
  C  C8  1  0.45688500  0.76052400  0.31640700  1
  C  C9  1  0.54311500  0.23947600  0.81640700  1
  C  C10  1  0.54311500  0.26052400  0.31640700  1
  C  C11  1  0.45688500  0.73947600  0.81640700  1
  C  C12  1  0.49363300  0.50821400  0.43870900  1
  C  C13  1  0.50636700  0.49178600  0.93870900  1
  C  C14  1  0.50636700  0.00821400  0.43870900  1
  C  C15  1  0.49363300  0.99178600  0.93870900  1
  Ni  Ni16  1  0.99166800  0.99036900  0.81125100  1
  Ni  Ni17  1  0.00833200  0.00963100  0.31125100  1
  Ni  Ni18  1  0.00833200  0.49036900  0.81125100  1
  Ni  Ni19  1  0.99166800  0.50963100  0.31125100  1
  Ni  Ni20  1  0.53146000  0.26080400  0.06366600  1
  Ni  Ni21  1  0.46854000  0.73919600  0.56366600  1
  Ni  Ni22  1  0.46854000  0.76080400  0.06366600  1
  Ni  Ni23  1  0.53146000  0.23919600  0.56366600  1
  Cu  Cu24  1  0.50906500  0.00768600  0.18892800  1
  Cu  Cu25  1  0.49093500  0.99231400  0.68892800  1
  Cu  Cu26  1  0.49093500  0.50768600  0.18892800  1
  Cu  Cu27  1  0.50906500  0.49231400  0.68892800  1
  Cu  Cu28  1  0.97343100  0.73518500  0.93554200  1
  Cu  Cu29  1  0.02656900  0.26481500  0.43554200  1
  Cu  Cu30  1  0.02656900  0.23518500  0.93554200  1
  Cu  Cu31  1  0.97343100  0.76481500  0.43554200  1
  C  C32  1  0.22107300  0.51221800  0.71322800  1
  C  C33  1  0.77892700  0.48778200  0.21322800  1
  C  C34  1  0.77892700  0.01221800  0.71322800  1
  C  C35  1  0.22107300  0.98778200  0.21322800  1
  C  C36  1  0.56091400  0.35206300  0.65822500  1
  C  C37  1  0.43908600  0.64793700  0.15822500  1
  C  C38  1  0.43908600  0.85206300  0.65822500  1
  C  C39  1  0.56091400  0.14793700  0.15822500  1
  C  C40  1  0.41864500  0.08493100  0.61068300  1
  C  C41  1  0.58135500  0.91506900  0.11068300  1
  C  C42  1  0.58135500  0.58493100  0.61068300  1
  C  C43  1  0.41864500  0.41506900  0.11068300  1
  C  C44  1  0.84028000  0.20729300  0.50693100  1
  C  C45  1  0.15972000  0.79270700  0.00693100  1
  C  C46  1  0.15972000  0.70729300  0.50693100  1
  C  C47  1  0.70680600  0.70935700  0.97910100  1
  C  C48  1  0.32482400  0.47877200  0.27389100  1
  C  C49  1  0.67517600  0.52122800  0.77389100  1
  C  C50  1  0.67517600  0.97877200  0.27389100  1
  C  C51  1  0.32482400  0.02122800  0.77389100  1
  C  C52  1  0.94366700  0.67361400  0.35350300  1
  C  C53  1  0.05633300  0.32638600  0.85350300  1
  C  C54  1  0.05633300  0.17361400  0.35350300  1
  C  C55  1  0.94366700  0.82638600  0.85350300  1
  C  C56  1  0.08689000  0.89462200  0.40208400  1
  C  C57  1  0.91311000  0.10537800  0.90208400  1
  C  C58  1  0.91311000  0.39462200  0.40208400  1
  C  C59  1  0.08689000  0.60537800  0.90208400  1
  C  C60  1  0.70680600  0.79064300  0.47910100  1
  C  C61  1  0.29319400  0.20935700  0.97910100  1
  C  C62  1  0.29319400  0.29064300  0.47910100  1
  C  C63  1  0.84028000  0.29270700  0.00693100  1
