# generated using pymatgen
data_CuNi3C14
_symmetry_space_group_name_H-M   'P 1'
_cell_length_a   10.95302787
_cell_length_b   15.44194420
_cell_length_c   10.86632322
_cell_angle_alpha   89.91279386
_cell_angle_beta   90.49287572
_cell_angle_gamma   89.88121999
_symmetry_Int_Tables_number   1
_chemical_formula_structural   CuNi3C14
_chemical_formula_sum   'Cu8 Ni24 C112'
_cell_volume   1837.81280723
_cell_formula_units_Z   8
loop_
 _symmetry_equiv_pos_site_id
 _symmetry_equiv_pos_as_xyz
  1  'x, y, z'
loop_
 _atom_site_type_symbol
 _atom_site_label
 _atom_site_symmetry_multiplicity
 _atom_site_fract_x
 _atom_site_fract_y
 _atom_site_fract_z
 _atom_site_occupancy
  C  C0  1  0.02038376  0.12832251  0.48378203  1
  C  C1  1  0.02507984  0.12305862  0.00034760  1
  C  C2  1  -0.00042406  0.60781823  0.51775771  1
  C  C3  1  0.01895230  0.61060204  0.97764946  1
  C  C4  1  0.50773551  0.12636538  0.51249826  1
  C  C5  1  0.52205762  0.11800698  0.97529789  1
  C  C6  1  0.53131866  0.62232057  0.49479319  1
  C  C7  1  0.54406248  0.62796313  0.00235279  1
  C  C8  1  0.49055635  0.36319103  0.01251414  1
  C  C9  1  0.47207362  0.38620916  0.50720399  1
  C  C10  1  0.50027178  0.87236364  0.98608647  1
  C  C11  1  0.48930491  0.87140060  0.49866190  1
  C  C12  1  0.97114851  0.38153947  0.00175016  1
  C  C13  1  0.98727475  0.38201301  0.50705431  1
  C  C14  1  0.98574432  0.86963307  0.00564092  1
  C  C15  1  0.96199000  0.88133094  0.52145642  1
  C  C16  1  0.25597572  0.39310842  0.26270513  1
  C  C17  1  0.24329604  0.38535285  0.75096933  1
  C  C18  1  0.23022078  0.89799401  0.25548347  1
  C  C19  1  0.24535498  0.88697316  0.78457519  1
  C  C20  1  0.73781051  0.39102917  0.24922661  1
  C  C21  1  0.71318169  0.38514604  0.75340008  1
  C  C22  1  0.73681541  0.86577884  0.24081866  1
  C  C23  1  0.72136498  0.87391990  0.74599818  1
  C  C24  1  0.26332660  0.12583669  0.27031569  1
  C  C25  1  0.27942593  0.12412309  0.74871424  1
  C  C26  1  0.27715411  0.61778921  0.26239793  1
  C  C27  1  0.25025931  0.61734931  0.73207200  1
  C  C28  1  0.73434767  0.11294825  0.23877877  1
  C  C29  1  0.71185481  0.11140683  0.73124564  1
  C  C30  1  0.76452931  0.61927269  0.25614522  1
  C  C31  1  0.77680555  0.62249534  0.75790440  1
  Ni  Ni32  1  0.99970422  0.00931473  0.25136303  1
  Ni  Ni33  1  0.99890711  0.99703384  0.74960317  1
  Ni  Ni34  1  0.99735123  0.48583587  0.24870471  1
  Ni  Ni35  1  0.00461178  0.49451031  0.75394469  1
  Ni  Ni36  1  0.49980270  0.50337315  0.24360969  1
  Ni  Ni37  1  0.50041385  0.50375546  0.74266316  1
  Ni  Ni38  1  0.25281672  0.99894811  0.00713461  1
  Ni  Ni39  1  0.24677967  0.50307660  0.50022679  1
  Ni  Ni40  1  0.74505477  0.99575438  0.00290394  1
  Ni  Ni41  1  0.72557245  0.00013317  0.50372718  1
  Ni  Ni42  1  0.74779155  0.49951537  0.00100364  1
  Ni  Ni43  1  0.75242728  0.49412965  0.50111434  1
  Ni  Ni44  1  0.26237640  0.73872922  0.98775927  1
  Ni  Ni45  1  0.24538794  0.75892544  0.46274974  1
  Ni  Ni46  1  0.74683649  0.24259773  0.98764804  1
  Ni  Ni47  1  0.75260409  0.25049561  0.49669471  1
  Ni  Ni48  1  0.76324020  0.74997952  0.00538246  1
  Ni  Ni49  1  0.75860298  0.74709499  0.50589328  1
  Ni  Ni50  1  0.98902859  0.25106182  0.76289683  1
  Ni  Ni51  1  0.00021970  0.76560009  0.27281363  1
  Ni  Ni52  1  0.00326553  0.75071273  0.76148826  1
  Ni  Ni53  1  0.49167004  0.25181284  0.74892587  1
  Ni  Ni54  1  0.51166618  0.74775286  0.25685831  1
  Ni  Ni55  1  0.50933549  0.74466289  0.75712864  1
  Cu  Cu56  1  0.49973504  0.98085748  0.23381692  1
  Cu  Cu57  1  0.48170321  0.99116516  0.74772919  1
  Cu  Cu58  1  0.22984482  0.00176454  0.52211343  1
  Cu  Cu59  1  0.23307062  0.49484991  0.01977835  1
  Cu  Cu60  1  0.23753113  0.25743284  0.97253177  1
  Cu  Cu61  1  0.27806779  0.24438709  0.48217398  1
  Cu  Cu62  1  0.04693678  0.23844222  0.24253232  1
  Cu  Cu63  1  0.52345818  0.26232216  0.27172666  1
  C  C64  1  0.54962355  0.23098388  0.11885460  1
  C  C65  1  0.59913561  0.26926170  0.60794719  1
  C  C66  1  0.61208699  0.77512060  0.10792597  1
  C  C67  1  0.60056119  0.76794308  0.60727501  1
  C  C68  1  0.40374479  0.21984524  0.36620367  1
  C  C69  1  0.38130429  0.22349514  0.91018401  1
  C  C70  1  0.41067734  0.72673769  0.39660360  1
  C  C71  1  0.41887416  0.72798649  0.91325027  1
  C  C72  1  0.95557859  0.14173718  0.25327617  1
  C  C73  1  0.91091642  0.23645281  0.93258420  1
  C  C74  1  0.92346944  0.72980782  0.41792786  1
  C  C75  1  0.91634734  0.73430824  0.92294457  1
  C  C76  1  0.13840601  0.23056180  0.37770279  1
  C  C77  1  0.14241886  0.21541443  0.85354367  1
  C  C78  1  0.16978157  0.74940105  0.28147354  1
  C  C79  1  0.16781352  0.73841312  0.82905993  1
  C  C80  1  0.66948476  0.24048300  0.33637338  1
  C  C81  1  0.63866134  0.23486409  0.84502616  1
  C  C82  1  0.66631543  0.73224671  0.35867894  1
  C  C83  1  0.66542331  0.73644488  0.85899254  1
  C  C84  1  0.34572500  0.26263148  0.64037908  1
  C  C85  1  0.91772560  0.24336627  0.59031915  1
  C  C86  1  0.87401892  0.76727680  0.15470323  1
  C  C87  1  0.86364299  0.77669794  0.65046532  1
  C  C88  1  0.35813541  0.48716489  0.12981306  1
  C  C89  1  0.35579710  0.48526046  0.64631050  1
  C  C90  1  0.35738880  0.01811836  0.17066834  1
  C  C91  1  0.33586038  0.98940535  0.65462273  1
  C  C92  1  0.85301677  0.49364711  0.14989124  1
  C  C93  1  0.85824883  0.47414217  0.64183756  1
  C  C94  1  0.84841912  0.98702223  0.15908076  1
  C  C95  1  0.84118434  0.99086853  0.65197717  1
  C  C96  1  0.14147311  0.02830816  0.35799844  1
  C  C97  1  0.13916884  0.02801079  0.86669259  1
  C  C98  1  0.14135824  0.50886620  0.34550951  1
  C  C99  1  0.18316745  0.51451586  0.86479750  1
  C  C100  1  0.58113364  0.03101879  0.35742820  1
  C  C101  1  0.63853341  0.00417543  0.85618943  1
  C  C102  1  0.64156204  0.51619669  0.34881197  1
  C  C103  1  0.63882873  0.52214513  0.85304018  1
  C  C104  1  0.39062088  0.00947479  0.89751889  1
  C  C105  1  0.38645834  0.51908332  0.39506750  1
  C  C106  1  0.89737176  0.51307391  0.38990007  1
  C  C107  1  0.89530077  0.50714309  0.89492265  1
  C  C108  1  0.09376543  0.48592120  0.10315550  1
  C  C109  1  0.10824941  0.48280754  0.60784015  1
  C  C110  1  0.10766111  0.99648844  0.10217639  1
  C  C111  1  0.08232386  0.00387543  0.58957867  1
  C  C112  1  0.60520202  0.48161496  0.09780711  1
  C  C113  1  0.61254268  0.47515812  0.59951325  1
  C  C114  1  0.59732659  0.98310374  0.10963146  1
  C  C115  1  0.58164258  0.98553924  0.61382036  1
  C  C116  1  0.97995706  0.34071502  0.22971403  1
  C  C117  1  0.02615426  0.37489600  0.78364038  1
  C  C118  1  0.00872429  0.89158440  0.30146230  1
  C  C119  1  0.02882169  0.87278312  0.78673617  1
  C  C120  1  0.49177053  0.37436206  0.27691754  1
  C  C121  1  0.49139442  0.37858107  0.79682927  1
  C  C122  1  0.47372176  0.87244572  0.27708895  1
  C  C123  1  0.47553240  0.86829452  0.77239501  1
  C  C124  1  0.49521133  0.12503521  0.72672562  1
  C  C125  1  0.48956520  0.62912111  0.20545324  1
  C  C126  1  0.47167118  0.62763742  0.71035452  1
  C  C127  1  0.99595882  0.62428623  0.73177498  1
  C  C128  1  0.16223588  0.21618087  0.11535832  1
  C  C129  1  0.26733592  0.12242318  0.51622842  1
  C  C130  1  0.22687532  0.62762377  0.04788970  1
  C  C131  1  0.20573514  0.64591875  0.53053915  1
  C  C132  1  0.74873862  0.12064328  0.02417616  1
  C  C133  1  0.74219668  0.12498230  0.51203224  1
  C  C134  1  0.75145007  0.62927941  0.03927220  1
  C  C135  1  0.75158268  0.61929156  0.54153660  1
  C  C136  1  0.25883836  0.36146377  0.46742299  1
  C  C137  1  0.25508650  0.37004414  0.99059143  1
  C  C138  1  0.26695646  0.89024603  0.46824922  1
  C  C139  1  0.26537486  0.86173122  0.01149558  1
  C  C140  1  0.77836745  0.36938806  0.45839093  1
  C  C141  1  0.75087671  0.36460457  0.99187068  1
  C  C142  1  0.75939319  0.88446912  0.45468912  1
  C  C143  1  0.78287730  0.87911076  0.96111183  1
