# generated using pymatgen
data_Cu5NiC7
_symmetry_space_group_name_H-M   'P 1'
_cell_length_a   5.41244896
_cell_length_b   5.41244896
_cell_length_c   9.02801900
_cell_angle_alpha   90.00000000
_cell_angle_beta   90.00000000
_cell_angle_gamma   119.99998733
_symmetry_Int_Tables_number   1
_chemical_formula_structural   Cu5NiC7
_chemical_formula_sum   'Cu5 Ni1 C7'
_cell_volume   229.03970729
_cell_formula_units_Z   1
loop_
 _symmetry_equiv_pos_site_id
 _symmetry_equiv_pos_as_xyz
  1  'x, y, z'
loop_
 _atom_site_type_symbol
 _atom_site_label
 _atom_site_symmetry_multiplicity
 _atom_site_fract_x
 _atom_site_fract_y
 _atom_site_fract_z
 _atom_site_occupancy
  C  C0  1  0.33333300  0.66666700  0.00000000  1
  C  C1  1  0.33399000  0.16699500  0.75407700  1
  C  C2  1  0.83300500  0.16699500  0.75407700  1
  C  C3  1  0.83300500  0.66601000  0.75407700  1
  C  C4  1  0.33399000  0.16699500  0.24592300  1
  C  C5  1  0.83300500  0.16699500  0.24592300  1
  C  C6  1  0.83300500  0.66601000  0.24592300  1
  Ni  Ni7  1  0.00000000  0.00000000  0.50000000  1
  Cu  Cu8  1  0.66666700  0.33333300  0.00000000  1
  Cu  Cu9  1  0.00000000  0.00000000  0.00000000  1
  Cu  Cu10  1  0.33333300  0.66666700  0.66691100  1
  Cu  Cu11  1  0.33333300  0.66666700  0.33308900  1
  Cu  Cu12  1  0.66666700  0.33333300  0.50000000  1
