# generated using pymatgen
data_Cu2Ni2C17
_symmetry_space_group_name_H-M   'P 1'
_cell_length_a   9.67486824
_cell_length_b   9.67486824
_cell_length_c   9.29134084
_cell_angle_alpha   80.80710844
_cell_angle_beta   80.80710844
_cell_angle_gamma   45.33683909
_symmetry_Int_Tables_number   1
_chemical_formula_structural   Cu2Ni2C17
_chemical_formula_sum   'Cu4 Ni4 C34'
_cell_volume   609.23269484
_cell_formula_units_Z   2
loop_
 _symmetry_equiv_pos_site_id
 _symmetry_equiv_pos_as_xyz
  1  'x, y, z'
loop_
 _atom_site_type_symbol
 _atom_site_label
 _atom_site_symmetry_multiplicity
 _atom_site_fract_x
 _atom_site_fract_y
 _atom_site_fract_z
 _atom_site_occupancy
  C  C0  1  0.48731000  0.22391900  0.10737900  1
  C  C1  1  0.77608100  0.51269000  0.39262100  1
  C  C2  1  0.51269000  0.77608100  0.89262100  1
  C  C3  1  0.22391900  0.48731000  0.60737900  1
  C  C4  1  0.69453300  0.30546700  0.75000000  1
  C  C5  1  0.30546700  0.69453300  0.25000000  1
  C  C6  1  0.50000000  0.00000000  0.50000000  1
  C  C7  1  0.00000000  0.50000000  0.00000000  1
  Ni  Ni8  1  0.78512200  0.09657700  0.42954100  1
  Ni  Ni9  1  0.90342300  0.21487800  0.07045900  1
  Ni  Ni10  1  0.21487800  0.90342300  0.57045900  1
  Ni  Ni11  1  0.09657700  0.78512200  0.92954100  1
  Cu  Cu12  1  0.67486200  0.99866400  0.76763700  1
  Cu  Cu13  1  0.00133600  0.32513800  0.73236300  1
  Cu  Cu14  1  0.32513800  0.00133600  0.23236300  1
  Cu  Cu15  1  0.99866400  0.67486200  0.26763700  1
  C  C16  1  0.86163700  0.90911200  0.66503600  1
  C  C17  1  0.09088800  0.13836300  0.83496400  1
  C  C18  1  0.13836300  0.09088800  0.33496400  1
  C  C19  1  0.90911200  0.86163700  0.16503600  1
  C  C20  1  0.53325600  0.00477800  0.69857800  1
  C  C21  1  0.99522200  0.46674400  0.80142200  1
  C  C22  1  0.46674400  0.99522200  0.30142200  1
  C  C23  1  0.00477800  0.53325600  0.19857800  1
  C  C24  1  0.71978600  0.88649100  0.91768200  1
  C  C25  1  0.11350900  0.28021400  0.58231800  1
  C  C26  1  0.28021400  0.11350900  0.08231800  1
  C  C27  1  0.88649100  0.71978600  0.41768200  1
  C  C28  1  0.54231800  0.17480300  0.43007200  1
  C  C29  1  0.82519700  0.45768200  0.06992800  1
  C  C30  1  0.45768200  0.82519700  0.56992800  1
  C  C31  1  0.17480300  0.54231800  0.93007200  1
  C  C32  1  0.56114300  0.21598900  0.78883100  1
  C  C33  1  0.78401100  0.43885700  0.71116900  1
  C  C34  1  0.43885700  0.78401100  0.21116900  1
  C  C35  1  0.21598900  0.56114300  0.28883100  1
  C  C36  1  0.71644400  0.28355600  0.25000000  1
  C  C37  1  0.28355600  0.71644400  0.75000000  1
  C  C38  1  0.70718900  0.29370300  0.53980600  1
  C  C39  1  0.70629700  0.29281100  0.96019400  1
  C  C40  1  0.29281100  0.70629700  0.46019400  1
  C  C41  1  0.29370300  0.70718900  0.03980600  1
