# generated using pymatgen
data_CuNiC32
_symmetry_space_group_name_H-M   'P 1'
_cell_length_a   8.73397328
_cell_length_b   8.73397328
_cell_length_c   11.85904200
_cell_angle_alpha   90.00000000
_cell_angle_beta   90.00000000
_cell_angle_gamma   90.02924495
_symmetry_Int_Tables_number   1
_chemical_formula_structural   CuNiC32
_chemical_formula_sum   'Cu2 Ni2 C64'
_cell_volume   904.63475522
_cell_formula_units_Z   2
loop_
 _symmetry_equiv_pos_site_id
 _symmetry_equiv_pos_as_xyz
  1  'x, y, z'
loop_
 _atom_site_type_symbol
 _atom_site_label
 _atom_site_symmetry_multiplicity
 _atom_site_fract_x
 _atom_site_fract_y
 _atom_site_fract_z
 _atom_site_occupancy
  C  C0  1  0.23307300  0.76692700  0.50000000  1
  C  C1  1  0.76692700  0.23307300  0.50000000  1
  C  C2  1  0.26168500  0.26168500  0.00000000  1
  C  C3  1  0.73831500  0.73831500  0.00000000  1
  C  C4  1  0.64337000  0.64337000  0.50000000  1
  C  C5  1  0.35663000  0.35663000  0.50000000  1
  C  C6  1  0.85637900  0.14362100  0.00000000  1
  C  C7  1  0.14362100  0.85637900  0.00000000  1
  C  C8  1  0.18383200  0.81616800  0.25286000  1
  C  C9  1  0.81616800  0.18383200  0.25286000  1
  C  C10  1  0.31745000  0.31745000  0.75514100  1
  C  C11  1  0.68255000  0.68255000  0.75514100  1
  C  C12  1  0.81616800  0.18383200  0.74714000  1
  C  C13  1  0.18383200  0.81616800  0.74714000  1
  C  C14  1  0.68255000  0.68255000  0.24485900  1
  C  C15  1  0.31745000  0.31745000  0.24485900  1
  C  C16  1  0.93426100  0.72436100  0.37321900  1
  C  C17  1  0.06573900  0.27563900  0.37321900  1
  C  C18  1  0.56568700  0.22590200  0.87923700  1
  C  C19  1  0.43431300  0.77409800  0.87923700  1
  C  C20  1  0.06573900  0.27563900  0.62678100  1
  C  C21  1  0.93426100  0.72436100  0.62678100  1
  C  C22  1  0.43431300  0.77409800  0.12076300  1
  C  C23  1  0.56568700  0.22590200  0.12076300  1
  C  C24  1  0.72436100  0.93426100  0.37321900  1
  C  C25  1  0.27563900  0.06573900  0.37321900  1
  C  C26  1  0.22590200  0.56568700  0.87923700  1
  C  C27  1  0.77409800  0.43431300  0.87923700  1
  C  C28  1  0.27563900  0.06573900  0.62678100  1
  C  C29  1  0.72436100  0.93426100  0.62678100  1
  C  C30  1  0.77409800  0.43431300  0.12076300  1
  C  C31  1  0.22590200  0.56568700  0.12076300  1
  C  C32  1  0.50000000  0.50000000  0.10823500  1
  C  C33  1  0.00000000  0.00000000  0.61608900  1
  C  C34  1  0.50000000  0.50000000  0.89176500  1
  C  C35  1  0.00000000  0.00000000  0.38391100  1
  C  C36  1  0.14190000  0.53720100  0.32440000  1
  C  C37  1  0.85810000  0.46279900  0.32440000  1
  C  C38  1  0.35913000  0.03673600  0.82575900  1
  C  C39  1  0.64087000  0.96326400  0.82575900  1
  C  C40  1  0.85810000  0.46279900  0.67560000  1
  C  C41  1  0.14190000  0.53720100  0.67560000  1
  C  C42  1  0.64087000  0.96326400  0.17424100  1
  C  C43  1  0.35913000  0.03673600  0.17424100  1
  C  C44  1  0.53720100  0.14190000  0.32440000  1
  C  C45  1  0.46279900  0.85810000  0.32440000  1
  C  C46  1  0.03673600  0.35913000  0.82575900  1
  C  C47  1  0.96326400  0.64087000  0.82575900  1
  C  C48  1  0.46279900  0.85810000  0.67560000  1
  C  C49  1  0.53720100  0.14190000  0.67560000  1
  C  C50  1  0.96326400  0.64087000  0.17424100  1
  C  C51  1  0.03673600  0.35913000  0.17424100  1
  C  C52  1  0.00000000  0.50000000  0.50000000  1
  C  C53  1  0.50000000  0.00000000  0.00000000  1
  C  C54  1  0.50000000  0.00000000  0.50000000  1
  C  C55  1  0.00000000  0.50000000  0.00000000  1
  C  C56  1  0.40254700  0.59745300  0.29614500  1
  C  C57  1  0.59745300  0.40254700  0.29614500  1
  C  C58  1  0.09712800  0.09712800  0.80044600  1
  C  C59  1  0.90287200  0.90287200  0.80044600  1
  C  C60  1  0.59745300  0.40254700  0.70385500  1
  C  C61  1  0.40254700  0.59745300  0.70385500  1
  C  C62  1  0.90287200  0.90287200  0.19955400  1
  C  C63  1  0.09712800  0.09712800  0.19955400  1
  Ni  Ni64  1  0.87440100  0.87440100  0.50000000  1
  Ni  Ni65  1  0.12559900  0.12559900  0.50000000  1
  Cu  Cu66  1  0.62612200  0.37387800  0.00000000  1
  Cu  Cu67  1  0.37387800  0.62612200  0.00000000  1
