# generated using pymatgen
data_Cu4Ni2C5
_symmetry_space_group_name_H-M   'P 1'
_cell_length_a   9.16856700
_cell_length_b   6.92115100
_cell_length_c   13.03708736
_cell_angle_alpha   64.77396717
_cell_angle_beta   90.00000000
_cell_angle_gamma   90.00000000
_symmetry_Int_Tables_number   1
_chemical_formula_structural   Cu4Ni2C5
_chemical_formula_sum   'Cu16 Ni8 C20'
_cell_volume   748.39871057
_cell_formula_units_Z   4
loop_
 _symmetry_equiv_pos_site_id
 _symmetry_equiv_pos_as_xyz
  1  'x, y, z'
loop_
 _atom_site_type_symbol
 _atom_site_label
 _atom_site_symmetry_multiplicity
 _atom_site_fract_x
 _atom_site_fract_y
 _atom_site_fract_z
 _atom_site_occupancy
  C  C0  1  0.60345500  0.68921600  0.64975700  1
  C  C1  1  0.10345500  0.31078400  0.85024300  1
  C  C2  1  0.39654500  0.31078400  0.35024300  1
  C  C3  1  0.89654500  0.68921600  0.14975700  1
  Ni  Ni4  1  0.57918300  0.84923700  0.84359300  1
  Ni  Ni5  1  0.07918300  0.15076300  0.65640700  1
  Ni  Ni6  1  0.42081700  0.15076300  0.15640700  1
  Ni  Ni7  1  0.92081700  0.84923700  0.34359300  1
  Ni  Ni8  1  0.57869500  0.74629100  0.01941900  1
  Ni  Ni9  1  0.07869500  0.25370900  0.48058100  1
  Ni  Ni10  1  0.42130500  0.25370900  0.98058100  1
  Ni  Ni11  1  0.92130500  0.74629100  0.51941900  1
  Cu  Cu12  1  0.72884400  0.86181200  0.87860000  1
  Cu  Cu13  1  0.22884400  0.13818800  0.62140000  1
  Cu  Cu14  1  0.27115600  0.13818800  0.12140000  1
  Cu  Cu15  1  0.77115600  0.86181200  0.37860000  1
  Cu  Cu16  1  0.72547500  0.79468400  0.98753300  1
  Cu  Cu17  1  0.22547500  0.20531600  0.51246700  1
  Cu  Cu18  1  0.27452500  0.20531600  0.01246700  1
  Cu  Cu19  1  0.77452500  0.79468400  0.48753300  1
  Cu  Cu20  1  0.48576000  0.77890300  0.93727000  1
  Cu  Cu21  1  0.98576000  0.22109700  0.56273000  1
  Cu  Cu22  1  0.51424000  0.22109700  0.06273000  1
  Cu  Cu23  1  0.01424000  0.77890300  0.43727000  1
  Cu  Cu24  1  0.54222800  0.65116300  0.13708500  1
  Cu  Cu25  1  0.04222800  0.34883700  0.36291500  1
  Cu  Cu26  1  0.45777200  0.34883700  0.86291500  1
  Cu  Cu27  1  0.95777200  0.65116300  0.63708500  1
  C  C28  1  0.54546100  0.88463200  0.74523400  1
  C  C29  1  0.04546100  0.11536800  0.75476600  1
  C  C30  1  0.45453900  0.11536800  0.25476600  1
  C  C31  1  0.95453900  0.88463200  0.24523400  1
  C  C32  1  0.64418000  0.59882000  0.20825700  1
  C  C33  1  0.14418000  0.40118000  0.29174300  1
  C  C34  1  0.35582000  0.40118000  0.79174300  1
  C  C35  1  0.85582000  0.59882000  0.70825700  1
  C  C36  1  0.41092100  0.61709600  0.16484200  1
  C  C37  1  0.91092100  0.38290400  0.33515800  1
  C  C38  1  0.58907900  0.38290400  0.83515800  1
  C  C39  1  0.08907900  0.61709600  0.66484200  1
  C  C40  1  0.45527400  0.57406300  0.48261200  1
  C  C41  1  0.95527400  0.42593700  0.01738800  1
  C  C42  1  0.54472600  0.42593700  0.51738800  1
  C  C43  1  0.04472600  0.57406300  0.98261200  1
