# generated using pymatgen
data_CuNiC8
_symmetry_space_group_name_H-M   'P 1'
_cell_length_a   8.74784554
_cell_length_b   8.74784554
_cell_length_c   3.94028800
_cell_angle_alpha   90.00000000
_cell_angle_beta   90.00000000
_cell_angle_gamma   126.37113211
_symmetry_Int_Tables_number   1
_chemical_formula_structural   CuNiC8
_chemical_formula_sum   'Cu2 Ni2 C16'
_cell_volume   242.78955448
_cell_formula_units_Z   2
loop_
 _symmetry_equiv_pos_site_id
 _symmetry_equiv_pos_as_xyz
  1  'x, y, z'
loop_
 _atom_site_type_symbol
 _atom_site_label
 _atom_site_symmetry_multiplicity
 _atom_site_fract_x
 _atom_site_fract_y
 _atom_site_fract_z
 _atom_site_occupancy
  Ni  Ni0  1  0.00235400  0.50420100  0.00000000  1
  Ni  Ni1  1  0.49579900  0.99764600  0.00000000  1
  Cu  Cu2  1  0.75270100  0.74974900  0.00000000  1
  Cu  Cu3  1  0.25025100  0.24729900  0.00000000  1
  C  C4  1  0.87814000  0.12186000  0.50000000  1
  C  C5  1  0.62348300  0.37651700  0.50000000  1
  C  C6  1  0.12386300  0.87613700  0.50000000  1
  C  C7  1  0.37764400  0.62235600  0.50000000  1
  C  C8  1  0.00170100  0.99829900  0.50000000  1
  C  C9  1  0.50459100  0.49540900  0.50000000  1
  C  C10  1  0.11066700  0.88933300  0.00000000  1
  C  C11  1  0.61014000  0.38986000  0.00000000  1
  C  C12  1  0.87452200  0.64650100  0.50000000  1
  C  C13  1  0.35349900  0.12547800  0.50000000  1
  C  C14  1  0.88390800  0.11609200  0.00000000  1
  C  C15  1  0.38820900  0.61179100  0.00000000  1
  C  C16  1  0.63712800  0.86124100  0.50000000  1
  C  C17  1  0.13875900  0.36287200  0.50000000  1
  C  C18  1  0.74252900  0.25747100  0.50000000  1
  C  C19  1  0.25011200  0.74988800  0.50000000  1
