# generated using pymatgen
data_Cu(NiC4)7
_symmetry_space_group_name_H-M   'P 1'
_cell_length_a   11.17519893
_cell_length_b   11.86709950
_cell_length_c   17.84769481
_cell_angle_alpha   109.41240065
_cell_angle_beta   108.30647386
_cell_angle_gamma   89.96609442
_symmetry_Int_Tables_number   1
_chemical_formula_structural   Cu(NiC4)7
_chemical_formula_sum   'Cu4 Ni28 C112'
_cell_volume   2105.08501999
_cell_formula_units_Z   4
loop_
 _symmetry_equiv_pos_site_id
 _symmetry_equiv_pos_as_xyz
  1  'x, y, z'
loop_
 _atom_site_type_symbol
 _atom_site_label
 _atom_site_symmetry_multiplicity
 _atom_site_fract_x
 _atom_site_fract_y
 _atom_site_fract_z
 _atom_site_occupancy
  Ni  Ni0  1  0.29973100  0.06592800  0.11060100  1
  Ni  Ni1  1  0.30591800  0.06364100  0.60900700  1
  Ni  Ni2  1  0.29916400  0.56609100  0.61060100  1
  Ni  Ni3  1  0.79929000  0.06504300  0.61055900  1
  Ni  Ni4  1  0.80111100  0.56798100  0.10941300  1
  Ni  Ni5  1  0.80278400  0.56486800  0.60944400  1
  Ni  Ni6  1  0.19124300  0.43538100  0.39010500  1
  Ni  Ni7  1  0.19044400  0.43464700  0.89168300  1
  Ni  Ni8  1  0.19173400  0.93322900  0.38729700  1
  Ni  Ni9  1  0.19351000  0.93544300  0.89073200  1
  Ni  Ni10  1  0.69545000  0.43528200  0.38936700  1
  Ni  Ni11  1  0.68612400  0.93385700  0.38989400  1
  Ni  Ni12  1  0.69261000  0.93305600  0.89003000  1
  Ni  Ni13  1  0.04720000  0.29430900  0.11060500  1
  Ni  Ni14  1  0.05238300  0.29436100  0.61121100  1
  Ni  Ni15  1  0.05233100  0.79429200  0.61012500  1
  Ni  Ni16  1  0.55447700  0.29265800  0.10993400  1
  Ni  Ni17  1  0.55394300  0.29611400  0.61200100  1
  Ni  Ni18  1  0.54742200  0.79478700  0.11112300  1
  Ni  Ni19  1  0.55026200  0.79114900  0.60840000  1
  Ni  Ni20  1  0.44331300  0.20942300  0.38957400  1
  Ni  Ni21  1  0.44674900  0.20659200  0.89011100  1
  Ni  Ni22  1  0.43722400  0.70465000  0.38738600  1
  Ni  Ni23  1  0.44350500  0.70425000  0.89035700  1
  Ni  Ni24  1  0.93978700  0.20380900  0.38814600  1
  Ni  Ni25  1  0.93583800  0.20668700  0.88999100  1
  Ni  Ni26  1  0.94063000  0.70498000  0.38943700  1
  Ni  Ni27  1  0.94336300  0.70503500  0.89059000  1
  Cu  Cu28  1  0.29560800  0.56712400  0.10818400  1
  Cu  Cu29  1  0.79937200  0.06497200  0.10796500  1
  Cu  Cu30  1  0.68979600  0.43472800  0.89235500  1
  Cu  Cu31  1  0.04948400  0.79321100  0.10880200  1
  C  C32  1  0.00365800  0.99861200  0.49973200  1
  C  C33  1  0.25460300  0.25185900  0.00131000  1
  C  C34  1  0.25491700  0.24986400  0.49954600  1
  C  C35  1  0.75381200  0.25024800  0.50026100  1
  C  C36  1  0.10549300  0.09598100  0.24796100  1
  C  C37  1  0.10979900  0.09870200  0.75098900  1
  C  C38  1  0.10848000  0.59800500  0.24791100  1
  C  C39  1  0.10936900  0.59709400  0.75091800  1
  C  C40  1  0.61033200  0.09640000  0.24874400  1
  C  C41  1  0.60966900  0.09712000  0.75044500  1
  C  C42  1  0.60468900  0.59764600  0.24816300  1
  C  C43  1  0.60986400  0.59660200  0.75103700  1
  C  C44  1  0.35771700  0.40398600  0.24827800  1
  C  C45  1  0.36127900  0.40199600  0.75062600  1
  C  C46  1  0.35521800  0.90191900  0.24786900  1
  C  C47  1  0.36025200  0.90236600  0.75092000  1
  C  C48  1  0.85889000  0.40182200  0.24890900  1
  C  C49  1  0.85746100  0.40321800  0.75203500  1
  C  C50  1  0.85871600  0.90235600  0.24789100  1
  C  C51  1  0.85859100  0.90162900  0.75026700  1
  C  C52  1  0.00527200  0.99961500  0.00116100  1
  C  C53  1  0.00391900  0.50242200  0.00152500  1
  C  C54  1  0.00510400  0.49966000  0.49997300  1
  C  C55  1  0.50698900  0.99899800  0.00083400  1
  C  C56  1  0.50336900  0.99948800  0.49918500  1
  C  C57  1  0.50496200  0.50052500  0.00080800  1
  C  C58  1  0.50472500  0.50203200  0.50026200  1
  C  C59  1  0.25503400  0.75044400  0.00118500  1
  C  C60  1  0.25468300  0.74958400  0.50007100  1
  C  C61  1  0.75484600  0.24981000  0.00058300  1
  C  C62  1  0.75611800  0.75060800  0.00113000  1
  C  C63  1  0.75285300  0.74932500  0.49928100  1
  C  C64  1  0.11342600  0.11661700  0.47516600  1
  C  C65  1  0.11217000  0.11717600  0.97749900  1
  C  C66  1  0.11403100  0.61659300  0.47789700  1
  C  C67  1  0.11543700  0.61913300  0.98192800  1
  C  C68  1  0.61146200  0.11927400  0.47846700  1
  C  C69  1  0.61777800  0.11593800  0.97967100  1
  C  C70  1  0.61459600  0.61805000  0.47770700  1
  C  C71  1  0.61513100  0.61378300  0.97480700  1
  C  C72  1  0.13732400  0.38715600  0.02615900  1
  C  C73  1  0.13615400  0.38282400  0.52237000  1
  C  C74  1  0.13753300  0.88075000  0.02565400  1
  C  C75  1  0.13949200  0.88061500  0.52280100  1
  C  C76  1  0.63486400  0.38085100  0.01923200  1
  C  C77  1  0.63761800  0.38412900  0.52294000  1
  C  C78  1  0.64181500  0.88351200  0.02496700  1
  C  C79  1  0.63592000  0.88505200  0.52161700  1
  C  C80  1  0.36534400  0.10773100  0.47659000  1
  C  C81  1  0.36756600  0.10981900  0.97713500  1
  C  C82  1  0.36256600  0.61209200  0.47643000  1
  C  C83  1  0.36485200  0.61070800  0.97956100  1
  C  C84  1  0.86163500  0.10694300  0.47618700  1
  C  C85  1  0.86432100  0.11039300  0.98016400  1
  C  C86  1  0.86528700  0.60905000  0.47746200  1
  C  C87  1  0.86182800  0.60978100  0.97504400  1
  C  C88  1  0.38828400  0.39741000  0.02799200  1
  C  C89  1  0.38866700  0.39406800  0.52244600  1
  C  C90  1  0.38799300  0.88994000  0.02167500  1
  C  C91  1  0.38727600  0.88855800  0.52148700  1
  C  C92  1  0.88234300  0.39025700  0.01855600  1
  C  C93  1  0.88988200  0.38939600  0.52244000  1
  C  C94  1  0.89124300  0.89384200  0.02867700  1
  C  C95  1  0.88556000  0.88581400  0.52239800  1
  C  C96  1  0.09921300  0.12008300  0.13982500  1
  C  C97  1  0.09901600  0.11692300  0.63964100  1
  C  C98  1  0.10114200  0.62032400  0.13890000  1
  C  C99  1  0.09593900  0.61697100  0.64019100  1
  C  C100  1  0.60636900  0.11555500  0.13955300  1
  C  C101  1  0.59623900  0.11746300  0.63968200  1
  C  C102  1  0.60254500  0.61909500  0.13971300  1
  C  C103  1  0.59786500  0.61534800  0.63987200  1
  C  C104  1  0.45864900  0.38770000  0.36056500  1
  C  C105  1  0.46590200  0.38357500  0.86043100  1
  C  C106  1  0.45271000  0.88257300  0.35908300  1
  C  C107  1  0.45907800  0.88125700  0.86114600  1
  C  C108  1  0.95543600  0.38229800  0.36014100  1
  C  C109  1  0.95991400  0.38339100  0.86172600  1
  C  C110  1  0.95980800  0.88076400  0.35831000  1
  C  C111  1  0.95674000  0.88315400  0.86172200  1
  C  C112  1  0.35258200  0.26972500  0.14086900  1
  C  C113  1  0.35087000  0.27215200  0.63949100  1
  C  C114  1  0.34891600  0.76990500  0.13948000  1
  C  C115  1  0.34626500  0.77212200  0.63981400  1
  C  C116  1  0.84500700  0.27003400  0.13846000  1
  C  C117  1  0.84738300  0.27283500  0.64110400  1
  C  C118  1  0.85783000  0.77134700  0.13976900  1
  C  C119  1  0.84568700  0.77219500  0.63916900  1
  C  C120  1  0.20874800  0.22646000  0.35869200  1
  C  C121  1  0.21260700  0.22961900  0.86095000  1
  C  C122  1  0.20733400  0.72734700  0.35944100  1
  C  C123  1  0.20612200  0.72737400  0.86205800  1
  C  C124  1  0.70782000  0.22807200  0.35945700  1
  C  C125  1  0.70536500  0.22936600  0.86111300  1
  C  C126  1  0.70418300  0.72664600  0.35989600  1
  C  C127  1  0.70827200  0.72845800  0.86110400  1
  C  C128  1  0.41961000  0.07155900  0.25015200  1
  C  C129  1  0.41953900  0.07150900  0.75016800  1
  C  C130  1  0.41097900  0.57285600  0.24396100  1
  C  C131  1  0.41812900  0.57207600  0.75027000  1
  C  C132  1  0.91264800  0.07243200  0.24495300  1
  C  C133  1  0.91819400  0.07245100  0.75087000  1
  C  C134  1  0.91882600  0.57083600  0.24898000  1
  C  C135  1  0.91832100  0.57092800  0.75035400  1
  C  C136  1  0.16730000  0.42842200  0.24979600  1
  C  C137  1  0.17048500  0.42787300  0.75093900  1
  C  C138  1  0.16234300  0.92393700  0.24404600  1
  C  C139  1  0.16932700  0.92874000  0.75102200  1
  C  C140  1  0.66846400  0.42932900  0.24942100  1
  C  C141  1  0.66810600  0.42761600  0.75574100  1
  C  C142  1  0.66866400  0.92720600  0.25045400  1
  C  C143  1  0.66763500  0.92732900  0.74953900  1
