# generated using pymatgen
data_CuNiC2
_symmetry_space_group_name_H-M   'P 1'
_cell_length_a   11.96954587
_cell_length_b   11.96954587
_cell_length_c   11.96954587
_cell_angle_alpha   120.49241556
_cell_angle_beta   119.82410842
_cell_angle_gamma   89.72707915
_symmetry_Int_Tables_number   1
_chemical_formula_structural   CuNiC2
_chemical_formula_sum   'Cu1 Ni1 C2'
_cell_volume   1209.63397568
_cell_formula_units_Z   1
loop_
 _symmetry_equiv_pos_site_id
 _symmetry_equiv_pos_as_xyz
  1  'x, y, z'
loop_
 _atom_site_type_symbol
 _atom_site_label
 _atom_site_symmetry_multiplicity
 _atom_site_fract_x
 _atom_site_fract_y
 _atom_site_fract_z
 _atom_site_occupancy
  Ni  Ni0  1  0.00000000  0.00000000  0.00000000  1
  C  C1  1  0.00000000  0.25579600  0.25579600  1
  C  C2  1  0.00000000  0.74420400  0.74420400  1
  Cu  Cu3  1  0.00000000  0.50000000  0.50000000  1
