# generated using pymatgen
data_Cu24Ni2C17
_symmetry_space_group_name_H-M   'P 1'
_cell_length_a   10.82833743
_cell_length_b   11.13826204
_cell_length_c   7.75631726
_cell_angle_alpha   88.56371684
_cell_angle_beta   92.61758750
_cell_angle_gamma   120.31236754
_symmetry_Int_Tables_number   1
_chemical_formula_structural   Cu24Ni2C17
_chemical_formula_sum   'Cu24 Ni2 C17'
_cell_volume   806.74303231
_cell_formula_units_Z   1
loop_
 _symmetry_equiv_pos_site_id
 _symmetry_equiv_pos_as_xyz
  1  'x, y, z'
loop_
 _atom_site_type_symbol
 _atom_site_label
 _atom_site_symmetry_multiplicity
 _atom_site_fract_x
 _atom_site_fract_y
 _atom_site_fract_z
 _atom_site_occupancy
  C  C0  1  0.68827835  0.32257024  0.49941155  1
  C  C1  1  0.31172165  0.67742976  0.50058845  1
  C  C2  1  0.00532714  0.25086021  0.26203592  1
  C  C3  1  0.34290060  0.67377263  0.00721122  1
  C  C4  1  0.74073993  0.74645376  0.25459904  1
  C  C5  1  0.25460756  0.00643809  0.23778818  1
  C  C6  1  0.74539244  0.99356191  0.76221182  1
  C  C7  1  0.99467286  0.74913979  0.73796408  1
  C  C8  1  0.65709940  0.32622737  0.99278878  1
  C  C9  1  0.25926007  0.25354624  0.74540096  1
  C  C10  1  0.50000000  0.50000000  0.50000000  1
  C  C11  1  0.96233172  0.59382298  0.23325657  1
  C  C12  1  0.59849073  0.61115584  0.79750294  1
  C  C13  1  0.36954076  0.96457948  0.74111445  1
  C  C14  1  0.40150927  0.38884416  0.20249706  1
  C  C15  1  0.03766828  0.40617702  0.76674343  1
  C  C16  1  0.63045924  0.03542052  0.25888555  1
  Ni  Ni17  1  0.00000000  0.00000000  0.00000000  1
  Ni  Ni18  1  0.00000000  0.00000000  0.50000000  1
  Cu  Cu19  1  0.62448997  0.74739763  0.94344251  1
  Cu  Cu20  1  0.41726240  0.56196705  0.29455689  1
  Cu  Cu21  1  0.32373802  0.29526857  0.39619467  1
  Cu  Cu22  1  0.41400424  0.54350846  0.72430368  1
  Cu  Cu23  1  0.08970928  0.35883773  0.58506091  1
  Cu  Cu24  1  0.58273760  0.43803295  0.70544311  1
  Cu  Cu25  1  0.85363108  0.32238582  0.77257925  1
  Cu  Cu26  1  0.11188460  0.58545099  0.75861144  1
  Cu  Cu27  1  0.58599576  0.45649154  0.27569632  1
  Cu  Cu28  1  0.73845526  0.08700878  0.08353704  1
  Cu  Cu29  1  0.11375058  0.36759899  0.94500533  1
  Cu  Cu30  1  0.88811540  0.41454901  0.24138856  1
  Cu  Cu31  1  0.46346684  0.87601462  0.75060482  1
  Cu  Cu32  1  0.88624942  0.63240101  0.05499467  1
  Cu  Cu33  1  0.91029072  0.64116227  0.41493909  1
  Cu  Cu34  1  0.48218923  0.14077559  0.73018441  1
  Cu  Cu35  1  0.37551003  0.25260237  0.05655749  1
  Cu  Cu36  1  0.74464303  0.09918021  0.43958685  1
  Cu  Cu37  1  0.14636892  0.67761418  0.22742075  1
  Cu  Cu38  1  0.26154474  0.91299122  0.91646296  1
  Cu  Cu39  1  0.51781077  0.85922441  0.26981559  1
  Cu  Cu40  1  0.25535697  0.90081979  0.56041315  1
  Cu  Cu41  1  0.67626198  0.70473143  0.60380533  1
  Cu  Cu42  1  0.53653316  0.12398538  0.24939518  1
