# generated using pymatgen
data_CuNiC16
_symmetry_space_group_name_H-M   'P 1'
_cell_length_a   9.15139745
_cell_length_b   9.15139745
_cell_length_c   9.15139694
_cell_angle_alpha   58.39614371
_cell_angle_beta   58.39614371
_cell_angle_gamma   58.39614651
_symmetry_Int_Tables_number   1
_chemical_formula_structural   CuNiC16
_chemical_formula_sum   'Cu2 Ni2 C32'
_cell_volume   522.04012962
_cell_formula_units_Z   2
loop_
 _symmetry_equiv_pos_site_id
 _symmetry_equiv_pos_as_xyz
  1  'x, y, z'
loop_
 _atom_site_type_symbol
 _atom_site_label
 _atom_site_symmetry_multiplicity
 _atom_site_fract_x
 _atom_site_fract_y
 _atom_site_fract_z
 _atom_site_occupancy
  C  C0  1  0.49800300  0.49800300  0.49800300  1
  C  C1  1  0.99800300  0.99800300  0.99800300  1
  Ni  Ni2  1  0.64355500  0.64355500  0.64355500  1
  Ni  Ni3  1  0.14355500  0.14355500  0.14355500  1
  Cu  Cu4  1  0.35515900  0.35515900  0.35515900  1
  Cu  Cu5  1  0.85515900  0.85515900  0.85515900  1
  C  C6  1  0.96194000  0.54037700  0.24780900  1
  C  C7  1  0.24780900  0.96194000  0.54037700  1
  C  C8  1  0.54037700  0.24780900  0.96194000  1
  C  C9  1  0.74780900  0.04037700  0.46194000  1
  C  C10  1  0.46194000  0.74780900  0.04037700  1
  C  C11  1  0.04037700  0.46194000  0.74780900  1
  C  C12  1  0.21981200  0.44021300  0.58110200  1
  C  C13  1  0.58110200  0.21981200  0.44021300  1
  C  C14  1  0.44021300  0.58110200  0.21981200  1
  C  C15  1  0.08110200  0.94021300  0.71981200  1
  C  C16  1  0.71981200  0.08110200  0.94021300  1
  C  C17  1  0.94021300  0.71981200  0.08110200  1
  C  C18  1  0.78273800  0.56144000  0.41273500  1
  C  C19  1  0.41273500  0.78273800  0.56144000  1
  C  C20  1  0.56144000  0.41273500  0.78273800  1
  C  C21  1  0.91273500  0.06144000  0.28273800  1
  C  C22  1  0.28273800  0.91273500  0.06144000  1
  C  C23  1  0.06144000  0.28273800  0.91273500  1
  C  C24  1  0.12257000  0.50826600  0.28937200  1
  C  C25  1  0.28937200  0.12257000  0.50826600  1
  C  C26  1  0.50826600  0.28937200  0.12257000  1
  C  C27  1  0.78937200  0.00826600  0.62257000  1
  C  C28  1  0.62257000  0.78937200  0.00826600  1
  C  C29  1  0.00826600  0.62257000  0.78937200  1
  C  C30  1  0.87859600  0.49820500  0.70810800  1
  C  C31  1  0.70810800  0.87859600  0.49820500  1
  C  C32  1  0.49820500  0.70810800  0.87859600  1
  C  C33  1  0.20810800  0.99820500  0.37859600  1
  C  C34  1  0.37859600  0.20810800  0.99820500  1
  C  C35  1  0.99820500  0.37859600  0.20810800  1
