# generated using pymatgen
data_Cu32Ni5C8
_symmetry_space_group_name_H-M   'P 1'
_cell_length_a   10.51906100
_cell_length_b   10.58427117
_cell_length_c   15.67416699
_cell_angle_alpha   78.73630989
_cell_angle_beta   79.47925114
_cell_angle_gamma   71.92738896
_symmetry_Int_Tables_number   1
_chemical_formula_structural   Cu32Ni5C8
_chemical_formula_sum   'Cu64 Ni10 C16'
_cell_volume   1613.06814892
_cell_formula_units_Z   2
loop_
 _symmetry_equiv_pos_site_id
 _symmetry_equiv_pos_as_xyz
  1  'x, y, z'
loop_
 _atom_site_type_symbol
 _atom_site_label
 _atom_site_symmetry_multiplicity
 _atom_site_fract_x
 _atom_site_fract_y
 _atom_site_fract_z
 _atom_site_occupancy
  C  C0  1  0.34457400  0.87123000  0.10361500  1
  C  C1  1  0.65542600  0.12877000  0.89638500  1
  C  C2  1  0.69083700  0.52277800  0.09354000  1
  C  C3  1  0.30916300  0.47722200  0.90646000  1
  C  C4  1  0.97346300  0.78345600  0.04948900  1
  C  C5  1  0.02653700  0.21654400  0.95051100  1
  C  C6  1  0.60230700  0.71927900  0.37982100  1
  C  C7  1  0.39769300  0.28072100  0.62017900  1
  C  C8  1  0.47694800  0.21445600  0.28895200  1
  C  C9  1  0.52305200  0.78554400  0.71104800  1
  C  C10  1  0.00274000  0.21520700  0.27838700  1
  C  C11  1  0.99726000  0.78479300  0.72161300  1
  C  C12  1  0.11903800  0.72401800  0.38499800  1
  C  C13  1  0.88096200  0.27598200  0.61500200  1
  C  C14  1  0.28833900  0.97530600  0.36595100  1
  C  C15  1  0.71166100  0.02469400  0.63404900  1
  Ni  Ni16  1  0.25672200  0.99666400  0.47203400  1
  Ni  Ni17  1  0.74327800  0.00333600  0.52796600  1
  Ni  Ni18  1  0.40982400  0.79631300  0.37549800  1
  Ni  Ni19  1  0.59017600  0.20368700  0.62450200  1
  Ni  Ni20  1  0.44531600  0.04026400  0.32959600  1
  Ni  Ni21  1  0.55468400  0.95973600  0.67040400  1
  Ni  Ni22  1  0.18080900  0.14727600  0.31466400  1
  Ni  Ni23  1  0.81919100  0.85272400  0.68533600  1
  Ni  Ni24  1  0.14090600  0.90351300  0.36437800  1
  Ni  Ni25  1  0.85909400  0.09648700  0.63562200  1
  Cu  Cu26  1  0.32365000  0.94471300  0.22882100  1
  Cu  Cu27  1  0.67635000  0.05528700  0.77117900  1
  Cu  Cu28  1  0.78457300  0.62929900  0.38573700  1
  Cu  Cu29  1  0.21542700  0.37070100  0.61426300  1
  Cu  Cu30  1  0.61864800  0.84702600  0.44265800  1
  Cu  Cu31  1  0.38135200  0.15297400  0.55734200  1
  Cu  Cu32  1  0.59457600  0.58613100  0.31811200  1
  Cu  Cu33  1  0.40542400  0.41386900  0.68188800  1
  Cu  Cu34  1  0.55906100  0.61491100  0.48589600  1
  Cu  Cu35  1  0.44093900  0.38508900  0.51410400  1
  Cu  Cu36  1  0.65281900  0.81584000  0.27129700  1
  Cu  Cu37  1  0.34718100  0.18416000  0.72870300  1
  Cu  Cu38  1  0.32780200  0.30848200  0.36068300  1
  Cu  Cu39  1  0.67219800  0.69151800  0.63931700  1
  Cu  Cu40  1  0.58280100  0.17828000  0.38010600  1
  Cu  Cu41  1  0.41719900  0.82172000  0.61989400  1
  Cu  Cu42  1  0.63163300  0.13131200  0.21743000  1
  Cu  Cu43  1  0.36836700  0.86868800  0.78257000  1
  Cu  Cu44  1  0.52268500  0.37732600  0.25123400  1
  Cu  Cu45  1  0.47731500  0.62267400  0.74876600  1
  Cu  Cu46  1  0.37723400  0.25892100  0.19399300  1
  Cu  Cu47  1  0.62276600  0.74107900  0.80600700  1
  Cu  Cu48  1  0.01822000  0.07316600  0.21679200  1
  Cu  Cu49  1  0.98178000  0.92683400  0.78320800  1
  Cu  Cu50  1  0.83292000  0.29875700  0.23830300  1
  Cu  Cu51  1  0.16708000  0.70124300  0.76169700  1
  Cu  Cu52  1  0.97491800  0.36663200  0.33203300  1
  Cu  Cu53  1  0.02508200  0.63336800  0.66796700  1
  Cu  Cu54  1  0.07796500  0.30273800  0.17412500  1
  Cu  Cu55  1  0.92203500  0.69726200  0.82587500  1
  Cu  Cu56  1  0.91133800  0.13544700  0.37888600  1
  Cu  Cu57  1  0.08866200  0.86455300  0.62111400  1
  Cu  Cu58  1  0.25782900  0.66746700  0.29295700  1
  Cu  Cu59  1  0.74217100  0.33253300  0.70704300  1
  Cu  Cu60  1  0.23776900  0.65521000  0.47028700  1
  Cu  Cu61  1  0.76223100  0.34479000  0.52971300  1
  Cu  Cu62  1  0.97546900  0.77831900  0.47342400  1
  Cu  Cu63  1  0.02453100  0.22168100  0.52657600  1
  Cu  Cu64  1  0.99502100  0.78769300  0.30321500  1
  Cu  Cu65  1  0.00497900  0.21230700  0.69678500  1
  Cu  Cu66  1  0.08913900  0.55559400  0.40159200  1
  Cu  Cu67  1  0.91086100  0.44440600  0.59840800  1
  Cu  Cu68  1  0.38686900  0.85103000  0.98331200  1
  Cu  Cu69  1  0.61313100  0.14897000  0.01668800  1
  Cu  Cu70  1  0.25991000  0.05613600  0.06685200  1
  Cu  Cu71  1  0.74009000  0.94386400  0.93314800  1
  Cu  Cu72  1  0.51224200  0.90253900  0.09636100  1
  Cu  Cu73  1  0.48775800  0.09746100  0.90363900  1
  Cu  Cu74  1  0.86065600  0.39993500  0.04187900  1
  Cu  Cu75  1  0.13934400  0.60006500  0.95812100  1
  Cu  Cu76  1  0.69176300  0.62948000  0.98374800  1
  Cu  Cu77  1  0.30823700  0.37052000  0.01625200  1
  Cu  Cu78  1  0.49906600  0.64500700  0.11698000  1
  Cu  Cu79  1  0.50093400  0.35499300  0.88302000  1
  Cu  Cu80  1  0.60671900  0.41170800  0.05930200  1
  Cu  Cu81  1  0.39328100  0.58829200  0.94069800  1
  Cu  Cu82  1  0.07625100  0.66350100  0.13293000  1
  Cu  Cu83  1  0.92374900  0.33649900  0.86707000  1
  Cu  Cu84  1  0.86396500  0.89651600  0.12869400  1
  Cu  Cu85  1  0.13603500  0.10348400  0.87130600  1
  Cu  Cu86  1  0.84650100  0.66929800  0.09321300  1
  Cu  Cu87  1  0.15349900  0.33070200  0.90678700  1
  Cu  Cu88  1  0.10631600  0.88562000  0.04458300  1
  Cu  Cu89  1  0.89368400  0.11438000  0.95541700  1
