# generated using pymatgen
data_Cu(Ni2C5)2
_symmetry_space_group_name_H-M   'P 1'
_cell_length_a   3.91146900
_cell_length_b   3.91105600
_cell_length_c   34.09722300
_cell_angle_alpha   90.00022474
_cell_angle_beta   90.00029268
_cell_angle_gamma   89.99772942
_symmetry_Int_Tables_number   1
_chemical_formula_structural   Cu(Ni2C5)2
_chemical_formula_sum   'Cu2 Ni8 C20'
_cell_volume   521.61844099
_cell_formula_units_Z   2
loop_
 _symmetry_equiv_pos_site_id
 _symmetry_equiv_pos_as_xyz
  1  'x, y, z'
loop_
 _atom_site_type_symbol
 _atom_site_label
 _atom_site_symmetry_multiplicity
 _atom_site_fract_x
 _atom_site_fract_y
 _atom_site_fract_z
 _atom_site_occupancy
  Ni  Ni0  1  0.74998800  0.74999200  0.10128800  1
  Ni  Ni1  1  0.74998900  0.74999000  0.60126200  1
  Ni  Ni2  1  0.25001600  0.25000900  0.39867400  1
  Ni  Ni3  1  0.25001100  0.25001100  0.89877000  1
  Ni  Ni4  1  0.74999700  0.74999100  0.21050500  1
  Ni  Ni5  1  0.74999600  0.74999000  0.71054900  1
  Ni  Ni6  1  0.25001000  0.25000500  0.28945100  1
  Ni  Ni7  1  0.25000500  0.25000700  0.78948800  1
  Cu  Cu8  1  0.25000500  0.74999500  0.00005000  1
  Cu  Cu9  1  0.25000600  0.74999700  0.49997500  1
  C  C10  1  0.24998000  0.24999300  0.65827800  1
  C  C11  1  0.75000500  0.75001300  0.84173000  1
  C  C12  1  0.24999000  0.24999600  0.15837200  1
  C  C13  1  0.75001400  0.75000300  0.34159800  1
  C  C14  1  0.24998800  0.24999600  0.05547300  1
  C  C15  1  0.24998700  0.24999400  0.55543100  1
  C  C16  1  0.75000500  0.75001000  0.44453400  1
  C  C17  1  0.75000500  0.75000800  0.94456200  1
  C  C18  1  0.74998600  0.24999000  0.14967200  1
  C  C19  1  0.74998400  0.24998900  0.64957700  1
  C  C20  1  0.75001400  0.25001000  0.35033000  1
  C  C21  1  0.75001100  0.25001200  0.85042200  1
  C  C22  1  0.24998800  0.74999400  0.14954200  1
  C  C23  1  0.24999100  0.74999200  0.64944400  1
  C  C24  1  0.25001300  0.75001200  0.35046500  1
  C  C25  1  0.25000700  0.75001100  0.85055900  1
  C  C26  1  0.24999800  0.24999300  0.21788900  1
  C  C27  1  0.24999800  0.24999300  0.71777600  1
  C  C28  1  0.75000800  0.75000600  0.28210400  1
  C  C29  1  0.75000600  0.75000400  0.78223200  1
