# generated using pymatgen
data_CuNi4C3
_symmetry_space_group_name_H-M   'P 1'
_cell_length_a   8.51384500
_cell_length_b   8.51384500
_cell_length_c   8.82397214
_cell_angle_alpha   118.84403793
_cell_angle_beta   118.84403793
_cell_angle_gamma   90.00000000
_symmetry_Int_Tables_number   1
_chemical_formula_structural   CuNi4C3
_chemical_formula_sum   'Cu2 Ni8 C6'
_cell_volume   467.62846386
_cell_formula_units_Z   2
loop_
 _symmetry_equiv_pos_site_id
 _symmetry_equiv_pos_as_xyz
  1  'x, y, z'
loop_
 _atom_site_type_symbol
 _atom_site_label
 _atom_site_symmetry_multiplicity
 _atom_site_fract_x
 _atom_site_fract_y
 _atom_site_fract_z
 _atom_site_occupancy
  Ni  Ni0  1  0.00597700  0.80503600  0.31101200  1
  Ni  Ni1  1  0.30503600  0.50597700  0.31101200  1
  Ni  Ni2  1  0.80503600  0.30503600  0.31101200  1
  Ni  Ni3  1  0.50597700  0.00597700  0.31101200  1
  Ni  Ni4  1  0.99402300  0.19496400  0.68898800  1
  Ni  Ni5  1  0.69496400  0.49402300  0.68898800  1
  Ni  Ni6  1  0.19496400  0.69496400  0.68898800  1
  Ni  Ni7  1  0.49402300  0.99402300  0.68898800  1
  Cu  Cu8  1  0.50000000  0.50000000  0.00000000  1
  Cu  Cu9  1  0.00000000  0.00000000  0.00000000  1
  C  C10  1  0.75000000  0.75000000  0.50000000  1
  C  C11  1  0.25000000  0.25000000  0.50000000  1
  C  C12  1  0.66501000  0.83499000  0.00000000  1
  C  C13  1  0.33499000  0.16501000  0.00000000  1
  C  C14  1  0.83499000  0.33499000  0.00000000  1
  C  C15  1  0.16501000  0.66501000  0.00000000  1
