# generated using pymatgen
data_CuNiC5
_symmetry_space_group_name_H-M   'P 1'
_cell_length_a   5.32730200
_cell_length_b   5.59230784
_cell_length_c   6.43928214
_cell_angle_alpha   90.44193686
_cell_angle_beta   65.56526080
_cell_angle_gamma   90.00000000
_symmetry_Int_Tables_number   1
_chemical_formula_structural   CuNiC5
_chemical_formula_sum   'Cu2 Ni2 C10'
_cell_volume   174.64986621
_cell_formula_units_Z   2
loop_
 _symmetry_equiv_pos_site_id
 _symmetry_equiv_pos_as_xyz
  1  'x, y, z'
loop_
 _atom_site_type_symbol
 _atom_site_label
 _atom_site_symmetry_multiplicity
 _atom_site_fract_x
 _atom_site_fract_y
 _atom_site_fract_z
 _atom_site_occupancy
  Ni  Ni0  1  0.35490200  0.01441400  0.29019700  1
  Ni  Ni1  1  0.14478200  0.52616200  0.71043600  1
  Cu  Cu2  1  0.86195600  0.47329200  0.27608900  1
  Cu  Cu3  1  0.63880500  0.98173300  0.72239000  1
  C  C4  1  0.49900000  0.49800700  0.00200000  1
  C  C5  1  0.00036700  0.99732000  0.99926700  1
  C  C6  1  0.76824200  0.25804500  0.95647200  1
  C  C7  1  0.72543900  0.73774100  0.04394100  1
  C  C8  1  0.23062000  0.73774100  0.04394100  1
  C  C9  1  0.27528600  0.25804500  0.95647200  1
  C  C10  1  0.17226300  0.93534400  0.65547300  1
  C  C11  1  0.67232600  0.56818600  0.65534800  1
  C  C12  1  0.33638200  0.43898200  0.32723500  1
  C  C13  1  0.81963000  0.07498900  0.36074000  1
