# generated using pymatgen
data_Cu3NiC14
_symmetry_space_group_name_H-M   'P 1'
_cell_length_a   5.54427500
_cell_length_b   8.87033600
_cell_length_c   21.61476384
_cell_angle_alpha   89.71529812
_cell_angle_beta   90.00000000
_cell_angle_gamma   90.00000000
_symmetry_Int_Tables_number   1
_chemical_formula_structural   Cu3NiC14
_chemical_formula_sum   'Cu12 Ni4 C56'
_cell_volume   1062.99193033
_cell_formula_units_Z   4
loop_
 _symmetry_equiv_pos_site_id
 _symmetry_equiv_pos_as_xyz
  1  'x, y, z'
loop_
 _atom_site_type_symbol
 _atom_site_label
 _atom_site_symmetry_multiplicity
 _atom_site_fract_x
 _atom_site_fract_y
 _atom_site_fract_z
 _atom_site_occupancy
  C  C0  1  0.00000000  0.18564600  0.61421700  1
  C  C1  1  0.00000000  0.18550700  0.28016600  1
  C  C2  1  0.50000000  0.31870700  0.78109000  1
  C  C3  1  0.50000000  0.31799200  0.44733100  1
  C  C4  1  0.50000000  0.31665000  0.11373600  1
  C  C5  1  0.50000000  0.81559700  0.71990800  1
  C  C6  1  0.50000000  0.81535200  0.38604400  1
  C  C7  1  0.50000000  0.81677400  0.05220000  1
  Ni  Ni8  1  0.00000000  0.69455800  0.89005400  1
  Ni  Ni9  1  0.00000000  0.68893200  0.55527300  1
  Ni  Ni10  1  0.00000000  0.68918400  0.22183600  1
  Ni  Ni11  1  0.00000000  0.19357000  0.94577700  1
  Cu  Cu12  1  0.50000000  0.93566400  0.89523900  1
  Cu  Cu13  1  0.50000000  0.93117000  0.56220400  1
  Cu  Cu14  1  0.50000000  0.93081900  0.22857600  1
  Cu  Cu15  1  0.50000000  0.43559000  0.93788800  1
  Cu  Cu16  1  0.50000000  0.44177900  0.60379500  1
  Cu  Cu17  1  0.50000000  0.44181800  0.27037000  1
  Cu  Cu18  1  0.00000000  0.06151200  0.77242300  1
  Cu  Cu19  1  0.00000000  0.06191500  0.43755500  1
  Cu  Cu20  1  0.00000000  0.06280000  0.10284200  1
  Cu  Cu21  1  0.00000000  0.56389800  0.72969200  1
  Cu  Cu22  1  0.00000000  0.56378300  0.39612900  1
  Cu  Cu23  1  0.00000000  0.56202600  0.06176800  1
  C  C24  1  0.50000000  0.08595300  0.86624200  1
  C  C25  1  0.50000000  0.08410500  0.53500200  1
  C  C26  1  0.50000000  0.08386600  0.20153800  1
  C  C27  1  0.50000000  0.58559000  0.96676200  1
  C  C28  1  0.50000000  0.58897800  0.63468400  1
  C  C29  1  0.50000000  0.58895900  0.30135000  1
  C  C30  1  0.00000000  0.90866500  0.80005000  1
  C  C31  1  0.00000000  0.91062400  0.46655000  1
  C  C32  1  0.00000000  0.91117900  0.13184300  1
  C  C33  1  0.00000000  0.41163700  0.70223700  1
  C  C34  1  0.00000000  0.41168800  0.36861900  1
  C  C35  1  0.00000000  0.40955700  0.03407900  1
  C  C36  1  0.27841700  0.91927600  0.93584000  1
  C  C37  1  0.27952800  0.91256400  0.60269000  1
  C  C38  1  0.27946800  0.91205300  0.26904500  1
  C  C39  1  0.72150200  0.41979600  0.89738600  1
  C  C40  1  0.72019800  0.42839100  0.56309800  1
  C  C41  1  0.72026900  0.42862500  0.22972800  1
  C  C42  1  0.78177100  0.08063600  0.73176600  1
  C  C43  1  0.78132800  0.07918800  0.39687800  1
  C  C44  1  0.78124200  0.08035400  0.06227600  1
  C  C45  1  0.21865300  0.58245900  0.76999400  1
  C  C46  1  0.21850200  0.58233300  0.43649800  1
  C  C47  1  0.21842600  0.58075300  0.10202300  1
  C  C48  1  0.21822900  0.08063600  0.73176600  1
  C  C49  1  0.21867200  0.07918800  0.39687800  1
  C  C50  1  0.21875800  0.08035400  0.06227600  1
  C  C51  1  0.78134700  0.58245900  0.76999400  1
  C  C52  1  0.78149800  0.58233300  0.43649800  1
  C  C53  1  0.78157400  0.58075300  0.10202300  1
  C  C54  1  0.72158300  0.91927600  0.93584000  1
  C  C55  1  0.72047200  0.91256400  0.60269000  1
  C  C56  1  0.72053200  0.91205300  0.26904500  1
  C  C57  1  0.27849800  0.41979600  0.89738600  1
  C  C58  1  0.27980200  0.42839100  0.56309800  1
  C  C59  1  0.27973100  0.42862500  0.22972800  1
  C  C60  1  0.50000000  0.81015100  0.84984000  1
  C  C61  1  0.50000000  0.80957800  0.51523500  1
  C  C62  1  0.50000000  0.80936400  0.18154500  1
  C  C63  1  0.50000000  0.30961900  0.98363700  1
  C  C64  1  0.50000000  0.31307300  0.64858000  1
  C  C65  1  0.50000000  0.31306800  0.31514200  1
  C  C66  1  0.00000000  0.18328200  0.82004100  1
  C  C67  1  0.00000000  0.18563500  0.48398900  1
  C  C68  1  0.00000000  0.18585800  0.14971400  1
  C  C69  1  0.00000000  0.68553500  0.68135200  1
  C  C70  1  0.00000000  0.68562500  0.34787000  1
  C  C71  1  0.00000000  0.68431700  0.01354000  1
