# generated using pymatgen
data_Cu5Ni2C25
_symmetry_space_group_name_H-M   'P 1'
_cell_length_a   6.44035300
_cell_length_b   6.47450411
_cell_length_c   7.83791834
_cell_angle_alpha   87.70681698
_cell_angle_beta   114.23496939
_cell_angle_gamma   108.22944208
_symmetry_Int_Tables_number   1
_chemical_formula_structural   Cu5Ni2C25
_chemical_formula_sum   'Cu5 Ni2 C25'
_cell_volume   281.58751902
_cell_formula_units_Z   1
loop_
 _symmetry_equiv_pos_site_id
 _symmetry_equiv_pos_as_xyz
  1  'x, y, z'
loop_
 _atom_site_type_symbol
 _atom_site_label
 _atom_site_symmetry_multiplicity
 _atom_site_fract_x
 _atom_site_fract_y
 _atom_site_fract_z
 _atom_site_occupancy
  C  C0  1  0.87018200  0.05858900  0.30944500  1
  C  C1  1  0.86673400  0.56301800  0.81115200  1
  C  C2  1  0.13514600  0.93040500  0.68977100  1
  C  C3  1  0.12042800  0.44050800  0.18839800  1
  C  C4  1  0.37658500  0.81250700  0.05582500  1
  C  C5  1  0.38636000  0.32206200  0.57120800  1
  C  C6  1  0.62507200  0.68987600  0.44355700  1
  C  C7  1  0.61919600  0.18330800  0.93042700  1
  C  C8  1  0.49811500  0.75128900  0.74924400  1
  Ni  Ni9  1  0.99534700  0.99603800  0.99662000  1
  Ni  Ni10  1  0.25368600  0.38155200  0.87354000  1
  Cu  Cu11  1  0.00843800  0.50867600  0.50700000  1
  Cu  Cu12  1  0.25759300  0.87404500  0.38409000  1
  Cu  Cu13  1  0.50118400  0.24505600  0.24995200  1
  Cu  Cu14  1  0.74537000  0.62172800  0.11765900  1
  Cu  Cu15  1  0.74697100  0.12680300  0.62709400  1
  C  C16  1  0.71126600  0.89948900  0.04172700  1
  C  C17  1  0.69715400  0.39629700  0.52414800  1
  C  C18  1  0.95668800  0.77263300  0.40996500  1
  C  C19  1  0.95811900  0.27335700  0.91830400  1
  C  C20  1  0.18706500  0.63812200  0.78705400  1
  C  C21  1  0.19155700  0.13480600  0.26277100  1
  C  C22  1  0.43909200  0.51268200  0.13676500  1
  C  C23  1  0.45125700  0.03646700  0.64458900  1
  C  C24  1  0.06123400  0.24224400  0.61321300  1
  C  C25  1  0.04231400  0.72674200  0.08834600  1
  C  C26  1  0.29623300  0.10073900  0.96627400  1
  C  C27  1  0.28962900  0.59723600  0.45659600  1
  C  C28  1  0.54843000  0.97275300  0.34103400  1
  C  C29  1  0.54459700  0.46309200  0.84631100  1
  C  C30  1  0.82465600  0.87432100  0.73733200  1
  C  C31  1  0.79430400  0.35356400  0.22059300  1
