# generated using pymatgen
data_Cu4Ni3C16
_symmetry_space_group_name_H-M   'P 1'
_cell_length_a   9.35536808
_cell_length_b   9.35536808
_cell_length_c   9.94919819
_cell_angle_alpha   58.95279470
_cell_angle_beta   58.95279470
_cell_angle_gamma   48.24925344
_symmetry_Int_Tables_number   1
_chemical_formula_structural   Cu4Ni3C16
_chemical_formula_sum   'Cu8 Ni6 C32'
_cell_volume   535.97245892
_cell_formula_units_Z   2
loop_
 _symmetry_equiv_pos_site_id
 _symmetry_equiv_pos_as_xyz
  1  'x, y, z'
loop_
 _atom_site_type_symbol
 _atom_site_label
 _atom_site_symmetry_multiplicity
 _atom_site_fract_x
 _atom_site_fract_y
 _atom_site_fract_z
 _atom_site_occupancy
  Ni  Ni0  1  0.07397600  0.26255300  0.11129800  1
  Ni  Ni1  1  0.73744700  0.92602400  0.38870200  1
  Ni  Ni2  1  0.26255300  0.07397600  0.61129800  1
  Ni  Ni3  1  0.39138600  0.60861400  0.75000000  1
  Ni  Ni4  1  0.92602400  0.73744700  0.88870200  1
  Ni  Ni5  1  0.60861400  0.39138600  0.25000000  1
  C  C6  1  0.78736300  0.21263700  0.75000000  1
  C  C7  1  0.21263700  0.78736300  0.25000000  1
  C  C8  1  0.00000000  0.00000000  0.00000000  1
  C  C9  1  0.00000000  0.00000000  0.50000000  1
  Cu  Cu10  1  0.54847200  0.08027600  0.70532300  1
  Cu  Cu11  1  0.08027600  0.54847200  0.20532300  1
  Cu  Cu12  1  0.51262500  0.24943000  0.10628600  1
  Cu  Cu13  1  0.24943000  0.51262500  0.60628600  1
  Cu  Cu14  1  0.91972400  0.45152800  0.79467700  1
  Cu  Cu15  1  0.48737500  0.75057000  0.89371400  1
  Cu  Cu16  1  0.75057000  0.48737500  0.39371400  1
  Cu  Cu17  1  0.45152800  0.91972400  0.29467700  1
  C  C18  1  0.82893100  0.31670600  0.31930300  1
  C  C19  1  0.96781800  0.88849400  0.41267700  1
  C  C20  1  0.45694200  0.63402800  0.08746800  1
  C  C21  1  0.88849400  0.96781800  0.91267700  1
  C  C22  1  0.23074700  0.99238000  0.30720900  1
  C  C23  1  0.07273800  0.50045100  0.62403200  1
  C  C24  1  0.63402800  0.45694200  0.58746800  1
  C  C25  1  0.00762000  0.76925300  0.19279100  1
  C  C26  1  0.92726200  0.49954900  0.37596800  1
  C  C27  1  0.61456500  0.69380700  0.27049600  1
  C  C28  1  0.03218200  0.11150600  0.58732300  1
  C  C29  1  0.76925300  0.00762000  0.69279100  1
  C  C30  1  0.49954900  0.92726200  0.87596800  1
  C  C31  1  0.31670600  0.82893100  0.81930300  1
  C  C32  1  0.69380700  0.61456500  0.77049600  1
  C  C33  1  0.99238000  0.23074700  0.80720900  1
  C  C34  1  0.91918900  0.48135800  0.94145300  1
  C  C35  1  0.38543500  0.30619300  0.72950400  1
  C  C36  1  0.51864200  0.08081100  0.55854700  1
  C  C37  1  0.30619300  0.38543500  0.22950400  1
  C  C38  1  0.50045100  0.07273800  0.12403200  1
  C  C39  1  0.11150600  0.03218200  0.08732300  1
  C  C40  1  0.48135800  0.91918900  0.44145300  1
  C  C41  1  0.54305800  0.36597200  0.91253200  1
  C  C42  1  0.08081100  0.51864200  0.05854700  1
  C  C43  1  0.36597200  0.54305800  0.41253200  1
  C  C44  1  0.68329400  0.17106900  0.18069700  1
  C  C45  1  0.17106900  0.68329400  0.68069700  1
