# generated using pymatgen
data_Cu7NiC7
_symmetry_space_group_name_H-M   'P 1'
_cell_length_a   7.63530191
_cell_length_b   8.38169418
_cell_length_c   10.21166300
_cell_angle_alpha   90.00000000
_cell_angle_beta   90.00000000
_cell_angle_gamma   105.92537021
_symmetry_Int_Tables_number   1
_chemical_formula_structural   Cu7NiC7
_chemical_formula_sum   'Cu28 Ni4 C28'
_cell_volume   628.43149816
_cell_formula_units_Z   4
loop_
 _symmetry_equiv_pos_site_id
 _symmetry_equiv_pos_as_xyz
  1  'x, y, z'
loop_
 _atom_site_type_symbol
 _atom_site_label
 _atom_site_symmetry_multiplicity
 _atom_site_fract_x
 _atom_site_fract_y
 _atom_site_fract_z
 _atom_site_occupancy
  C  C0  1  0.76108000  0.24061300  0.60259200  1
  C  C1  1  0.23892000  0.25938700  0.10259200  1
  C  C2  1  0.23892000  0.75938700  0.39740800  1
  C  C3  1  0.76108000  0.74061300  0.89740800  1
  C  C4  1  0.86694400  0.17011900  0.90412400  1
  C  C5  1  0.13305600  0.32988100  0.40412400  1
  C  C6  1  0.13305600  0.82988100  0.09587600  1
  C  C7  1  0.86694400  0.67011900  0.59587600  1
  C  C8  1  0.56454200  0.31273200  0.86831800  1
  C  C9  1  0.43545800  0.18726800  0.36831800  1
  C  C10  1  0.43545800  0.68726800  0.13168200  1
  C  C11  1  0.56454200  0.81273200  0.63168200  1
  C  C12  1  0.25986700  0.03159300  0.76646200  1
  C  C13  1  0.74013300  0.46840700  0.26646200  1
  C  C14  1  0.74013300  0.96840700  0.23353800  1
  C  C15  1  0.25986700  0.53159300  0.73353800  1
  C  C16  1  0.19054100  0.96988900  0.61196000  1
  C  C17  1  0.80945900  0.53011100  0.11196000  1
  C  C18  1  0.80945900  0.03011100  0.38804000  1
  C  C19  1  0.19054100  0.46988900  0.88804000  1
  C  C20  1  0.04433700  0.01242100  0.71910300  1
  C  C21  1  0.95566300  0.48757900  0.21910300  1
  C  C22  1  0.95566300  0.98757900  0.28089700  1
  C  C23  1  0.04433700  0.51242100  0.78089700  1
  C  C24  1  0.21734000  0.16632700  0.66006100  1
  C  C25  1  0.78266000  0.33367300  0.16006100  1
  C  C26  1  0.78266000  0.83367300  0.33993900  1
  C  C27  1  0.21734000  0.66632700  0.83993900  1
  Ni  Ni28  1  0.17849500  0.04499300  0.68952900  1
  Ni  Ni29  1  0.82150500  0.45500700  0.18952900  1
  Ni  Ni30  1  0.82150500  0.95500700  0.31047100  1
  Ni  Ni31  1  0.17849500  0.54499300  0.81047100  1
  Cu  Cu32  1  0.85173600  0.48642300  0.58912700  1
  Cu  Cu33  1  0.14826400  0.01357700  0.08912700  1
  Cu  Cu34  1  0.14826400  0.51357700  0.41087300  1
  Cu  Cu35  1  0.85173600  0.98642300  0.91087300  1
  Cu  Cu36  1  0.67954600  0.98956300  0.60487200  1
  Cu  Cu37  1  0.32045400  0.51043700  0.10487200  1
  Cu  Cu38  1  0.32045400  0.01043700  0.39512800  1
  Cu  Cu39  1  0.67954600  0.48956300  0.89512800  1
  Cu  Cu40  1  0.99631800  0.22501600  0.50040900  1
  Cu  Cu41  1  0.00368100  0.27498400  0.00040900  1
  Cu  Cu42  1  0.00368100  0.77498400  0.49959100  1
  Cu  Cu43  1  0.99631800  0.72501600  0.99959100  1
  Cu  Cu44  1  0.54949000  0.26139600  0.72409100  1
  Cu  Cu45  1  0.45051000  0.23860400  0.22409100  1
  Cu  Cu46  1  0.45051000  0.73860400  0.27590900  1
  Cu  Cu47  1  0.54949000  0.76139600  0.77590900  1
  Cu  Cu48  1  0.62583500  0.23096500  0.42961800  1
  Cu  Cu49  1  0.37416500  0.26903500  0.92961800  1
  Cu  Cu50  1  0.37416500  0.76903500  0.57038200  1
  Cu  Cu51  1  0.62583500  0.73096500  0.07038200  1
  Cu  Cu52  1  0.91049000  0.23889600  0.76400800  1
  Cu  Cu53  1  0.08951000  0.26110400  0.26400800  1
  Cu  Cu54  1  0.08951000  0.76110400  0.23599200  1
  Cu  Cu55  1  0.91049000  0.73889600  0.73599200  1
  Cu  Cu56  1  0.66937400  0.19311900  0.94495600  1
  Cu  Cu57  1  0.33062600  0.30688100  0.44495600  1
  Cu  Cu58  1  0.33062600  0.80688100  0.05504400  1
  Cu  Cu59  1  0.66937400  0.69311900  0.55504400  1
