# generated using pymatgen
data_Cu26Ni14C25
_symmetry_space_group_name_H-M   'P 1'
_cell_length_a   8.47221843
_cell_length_b   8.50433085
_cell_length_c   29.52606351
_cell_angle_alpha   90.07101714
_cell_angle_beta   90.00000000
_cell_angle_gamma   90.00000000
_symmetry_Int_Tables_number   1
_chemical_formula_structural   Cu26Ni14C25
_chemical_formula_sum   'Cu52 Ni28 C50'
_cell_volume   2127.36743761
_cell_formula_units_Z   2
loop_
 _symmetry_equiv_pos_site_id
 _symmetry_equiv_pos_as_xyz
  1  'x, y, z'
loop_
 _atom_site_type_symbol
 _atom_site_label
 _atom_site_symmetry_multiplicity
 _atom_site_fract_x
 _atom_site_fract_y
 _atom_site_fract_z
 _atom_site_occupancy
  C  C0  1  0.70728204  0.11103405  0.47850944  1
  C  C1  1  0.20728204  0.38896595  0.02149056  1
  C  C2  1  0.29271796  0.88896595  0.52149056  1
  C  C3  1  0.79271796  0.61103405  0.97850944  1
  C  C4  1  0.69550799  0.09947162  0.30662985  1
  C  C5  1  0.19550799  0.40052838  0.19337015  1
  C  C6  1  0.30449201  0.90052838  0.69337015  1
  C  C7  1  0.80449201  0.59947162  0.80662985  1
  C  C8  1  0.90775775  0.50022783  0.28982305  1
  C  C9  1  0.40775775  0.99977217  0.21017695  1
  C  C10  1  0.09224225  0.49977217  0.71017695  1
  C  C11  1  0.59224225  0.00022783  0.78982305  1
  C  C12  1  0.99790050  0.19881247  0.38595541  1
  C  C13  1  0.49790050  0.30118753  0.11404459  1
  C  C14  1  0.00209950  0.80118753  0.61404459  1
  C  C15  1  0.50209950  0.69881247  0.88595541  1
  C  C16  1  0.80835610  0.20897665  0.19669127  1
  C  C17  1  0.30835610  0.29102335  0.30330873  1
  C  C18  1  0.19164390  0.79102335  0.80330873  1
  C  C19  1  0.69164390  0.70897665  0.69669127  1
  C  C20  1  0.80139234  0.80621777  0.38536094  1
  C  C21  1  0.30139234  0.69378223  0.11463906  1
  C  C22  1  0.19860766  0.19378223  0.61463906  1
  C  C23  1  0.69860766  0.30621777  0.88536094  1
  C  C24  1  0.50000000  0.50000000  0.50000000  1
  C  C25  1  0.00000000  0.00000000  -0.00000000  1
  C  C26  1  0.90152204  0.69362799  0.49769647  1
  C  C27  1  0.40152204  0.80637201  0.00230353  1
  C  C28  1  0.09847796  0.30637201  0.50230353  1
  C  C29  1  0.59847796  0.19362799  0.99769647  1
  C  C30  1  0.50298008  0.70924603  0.30107217  1
  C  C31  1  0.00298008  0.79075397  0.19892783  1
  C  C32  1  0.49701992  0.29075397  0.69892783  1
  C  C33  1  0.99701992  0.20924603  0.80107217  1
  C  C34  1  0.41097989  0.00213140  0.39262552  1
  C  C35  1  0.91097989  0.49786860  0.10737448  1
  C  C36  1  0.58902011  0.99786860  0.60737448  1
  C  C37  1  0.08902011  0.50213140  0.89262552  1
  C  C38  1  0.61089151  0.40228754  0.38591783  1
  C  C39  1  0.11089151  0.09771246  0.11408217  1
  C  C40  1  0.38910849  0.59771246  0.61408217  1
  C  C41  1  0.88910849  0.90228754  0.88591783  1
  C  C42  1  0.61889448  0.59736571  0.19478571  1
  C  C43  1  0.11889448  0.90263429  0.30521429  1
  C  C44  1  0.38110552  0.40263429  0.80521429  1
  C  C45  1  0.88110552  0.09736571  0.69478571  1
  C  C46  1  0.70894224  0.90386923  0.11200451  1
  C  C47  1  0.20894224  0.59613077  0.38799549  1
  C  C48  1  0.29105776  0.09613077  0.88799549  1
  C  C49  1  0.79105776  0.40386923  0.61200451  1
  Ni  Ni50  1  0.52090117  0.71323377  0.42960663  1
  Ni  Ni51  1  0.02090117  0.78676623  0.07039337  1
  Ni  Ni52  1  0.47909883  0.28676623  0.57039337  1
  Ni  Ni53  1  0.97909883  0.21323377  0.92960663  1
  Ni  Ni54  1  0.33823622  0.28859775  0.43347865  1
  Ni  Ni55  1  0.83823622  0.21140225  0.06652135  1
  Ni  Ni56  1  0.66176378  0.71140225  0.56652135  1
  Ni  Ni57  1  0.16176378  0.78859775  0.93347865  1
  Ni  Ni58  1  0.88370214  0.46607964  0.42903951  1
  Ni  Ni59  1  0.38370214  0.03392036  0.07096049  1
  Ni  Ni60  1  0.11629786  0.53392036  0.57096049  1
  Ni  Ni61  1  0.61629786  0.96607964  0.92903951  1
  Ni  Ni62  1  0.07513129  0.92188005  0.43576702  1
  Ni  Ni63  1  0.57513129  0.57811995  0.06423298  1
  Ni  Ni64  1  0.92486871  0.07811995  0.56423298  1
  Ni  Ni65  1  0.42486871  0.42188005  0.93576702  1
  Ni  Ni66  1  0.05994011  0.15577394  0.25122997  1
  Ni  Ni67  1  0.55994011  0.34422606  0.24877003  1
  Ni  Ni68  1  0.94005989  0.84422606  0.74877003  1
  Ni  Ni69  1  0.44005989  0.65577394  0.75122997  1
  Ni  Ni70  1  0.24809000  0.65012034  0.25071305  1
  Ni  Ni71  1  0.74809000  0.84987966  0.24928695  1
  Ni  Ni72  1  0.75191000  0.34987966  0.74928695  1
  Ni  Ni73  1  0.25191000  0.15012034  0.75071305  1
  Ni  Ni74  1  0.58240829  0.79612502  0.47471615  1
  Ni  Ni75  1  0.08240829  0.70387498  0.02528385  1
  Ni  Ni76  1  0.41759171  0.20387498  0.52528385  1
  Ni  Ni77  1  0.91759171  0.29612502  0.97471615  1
  Cu  Cu78  1  0.50518727  0.70115539  0.38087885  1
  Cu  Cu79  1  0.00518727  0.79884461  0.11912115  1
  Cu  Cu80  1  0.49481273  0.29884461  0.61912115  1
  Cu  Cu81  1  0.99481273  0.20115539  0.88087885  1
  Cu  Cu82  1  0.60955029  0.78506181  0.52396858  1
  Cu  Cu83  1  0.10955029  0.71493819  0.97603142  1
  Cu  Cu84  1  0.39044971  0.21493819  0.47603142  1
  Cu  Cu85  1  0.89044971  0.28506181  0.02396858  1
  Cu  Cu86  1  0.20655814  0.60162728  0.29689617  1
  Cu  Cu87  1  0.70655814  0.89837272  0.20310383  1
  Cu  Cu88  1  0.79344186  0.39837272  0.70310383  1
  Cu  Cu89  1  0.29344186  0.10162728  0.79689617  1
  Cu  Cu90  1  0.82152474  0.39839668  0.47155801  1
  Cu  Cu91  1  0.32152474  0.10160332  0.02844199  1
  Cu  Cu92  1  0.17847526  0.60160332  0.52844199  1
  Cu  Cu93  1  0.67847526  0.89839668  0.97155801  1
  Cu  Cu94  1  0.91426386  0.50840642  0.38212796  1
  Cu  Cu95  1  0.41426386  0.99159358  0.11787204  1
  Cu  Cu96  1  0.08573614  0.49159358  0.61787204  1
  Cu  Cu97  1  0.58573614  0.00840642  0.88212796  1
  Cu  Cu98  1  0.10726791  0.89712243  0.38805012  1
  Cu  Cu99  1  0.60726791  0.60287757  0.11194988  1
  Cu  Cu100  1  0.89273209  0.10287757  0.61194988  1
  Cu  Cu101  1  0.39273209  0.39712243  0.88805012  1
  Cu  Cu102  1  0.70831113  0.10310009  0.38936085  1
  Cu  Cu103  1  0.20831113  0.39689991  0.11063915  1
  Cu  Cu104  1  0.29168887  0.89689991  0.61063915  1
  Cu  Cu105  1  0.79168887  0.60310009  0.88936085  1
  Cu  Cu106  1  0.90396877  0.50002324  0.19748363  1
  Cu  Cu107  1  0.40396877  0.99997676  0.30251637  1
  Cu  Cu108  1  0.09603123  0.49997676  0.80251637  1
  Cu  Cu109  1  0.59603123  0.00002324  0.69748363  1
  Cu  Cu110  1  0.80417200  0.80255674  0.29439487  1
  Cu  Cu111  1  0.30417200  0.69744326  0.20560513  1
  Cu  Cu112  1  0.19582800  0.19744326  0.70560513  1
  Cu  Cu113  1  0.69582800  0.30255674  0.79439487  1
  Cu  Cu114  1  0.00633571  0.19780297  0.29700606  1
  Cu  Cu115  1  0.50633571  0.30219703  0.20299394  1
  Cu  Cu116  1  0.99366429  0.80219703  0.70299394  1
  Cu  Cu117  1  0.49366429  0.69780297  0.79700606  1
  Cu  Cu118  1  0.01166724  0.99221840  0.47694842  1
  Cu  Cu119  1  0.51166724  0.50778160  0.02305158  1
  Cu  Cu120  1  0.98833276  0.00778160  0.52305158  1
  Cu  Cu121  1  0.48833276  0.49221840  0.97694842  1
  Cu  Cu122  1  0.10671859  0.10230358  0.20598661  1
  Cu  Cu123  1  0.60671859  0.39769642  0.29401339  1
  Cu  Cu124  1  0.89328141  0.89769642  0.79401339  1
  Cu  Cu125  1  0.39328141  0.60230358  0.70598661  1
  Cu  Cu126  1  0.30657830  0.29965276  0.38487610  1
  Cu  Cu127  1  0.80657830  0.20034724  0.11512390  1
  Cu  Cu128  1  0.69342170  0.70034724  0.61512390  1
  Cu  Cu129  1  0.19342170  0.79965276  0.88487610  1
