# generated using pymatgen
data_CuNiC8
_symmetry_space_group_name_H-M   'P 1'
_cell_length_a   5.69930500
_cell_length_b   5.71293700
_cell_length_c   9.82860507
_cell_angle_alpha   54.54248658
_cell_angle_beta   90.00000000
_cell_angle_gamma   90.00000000
_symmetry_Int_Tables_number   1
_chemical_formula_structural   CuNiC8
_chemical_formula_sum   'Cu2 Ni2 C16'
_cell_volume   260.66863793
_cell_formula_units_Z   2
loop_
 _symmetry_equiv_pos_site_id
 _symmetry_equiv_pos_as_xyz
  1  'x, y, z'
loop_
 _atom_site_type_symbol
 _atom_site_label
 _atom_site_symmetry_multiplicity
 _atom_site_fract_x
 _atom_site_fract_y
 _atom_site_fract_z
 _atom_site_occupancy
  C  C0  1  0.44368300  0.75979100  0.25005600  1
  C  C1  1  0.55631700  0.24020900  0.74994400  1
  C  C2  1  0.94368300  0.24020900  0.24994400  1
  C  C3  1  0.05631700  0.75979100  0.75005600  1
  Ni  Ni4  1  0.00000000  0.50000000  0.50000000  1
  Ni  Ni5  1  0.50000000  0.50000000  0.00000000  1
  Cu  Cu6  1  0.00000000  0.00000000  0.00000000  1
  Cu  Cu7  1  0.50000000  0.00000000  0.50000000  1
  C  C8  1  0.01469900  0.65456700  0.25131900  1
  C  C9  1  0.98530100  0.34543300  0.74868100  1
  C  C10  1  0.51469900  0.34543300  0.24868100  1
  C  C11  1  0.48530100  0.65456700  0.75131900  1
  C  C12  1  0.69728300  0.15866500  0.04382600  1
  C  C13  1  0.30271700  0.84133500  0.95617400  1
  C  C14  1  0.19728300  0.84133500  0.45617400  1
  C  C15  1  0.80271700  0.15866500  0.54382600  1
  C  C16  1  0.20794200  0.24033500  0.05543500  1
  C  C17  1  0.79205800  0.75966500  0.94456500  1
  C  C18  1  0.70794200  0.75966500  0.44456500  1
  C  C19  1  0.29205800  0.24033500  0.55543500  1
