# generated using pymatgen
data_Cu2NiC4
_symmetry_space_group_name_H-M   'P 1'
_cell_length_a   3.36124500
_cell_length_b   9.96898400
_cell_length_c   11.83355400
_cell_angle_alpha   90.00000000
_cell_angle_beta   90.00000000
_cell_angle_gamma   90.00000000
_symmetry_Int_Tables_number   1
_chemical_formula_structural   Cu2NiC4
_chemical_formula_sum   'Cu8 Ni4 C16'
_cell_volume   396.52106604
_cell_formula_units_Z   4
loop_
 _symmetry_equiv_pos_site_id
 _symmetry_equiv_pos_as_xyz
  1  'x, y, z'
loop_
 _atom_site_type_symbol
 _atom_site_label
 _atom_site_symmetry_multiplicity
 _atom_site_fract_x
 _atom_site_fract_y
 _atom_site_fract_z
 _atom_site_occupancy
  Ni  Ni0  1  0.25000000  0.74838900  0.14903200  1
  Ni  Ni1  1  0.75000000  0.25161100  0.85096800  1
  Ni  Ni2  1  0.75000000  0.75161100  0.64903200  1
  Ni  Ni3  1  0.25000000  0.24838900  0.35096800  1
  Cu  Cu4  1  0.25000000  0.57672900  0.88991400  1
  Cu  Cu5  1  0.75000000  0.42327100  0.11008600  1
  Cu  Cu6  1  0.75000000  0.92327100  0.38991400  1
  Cu  Cu7  1  0.25000000  0.07672900  0.61008600  1
  Cu  Cu8  1  0.25000000  0.07665800  0.11254100  1
  Cu  Cu9  1  0.75000000  0.92334200  0.88745900  1
  Cu  Cu10  1  0.75000000  0.42334200  0.61254100  1
  Cu  Cu11  1  0.25000000  0.57665800  0.38745900  1
  C  C12  1  0.25000000  0.98477300  0.28337500  1
  C  C13  1  0.75000000  0.01522700  0.71662500  1
  C  C14  1  0.75000000  0.51522700  0.78337500  1
  C  C15  1  0.25000000  0.48477300  0.21662500  1
  C  C16  1  0.25000000  0.57615800  0.57716200  1
  C  C17  1  0.75000000  0.42384200  0.42283800  1
  C  C18  1  0.75000000  0.92384200  0.07716200  1
  C  C19  1  0.25000000  0.07615800  0.92283800  1
  C  C20  1  0.25000000  0.78848200  0.82703700  1
  C  C21  1  0.75000000  0.21151800  0.17296300  1
  C  C22  1  0.75000000  0.71151800  0.32703700  1
  C  C23  1  0.25000000  0.28848200  0.67296300  1
  C  C24  1  0.25000000  0.87523600  0.51958200  1
  C  C25  1  0.75000000  0.12476400  0.48041800  1
  C  C26  1  0.75000000  0.62476400  0.01958200  1
  C  C27  1  0.25000000  0.37523600  0.98041800  1
