# generated using pymatgen
data_CuNiC10
_symmetry_space_group_name_H-M   'P 1'
_cell_length_a   10.92425582
_cell_length_b   10.92425582
_cell_length_c   6.32983900
_cell_angle_alpha   90.00000000
_cell_angle_beta   90.00000000
_cell_angle_gamma   119.99999888
_symmetry_Int_Tables_number   1
_chemical_formula_structural   CuNiC10
_chemical_formula_sum   'Cu2 Ni2 C20'
_cell_volume   654.19470326
_cell_formula_units_Z   2
loop_
 _symmetry_equiv_pos_site_id
 _symmetry_equiv_pos_as_xyz
  1  'x, y, z'
loop_
 _atom_site_type_symbol
 _atom_site_label
 _atom_site_symmetry_multiplicity
 _atom_site_fract_x
 _atom_site_fract_y
 _atom_site_fract_z
 _atom_site_occupancy
  C  C0  1  0.86656000  0.22349100  0.61747300  1
  C  C1  1  0.64307000  0.86656000  0.11747300  1
  C  C2  1  0.22349100  0.35693000  0.11747300  1
  C  C3  1  0.77650900  0.64307000  0.61747300  1
  C  C4  1  0.35693000  0.13344000  0.61747300  1
  C  C5  1  0.13344000  0.77650900  0.11747300  1
  Ni  Ni6  1  0.00000000  0.00000000  0.55402100  1
  Ni  Ni7  1  0.00000000  0.00000000  0.05402100  1
  Cu  Cu8  1  0.66666700  0.33333300  0.19944500  1
  Cu  Cu9  1  0.33333300  0.66666700  0.69944500  1
  C  C10  1  0.66666700  0.33333300  0.80057400  1
  C  C11  1  0.33333300  0.66666700  0.30057400  1
  C  C12  1  0.16626100  0.26961600  0.59292000  1
  C  C13  1  0.89664500  0.16626100  0.09292000  1
  C  C14  1  0.26961600  0.10335500  0.09292000  1
  C  C15  1  0.73038400  0.89664500  0.59292000  1
  C  C16  1  0.10335500  0.83373900  0.59292000  1
  C  C17  1  0.83373900  0.73038400  0.09292000  1
  C  C18  1  0.57497600  0.08876700  0.37101500  1
  C  C19  1  0.48620800  0.57497600  0.87101500  1
  C  C20  1  0.42502400  0.91123300  0.87101500  1
  C  C21  1  0.51379200  0.42502400  0.37101500  1
  C  C22  1  0.91123300  0.48620800  0.37101500  1
  C  C23  1  0.08876700  0.51379200  0.87101500  1
