# generated using pymatgen
data_Cu3NiC10
_symmetry_space_group_name_H-M   'P 1'
_cell_length_a   14.46015427
_cell_length_b   14.46015427
_cell_length_c   14.46015427
_cell_angle_alpha   90.00000000
_cell_angle_beta   90.00000000
_cell_angle_gamma   90.00000000
_symmetry_Int_Tables_number   1
_chemical_formula_structural   Cu3NiC10
_chemical_formula_sum   'Cu48 Ni16 C160'
_cell_volume   3023.56130672
_cell_formula_units_Z   16
loop_
 _symmetry_equiv_pos_site_id
 _symmetry_equiv_pos_as_xyz
  1  'x, y, z'
loop_
 _atom_site_type_symbol
 _atom_site_label
 _atom_site_symmetry_multiplicity
 _atom_site_fract_x
 _atom_site_fract_y
 _atom_site_fract_z
 _atom_site_occupancy
  C  C0  1  0.00000000  0.00000000  0.50000000  1
  C  C1  1  0.00000000  0.50000000  0.00000000  1
  C  C2  1  0.50000000  0.00000000  0.00000000  1
  C  C3  1  0.50000000  0.50000000  0.50000000  1
  C  C4  1  0.50000000  0.50000000  0.00000000  1
  C  C5  1  0.50000000  0.00000000  0.50000000  1
  C  C6  1  0.00000000  0.50000000  0.50000000  1
  C  C7  1  0.00000000  0.00000000  0.00000000  1
  C  C8  1  0.24854096  0.75145904  0.25145904  1
  C  C9  1  0.75145904  0.25145904  0.24854096  1
  C  C10  1  0.25145904  0.24854096  0.75145904  1
  C  C11  1  0.74854096  0.74854096  0.74854096  1
  C  C12  1  0.75145904  0.24854096  0.74854096  1
  C  C13  1  0.24854096  0.74854096  0.75145904  1
  C  C14  1  0.74854096  0.75145904  0.24854096  1
  C  C15  1  0.25145904  0.25145904  0.25145904  1
  Ni  Ni16  1  0.36888215  0.63111785  0.13111785  1
  Ni  Ni17  1  0.63111785  0.13111785  0.36888215  1
  Ni  Ni18  1  0.13111785  0.36888215  0.63111785  1
  Ni  Ni19  1  0.86888215  0.86888215  0.86888215  1
  Ni  Ni20  1  0.63111785  0.36888215  0.86888215  1
  Ni  Ni21  1  0.36888215  0.86888215  0.63111785  1
  Ni  Ni22  1  0.86888215  0.63111785  0.36888215  1
  Ni  Ni23  1  0.13111785  0.13111785  0.13111785  1
  Ni  Ni24  1  0.12180242  0.87819758  0.37819758  1
  Ni  Ni25  1  0.87819758  0.37819758  0.12180242  1
  Ni  Ni26  1  0.37819758  0.12180242  0.87819758  1
  Ni  Ni27  1  0.62180242  0.62180242  0.62180242  1
  Ni  Ni28  1  0.87819758  0.12180242  0.62180242  1
  Ni  Ni29  1  0.12180242  0.62180242  0.87819758  1
  Ni  Ni30  1  0.62180242  0.87819758  0.12180242  1
  Ni  Ni31  1  0.37819758  0.37819758  0.37819758  1
  Cu  Cu32  1  0.02159664  0.52583819  0.24222172  1
  Cu  Cu33  1  0.97840336  0.02583819  0.25777828  1
  Cu  Cu34  1  0.47840336  0.47416181  0.74222172  1
  Cu  Cu35  1  0.52159664  0.97416181  0.75777828  1
  Cu  Cu36  1  0.24222172  0.02159664  0.52583819  1
  Cu  Cu37  1  0.25777828  0.97840336  0.02583819  1
  Cu  Cu38  1  0.74222172  0.47840336  0.47416181  1
  Cu  Cu39  1  0.75777828  0.52159664  0.97416181  1
  Cu  Cu40  1  0.52583819  0.24222172  0.02159664  1
  Cu  Cu41  1  0.02583819  0.25777828  0.97840336  1
  Cu  Cu42  1  0.47416181  0.74222172  0.47840336  1
  Cu  Cu43  1  0.97416181  0.75777828  0.52159664  1
  Cu  Cu44  1  0.97840336  0.47416181  0.75777828  1
  Cu  Cu45  1  0.02159664  0.97416181  0.74222172  1
  Cu  Cu46  1  0.52159664  0.52583819  0.25777828  1
  Cu  Cu47  1  0.47840336  0.02583819  0.24222172  1
  Cu  Cu48  1  0.75777828  0.97840336  0.47416181  1
  Cu  Cu49  1  0.74222172  0.02159664  0.97416181  1
  Cu  Cu50  1  0.25777828  0.52159664  0.52583819  1
  Cu  Cu51  1  0.24222172  0.47840336  0.02583819  1
  Cu  Cu52  1  0.47416181  0.75777828  0.97840336  1
  Cu  Cu53  1  0.97416181  0.74222172  0.02159664  1
  Cu  Cu54  1  0.52583819  0.25777828  0.52159664  1
  Cu  Cu55  1  0.02583819  0.24222172  0.47840336  1
  Cu  Cu56  1  0.01193947  0.72973255  0.22459992  1
  Cu  Cu57  1  0.98806053  0.22973255  0.27540008  1
  Cu  Cu58  1  0.48806053  0.27026745  0.72459992  1
  Cu  Cu59  1  0.51193947  0.77026745  0.77540008  1
  Cu  Cu60  1  0.22459992  0.01193947  0.72973255  1
  Cu  Cu61  1  0.27540008  0.98806053  0.22973255  1
  Cu  Cu62  1  0.72459992  0.48806053  0.27026745  1
  Cu  Cu63  1  0.77540008  0.51193947  0.77026745  1
  Cu  Cu64  1  0.72973255  0.22459992  0.01193947  1
  Cu  Cu65  1  0.22973255  0.27540008  0.98806053  1
  Cu  Cu66  1  0.27026745  0.72459992  0.48806053  1
  Cu  Cu67  1  0.77026745  0.77540008  0.51193947  1
  Cu  Cu68  1  0.98806053  0.27026745  0.77540008  1
  Cu  Cu69  1  0.01193947  0.77026745  0.72459992  1
  Cu  Cu70  1  0.51193947  0.72973255  0.27540008  1
  Cu  Cu71  1  0.48806053  0.22973255  0.22459992  1
  Cu  Cu72  1  0.77540008  0.98806053  0.27026745  1
  Cu  Cu73  1  0.72459992  0.01193947  0.77026745  1
  Cu  Cu74  1  0.27540008  0.51193947  0.72973255  1
  Cu  Cu75  1  0.22459992  0.48806053  0.22973255  1
  Cu  Cu76  1  0.27026745  0.77540008  0.98806053  1
  Cu  Cu77  1  0.77026745  0.72459992  0.01193947  1
  Cu  Cu78  1  0.72973255  0.27540008  0.51193947  1
  Cu  Cu79  1  0.22973255  0.22459992  0.48806053  1
  C  C80  1  0.37840423  0.98650243  0.27262499  1
  C  C81  1  0.62159577  0.48650243  0.22737501  1
  C  C82  1  0.12159577  0.01349757  0.77262499  1
  C  C83  1  0.87840423  0.51349757  0.72737501  1
  C  C84  1  0.27262499  0.37840423  0.98650243  1
  C  C85  1  0.22737501  0.62159577  0.48650243  1
  C  C86  1  0.77262499  0.12159577  0.01349757  1
  C  C87  1  0.72737501  0.87840423  0.51349757  1
  C  C88  1  0.98650243  0.27262499  0.37840423  1
  C  C89  1  0.48650243  0.22737501  0.62159577  1
  C  C90  1  0.01349757  0.77262499  0.12159577  1
  C  C91  1  0.51349757  0.72737501  0.87840423  1
  C  C92  1  0.62159577  0.01349757  0.72737501  1
  C  C93  1  0.37840423  0.51349757  0.77262499  1
  C  C94  1  0.87840423  0.98650243  0.22737501  1
  C  C95  1  0.12159577  0.48650243  0.27262499  1
  C  C96  1  0.72737501  0.62159577  0.01349757  1
  C  C97  1  0.77262499  0.37840423  0.51349757  1
  C  C98  1  0.22737501  0.87840423  0.98650243  1
  C  C99  1  0.27262499  0.12159577  0.48650243  1
  C  C100  1  0.01349757  0.72737501  0.62159577  1
  C  C101  1  0.51349757  0.77262499  0.37840423  1
  C  C102  1  0.98650243  0.22737501  0.87840423  1
  C  C103  1  0.48650243  0.27262499  0.12159577  1
  C  C104  1  0.46716913  0.53225099  0.16947856  1
  C  C105  1  0.53283087  0.03225099  0.33052144  1
  C  C106  1  0.03283087  0.46774901  0.66947856  1
  C  C107  1  0.96716913  0.96774901  0.83052144  1
  C  C108  1  0.16947856  0.46716913  0.53225099  1
  C  C109  1  0.33052144  0.53283087  0.03225099  1
  C  C110  1  0.66947856  0.03283087  0.46774901  1
  C  C111  1  0.83052144  0.96716913  0.96774901  1
  C  C112  1  0.53225099  0.16947856  0.46716913  1
  C  C113  1  0.03225099  0.33052144  0.53283087  1
  C  C114  1  0.46774901  0.66947856  0.03283087  1
  C  C115  1  0.96774901  0.83052144  0.96716913  1
  C  C116  1  0.53283087  0.46774901  0.83052144  1
  C  C117  1  0.46716913  0.96774901  0.66947856  1
  C  C118  1  0.96716913  0.53225099  0.33052144  1
  C  C119  1  0.03283087  0.03225099  0.16947856  1
  C  C120  1  0.83052144  0.53283087  0.46774901  1
  C  C121  1  0.66947856  0.46716913  0.96774901  1
  C  C122  1  0.33052144  0.96716913  0.53225099  1
  C  C123  1  0.16947856  0.03283087  0.03225099  1
  C  C124  1  0.46774901  0.83052144  0.53283087  1
  C  C125  1  0.96774901  0.66947856  0.46716913  1
  C  C126  1  0.53225099  0.33052144  0.96716913  1
  C  C127  1  0.03225099  0.16947856  0.03283087  1
  C  C128  1  0.01657881  0.97257898  0.33797428  1
  C  C129  1  0.98342119  0.47257898  0.16202572  1
  C  C130  1  0.48342119  0.02742102  0.83797428  1
  C  C131  1  0.51657881  0.52742102  0.66202572  1
  C  C132  1  0.33797428  0.01657881  0.97257898  1
  C  C133  1  0.16202572  0.98342119  0.47257898  1
  C  C134  1  0.83797428  0.48342119  0.02742102  1
  C  C135  1  0.66202572  0.51657881  0.52742102  1
  C  C136  1  0.97257898  0.33797428  0.01657881  1
  C  C137  1  0.47257898  0.16202572  0.98342119  1
  C  C138  1  0.02742102  0.83797428  0.48342119  1
  C  C139  1  0.52742102  0.66202572  0.51657881  1
  C  C140  1  0.98342119  0.02742102  0.66202572  1
  C  C141  1  0.01657881  0.52742102  0.83797428  1
  C  C142  1  0.51657881  0.97257898  0.16202572  1
  C  C143  1  0.48342119  0.47257898  0.33797428  1
  C  C144  1  0.66202572  0.98342119  0.02742102  1
  C  C145  1  0.83797428  0.01657881  0.52742102  1
  C  C146  1  0.16202572  0.51657881  0.97257898  1
  C  C147  1  0.33797428  0.48342119  0.47257898  1
  C  C148  1  0.02742102  0.66202572  0.98342119  1
  C  C149  1  0.52742102  0.83797428  0.01657881  1
  C  C150  1  0.97257898  0.16202572  0.51657881  1
  C  C151  1  0.47257898  0.33797428  0.48342119  1
  C  C152  1  0.41461766  0.72469912  0.23804153  1
  C  C153  1  0.58538234  0.22469912  0.26195847  1
  C  C154  1  0.08538234  0.27530088  0.73804153  1
  C  C155  1  0.91461766  0.77530088  0.76195847  1
  C  C156  1  0.23804153  0.41461766  0.72469912  1
  C  C157  1  0.26195847  0.58538234  0.22469912  1
  C  C158  1  0.73804153  0.08538234  0.27530088  1
  C  C159  1  0.76195847  0.91461766  0.77530088  1
  C  C160  1  0.72469912  0.23804153  0.41461766  1
  C  C161  1  0.22469912  0.26195847  0.58538234  1
  C  C162  1  0.27530088  0.73804153  0.08538234  1
  C  C163  1  0.77530088  0.76195847  0.91461766  1
  C  C164  1  0.58538234  0.27530088  0.76195847  1
  C  C165  1  0.41461766  0.77530088  0.73804153  1
  C  C166  1  0.91461766  0.72469912  0.26195847  1
  C  C167  1  0.08538234  0.22469912  0.23804153  1
  C  C168  1  0.76195847  0.58538234  0.27530088  1
  C  C169  1  0.73804153  0.41461766  0.77530088  1
  C  C170  1  0.26195847  0.91461766  0.72469912  1
  C  C171  1  0.23804153  0.08538234  0.22469912  1
  C  C172  1  0.27530088  0.76195847  0.58538234  1
  C  C173  1  0.77530088  0.73804153  0.41461766  1
  C  C174  1  0.72469912  0.26195847  0.91461766  1
  C  C175  1  0.22469912  0.23804153  0.08538234  1
  C  C176  1  0.08513793  0.78056283  0.27667119  1
  C  C177  1  0.91486207  0.28056283  0.22332881  1
  C  C178  1  0.41486207  0.21943717  0.77667119  1
  C  C179  1  0.58513793  0.71943717  0.72332881  1
  C  C180  1  0.27667119  0.08513793  0.78056283  1
  C  C181  1  0.22332881  0.91486207  0.28056283  1
  C  C182  1  0.77667119  0.41486207  0.21943717  1
  C  C183  1  0.72332881  0.58513793  0.71943717  1
  C  C184  1  0.78056283  0.27667119  0.08513793  1
  C  C185  1  0.28056283  0.22332881  0.91486207  1
  C  C186  1  0.21943717  0.77667119  0.41486207  1
  C  C187  1  0.71943717  0.72332881  0.58513793  1
  C  C188  1  0.91486207  0.21943717  0.72332881  1
  C  C189  1  0.08513793  0.71943717  0.77667119  1
  C  C190  1  0.58513793  0.78056283  0.22332881  1
  C  C191  1  0.41486207  0.28056283  0.27667119  1
  C  C192  1  0.72332881  0.91486207  0.21943717  1
  C  C193  1  0.77667119  0.08513793  0.71943717  1
  C  C194  1  0.22332881  0.58513793  0.78056283  1
  C  C195  1  0.27667119  0.41486207  0.28056283  1
  C  C196  1  0.21943717  0.72332881  0.91486207  1
  C  C197  1  0.71943717  0.77667119  0.08513793  1
  C  C198  1  0.78056283  0.22332881  0.58513793  1
  C  C199  1  0.28056283  0.27667119  0.41486207  1
  C  C200  1  0.04993096  0.62664677  0.20315659  1
  C  C201  1  0.95006904  0.12664677  0.29684341  1
  C  C202  1  0.45006904  0.37335323  0.70315659  1
  C  C203  1  0.54993096  0.87335323  0.79684341  1
  C  C204  1  0.20315659  0.04993096  0.62664677  1
  C  C205  1  0.29684341  0.95006904  0.12664677  1
  C  C206  1  0.70315659  0.45006904  0.37335323  1
  C  C207  1  0.79684341  0.54993096  0.87335323  1
  C  C208  1  0.62664677  0.20315659  0.04993096  1
  C  C209  1  0.12664677  0.29684341  0.95006904  1
  C  C210  1  0.37335323  0.70315659  0.45006904  1
  C  C211  1  0.87335323  0.79684341  0.54993096  1
  C  C212  1  0.95006904  0.37335323  0.79684341  1
  C  C213  1  0.04993096  0.87335323  0.70315659  1
  C  C214  1  0.54993096  0.62664677  0.29684341  1
  C  C215  1  0.45006904  0.12664677  0.20315659  1
  C  C216  1  0.79684341  0.95006904  0.37335323  1
  C  C217  1  0.70315659  0.04993096  0.87335323  1
  C  C218  1  0.29684341  0.54993096  0.62664677  1
  C  C219  1  0.20315659  0.45006904  0.12664677  1
  C  C220  1  0.37335323  0.79684341  0.95006904  1
  C  C221  1  0.87335323  0.70315659  0.04993096  1
  C  C222  1  0.62664677  0.29684341  0.54993096  1
  C  C223  1  0.12664677  0.20315659  0.45006904  1
