# generated using pymatgen
data_CuNi3C2
_symmetry_space_group_name_H-M   'P 1'
_cell_length_a   3.49954176
_cell_length_b   3.49954176
_cell_length_c   39.56214300
_cell_angle_alpha   90.00000000
_cell_angle_beta   90.00000000
_cell_angle_gamma   119.99999552
_symmetry_Int_Tables_number   1
_chemical_formula_structural   CuNi3C2
_chemical_formula_sum   'Cu2 Ni6 C4'
_cell_volume   419.59743152
_cell_formula_units_Z   2
loop_
 _symmetry_equiv_pos_site_id
 _symmetry_equiv_pos_as_xyz
  1  'x, y, z'
loop_
 _atom_site_type_symbol
 _atom_site_label
 _atom_site_symmetry_multiplicity
 _atom_site_fract_x
 _atom_site_fract_y
 _atom_site_fract_z
 _atom_site_occupancy
  Ni  Ni0  1  0.33333300  0.66666700  0.70383700  1
  Ni  Ni1  1  0.66666700  0.33333300  0.04762700  1
  Ni  Ni2  1  0.66666700  0.33333300  0.42334300  1
  Ni  Ni3  1  0.66666700  0.33333300  0.14024400  1
  Ni  Ni4  1  0.66666700  0.33333300  0.51595300  1
  Ni  Ni5  1  0.33333300  0.66666700  0.61122600  1
  C  C6  1  0.33333300  0.66666700  0.09392900  1
  C  C7  1  0.33333300  0.66666700  0.46963900  1
  C  C8  1  0.66666700  0.33333300  0.28180000  1
  C  C9  1  0.66666700  0.33333300  0.65755700  1
  Cu  Cu10  1  0.33333300  0.66666700  0.32270900  1
  Cu  Cu11  1  0.33333300  0.66666700  0.24088400  1
