# generated using pymatgen
data_Cu4Ni2C15
_symmetry_space_group_name_H-M   'P 1'
_cell_length_a   7.20288500
_cell_length_b   9.45350100
_cell_length_c   18.85297654
_cell_angle_alpha   70.99695220
_cell_angle_beta   90.00000000
_cell_angle_gamma   90.00000000
_symmetry_Int_Tables_number   1
_chemical_formula_structural   Cu4Ni2C15
_chemical_formula_sum   'Cu16 Ni8 C60'
_cell_volume   1213.78339725
_cell_formula_units_Z   4
loop_
 _symmetry_equiv_pos_site_id
 _symmetry_equiv_pos_as_xyz
  1  'x, y, z'
loop_
 _atom_site_type_symbol
 _atom_site_label
 _atom_site_symmetry_multiplicity
 _atom_site_fract_x
 _atom_site_fract_y
 _atom_site_fract_z
 _atom_site_occupancy
  Ni  Ni0  1  0.66673600  0.52569700  0.35695400  1
  Ni  Ni1  1  0.83326400  0.52569700  0.85695400  1
  Ni  Ni2  1  0.33326400  0.47430300  0.64304600  1
  Ni  Ni3  1  0.16673600  0.47430300  0.14304600  1
  Ni  Ni4  1  0.15383700  0.96412400  0.64330000  1
  Ni  Ni5  1  0.34616300  0.96412400  0.14330000  1
  Ni  Ni6  1  0.84616300  0.03587600  0.35670000  1
  Ni  Ni7  1  0.65383700  0.03587600  0.85670000  1
  Cu  Cu8  1  0.45845700  0.26524200  0.50934100  1
  Cu  Cu9  1  0.04154300  0.26524200  0.00934100  1
  Cu  Cu10  1  0.54154300  0.73475800  0.49065900  1
  Cu  Cu11  1  0.95845700  0.73475800  0.99065900  1
  Cu  Cu12  1  0.74734600  0.36601300  0.22212700  1
  Cu  Cu13  1  0.75265400  0.36601300  0.72212700  1
  Cu  Cu14  1  0.25265400  0.63398700  0.77787300  1
  Cu  Cu15  1  0.24734600  0.63398700  0.27787300  1
  Cu  Cu16  1  0.05885200  0.25603800  0.48431100  1
  Cu  Cu17  1  0.44114800  0.25603800  0.98431100  1
  Cu  Cu18  1  0.94114800  0.74396200  0.51568900  1
  Cu  Cu19  1  0.55885200  0.74396200  0.01568900  1
  Cu  Cu20  1  0.73926600  0.86209600  0.72858100  1
  Cu  Cu21  1  0.76073400  0.86209600  0.22858100  1
  Cu  Cu22  1  0.26073400  0.13790400  0.27141900  1
  Cu  Cu23  1  0.23926600  0.13790400  0.77141900  1
  C  C24  1  0.81219700  0.21157800  0.23334700  1
  C  C25  1  0.68780300  0.21157800  0.73334700  1
  C  C26  1  0.18780300  0.78842200  0.76665300  1
  C  C27  1  0.31219700  0.78842200  0.26665300  1
  C  C28  1  0.89489600  0.47749700  0.18015300  1
  C  C29  1  0.60510400  0.47749700  0.68015300  1
  C  C30  1  0.10510400  0.52250300  0.81984700  1
  C  C31  1  0.39489600  0.52250300  0.31984700  1
  C  C32  1  0.55416000  0.30096500  0.43578100  1
  C  C33  1  0.94584000  0.30096500  0.93578100  1
  C  C34  1  0.44584000  0.69903500  0.56421900  1
  C  C35  1  0.05416000  0.69903500  0.06421900  1
  C  C36  1  0.74452000  0.37698600  0.30224300  1
  C  C37  1  0.75548000  0.37698600  0.80224300  1
  C  C38  1  0.25548000  0.62301400  0.69775700  1
  C  C39  1  0.24452000  0.62301400  0.19775700  1
  C  C40  1  0.53383300  0.34440600  0.55707200  1
  C  C41  1  0.96616700  0.34440600  0.05707200  1
  C  C42  1  0.46616700  0.65559400  0.44292800  1
  C  C43  1  0.03383300  0.65559400  0.94292800  1
  C  C44  1  0.42342000  0.10666800  0.54286600  1
  C  C45  1  0.07658000  0.10666800  0.04286600  1
  C  C46  1  0.57658000  0.89333200  0.45713400  1
  C  C47  1  0.92342000  0.89333200  0.95713400  1
  C  C48  1  0.57239000  0.40629200  0.18485900  1
  C  C49  1  0.92761000  0.40629200  0.68485900  1
  C  C50  1  0.42761000  0.59370800  0.81514100  1
  C  C51  1  0.07239000  0.59370800  0.31514100  1
  C  C52  1  0.25136900  0.34786200  0.48628900  1
  C  C53  1  0.24863100  0.34786200  0.98628900  1
  C  C54  1  0.74863100  0.65213800  0.51371100  1
  C  C55  1  0.75136900  0.65213800  0.01371100  1
  C  C56  1  0.92621300  0.37552400  0.46186200  1
  C  C57  1  0.57378700  0.37552400  0.96186200  1
  C  C58  1  0.07378700  0.62447600  0.53813800  1
  C  C59  1  0.42621300  0.62447600  0.03813800  1
  C  C60  1  0.08629100  0.16536500  0.43615200  1
  C  C61  1  0.41370900  0.16536500  0.93615200  1
  C  C62  1  0.91370900  0.83463500  0.56384800  1
  C  C63  1  0.58629100  0.83463500  0.06384800  1
  C  C64  1  0.02894800  0.16329700  0.56501700  1
  C  C65  1  0.47105200  0.16329700  0.06501700  1
  C  C66  1  0.97105200  0.83670300  0.43498300  1
  C  C67  1  0.52894800  0.83670300  0.93498300  1
  C  C68  1  0.88771800  0.97012900  0.68590200  1
  C  C69  1  0.61228200  0.97012900  0.18590200  1
  C  C70  1  0.11228200  0.02987100  0.31409800  1
  C  C71  1  0.38771800  0.02987100  0.81409800  1
  C  C72  1  0.80524900  0.70588300  0.74195900  1
  C  C73  1  0.69475100  0.70588300  0.24195900  1
  C  C74  1  0.19475100  0.29411700  0.25804100  1
  C  C75  1  0.30524900  0.29411700  0.75804100  1
  C  C76  1  0.73501700  0.87744600  0.80758300  1
  C  C77  1  0.76498300  0.87744600  0.30758300  1
  C  C78  1  0.26498300  0.12255400  0.19241700  1
  C  C79  1  0.23501700  0.12255400  0.69241700  1
  C  C80  1  0.56461100  0.89757100  0.69084400  1
  C  C81  1  0.93538900  0.89757100  0.19084400  1
  C  C82  1  0.43538900  0.10242900  0.30915600  1
  C  C83  1  0.06461100  0.10242900  0.80915600  1
