# generated using pymatgen
data_CuNiC8
_symmetry_space_group_name_H-M   'P 1'
_cell_length_a   7.72227700
_cell_length_b   5.47816600
_cell_length_c   5.65828561
_cell_angle_alpha   89.41136548
_cell_angle_beta   90.00000000
_cell_angle_gamma   90.00000000
_symmetry_Int_Tables_number   1
_chemical_formula_structural   CuNiC8
_chemical_formula_sum   'Cu2 Ni2 C16'
_cell_volume   239.35500284
_cell_formula_units_Z   2
loop_
 _symmetry_equiv_pos_site_id
 _symmetry_equiv_pos_as_xyz
  1  'x, y, z'
loop_
 _atom_site_type_symbol
 _atom_site_label
 _atom_site_symmetry_multiplicity
 _atom_site_fract_x
 _atom_site_fract_y
 _atom_site_fract_z
 _atom_site_occupancy
  C  C0  1  0.75000000  0.98179200  0.04469400  1
  C  C1  1  0.75000000  0.51232900  0.56873400  1
  C  C2  1  0.25000000  0.48767100  0.43126600  1
  C  C3  1  0.25000000  0.01820800  0.95530600  1
  Ni  Ni4  1  0.00000000  0.00000000  0.50000000  1
  Ni  Ni5  1  0.50000000  0.00000000  0.50000000  1
  Cu  Cu6  1  0.00000000  0.50000000  0.00000000  1
  Cu  Cu7  1  0.50000000  0.50000000  0.00000000  1
  C  C8  1  0.45123000  0.19737100  0.21133700  1
  C  C9  1  0.54440700  0.70991300  0.30234600  1
  C  C10  1  0.54877000  0.80262900  0.78866300  1
  C  C11  1  0.04440700  0.29008700  0.69765400  1
  C  C12  1  0.25000000  0.90498900  0.52959300  1
  C  C13  1  0.45559300  0.29008700  0.69765400  1
  C  C14  1  0.95559300  0.70991300  0.30234600  1
  C  C15  1  0.04877000  0.19737100  0.21133700  1
  C  C16  1  0.75000000  0.42153000  0.98473400  1
  C  C17  1  0.95123000  0.80262900  0.78866300  1
  C  C18  1  0.25000000  0.57847000  0.01526600  1
  C  C19  1  0.75000000  0.09501100  0.47040700  1
