# generated using pymatgen
data_CuNi8C51
_symmetry_space_group_name_H-M   'P 1'
_cell_length_a   3.88752719
_cell_length_b   3.89032547
_cell_length_c   54.99096732
_cell_angle_alpha   90.00000000
_cell_angle_beta   90.00000000
_cell_angle_gamma   90.00000000
_symmetry_Int_Tables_number   1
_chemical_formula_structural   CuNi8C51
_chemical_formula_sum   'Cu1 Ni8 C51'
_cell_volume   831.66942438
_cell_formula_units_Z   1
loop_
 _symmetry_equiv_pos_site_id
 _symmetry_equiv_pos_as_xyz
  1  'x, y, z'
loop_
 _atom_site_type_symbol
 _atom_site_label
 _atom_site_symmetry_multiplicity
 _atom_site_fract_x
 _atom_site_fract_y
 _atom_site_fract_z
 _atom_site_occupancy
  Ni  Ni0  1  0.50000000  0.50000000  0.06761593  1
  Ni  Ni1  1  0.50000000  -0.00000000  0.31782664  1
  Ni  Ni2  1  0.50000000  0.50000000  0.56779593  1
  Ni  Ni3  1  0.50000000  0.00000000  0.81777248  1
  Ni  Ni4  1  0.50000000  0.00000000  0.18222752  1
  Ni  Ni5  1  0.50000000  0.50000000  0.43220407  1
  Ni  Ni6  1  0.50000000  0.00000000  0.68217336  1
  Ni  Ni7  1  0.50000000  0.50000000  0.93238407  1
  C  C8  1  0.50000000  0.00000000  0.25001704  1
  C  C9  1  0.50000000  0.50000000  0.50000000  1
  C  C10  1  0.50000000  0.00000000  0.74998296  1
  Cu  Cu11  1  0.50000000  0.50000000  -0.00000000  1
  C  C12  1  0.00000000  0.00000000  0.03022364  1
  C  C13  1  0.00000000  0.50000000  0.28077864  1
  C  C14  1  -0.00000000  -0.00000000  0.53075927  1
  C  C15  1  0.00000000  0.50000000  0.78074890  1
  C  C16  1  -0.00000000  0.50000000  0.21925110  1
  C  C17  1  0.00000000  0.00000000  0.46924073  1
  C  C18  1  0.00000000  0.50000000  0.71922136  1
  C  C19  1  -0.00000000  -0.00000000  0.96977636  1
  C  C20  1  -0.00000000  -0.00000000  0.10614345  1
  C  C21  1  -0.00000000  0.50000000  0.35619503  1
  C  C22  1  0.00000000  0.00000000  0.60619285  1
  C  C23  1  -0.00000000  0.50000000  0.85620516  1
  C  C24  1  -0.00000000  0.50000000  0.14379484  1
  C  C25  1  0.00000000  -0.00000000  0.39380715  1
  C  C26  1  0.00000000  0.50000000  0.64380497  1
  C  C27  1  -0.00000000  0.00000000  0.89385655  1
  C  C28  1  0.00000000  0.50000000  0.10927015  1
  C  C29  1  -0.00000000  0.00000000  0.35931359  1
  C  C30  1  -0.00000000  0.50000000  0.60932285  1
  C  C31  1  0.00000000  0.00000000  0.85935171  1
  C  C32  1  0.00000000  0.00000000  0.14064829  1
  C  C33  1  0.00000000  0.50000000  0.39067715  1
  C  C34  1  0.00000000  0.00000000  0.64068641  1
  C  C35  1  0.00000000  0.50000000  0.89072985  1
  C  C36  1  0.00000000  -0.00000000  0.07245495  1
  C  C37  1  -0.00000000  0.50000000  0.32258738  1
  C  C38  1  0.00000000  -0.00000000  0.57259403  1
  C  C39  1  -0.00000000  0.50000000  0.82259450  1
  C  C40  1  -0.00000000  0.50000000  0.17740550  1
  C  C41  1  0.00000000  0.00000000  0.42740597  1
  C  C42  1  -0.00000000  0.50000000  0.67741262  1
  C  C43  1  0.00000000  -0.00000000  0.92754505  1
  C  C44  1  0.50000000  0.00000000  0.02516711  1
  C  C45  1  0.50000000  0.50000000  0.27619606  1
  C  C46  1  0.50000000  0.00000000  0.52619328  1
  C  C47  1  0.50000000  0.50000000  0.77619470  1
  C  C48  1  0.50000000  0.50000000  0.22380530  1
  C  C49  1  0.50000000  -0.00000000  0.47380672  1
  C  C50  1  0.50000000  0.50000000  0.72380394  1
  C  C51  1  0.50000000  -0.00000000  0.97483289  1
  C  C52  1  0.00000000  0.50000000  0.02501200  1
  C  C53  1  -0.00000000  0.00000000  0.27603559  1
  C  C54  1  0.00000000  0.50000000  0.52603300  1
  C  C55  1  -0.00000000  -0.00000000  0.77603207  1
  C  C56  1  -0.00000000  0.00000000  0.22396793  1
  C  C57  1  -0.00000000  0.50000000  0.47396700  1
  C  C58  1  -0.00000000  0.00000000  0.72396441  1
  C  C59  1  0.00000000  0.50000000  0.97498800  1
