# generated using pymatgen
data_CuNiC2
_symmetry_space_group_name_H-M   'P 1'
_cell_length_a   6.71885689
_cell_length_b   6.71885689
_cell_length_c   6.84445200
_cell_angle_alpha   90.00000000
_cell_angle_beta   90.00000000
_cell_angle_gamma   107.18053796
_symmetry_Int_Tables_number   1
_chemical_formula_structural   CuNiC2
_chemical_formula_sum   'Cu2 Ni2 C4'
_cell_volume   295.19231206
_cell_formula_units_Z   2
loop_
 _symmetry_equiv_pos_site_id
 _symmetry_equiv_pos_as_xyz
  1  'x, y, z'
loop_
 _atom_site_type_symbol
 _atom_site_label
 _atom_site_symmetry_multiplicity
 _atom_site_fract_x
 _atom_site_fract_y
 _atom_site_fract_z
 _atom_site_occupancy
  C  C0  1  0.50267800  0.84648900  0.25000000  1
  C  C1  1  0.15351100  0.49732200  0.75000000  1
  C  C2  1  0.49732200  0.15351100  0.75000000  1
  C  C3  1  0.84648900  0.50267800  0.25000000  1
  Ni  Ni4  1  0.27359800  0.27359800  0.25000000  1
  Ni  Ni5  1  0.72640200  0.72640200  0.75000000  1
  Cu  Cu6  1  0.00000000  0.00000000  0.50000000  1
  Cu  Cu7  1  0.00000000  0.00000000  0.00000000  1
