# generated using pymatgen
data_Cu33Ni11C8
_symmetry_space_group_name_H-M   'P 1'
_cell_length_a   11.19167536
_cell_length_b   11.19167536
_cell_length_c   14.49124169
_cell_angle_alpha   76.48002875
_cell_angle_beta   76.48002875
_cell_angle_gamma   85.42615541
_symmetry_Int_Tables_number   1
_chemical_formula_structural   Cu33Ni11C8
_chemical_formula_sum   'Cu66 Ni22 C16'
_cell_volume   1715.27239926
_cell_formula_units_Z   2
loop_
 _symmetry_equiv_pos_site_id
 _symmetry_equiv_pos_as_xyz
  1  'x, y, z'
loop_
 _atom_site_type_symbol
 _atom_site_label
 _atom_site_symmetry_multiplicity
 _atom_site_fract_x
 _atom_site_fract_y
 _atom_site_fract_z
 _atom_site_occupancy
  C  C0  1  0.38789800  0.61210200  0.25000000  1
  C  C1  1  0.61210200  0.38789800  0.75000000  1
  C  C2  1  0.27479200  0.13272800  0.23354200  1
  C  C3  1  0.72520800  0.86727200  0.76645800  1
  C  C4  1  0.86727200  0.72520800  0.26645800  1
  C  C5  1  0.13272800  0.27479200  0.73354200  1
  C  C6  1  0.55839600  0.78851800  0.52858700  1
  C  C7  1  0.44160400  0.21148200  0.47141300  1
  C  C8  1  0.21148200  0.44160400  0.97141300  1
  C  C9  1  0.78851800  0.55839600  0.02858700  1
  C  C10  1  0.70931300  0.11126500  0.11687100  1
  C  C11  1  0.29068700  0.88873500  0.88312900  1
  C  C12  1  0.88873500  0.29068700  0.38312900  1
  C  C13  1  0.11126500  0.70931300  0.61687100  1
  C  C14  1  0.14982100  0.85017900  0.25000000  1
  C  C15  1  0.85017900  0.14982100  0.75000000  1
  Ni  Ni16  1  0.73688200  0.07802000  0.52376200  1
  Ni  Ni17  1  0.26311800  0.92198000  0.47623800  1
  Ni  Ni18  1  0.92198000  0.26311800  0.97623800  1
  Ni  Ni19  1  0.07802000  0.73688200  0.02376200  1
  Ni  Ni20  1  0.46564200  0.74982000  0.00790000  1
  Ni  Ni21  1  0.53435800  0.25018000  0.99210000  1
  Ni  Ni22  1  0.25018000  0.53435800  0.49210000  1
  Ni  Ni23  1  0.74982000  0.46564200  0.50790000  1
  Ni  Ni24  1  0.22937000  0.08990500  0.99492700  1
  Ni  Ni25  1  0.77063000  0.91009500  0.00507300  1
  Ni  Ni26  1  0.91009500  0.77063000  0.50507300  1
  Ni  Ni27  1  0.08990500  0.22937000  0.49492700  1
  Ni  Ni28  1  0.53030200  0.28930700  0.21990900  1
  Ni  Ni29  1  0.46969800  0.71069300  0.78009100  1
  Ni  Ni30  1  0.71069300  0.46969800  0.28009100  1
  Ni  Ni31  1  0.28930700  0.53030200  0.71990900  1
  Ni  Ni32  1  0.57349000  0.89003800  0.26497200  1
  Ni  Ni33  1  0.42651000  0.10996200  0.73502800  1
  Ni  Ni34  1  0.10996200  0.42651000  0.23502800  1
  Ni  Ni35  1  0.89003800  0.57349000  0.76497200  1
  Ni  Ni36  1  0.89887200  0.10112800  0.25000000  1
  Ni  Ni37  1  0.10112800  0.89887200  0.75000000  1
  Cu  Cu38  1  0.79612700  0.90049900  0.08866600  1
  Cu  Cu39  1  0.20387300  0.09950100  0.91133400  1
  Cu  Cu40  1  0.09950100  0.20387300  0.41133400  1
  Cu  Cu41  1  0.90049900  0.79612700  0.58866600  1
  Cu  Cu42  1  0.29482400  0.99628100  0.02433500  1
  Cu  Cu43  1  0.70517600  0.00371900  0.97566500  1
  Cu  Cu44  1  0.00371900  0.70517600  0.47566500  1
  Cu  Cu45  1  0.99628100  0.29482400  0.52433500  1
  Cu  Cu46  1  0.90793400  0.02985200  0.19259100  1
  Cu  Cu47  1  0.09206600  0.97014800  0.80740900  1
  Cu  Cu48  1  0.97014800  0.09206600  0.30740900  1
  Cu  Cu49  1  0.02985200  0.90793400  0.69259100  1
  Cu  Cu50  1  0.53706000  0.17334500  0.25631900  1
  Cu  Cu51  1  0.46294000  0.82665500  0.74368100  1
  Cu  Cu52  1  0.82665500  0.46294000  0.24368100  1
  Cu  Cu53  1  0.17334500  0.53706000  0.75631900  1
  Cu  Cu54  1  0.49789400  0.17310400  0.07274900  1
  Cu  Cu55  1  0.50210600  0.82689600  0.92725100  1
  Cu  Cu56  1  0.82689600  0.50210600  0.42725100  1
  Cu  Cu57  1  0.17310400  0.49789400  0.57274900  1
  Cu  Cu58  1  0.19009800  0.16701700  0.04499200  1
  Cu  Cu59  1  0.80990200  0.83298300  0.95500800  1
  Cu  Cu60  1  0.83298300  0.80990200  0.45500800  1
  Cu  Cu61  1  0.16701700  0.19009800  0.54499200  1
  Cu  Cu62  1  0.34982700  0.73645500  0.03831000  1
  Cu  Cu63  1  0.65017300  0.26354500  0.96169000  1
  Cu  Cu64  1  0.26354500  0.65017300  0.46169000  1
  Cu  Cu65  1  0.73645500  0.34982700  0.53831000  1
  Cu  Cu66  1  0.33725500  0.99660600  0.41710600  1
  Cu  Cu67  1  0.66274500  0.00339400  0.58289400  1
  Cu  Cu68  1  0.00339400  0.66274500  0.08289400  1
  Cu  Cu69  1  0.99660600  0.33725500  0.91710600  1
  Cu  Cu70  1  0.70887200  0.14116700  0.44497400  1
  Cu  Cu71  1  0.29112800  0.85883300  0.55502600  1
  Cu  Cu72  1  0.85883300  0.29112800  0.05502600  1
  Cu  Cu73  1  0.14116700  0.70887200  0.94497400  1
  Cu  Cu74  1  0.54002200  0.69058000  0.05464200  1
  Cu  Cu75  1  0.45997800  0.30942000  0.94535800  1
  Cu  Cu76  1  0.30942000  0.45997800  0.44535800  1
  Cu  Cu77  1  0.69058000  0.54002200  0.55464200  1
  Cu  Cu78  1  0.66915500  0.93468800  0.27813900  1
  Cu  Cu79  1  0.33084500  0.06531200  0.72186100  1
  Cu  Cu80  1  0.06531200  0.33084500  0.22186100  1
  Cu  Cu81  1  0.93468800  0.66915500  0.77813900  1
  Cu  Cu82  1  0.81469500  0.18530500  0.25000000  1
  Cu  Cu83  1  0.18530500  0.81469500  0.75000000  1
  Cu  Cu84  1  0.61485000  0.33434300  0.14762800  1
  Cu  Cu85  1  0.38515000  0.66565700  0.85237200  1
  Cu  Cu86  1  0.66565700  0.38515000  0.35237200  1
  Cu  Cu87  1  0.33434300  0.61485000  0.64762800  1
  Cu  Cu88  1  0.52393300  0.79737000  0.32360100  1
  Cu  Cu89  1  0.47606700  0.20263000  0.67639900  1
  Cu  Cu90  1  0.20263000  0.47606700  0.17639900  1
  Cu  Cu91  1  0.79737000  0.52393300  0.82360100  1
  Cu  Cu92  1  0.44156100  0.35271700  0.25478000  1
  Cu  Cu93  1  0.55843900  0.64728300  0.74522000  1
  Cu  Cu94  1  0.64728300  0.55843900  0.24522000  1
  Cu  Cu95  1  0.35271700  0.44156100  0.75478000  1
  Cu  Cu96  1  0.53306700  0.94319300  0.19015900  1
  Cu  Cu97  1  0.46693300  0.05680700  0.80984100  1
  Cu  Cu98  1  0.05680700  0.46693300  0.30984100  1
  Cu  Cu99  1  0.94319300  0.53306700  0.69015900  1
  Cu  Cu100  1  0.84051500  0.09700900  0.53860700  1
  Cu  Cu101  1  0.15948500  0.90299100  0.46139300  1
  Cu  Cu102  1  0.90299100  0.15948500  0.96139300  1
  Cu  Cu103  1  0.09700900  0.84051500  0.03860700  1
