# generated using pymatgen
data_Cu12Ni3C4
_symmetry_space_group_name_H-M   'P 1'
_cell_length_a   9.65469600
_cell_length_b   9.65469600
_cell_length_c   5.92048200
_cell_angle_alpha   90.00000000
_cell_angle_beta   90.00000000
_cell_angle_gamma   119.99999999
_symmetry_Int_Tables_number   1
_chemical_formula_structural   Cu12Ni3C4
_chemical_formula_sum   'Cu24 Ni6 C8'
_cell_volume   477.93067294
_cell_formula_units_Z   2
loop_
 _symmetry_equiv_pos_site_id
 _symmetry_equiv_pos_as_xyz
  1  'x, y, z'
loop_
 _atom_site_type_symbol
 _atom_site_label
 _atom_site_symmetry_multiplicity
 _atom_site_fract_x
 _atom_site_fract_y
 _atom_site_fract_z
 _atom_site_occupancy
  C  C0  1  0.33333300  0.66666700  0.75240300  1
  C  C1  1  0.66666700  0.33333300  0.25240300  1
  C  C2  1  0.16452700  0.22265700  0.63428200  1
  C  C3  1  0.77734300  0.94187000  0.63428200  1
  C  C4  1  0.05813000  0.83547300  0.63428200  1
  C  C5  1  0.83547300  0.77734300  0.13428200  1
  C  C6  1  0.22265700  0.05813000  0.13428200  1
  C  C7  1  0.94187000  0.16452700  0.13428200  1
  Ni  Ni8  1  0.40130400  0.30399300  0.74934300  1
  Ni  Ni9  1  0.69600700  0.09731100  0.74934300  1
  Ni  Ni10  1  0.90268900  0.59869600  0.74934300  1
  Ni  Ni11  1  0.59869600  0.69600700  0.24934300  1
  Ni  Ni12  1  0.30399300  0.90268900  0.24934300  1
  Ni  Ni13  1  0.09731100  0.40130400  0.24934300  1
  Cu  Cu14  1  0.25540200  0.80631200  0.45624900  1
  Cu  Cu15  1  0.19368800  0.44908900  0.45624900  1
  Cu  Cu16  1  0.55091100  0.74459800  0.45624900  1
  Cu  Cu17  1  0.74459800  0.19368800  0.95624900  1
  Cu  Cu18  1  0.80631200  0.55091100  0.95624900  1
  Cu  Cu19  1  0.44908900  0.25540200  0.95624900  1
  Cu  Cu20  1  0.73740800  0.19596800  0.54575000  1
  Cu  Cu21  1  0.80403200  0.54144000  0.54575000  1
  Cu  Cu22  1  0.45856000  0.26259200  0.54575000  1
  Cu  Cu23  1  0.26259200  0.80403200  0.04575000  1
  Cu  Cu24  1  0.19596800  0.45856000  0.04575000  1
  Cu  Cu25  1  0.54144000  0.73740800  0.04575000  1
  Cu  Cu26  1  0.21113600  0.18780700  0.75365400  1
  Cu  Cu27  1  0.81219300  0.02332900  0.75365400  1
  Cu  Cu28  1  0.97667100  0.78886400  0.75365400  1
  Cu  Cu29  1  0.78886400  0.81219300  0.25365400  1
  Cu  Cu30  1  0.18780700  0.97667100  0.25365400  1
  Cu  Cu31  1  0.02332900  0.21113600  0.25365400  1
  Cu  Cu32  1  0.43316800  0.46816400  0.74892100  1
  Cu  Cu33  1  0.53183600  0.96500400  0.74892100  1
  Cu  Cu34  1  0.03499600  0.56683200  0.74892100  1
  Cu  Cu35  1  0.56683200  0.53183600  0.24892100  1
  Cu  Cu36  1  0.46816400  0.03499600  0.24892100  1
  Cu  Cu37  1  0.96500400  0.43316800  0.24892100  1
