# generated using pymatgen
data_Cu3NiC30
_symmetry_space_group_name_H-M   'P 1'
_cell_length_a   12.32428727
_cell_length_b   12.32428727
_cell_length_c   12.32428792
_cell_angle_alpha   89.34905708
_cell_angle_beta   89.34905708
_cell_angle_gamma   89.34905536
_symmetry_Int_Tables_number   1
_chemical_formula_structural   Cu3NiC30
_chemical_formula_sum   'Cu12 Ni4 C120'
_cell_volume   1871.55244379
_cell_formula_units_Z   4
loop_
 _symmetry_equiv_pos_site_id
 _symmetry_equiv_pos_as_xyz
  1  'x, y, z'
loop_
 _atom_site_type_symbol
 _atom_site_label
 _atom_site_symmetry_multiplicity
 _atom_site_fract_x
 _atom_site_fract_y
 _atom_site_fract_z
 _atom_site_occupancy
  Ni  Ni0  1  0.50000000  0.00000000  0.50000000  1
  Ni  Ni1  1  0.00000000  0.50000000  0.50000000  1
  Ni  Ni2  1  0.50000000  0.50000000  0.00000000  1
  Ni  Ni3  1  0.00000000  0.00000000  0.00000000  1
  Cu  Cu4  1  0.75184200  0.21266700  0.74662200  1
  Cu  Cu5  1  0.21266700  0.74662200  0.75184200  1
  Cu  Cu6  1  0.74662200  0.75184200  0.21266700  1
  Cu  Cu7  1  0.24815800  0.78733300  0.25337800  1
  Cu  Cu8  1  0.78733300  0.25337800  0.24815800  1
  Cu  Cu9  1  0.25337800  0.24815800  0.78733300  1
  Cu  Cu10  1  0.50000000  0.50000000  0.50000000  1
  Cu  Cu11  1  0.28227800  0.28227800  0.28227800  1
  Cu  Cu12  1  0.71772200  0.71772200  0.71772200  1
  Cu  Cu13  1  0.00000000  0.50000000  0.00000000  1
  Cu  Cu14  1  0.50000000  0.00000000  0.00000000  1
  Cu  Cu15  1  0.00000000  0.00000000  0.50000000  1
  C  C16  1  0.35967600  0.02846000  0.23190600  1
  C  C17  1  0.02846000  0.23190600  0.35967600  1
  C  C18  1  0.23190600  0.35967600  0.02846000  1
  C  C19  1  0.64032400  0.97154000  0.76809400  1
  C  C20  1  0.97154000  0.76809400  0.64032400  1
  C  C21  1  0.76809400  0.64032400  0.97154000  1
  C  C22  1  0.48835000  0.75066000  0.13114100  1
  C  C23  1  0.75066000  0.13114100  0.48835000  1
  C  C24  1  0.13114100  0.48835000  0.75066000  1
  C  C25  1  0.51165000  0.24934000  0.86885900  1
  C  C26  1  0.24934000  0.86885900  0.51165000  1
  C  C27  1  0.86885900  0.51165000  0.24934000  1
  C  C28  1  0.36382700  0.26615600  0.53723100  1
  C  C29  1  0.26615600  0.53723100  0.36382700  1
  C  C30  1  0.53723100  0.36382700  0.26615600  1
  C  C31  1  0.63617300  0.73384400  0.46276900  1
  C  C32  1  0.73384400  0.46276900  0.63617300  1
  C  C33  1  0.46276900  0.63617300  0.73384400  1
  C  C34  1  0.12739700  0.73304200  0.01260700  1
  C  C35  1  0.73304200  0.01260700  0.12739700  1
  C  C36  1  0.01260700  0.12739700  0.73304200  1
  C  C37  1  0.87260300  0.26695800  0.98739300  1
  C  C38  1  0.26695800  0.98739300  0.87260300  1
  C  C39  1  0.98739300  0.87260300  0.26695800  1
  C  C40  1  0.61638700  0.43899400  0.59542200  1
  C  C41  1  0.43899400  0.59542200  0.61638700  1
  C  C42  1  0.59542200  0.61638700  0.43899400  1
  C  C43  1  0.38361300  0.56100600  0.40457800  1
  C  C44  1  0.56100600  0.40457800  0.38361300  1
  C  C45  1  0.40457800  0.38361300  0.56100600  1
  C  C46  1  0.09182000  0.80295000  0.29236100  1
  C  C47  1  0.80295000  0.29236100  0.09182000  1
  C  C48  1  0.29236100  0.09182000  0.80295000  1
  C  C49  1  0.90818000  0.19705000  0.70763900  1
  C  C50  1  0.19705000  0.70763900  0.90818000  1
  C  C51  1  0.70763900  0.90818000  0.19705000  1
  C  C52  1  0.45049000  0.67496000  0.04436300  1
  C  C53  1  0.67496000  0.04436300  0.45049000  1
  C  C54  1  0.04436300  0.45049000  0.67496000  1
  C  C55  1  0.54951000  0.32504000  0.95563700  1
  C  C56  1  0.32504000  0.95563700  0.54951000  1
  C  C57  1  0.95563700  0.54951000  0.32504000  1
  C  C58  1  0.00775400  0.96289400  0.18812100  1
  C  C59  1  0.96289400  0.18812100  0.00775400  1
  C  C60  1  0.18812100  0.00775400  0.96289400  1
  C  C61  1  0.99224600  0.03710600  0.81187900  1
  C  C62  1  0.03710600  0.81187900  0.99224600  1
  C  C63  1  0.81187900  0.99224600  0.03710600  1
  C  C64  1  0.28043300  0.27524900  0.44242000  1
  C  C65  1  0.27524900  0.44242000  0.28043300  1
  C  C66  1  0.44242000  0.28043300  0.27524900  1
  C  C67  1  0.71956700  0.72475100  0.55758000  1
  C  C68  1  0.72475100  0.55758000  0.71956700  1
  C  C69  1  0.55758000  0.71956700  0.72475100  1
  C  C70  1  0.69006200  0.55205500  0.00415700  1
  C  C71  1  0.55205500  0.00415700  0.69006200  1
  C  C72  1  0.00415700  0.69006200  0.55205500  1
  C  C73  1  0.30993800  0.44794500  0.99584300  1
  C  C74  1  0.44794500  0.99584300  0.30993800  1
  C  C75  1  0.99584300  0.30993800  0.44794500  1
  C  C76  1  0.59369400  0.70848200  0.18759600  1
  C  C77  1  0.70848200  0.18759600  0.59369400  1
  C  C78  1  0.18759600  0.59369400  0.70848200  1
  C  C79  1  0.40630600  0.29151800  0.81240400  1
  C  C80  1  0.29151800  0.81240400  0.40630600  1
  C  C81  1  0.81240400  0.40630600  0.29151800  1
  C  C82  1  0.94061000  0.91821400  0.37766700  1
  C  C83  1  0.91821400  0.37766700  0.94061000  1
  C  C84  1  0.37766700  0.94061000  0.91821400  1
  C  C85  1  0.05939000  0.08178600  0.62233300  1
  C  C86  1  0.08178600  0.62233300  0.05939000  1
  C  C87  1  0.62233300  0.05939000  0.08178600  1
  C  C88  1  0.40550200  0.76082600  0.22694300  1
  C  C89  1  0.76082600  0.22694300  0.40550200  1
  C  C90  1  0.22694300  0.40550200  0.76082600  1
  C  C91  1  0.59449800  0.23917400  0.77305700  1
  C  C92  1  0.23917400  0.77305700  0.59449800  1
  C  C93  1  0.77305700  0.59449800  0.23917400  1
  C  C94  1  0.54498700  0.81372300  0.48264700  1
  C  C95  1  0.81372300  0.48264700  0.54498700  1
  C  C96  1  0.48264700  0.54498700  0.81372300  1
  C  C97  1  0.45501300  0.18627700  0.51735300  1
  C  C98  1  0.18627700  0.51735300  0.45501300  1
  C  C99  1  0.51735300  0.45501300  0.18627700  1
  C  C100  1  0.23119300  0.63181700  0.28620500  1
  C  C101  1  0.63181700  0.28620500  0.23119300  1
  C  C102  1  0.28620500  0.23119300  0.63181700  1
  C  C103  1  0.76880700  0.36818300  0.71379500  1
  C  C104  1  0.36818300  0.71379500  0.76880700  1
  C  C105  1  0.71379500  0.76880700  0.36818300  1
  C  C106  1  0.06234900  0.11566800  0.40207700  1
  C  C107  1  0.11566800  0.40207700  0.06234900  1
  C  C108  1  0.40207700  0.06234900  0.11566800  1
  C  C109  1  0.93765100  0.88433200  0.59792300  1
  C  C110  1  0.88433200  0.59792300  0.93765100  1
  C  C111  1  0.59792300  0.93765100  0.88433200  1
  C  C112  1  0.28726600  0.12353800  0.27488200  1
  C  C113  1  0.12353800  0.27488200  0.28726600  1
  C  C114  1  0.27488200  0.28726600  0.12353800  1
  C  C115  1  0.71273400  0.87646200  0.72511800  1
  C  C116  1  0.87646200  0.72511800  0.71273400  1
  C  C117  1  0.72511800  0.71273400  0.87646200  1
  C  C118  1  0.73079400  0.05892300  0.78581300  1
  C  C119  1  0.05892300  0.78581300  0.73079400  1
  C  C120  1  0.78581300  0.73079400  0.05892300  1
  C  C121  1  0.26920600  0.94107700  0.21418700  1
  C  C122  1  0.94107700  0.21418700  0.26920600  1
  C  C123  1  0.21418700  0.26920600  0.94107700  1
  C  C124  1  0.13564600  0.91647600  0.48528300  1
  C  C125  1  0.91647600  0.48528300  0.13564600  1
  C  C126  1  0.48528300  0.13564600  0.91647600  1
  C  C127  1  0.86435400  0.08352400  0.51471700  1
  C  C128  1  0.08352400  0.51471700  0.86435400  1
  C  C129  1  0.51471700  0.86435400  0.08352400  1
  C  C130  1  0.78590300  0.23322600  0.90305800  1
  C  C131  1  0.23322600  0.90305800  0.78590300  1
  C  C132  1  0.90305800  0.78590300  0.23322600  1
  C  C133  1  0.21409700  0.76677400  0.09694200  1
  C  C134  1  0.76677400  0.09694200  0.21409700  1
  C  C135  1  0.09694200  0.21409700  0.76677400  1
