# generated using pymatgen
data_Cu10Ni7C
_symmetry_space_group_name_H-M   'P 1'
_cell_length_a   5.86468990
_cell_length_b   5.68532400
_cell_length_c   8.16661883
_cell_angle_alpha   90.00000000
_cell_angle_beta   106.40794051
_cell_angle_gamma   90.00000000
_symmetry_Int_Tables_number   1
_chemical_formula_structural   Cu10Ni7C
_chemical_formula_sum   'Cu20 Ni14 C2'
_cell_volume   261.20748096
_cell_formula_units_Z   2
loop_
 _symmetry_equiv_pos_site_id
 _symmetry_equiv_pos_as_xyz
  1  'x, y, z'
loop_
 _atom_site_type_symbol
 _atom_site_label
 _atom_site_symmetry_multiplicity
 _atom_site_fract_x
 _atom_site_fract_y
 _atom_site_fract_z
 _atom_site_occupancy
  C  C0  1  0.96071100  0.12056200  0.67227000  1
  C  C1  1  0.96071100  0.87943800  0.17227000  1
  Ni  Ni2  1  0.54007300  0.97452300  0.82816700  1
  Ni  Ni3  1  0.54007300  0.02547700  0.32816700  1
  Ni  Ni4  1  0.35785100  0.02998400  0.02023600  1
  Ni  Ni5  1  0.35785100  0.97001600  0.52023600  1
  Ni  Ni6  1  0.11115500  0.38885200  0.07334200  1
  Ni  Ni7  1  0.11115500  0.61114800  0.57334200  1
  Ni  Ni8  1  0.66305200  0.36690300  0.98932700  1
  Ni  Ni9  1  0.66305200  0.63309700  0.48932700  1
  Ni  Ni10  1  0.84088800  0.63190300  0.80961800  1
  Ni  Ni11  1  0.84088800  0.36809700  0.30961800  1
  Ni  Ni12  1  0.29671600  0.62342100  0.88611400  1
  Ni  Ni13  1  0.29671600  0.37657900  0.38611400  1
  Ni  Ni14  1  0.48354700  0.37631800  0.68617700  1
  Ni  Ni15  1  0.48354700  0.62368200  0.18617700  1
  Cu  Cu16  1  0.74926800  0.84556000  0.83761600  1
  Cu  Cu17  1  0.74926800  0.15444000  0.33761600  1
  Cu  Cu18  1  0.57550500  0.12630900  0.97981700  1
  Cu  Cu19  1  0.57550500  0.87369100  0.47981700  1
  Cu  Cu20  1  0.31907200  0.87487800  0.86701100  1
  Cu  Cu21  1  0.31907200  0.12512200  0.36701100  1
  Cu  Cu22  1  0.15629100  0.16977800  0.01012800  1
  Cu  Cu23  1  0.15629100  0.83022200  0.51012800  1
  Cu  Cu24  1  0.28338500  0.50318900  0.72594700  1
  Cu  Cu25  1  0.28338500  0.49681100  0.22594700  1
  Cu  Cu26  1  0.44173600  0.11734800  0.67537200  1
  Cu  Cu27  1  0.44173600  0.88265200  0.17537200  1
  Cu  Cu28  1  0.88231900  0.40308400  0.12405400  1
  Cu  Cu29  1  0.88231900  0.59691600  0.62405400  1
  Cu  Cu30  1  0.07982800  0.59209000  0.94071800  1
  Cu  Cu31  1  0.07982800  0.40791000  0.44071800  1
  Cu  Cu32  1  0.70397100  0.41198300  0.82170200  1
  Cu  Cu33  1  0.70397100  0.58801700  0.32170200  1
  Cu  Cu34  1  0.49693200  0.54017200  0.02168200  1
  Cu  Cu35  1  0.49693200  0.45982800  0.52168200  1
