# generated using pymatgen
data_Cu7(Ni4C5)4
_symmetry_space_group_name_H-M   'P 1'
_cell_length_a   7.19304555
_cell_length_b   7.19304555
_cell_length_c   18.43726636
_cell_angle_alpha   80.59448572
_cell_angle_beta   80.59448572
_cell_angle_gamma   77.06211723
_symmetry_Int_Tables_number   1
_chemical_formula_structural   Cu7(Ni4C5)4
_chemical_formula_sum   'Cu14 Ni32 C40'
_cell_volume   909.21133562
_cell_formula_units_Z   2
loop_
 _symmetry_equiv_pos_site_id
 _symmetry_equiv_pos_as_xyz
  1  'x, y, z'
loop_
 _atom_site_type_symbol
 _atom_site_label
 _atom_site_symmetry_multiplicity
 _atom_site_fract_x
 _atom_site_fract_y
 _atom_site_fract_z
 _atom_site_occupancy
  C  C0  1  0.98682900  0.87143300  0.42526200  1
  C  C1  1  0.87143300  0.98682900  0.92526200  1
  Ni  Ni2  1  0.35860400  0.07188600  0.39601800  1
  Ni  Ni3  1  0.07188600  0.35860400  0.89601800  1
  Ni  Ni4  1  0.18909600  0.24622600  0.38087400  1
  Ni  Ni5  1  0.24622600  0.18909600  0.88087400  1
  Ni  Ni6  1  0.76795200  0.51486500  0.45165400  1
  Ni  Ni7  1  0.51486500  0.76795200  0.95165400  1
  Ni  Ni8  1  0.60565300  0.69352700  0.47071000  1
  Ni  Ni9  1  0.69352700  0.60565300  0.97071000  1
  Ni  Ni10  1  0.83219700  0.38421600  0.26338600  1
  Ni  Ni11  1  0.38421600  0.83219700  0.76338600  1
  Ni  Ni12  1  0.84312700  0.60317400  0.25979400  1
  Ni  Ni13  1  0.60317400  0.84312700  0.75979400  1
  Ni  Ni14  1  0.46992400  0.15798100  0.20824800  1
  Ni  Ni15  1  0.15798100  0.46992400  0.70824800  1
  Ni  Ni16  1  0.31074000  0.08993300  0.26972900  1
  Ni  Ni17  1  0.08993300  0.31074000  0.76972900  1
  Ni  Ni18  1  0.86615800  0.47704000  0.68200600  1
  Ni  Ni19  1  0.47704000  0.86615800  0.18200600  1
  Ni  Ni20  1  0.64144100  0.62406300  0.68840600  1
  Ni  Ni21  1  0.62406300  0.64144100  0.18840600  1
  Ni  Ni22  1  0.68991400  0.42290800  0.64511100  1
  Ni  Ni23  1  0.42290800  0.68991400  0.14511100  1
  Ni  Ni24  1  0.78241100  0.61340800  0.60541300  1
  Ni  Ni25  1  0.61340800  0.78241100  0.10541300  1
  Ni  Ni26  1  0.42866000  0.00778900  0.63349700  1
  Ni  Ni27  1  0.00778900  0.42866000  0.13349700  1
  Ni  Ni28  1  0.22198400  0.06463500  0.59206100  1
  Ni  Ni29  1  0.06463500  0.22198400  0.09206100  1
  Ni  Ni30  1  0.24261600  0.18693000  0.66085300  1
  Ni  Ni31  1  0.18693000  0.24261600  0.16085300  1
  Ni  Ni32  1  0.37321600  0.21748100  0.57733200  1
  Ni  Ni33  1  0.21748100  0.37321600  0.07733200  1
  Cu  Cu34  1  0.74444900  0.53479500  0.65526200  1
  Cu  Cu35  1  0.53479500  0.74444900  0.15526200  1
  Cu  Cu36  1  0.31847300  0.11642400  0.61582200  1
  Cu  Cu37  1  0.11642400  0.31847300  0.11582200  1
  Cu  Cu38  1  0.24846000  0.57982400  0.32574300  1
  Cu  Cu39  1  0.57982400  0.24846000  0.82574300  1
  Cu  Cu40  1  0.26720700  0.63434200  0.53614300  1
  Cu  Cu41  1  0.63434200  0.26720700  0.03614300  1
  Cu  Cu42  1  0.85016100  0.03737600  0.57870300  1
  Cu  Cu43  1  0.03737600  0.85016100  0.07870200  1
  Cu  Cu44  1  0.62866800  0.21500200  0.43052200  1
  Cu  Cu45  1  0.21500200  0.62866800  0.93052200  1
  Cu  Cu46  1  0.85260800  0.98098700  0.26616800  1
  Cu  Cu47  1  0.98098700  0.85260800  0.76616800  1
  C  C48  1  0.23055100  0.10588900  0.37896400  1
  C  C49  1  0.10588900  0.23055100  0.87896400  1
  C  C50  1  0.74634600  0.64504700  0.46568300  1
  C  C51  1  0.64504700  0.74634600  0.96568300  1
  C  C52  1  0.26125200  0.75577900  0.32178800  1
  C  C53  1  0.75577900  0.26125200  0.82178800  1
  C  C54  1  0.12699900  0.51835700  0.37871800  1
  C  C55  1  0.51835700  0.12699900  0.87871800  1
  C  C56  1  0.34664100  0.47417500  0.28102300  1
  C  C57  1  0.47417500  0.34664100  0.78102300  1
  C  C58  1  0.33136700  0.75203600  0.48289500  1
  C  C59  1  0.75203600  0.33136700  0.98289500  1
  C  C60  1  0.09528500  0.61247200  0.53716200  1
  C  C61  1  0.61247200  0.09528500  0.03716200  1
  C  C62  1  0.36840100  0.54567900  0.58440800  1
  C  C63  1  0.54567900  0.36840100  0.08440800  1
  C  C64  1  0.02220600  0.03206100  0.54552400  1
  C  C65  1  0.03206100  0.02220600  0.04552400  1
  C  C66  1  0.74881300  0.94155000  0.55440700  1
  C  C67  1  0.94155000  0.74881300  0.05440700  1
  C  C68  1  0.78462500  0.13237700  0.63102100  1
  C  C69  1  0.13237700  0.78462500  0.13102100  1
  C  C70  1  0.79690300  0.24527400  0.43224500  1
  C  C71  1  0.24527400  0.79690300  0.93224500  1
  C  C72  1  0.61983900  0.05254100  0.41226600  1
  C  C73  1  0.05254100  0.61983900  0.91226600  1
  C  C74  1  0.48107300  0.33533100  0.44665400  1
  C  C75  1  0.33533100  0.48107300  0.94665400  1
  C  C76  1  0.92542900  0.09621800  0.29377300  1
  C  C77  1  0.09621800  0.92542900  0.79377300  1
  C  C78  1  0.85440200  0.81342300  0.30331300  1
  C  C79  1  0.81342300  0.85440200  0.80331300  1
  C  C80  1  0.78239300  0.03003000  0.20705500  1
  C  C81  1  0.03003000  0.78239300  0.70705500  1
  C  C82  1  0.82268700  0.50726800  0.23082100  1
  C  C83  1  0.50726800  0.82268700  0.73082100  1
  C  C84  1  0.35829600  0.09703000  0.21617400  1
  C  C85  1  0.09703000  0.35829600  0.71617400  1
