# generated using pymatgen
data_CuNi7C16
_symmetry_space_group_name_H-M   'P 1'
_cell_length_a   8.15522002
_cell_length_b   9.78572243
_cell_length_c   17.39289064
_cell_angle_alpha   90.00000000
_cell_angle_beta   90.00000000
_cell_angle_gamma   90.84615924
_symmetry_Int_Tables_number   1
_chemical_formula_structural   CuNi7C16
_chemical_formula_sum   'Cu4 Ni28 C64'
_cell_volume   1387.88339509
_cell_formula_units_Z   4
loop_
 _symmetry_equiv_pos_site_id
 _symmetry_equiv_pos_as_xyz
  1  'x, y, z'
loop_
 _atom_site_type_symbol
 _atom_site_label
 _atom_site_symmetry_multiplicity
 _atom_site_fract_x
 _atom_site_fract_y
 _atom_site_fract_z
 _atom_site_occupancy
  C  C0  1  0.80435022  0.25244874  0.18752453  1
  C  C1  1  0.30435022  0.75244874  0.31247547  1
  C  C2  1  0.19564978  0.74755126  0.81247547  1
  C  C3  1  0.69564978  0.24755126  0.68752453  1
  Ni  Ni4  1  0.68763619  0.78547488  0.08350711  1
  Ni  Ni5  1  0.18763619  0.28547488  0.41649289  1
  Ni  Ni6  1  0.31236381  0.21452512  0.91649289  1
  Ni  Ni7  1  0.81236381  0.71452512  0.58350711  1
  Ni  Ni8  1  0.70273932  0.63413207  0.19386069  1
  Ni  Ni9  1  0.20273932  0.13413207  0.30613931  1
  Ni  Ni10  1  0.29726068  0.36586793  0.80613931  1
  Ni  Ni11  1  0.79726068  0.86586793  0.69386069  1
  Ni  Ni12  1  0.40324576  0.25165108  0.20214288  1
  Ni  Ni13  1  0.90324576  0.75165108  0.29785712  1
  Ni  Ni14  1  0.59675424  0.74834892  0.79785712  1
  Ni  Ni15  1  0.09675424  0.24834892  0.70214288  1
  Ni  Ni16  1  0.69558381  0.89144690  0.21198546  1
  Ni  Ni17  1  0.19558381  0.39144690  0.28801454  1
  Ni  Ni18  1  0.30441619  0.10855310  0.78801454  1
  Ni  Ni19  1  0.80441619  0.60855310  0.71198546  1
  Ni  Ni20  1  0.95422855  0.52198429  0.24732337  1
  Ni  Ni21  1  0.45422855  0.02198429  0.25267663  1
  Ni  Ni22  1  0.04577145  0.47801571  0.75267663  1
  Ni  Ni23  1  0.54577145  0.97801571  0.74732337  1
  Ni  Ni24  1  0.35581333  0.27073050  0.05655617  1
  Ni  Ni25  1  0.85581333  0.77073050  0.44344383  1
  Ni  Ni26  1  0.64418667  0.72926950  0.94344383  1
  Ni  Ni27  1  0.14418667  0.22926950  0.55655617  1
  Ni  Ni28  1  0.95152408  0.99710743  0.27127058  1
  Ni  Ni29  1  0.45152408  0.49710743  0.22872942  1
  Ni  Ni30  1  0.04847592  0.00289257  0.72872942  1
  Ni  Ni31  1  0.54847592  0.50289257  0.77127058  1
  Cu  Cu32  1  0.69499621  0.27999781  0.46294386  1
  Cu  Cu33  1  0.19499621  0.77999781  0.03705614  1
  Cu  Cu34  1  0.30500379  0.72000219  0.53705614  1
  Cu  Cu35  1  0.80500379  0.22000219  0.96294386  1
  C  C36  1  0.32528839  0.22493830  0.12984072  1
  C  C37  1  0.82528839  0.72493830  0.37015928  1
  C  C38  1  0.67471161  0.77506170  0.87015928  1
  C  C39  1  0.17471161  0.27506170  0.62984072  1
  C  C40  1  0.80087549  0.51379713  0.21468661  1
  C  C41  1  0.30087549  0.01379713  0.28531339  1
  C  C42  1  0.19912451  0.48620287  0.78531339  1
  C  C43  1  0.69912451  0.98620287  0.71468661  1
  C  C44  1  0.79941747  0.00829570  0.23747582  1
  C  C45  1  0.29941747  0.50829570  0.26252418  1
  C  C46  1  0.20058253  0.99170430  0.76252418  1
  C  C47  1  0.70058253  0.49170430  0.73747582  1
  C  C48  1  0.27586558  0.26007288  0.26503340  1
  C  C49  1  0.77586558  0.76007288  0.23496660  1
  C  C50  1  0.72413442  0.73992712  0.73496660  1
  C  C51  1  0.22413442  0.23992712  0.76503340  1
  C  C52  1  0.51128433  0.37376856  0.20465605  1
  C  C53  1  0.01128433  0.87376856  0.29534395  1
  C  C54  1  0.48871567  0.62623144  0.79534395  1
  C  C55  1  0.98871567  0.12623144  0.70465605  1
  C  C56  1  0.68692165  0.81015532  0.00495509  1
  C  C57  1  0.18692165  0.31015532  0.49504491  1
  C  C58  1  0.31307835  0.18984468  0.99504491  1
  C  C59  1  0.81307835  0.68984468  0.50495509  1
  C  C60  1  0.67264912  0.89657316  0.13056808  1
  C  C61  1  0.17264912  0.39657316  0.36943192  1
  C  C62  1  0.32735088  0.10342684  0.86943192  1
  C  C63  1  0.82735088  0.60342684  0.63056808  1
  C  C64  1  0.70720953  0.65668206  0.11251795  1
  C  C65  1  0.20720953  0.15668206  0.38748205  1
  C  C66  1  0.29279047  0.34331794  0.88748205  1
  C  C67  1  0.79279047  0.84331794  0.61251795  1
  C  C68  1  0.03386512  0.39958135  0.24674365  1
  C  C69  1  0.53386512  0.89958135  0.25325635  1
  C  C70  1  0.96613488  0.60041865  0.75325635  1
  C  C71  1  0.46613488  0.10041865  0.74674365  1
  C  C72  1  0.70474280  0.17450055  0.06225136  1
  C  C73  1  0.20474280  0.67450055  0.43774864  1
  C  C74  1  0.29525720  0.82549945  0.93774864  1
  C  C75  1  0.79525720  0.32549945  0.56225136  1
  C  C76  1  0.51841485  0.14073314  0.22236957  1
  C  C77  1  0.01841485  0.64073314  0.27763043  1
  C  C78  1  0.48158515  0.85926686  0.77763043  1
  C  C79  1  0.98158515  0.35926686  0.72236957  1
  C  C80  1  0.96942807  0.15243479  0.10150249  1
  C  C81  1  0.46942807  0.65243479  0.39849751  1
  C  C82  1  0.03057193  0.84756521  0.89849751  1
  C  C83  1  0.53057193  0.34756521  0.60150249  1
  C  C84  1  0.03387139  0.11870979  0.27596978  1
  C  C85  1  0.53387139  0.61870979  0.22403022  1
  C  C86  1  0.96612861  0.88129021  0.72403022  1
  C  C87  1  0.46612861  0.38129021  0.77596978  1
  C  C88  1  0.86530962  0.35107245  0.06408389  1
  C  C89  1  0.36530962  0.85107245  0.43591611  1
  C  C90  1  0.13469038  0.64892755  0.93591611  1
  C  C91  1  0.63469038  0.14892755  0.56408389  1
  C  C92  1  0.43039243  0.39495049  0.04775473  1
  C  C93  1  0.93039243  0.89495049  0.45224527  1
  C  C94  1  0.56960757  0.60504951  0.95224527  1
  C  C95  1  0.06960757  0.10504951  0.54775473  1
