# generated using pymatgen
data_Cu28NiC21
_symmetry_space_group_name_H-M   'P 1'
_cell_length_a   9.91012810
_cell_length_b   9.91012810
_cell_length_c   9.91012810
_cell_angle_alpha   116.35193203
_cell_angle_beta   116.35193203
_cell_angle_gamma   96.44404618
_symmetry_Int_Tables_number   1
_chemical_formula_structural   Cu28NiC21
_chemical_formula_sum   'Cu28 Ni1 C21'
_cell_volume   721.22049817
_cell_formula_units_Z   1
loop_
 _symmetry_equiv_pos_site_id
 _symmetry_equiv_pos_as_xyz
  1  'x, y, z'
loop_
 _atom_site_type_symbol
 _atom_site_label
 _atom_site_symmetry_multiplicity
 _atom_site_fract_x
 _atom_site_fract_y
 _atom_site_fract_z
 _atom_site_occupancy
  C  C0  1  0.04068600  0.04068600  0.00000000  1
  C  C1  1  0.28539000  0.05764900  0.77226000  1
  C  C2  1  0.28539000  0.51313000  0.22774000  1
  C  C3  1  0.51313000  0.28539000  0.22774000  1
  C  C4  1  0.05764900  0.28539000  0.77226000  1
  C  C5  1  0.71775700  0.94983300  0.23207600  1
  C  C6  1  0.71775700  0.48568100  0.76792400  1
  C  C7  1  0.48568100  0.71775700  0.76792400  1
  C  C8  1  0.94983300  0.71775700  0.23207600  1
  C  C9  1  0.49944100  0.17552700  0.67608600  1
  C  C10  1  0.49944100  0.82335500  0.32391400  1
  C  C11  1  0.82335500  0.49944100  0.32391400  1
  C  C12  1  0.17552700  0.49944100  0.67608600  1
  C  C13  1  0.89246400  0.89246400  0.56244200  1
  C  C14  1  0.33002100  0.33002100  0.43755800  1
  C  C15  1  0.33002100  0.89246400  0.00000000  1
  C  C16  1  0.89246400  0.33002100  0.00000000  1
  C  C17  1  0.10649800  0.10649800  0.43496100  1
  C  C18  1  0.67153700  0.67153700  0.56503900  1
  C  C19  1  0.67153700  0.10649800  0.00000000  1
  C  C20  1  0.10649800  0.67153700  0.00000000  1
  Ni  Ni21  1  0.43729700  0.43729700  0.00000000  1
  Cu  Cu22  1  0.25432200  0.06883000  0.55741200  1
  Cu  Cu23  1  0.51141800  0.69691100  0.44258800  1
  Cu  Cu24  1  0.51141800  0.06883000  0.81450700  1
  Cu  Cu25  1  0.25432300  0.69691100  0.18549300  1
  Cu  Cu26  1  0.69691100  0.25432300  0.18549300  1
  Cu  Cu27  1  0.06883000  0.51141800  0.81450700  1
  Cu  Cu28  1  0.06883000  0.25432300  0.55741200  1
  Cu  Cu29  1  0.69691100  0.51141800  0.44258800  1
  Cu  Cu30  1  0.74402700  0.92833200  0.43852600  1
  Cu  Cu31  1  0.48980600  0.30550200  0.56147400  1
  Cu  Cu32  1  0.48980600  0.92833200  0.18430500  1
  Cu  Cu33  1  0.74402700  0.30550200  0.81569500  1
  Cu  Cu34  1  0.30550200  0.74402700  0.81569500  1
  Cu  Cu35  1  0.92833200  0.48980600  0.18430500  1
  Cu  Cu36  1  0.92833200  0.74402700  0.43852600  1
  Cu  Cu37  1  0.30550200  0.48980600  0.56147400  1
  Cu  Cu38  1  0.05836500  0.05836500  0.71560400  1
  Cu  Cu39  1  0.34276100  0.34276100  0.28439600  1
  Cu  Cu40  1  0.34276100  0.05836500  0.00000000  1
  Cu  Cu41  1  0.05836500  0.34276100  0.00000000  1
  Cu  Cu42  1  0.94053800  0.94053800  0.28672000  1
  Cu  Cu43  1  0.65381800  0.65381800  0.71328000  1
  Cu  Cu44  1  0.65381800  0.94053800  0.00000000  1
  Cu  Cu45  1  0.94053800  0.65381800  0.00000000  1
  Cu  Cu46  1  0.83588700  0.83588700  0.67079100  1
  Cu  Cu47  1  0.16509700  0.16509700  0.32920900  1
  Cu  Cu48  1  0.16509700  0.83588700  0.00000000  1
  Cu  Cu49  1  0.83588700  0.16509700  0.00000000  1
