# generated using pymatgen
data_Cu2(NiC5)3
_symmetry_space_group_name_H-M   'P 1'
_cell_length_a   9.07927200
_cell_length_b   7.94853800
_cell_length_c   11.92284700
_cell_angle_alpha   90.00000000
_cell_angle_beta   90.00000000
_cell_angle_gamma   90.00000000
_symmetry_Int_Tables_number   1
_chemical_formula_structural   Cu2(NiC5)3
_chemical_formula_sum   'Cu8 Ni12 C60'
_cell_volume   860.43536625
_cell_formula_units_Z   4
loop_
 _symmetry_equiv_pos_site_id
 _symmetry_equiv_pos_as_xyz
  1  'x, y, z'
loop_
 _atom_site_type_symbol
 _atom_site_label
 _atom_site_symmetry_multiplicity
 _atom_site_fract_x
 _atom_site_fract_y
 _atom_site_fract_z
 _atom_site_occupancy
  C  C0  1  0.03368800  0.00081100  0.61141100  1
  C  C1  1  0.96631200  0.99918900  0.11141100  1
  C  C2  1  0.46631200  0.50081100  0.11141100  1
  C  C3  1  0.53368800  0.49918900  0.61141100  1
  C  C4  1  0.83118300  0.31315700  0.60952900  1
  C  C5  1  0.16881700  0.68684300  0.10952900  1
  C  C6  1  0.66881700  0.81315700  0.10952900  1
  C  C7  1  0.33118300  0.18684300  0.60952900  1
  C  C8  1  0.76941300  0.76494700  0.65559100  1
  C  C9  1  0.23058700  0.23505300  0.15559100  1
  C  C10  1  0.73058700  0.26494700  0.15559100  1
  C  C11  1  0.26941300  0.73505300  0.65559100  1
  C  C12  1  0.03971300  0.06802700  0.85904500  1
  C  C13  1  0.96028700  0.93197300  0.35904500  1
  C  C14  1  0.46028700  0.56802700  0.35904500  1
  C  C15  1  0.53971300  0.43197300  0.85904500  1
  C  C16  1  0.57813300  0.87477900  0.80799700  1
  C  C17  1  0.42186700  0.12522100  0.30799700  1
  C  C18  1  0.92186700  0.37477900  0.30799700  1
  C  C19  1  0.07813300  0.62522100  0.80799700  1
  C  C20  1  0.58456300  0.08641400  0.78045100  1
  C  C21  1  0.41543700  0.91358600  0.28045100  1
  C  C22  1  0.91543700  0.58641400  0.28045100  1
  C  C23  1  0.08456300  0.41358600  0.78045100  1
  C  C24  1  0.64491500  0.01410300  0.90694700  1
  C  C25  1  0.35508500  0.98589700  0.40694700  1
  C  C26  1  0.85508500  0.51410300  0.40694700  1
  C  C27  1  0.14491500  0.48589700  0.90694700  1
  C  C28  1  0.40458000  0.90120000  0.93177300  1
  C  C29  1  0.59542000  0.09880000  0.43177300  1
  C  C30  1  0.09542000  0.40120000  0.43177300  1
  C  C31  1  0.90458000  0.59880000  0.93177300  1
  C  C32  1  0.42028500  0.10802900  0.93902700  1
  C  C33  1  0.57971500  0.89197100  0.43902700  1
  C  C34  1  0.07971500  0.60802900  0.43902700  1
  C  C35  1  0.92028500  0.39197100  0.93902700  1
  Ni  Ni36  1  0.76273100  0.22058900  0.65523800  1
  Ni  Ni37  1  0.23726900  0.77941100  0.15523800  1
  Ni  Ni38  1  0.73726900  0.72058900  0.15523800  1
  Ni  Ni39  1  0.26273100  0.27941100  0.65523800  1
  Ni  Ni40  1  0.81672900  0.70793100  0.57897800  1
  Ni  Ni41  1  0.18327100  0.29206900  0.07897800  1
  Ni  Ni42  1  0.68327100  0.20793100  0.07897800  1
  Ni  Ni43  1  0.31672900  0.79206900  0.57897800  1
  Ni  Ni44  1  0.03559500  0.92901200  0.86170100  1
  Ni  Ni45  1  0.96440500  0.07098800  0.36170100  1
  Ni  Ni46  1  0.46440500  0.42901200  0.36170100  1
  Ni  Ni47  1  0.53559500  0.57098800  0.86170100  1
  Cu  Cu48  1  0.56732200  0.99556900  0.84271100  1
  Cu  Cu49  1  0.43267800  0.00443100  0.34271100  1
  Cu  Cu50  1  0.93267800  0.49556900  0.34271100  1
  Cu  Cu51  1  0.06732200  0.50443100  0.84271100  1
  Cu  Cu52  1  0.41747400  0.00818600  0.88427200  1
  Cu  Cu53  1  0.58252600  0.99181400  0.38427200  1
  Cu  Cu54  1  0.08252600  0.50818600  0.38427200  1
  Cu  Cu55  1  0.91747400  0.49181400  0.88427200  1
  C  C56  1  0.81882500  0.07918100  0.67896000  1
  C  C57  1  0.18117500  0.92081900  0.17896000  1
  C  C58  1  0.68117500  0.57918100  0.17896000  1
  C  C59  1  0.31882500  0.42081900  0.67896000  1
  C  C60  1  0.63112300  0.26281100  0.68072100  1
  C  C61  1  0.36887700  0.73718900  0.18072100  1
  C  C62  1  0.86887700  0.76281100  0.18072100  1
  C  C63  1  0.13112300  0.23718900  0.68072100  1
  C  C64  1  0.93413400  0.77045300  0.53907100  1
  C  C65  1  0.06586600  0.22954700  0.03907100  1
  C  C66  1  0.56586600  0.27045300  0.03907100  1
  C  C67  1  0.43413400  0.72954700  0.53907100  1
  C  C68  1  0.74878900  0.58267700  0.53640100  1
  C  C69  1  0.25121100  0.41732300  0.03640100  1
  C  C70  1  0.75121100  0.08267700  0.03640100  1
  C  C71  1  0.24878900  0.91732300  0.53640100  1
  C  C72  1  0.05649100  0.84970300  0.77002300  1
  C  C73  1  0.94350900  0.15029700  0.27002300  1
  C  C74  1  0.44350900  0.34970300  0.27002300  1
  C  C75  1  0.55649100  0.65029700  0.77002300  1
  C  C76  1  0.01085900  0.85839100  0.95528300  1
  C  C77  1  0.98914100  0.14160900  0.45528300  1
  C  C78  1  0.48914100  0.35839100  0.45528300  1
  C  C79  1  0.51085900  0.64160900  0.95528300  1
