# generated using pymatgen
data_Cu4NiC2
_symmetry_space_group_name_H-M   'P 1'
_cell_length_a   6.29472800
_cell_length_b   7.92620600
_cell_length_c   13.50787600
_cell_angle_alpha   90.00000000
_cell_angle_beta   90.00000000
_cell_angle_gamma   90.00000000
_symmetry_Int_Tables_number   1
_chemical_formula_structural   Cu4NiC2
_chemical_formula_sum   'Cu16 Ni4 C8'
_cell_volume   673.95265608
_cell_formula_units_Z   4
loop_
 _symmetry_equiv_pos_site_id
 _symmetry_equiv_pos_as_xyz
  1  'x, y, z'
loop_
 _atom_site_type_symbol
 _atom_site_label
 _atom_site_symmetry_multiplicity
 _atom_site_fract_x
 _atom_site_fract_y
 _atom_site_fract_z
 _atom_site_occupancy
  C  C0  1  0.00000000  0.50000000  0.00000000  1
  C  C1  1  0.50000000  0.00000000  0.50000000  1
  C  C2  1  0.00000000  0.00000000  0.00000000  1
  C  C3  1  0.50000000  0.50000000  0.50000000  1
  C  C4  1  0.49527800  0.75000000  0.23195800  1
  C  C5  1  0.00472200  0.75000000  0.73195800  1
  C  C6  1  0.50472200  0.25000000  0.76804200  1
  C  C7  1  0.99527800  0.25000000  0.26804200  1
  Ni  Ni8  1  0.90730700  0.75000000  0.41113400  1
  Ni  Ni9  1  0.59269300  0.75000000  0.91113400  1
  Ni  Ni10  1  0.09269300  0.25000000  0.58886600  1
  Ni  Ni11  1  0.40730700  0.25000000  0.08886600  1
  Cu  Cu12  1  0.26867900  0.75000000  0.40729900  1
  Cu  Cu13  1  0.23132100  0.75000000  0.90729900  1
  Cu  Cu14  1  0.73132100  0.25000000  0.59270100  1
  Cu  Cu15  1  0.76867900  0.25000000  0.09270100  1
  Cu  Cu16  1  0.75642900  0.75000000  0.56731500  1
  Cu  Cu17  1  0.74357100  0.75000000  0.06731500  1
  Cu  Cu18  1  0.24357100  0.25000000  0.43268500  1
  Cu  Cu19  1  0.25642900  0.25000000  0.93268500  1
  Cu  Cu20  1  0.75191200  0.52219800  0.33245600  1
  Cu  Cu21  1  0.74808800  0.97780200  0.83245600  1
  Cu  Cu22  1  0.24808800  0.02219800  0.66754400  1
  Cu  Cu23  1  0.25191200  0.47780200  0.16754400  1
  Cu  Cu24  1  0.24808800  0.47780200  0.66754400  1
  Cu  Cu25  1  0.25191200  0.02219800  0.16754400  1
  Cu  Cu26  1  0.75191200  0.97780200  0.33245600  1
  Cu  Cu27  1  0.74808800  0.52219800  0.83245600  1
