# generated using pymatgen
data_Cu2NiC8
_symmetry_space_group_name_H-M   'P 1'
_cell_length_a   8.86838900
_cell_length_b   7.41833900
_cell_length_c   9.76719023
_cell_angle_alpha   65.28499456
_cell_angle_beta   90.00000000
_cell_angle_gamma   90.00000000
_symmetry_Int_Tables_number   1
_chemical_formula_structural   Cu2NiC8
_chemical_formula_sum   'Cu8 Ni4 C32'
_cell_volume   583.71057995
_cell_formula_units_Z   4
loop_
 _symmetry_equiv_pos_site_id
 _symmetry_equiv_pos_as_xyz
  1  'x, y, z'
loop_
 _atom_site_type_symbol
 _atom_site_label
 _atom_site_symmetry_multiplicity
 _atom_site_fract_x
 _atom_site_fract_y
 _atom_site_fract_z
 _atom_site_occupancy
  C  C0  1  0.94870100  0.19121900  0.67561100  1
  C  C1  1  0.44870100  0.80878100  0.82438900  1
  C  C2  1  0.05129900  0.80878100  0.32438900  1
  C  C3  1  0.55129900  0.19121900  0.17561100  1
  Ni  Ni4  1  0.07915900  0.72084600  0.89294100  1
  Ni  Ni5  1  0.57915900  0.27915400  0.60705900  1
  Ni  Ni6  1  0.92084100  0.27915400  0.10705900  1
  Ni  Ni7  1  0.42084100  0.72084600  0.39294100  1
  Cu  Cu8  1  0.77823600  0.56450900  0.75138000  1
  Cu  Cu9  1  0.27823600  0.43549100  0.74862000  1
  Cu  Cu10  1  0.22176400  0.43549100  0.24862000  1
  Cu  Cu11  1  0.72176400  0.56450900  0.25138000  1
  Cu  Cu12  1  0.72789500  0.98450300  0.95663800  1
  Cu  Cu13  1  0.22789500  0.01549700  0.54336200  1
  Cu  Cu14  1  0.27210500  0.01549700  0.04336200  1
  Cu  Cu15  1  0.77210500  0.98450300  0.45663800  1
  C  C16  1  0.73484600  0.14208900  0.04397100  1
  C  C17  1  0.23484600  0.85791100  0.45602900  1
  C  C18  1  0.26515400  0.85791100  0.95602900  1
  C  C19  1  0.76515400  0.14208900  0.54397100  1
  C  C20  1  0.60976400  0.63523400  0.78798300  1
  C  C21  1  0.10976400  0.36476600  0.71201700  1
  C  C22  1  0.39023600  0.36476600  0.21201700  1
  C  C23  1  0.89023600  0.63523400  0.28798300  1
  C  C24  1  0.91232000  0.52763400  0.88831100  1
  C  C25  1  0.41232000  0.47236600  0.61168900  1
  C  C26  1  0.08768000  0.47236600  0.11168900  1
  C  C27  1  0.58768000  0.52763400  0.38831100  1
  C  C28  1  0.85496700  0.75489900  0.58287800  1
  C  C29  1  0.35496700  0.24510100  0.91712200  1
  C  C30  1  0.14503300  0.24510100  0.41712200  1
  C  C31  1  0.64503300  0.75489900  0.08287800  1
  C  C32  1  0.91276400  0.04049900  0.32410300  1
  C  C33  1  0.41276400  0.95950100  0.17589700  1
  C  C34  1  0.08723600  0.95950100  0.67589700  1
  C  C35  1  0.58723600  0.04049900  0.82410300  1
  C  C36  1  0.73071400  0.37001800  0.20051100  1
  C  C37  1  0.23071400  0.62998200  0.29948900  1
  C  C38  1  0.26928600  0.62998200  0.79948900  1
  C  C39  1  0.76928600  0.37001800  0.70051100  1
  C  C40  1  0.60184700  0.94795000  0.39194300  1
  C  C41  1  0.10184700  0.05205000  0.10805700  1
  C  C42  1  0.39815300  0.05205000  0.60805700  1
  C  C43  1  0.89815300  0.94795000  0.89194300  1
