# generated using pymatgen
data_Cu3NiC36
_symmetry_space_group_name_H-M   'P 1'
_cell_length_a   9.00156100
_cell_length_b   5.32344400
_cell_length_c   9.78370807
_cell_angle_alpha   74.71824925
_cell_angle_beta   90.00000000
_cell_angle_gamma   90.00000000
_symmetry_Int_Tables_number   1
_chemical_formula_structural   Cu3NiC36
_chemical_formula_sum   'Cu3 Ni1 C36'
_cell_volume   452.25138761
_cell_formula_units_Z   1
loop_
 _symmetry_equiv_pos_site_id
 _symmetry_equiv_pos_as_xyz
  1  'x, y, z'
loop_
 _atom_site_type_symbol
 _atom_site_label
 _atom_site_symmetry_multiplicity
 _atom_site_fract_x
 _atom_site_fract_y
 _atom_site_fract_z
 _atom_site_occupancy
  Ni  Ni0  1  0.81114900  0.50000000  0.50000000  1
  Cu  Cu1  1  0.30172800  0.00000000  0.00000000  1
  Cu  Cu2  1  0.19406300  0.00000000  0.50000000  1
  Cu  Cu3  1  0.69570700  0.50000000  0.00000000  1
  C  C4  1  0.40651800  0.50000000  0.50000000  1
  C  C5  1  0.90532600  0.00000000  0.00000000  1
  C  C6  1  0.09147300  0.50000000  0.00000000  1
  C  C7  1  0.59828500  0.00000000  0.50000000  1
  C  C8  1  0.09266400  0.68660200  0.28498000  1
  C  C9  1  0.59331800  0.18439200  0.78186500  1
  C  C10  1  0.09266400  0.31339800  0.71502000  1
  C  C11  1  0.59331800  0.81560800  0.21813500  1
  C  C12  1  0.90339700  0.81580200  0.71419900  1
  C  C13  1  0.41017900  0.30716400  0.21584200  1
  C  C14  1  0.90339700  0.18419800  0.28580100  1
  C  C15  1  0.41017900  0.69283600  0.78415800  1
  C  C16  1  0.01919400  0.38669800  0.34264400  1
  C  C17  1  0.52048700  0.88663600  0.85506900  1
  C  C18  1  0.01919400  0.61330200  0.65735600  1
  C  C19  1  0.52048700  0.11336400  0.14493100  1
  C  C20  1  0.98869100  0.10245200  0.65332400  1
  C  C21  1  0.48135100  0.60834800  0.15839800  1
  C  C22  1  0.98869100  0.89754800  0.34667600  1
  C  C23  1  0.48135100  0.39165200  0.84160200  1
  C  C24  1  0.08961000  0.77523900  0.11310300  1
  C  C25  1  0.57541800  0.24751400  0.61063600  1
  C  C26  1  0.08961000  0.22476100  0.88689700  1
  C  C27  1  0.57541800  0.75248600  0.38936400  1
  C  C28  1  0.90450200  0.72549300  0.88610100  1
  C  C29  1  0.42520700  0.21270800  0.38823200  1
  C  C30  1  0.90450200  0.27450700  0.11389900  1
  C  C31  1  0.42520700  0.78729200  0.61176800  1
  C  C32  1  0.24834600  0.69830600  0.36408800  1
  C  C33  1  0.74904200  0.21281100  0.85617700  1
  C  C34  1  0.24834600  0.30169400  0.63591200  1
  C  C35  1  0.74904200  0.78718900  0.14382300  1
  C  C36  1  0.74326500  0.82658300  0.63728600  1
  C  C37  1  0.25320300  0.29091700  0.14138000  1
  C  C38  1  0.74326500  0.17341700  0.36271400  1
  C  C39  1  0.25320300  0.70908300  0.85862000  1
