# generated using pymatgen
data_CuNiC7
_symmetry_space_group_name_H-M   'P 1'
_cell_length_a   8.52461000
_cell_length_b   11.42353900
_cell_length_c   13.61486500
_cell_angle_alpha   90.00000000
_cell_angle_beta   90.00000000
_cell_angle_gamma   90.00000000
_symmetry_Int_Tables_number   1
_chemical_formula_structural   CuNiC7
_chemical_formula_sum   'Cu8 Ni8 C56'
_cell_volume   1325.83209297
_cell_formula_units_Z   8
loop_
 _symmetry_equiv_pos_site_id
 _symmetry_equiv_pos_as_xyz
  1  'x, y, z'
loop_
 _atom_site_type_symbol
 _atom_site_label
 _atom_site_symmetry_multiplicity
 _atom_site_fract_x
 _atom_site_fract_y
 _atom_site_fract_z
 _atom_site_occupancy
  Ni  Ni0  1  0.50000000  0.75000000  0.88444300  1
  Ni  Ni1  1  0.00000000  0.25000000  0.61555700  1
  Ni  Ni2  1  0.50000000  0.25000000  0.11555700  1
  Ni  Ni3  1  0.00000000  0.75000000  0.92674200  1
  Ni  Ni4  1  0.50000000  0.25000000  0.57325800  1
  Ni  Ni5  1  0.00000000  0.25000000  0.07325800  1
  Ni  Ni6  1  0.50000000  0.75000000  0.42674200  1
  Ni  Ni7  1  0.00000000  0.75000000  0.38444300  1
  Cu  Cu8  1  0.74743500  0.42660800  0.85688800  1
  Cu  Cu9  1  0.24743500  0.57339200  0.64311200  1
  Cu  Cu10  1  0.75256500  0.92660800  0.64311200  1
  Cu  Cu11  1  0.25256500  0.07339200  0.85688800  1
  Cu  Cu12  1  0.25256500  0.57339200  0.14311200  1
  Cu  Cu13  1  0.75256500  0.42660800  0.35688800  1
  Cu  Cu14  1  0.24743500  0.07339200  0.35688800  1
  Cu  Cu15  1  0.74743500  0.92660800  0.14311200  1
  C  C16  1  0.25032100  0.42391000  0.86286800  1
  C  C17  1  0.74967900  0.07609000  0.86286800  1
  C  C18  1  0.24967900  0.92391000  0.63713200  1
  C  C19  1  0.24967900  0.42391000  0.36286800  1
  C  C20  1  0.75032100  0.07609000  0.36286800  1
  C  C21  1  0.74967900  0.57609000  0.13713200  1
  C  C22  1  0.25032100  0.92391000  0.13713200  1
  C  C23  1  0.75032100  0.57609000  0.63713200  1
  C  C24  1  0.28052700  0.87832400  0.27862100  1
  C  C25  1  0.78052700  0.12167600  0.22137900  1
  C  C26  1  0.21947300  0.37832400  0.22137900  1
  C  C27  1  0.71947300  0.62167600  0.27862100  1
  C  C28  1  0.71947300  0.12167600  0.72137900  1
  C  C29  1  0.21947300  0.87832400  0.77862100  1
  C  C30  1  0.78052700  0.62167600  0.77862100  1
  C  C31  1  0.28052700  0.37832400  0.72137900  1
  C  C32  1  0.20653300  0.97768900  0.99969500  1
  C  C33  1  0.70653300  0.02231100  0.50030500  1
  C  C34  1  0.29346700  0.47768900  0.50030500  1
  C  C35  1  0.79346700  0.52231100  0.99969500  1
  C  C36  1  0.79346700  0.02231100  0.00030500  1
  C  C37  1  0.29346700  0.97768900  0.49969500  1
  C  C38  1  0.70653300  0.52231100  0.49969500  1
  C  C39  1  0.20653300  0.47768900  0.00030500  1
  C  C40  1  0.02099800  0.89086000  0.15330600  1
  C  C41  1  0.47873600  0.95790000  0.12083300  1
  C  C42  1  0.52099800  0.10914000  0.34669400  1
  C  C43  1  0.97900200  0.60914000  0.15330600  1
  C  C44  1  0.97900200  0.10914000  0.84669400  1
  C  C45  1  0.47900200  0.89086000  0.65330600  1
  C  C46  1  0.52099800  0.60914000  0.65330600  1
  C  C47  1  0.02099800  0.39086000  0.84669400  1
  C  C48  1  0.21771900  0.76105900  0.58431900  1
  C  C49  1  0.71771900  0.23894100  0.91568100  1
  C  C50  1  0.28228100  0.26105900  0.91568100  1
  C  C51  1  0.78228100  0.73894100  0.58431900  1
  C  C52  1  0.78228100  0.23894100  0.41568100  1
  C  C53  1  0.28228100  0.76105900  0.08431900  1
  C  C54  1  0.71771900  0.73894100  0.08431900  1
  C  C55  1  0.21771900  0.26105900  0.41568100  1
  C  C56  1  0.22280700  0.59003800  0.81437700  1
  C  C57  1  0.72280700  0.40996200  0.68562300  1
  C  C58  1  0.27719300  0.09003800  0.68562300  1
  C  C59  1  0.77719300  0.90996200  0.81437700  1
  C  C60  1  0.77719300  0.40996200  0.18562300  1
  C  C61  1  0.27719300  0.59003800  0.31437700  1
  C  C62  1  0.72280700  0.90996200  0.31437700  1
  C  C63  1  0.22280700  0.09003800  0.18562300  1
  C  C64  1  0.47873600  0.45790000  0.87916700  1
  C  C65  1  0.97873600  0.54210000  0.62083300  1
  C  C66  1  0.02126400  0.95790000  0.62083300  1
  C  C67  1  0.52126400  0.04210000  0.87916700  1
  C  C68  1  0.52126400  0.54210000  0.12083300  1
  C  C69  1  0.02126400  0.45790000  0.37916700  1
  C  C70  1  0.97873600  0.04210000  0.37916700  1
  C  C71  1  0.47900200  0.39086000  0.34669400  1
