# generated using pymatgen
data_Cu10NiC20
_symmetry_space_group_name_H-M   'P 1'
_cell_length_a   4.90710840
_cell_length_b   12.96601861
_cell_length_c   5.55762551
_cell_angle_alpha   103.34297007
_cell_angle_beta   90.66280380
_cell_angle_gamma   89.95181822
_symmetry_Int_Tables_number   1
_chemical_formula_structural   Cu10NiC20
_chemical_formula_sum   'Cu10 Ni1 C20'
_cell_volume   344.03869712
_cell_formula_units_Z   1
loop_
 _symmetry_equiv_pos_site_id
 _symmetry_equiv_pos_as_xyz
  1  'x, y, z'
loop_
 _atom_site_type_symbol
 _atom_site_label
 _atom_site_symmetry_multiplicity
 _atom_site_fract_x
 _atom_site_fract_y
 _atom_site_fract_z
 _atom_site_occupancy
  Ni  Ni0  1  0.51962297  0.09879457  0.19890126  1
  Cu  Cu1  1  0.48379359  0.98039292  0.54182414  1
  Cu  Cu2  1  0.47136684  0.41486639  0.30039631  1
  Cu  Cu3  1  0.47747265  0.22652828  0.83808206  1
  Cu  Cu4  1  0.50819200  0.60841810  0.69565812  1
  Cu  Cu5  1  0.53015165  0.80209976  0.10604756  1
  Cu  Cu6  1  0.97439617  0.40290058  0.79048624  1
  Cu  Cu7  1  0.99692833  0.79810820  0.62510104  1
  Cu  Cu8  1  0.03275665  0.20163741  0.40426246  1
  Cu  Cu9  1  0.96695754  0.59645786  0.21653181  1
  Cu  Cu10  1  0.03348821  0.99188097  0.02768066  1
  C  C11  1  0.81232803  0.25999089  0.69468232  1
  C  C12  1  0.83248641  0.86538559  0.95023906  1
  C  C13  1  0.81762232  0.66488928  0.53166809  1
  C  C14  1  0.85912239  0.05802678  0.32920819  1
  C  C15  1  0.79507761  0.45749388  0.11792122  1
  C  C16  1  0.67044076  0.46808609  0.61763448  1
  C  C17  1  0.67814356  0.65945442  0.02026343  1
  C  C18  1  0.69186672  0.85316418  0.44204470  1
  C  C19  1  0.29692968  0.35347464  0.98024948  1
  C  C20  1  0.32266736  0.74271788  0.78962478  1
  C  C21  1  0.35199338  0.13264945  0.54293688  1
  C  C22  1  0.36049364  0.94623847  0.19241925  1
  C  C23  1  0.29863375  0.55304351  0.39566370  1
  C  C24  1  0.17714644  0.13809153  0.06191605  1
  C  C25  1  0.17787415  0.93899377  0.70590774  1
  C  C26  1  0.19259344  0.34038221  0.47416804  1
  C  C27  1  0.67107326  0.06300703  0.85397722  1
  C  C28  1  0.66252312  0.24612378  0.19385448  1
  C  C29  1  0.16770518  0.54703084  0.88753998  1
  C  C30  1  0.18204621  0.74592173  0.28263328  1
