# generated using pymatgen
data_Cu2NiC9
_symmetry_space_group_name_H-M   'P 1'
_cell_length_a   5.69344500
_cell_length_b   7.04855796
_cell_length_c   9.28742945
_cell_angle_alpha   110.70439867
_cell_angle_beta   100.56013447
_cell_angle_gamma   98.08233520
_symmetry_Int_Tables_number   1
_chemical_formula_structural   Cu2NiC9
_chemical_formula_sum   'Cu4 Ni2 C18'
_cell_volume   334.07599252
_cell_formula_units_Z   2
loop_
 _symmetry_equiv_pos_site_id
 _symmetry_equiv_pos_as_xyz
  1  'x, y, z'
loop_
 _atom_site_type_symbol
 _atom_site_label
 _atom_site_symmetry_multiplicity
 _atom_site_fract_x
 _atom_site_fract_y
 _atom_site_fract_z
 _atom_site_occupancy
  C  C0  1  0.24361000  0.73254900  0.03065300  1
  C  C1  1  0.75639000  0.26745100  0.96934700  1
  Ni  Ni2  1  0.67204600  0.27460200  0.54945800  1
  Ni  Ni3  1  0.32795400  0.72539800  0.45054200  1
  Cu  Cu4  1  0.39309700  0.20265400  0.22771500  1
  Cu  Cu5  1  0.60690300  0.79734600  0.77228500  1
  Cu  Cu6  1  0.83935300  0.73206300  0.30180900  1
  Cu  Cu7  1  0.16064700  0.26793700  0.69819100  1
  C  C8  1  0.82584000  0.67117000  0.89050100  1
  C  C9  1  0.63386200  0.28784000  0.18701300  1
  C  C10  1  0.65320400  0.03350200  0.75657900  1
  C  C11  1  0.95628100  0.40031800  0.69720400  1
  C  C12  1  0.36613800  0.71216000  0.81298700  1
  C  C13  1  0.01297400  0.17214800  0.57384800  1
  C  C14  1  0.98702600  0.82785200  0.42615200  1
  C  C15  1  0.28421500  0.12722300  0.86422300  1
  C  C16  1  0.34679600  0.96649800  0.24342100  1
  C  C17  1  0.71578500  0.87277700  0.13577700  1
  C  C18  1  0.17416000  0.32883000  0.10949900  1
  C  C19  1  0.39803500  0.19201500  0.39991100  1
  C  C20  1  0.60196500  0.80798500  0.60008900  1
  C  C21  1  0.62133900  0.58589000  0.37734200  1
  C  C22  1  0.04371900  0.59968200  0.30279600  1
  C  C23  1  0.37866100  0.41411000  0.62265800  1
