# generated using pymatgen
data_CuNiC
_symmetry_space_group_name_H-M   'P 1'
_cell_length_a   3.53265700
_cell_length_b   6.23371300
_cell_length_c   7.37479700
_cell_angle_alpha   90.00000000
_cell_angle_beta   90.00000000
_cell_angle_gamma   90.00000000
_symmetry_Int_Tables_number   1
_chemical_formula_structural   CuNiC
_chemical_formula_sum   'Cu4 Ni4 C4'
_cell_volume   162.40460738
_cell_formula_units_Z   4
loop_
 _symmetry_equiv_pos_site_id
 _symmetry_equiv_pos_as_xyz
  1  'x, y, z'
loop_
 _atom_site_type_symbol
 _atom_site_label
 _atom_site_symmetry_multiplicity
 _atom_site_fract_x
 _atom_site_fract_y
 _atom_site_fract_z
 _atom_site_occupancy
  Ni  Ni0  1  0.25000000  0.03125000  0.82810000  1
  Ni  Ni1  1  0.25000000  0.53125000  0.67190000  1
  Ni  Ni2  1  0.75000000  0.96875000  0.17190000  1
  Ni  Ni3  1  0.75000000  0.46875000  0.32810000  1
  Cu  Cu4  1  0.25000000  0.14464900  0.44076600  1
  Cu  Cu5  1  0.25000000  0.64464900  0.05923400  1
  Cu  Cu6  1  0.75000000  0.85535100  0.55923400  1
  Cu  Cu7  1  0.75000000  0.35535100  0.94076600  1
  C  C8  1  0.25000000  0.76961700  0.36744600  1
  C  C9  1  0.25000000  0.26961700  0.13255400  1
  C  C10  1  0.75000000  0.23038300  0.63255400  1
  C  C11  1  0.75000000  0.73038300  0.86744600  1
