# generated using pymatgen
data_Cu4Ni12C
_symmetry_space_group_name_H-M   'P 1'
_cell_length_a   7.47789553
_cell_length_b   7.47789553
_cell_length_c   7.47789553
_cell_angle_alpha   109.47122063
_cell_angle_beta   109.47122063
_cell_angle_gamma   109.47122063
_symmetry_Int_Tables_number   1
_chemical_formula_structural   Cu4Ni12C
_chemical_formula_sum   'Cu4 Ni12 C1'
_cell_volume   321.89652678
_cell_formula_units_Z   1
loop_
 _symmetry_equiv_pos_site_id
 _symmetry_equiv_pos_as_xyz
  1  'x, y, z'
loop_
 _atom_site_type_symbol
 _atom_site_label
 _atom_site_symmetry_multiplicity
 _atom_site_fract_x
 _atom_site_fract_y
 _atom_site_fract_z
 _atom_site_occupancy
  C  C0  1  0.00000000  0.00000000  0.00000000  1
  Ni  Ni1  1  0.34621000  0.19698800  0.85077800  1
  Ni  Ni2  1  0.65379000  0.80301200  0.14922200  1
  Ni  Ni3  1  0.65379000  0.50456900  0.85077800  1
  Ni  Ni4  1  0.34621000  0.49543100  0.14922200  1
  Ni  Ni5  1  0.19698800  0.85077800  0.34621000  1
  Ni  Ni6  1  0.80301200  0.14922200  0.65379000  1
  Ni  Ni7  1  0.50456900  0.85077800  0.65379000  1
  Ni  Ni8  1  0.49543100  0.14922200  0.34621000  1
  Ni  Ni9  1  0.85077800  0.34621000  0.19698800  1
  Ni  Ni10  1  0.14922200  0.65379000  0.80301200  1
  Ni  Ni11  1  0.85077800  0.65379000  0.50456900  1
  Ni  Ni12  1  0.14922200  0.34621000  0.49543100  1
  Cu  Cu13  1  0.00000000  0.00000000  0.50000000  1
  Cu  Cu14  1  0.50000000  0.00000000  0.00000000  1
  Cu  Cu15  1  0.00000000  0.50000000  0.00000000  1
  Cu  Cu16  1  0.50000000  0.50000000  0.50000000  1
