# generated using pymatgen
data_Cu4NiC8
_symmetry_space_group_name_H-M   'P 1'
_cell_length_a   11.20638501
_cell_length_b   11.20638501
_cell_length_c   16.85673341
_cell_angle_alpha   74.47540033
_cell_angle_beta   74.47540033
_cell_angle_gamma   44.52406192
_symmetry_Int_Tables_number   1
_chemical_formula_structural   Cu4NiC8
_chemical_formula_sum   'Cu32 Ni8 C64'
_cell_volume   1420.96825734
_cell_formula_units_Z   8
loop_
 _symmetry_equiv_pos_site_id
 _symmetry_equiv_pos_as_xyz
  1  'x, y, z'
loop_
 _atom_site_type_symbol
 _atom_site_label
 _atom_site_symmetry_multiplicity
 _atom_site_fract_x
 _atom_site_fract_y
 _atom_site_fract_z
 _atom_site_occupancy
  C  C0  1  0.81363100  0.87420700  0.95421500  1
  C  C1  1  0.12722500  0.18646000  0.54640100  1
  C  C2  1  0.18646000  0.12722500  0.04640100  1
  C  C3  1  0.87420700  0.81363100  0.45421500  1
  C  C4  1  0.74235600  0.43635000  0.33007100  1
  C  C5  1  0.56721000  0.25523000  0.16890600  1
  C  C6  1  0.25523000  0.56721000  0.66890600  1
  C  C7  1  0.43635000  0.74235600  0.83007100  1
  C  C8  1  0.33544700  0.40536600  0.92829900  1
  C  C9  1  0.59484800  0.66463600  0.57156700  1
  C  C10  1  0.66463600  0.59484800  0.07156700  1
  C  C11  1  0.40536600  0.33544700  0.42829900  1
  Ni  Ni12  1  0.18796700  0.89932100  0.36859800  1
  Ni  Ni13  1  0.09443900  0.81402700  0.12648800  1
  Ni  Ni14  1  0.81402700  0.09443900  0.62648800  1
  Ni  Ni15  1  0.89932100  0.18796700  0.86859800  1
  Ni  Ni16  1  0.37611500  0.00334400  0.28810300  1
  Ni  Ni17  1  0.99613500  0.62251400  0.21175000  1
  Ni  Ni18  1  0.62251400  0.99613500  0.71175000  1
  Ni  Ni19  1  0.00334400  0.37611500  0.78810300  1
  Cu  Cu20  1  0.46554200  0.11096200  0.37314800  1
  Cu  Cu21  1  0.88930400  0.53458800  0.12687400  1
  Cu  Cu22  1  0.53458800  0.88930400  0.62687400  1
  Cu  Cu23  1  0.11096200  0.46554200  0.87314800  1
  Cu  Cu24  1  0.40165600  0.68221900  0.04331400  1
  Cu  Cu25  1  0.31667600  0.59857900  0.45696100  1
  Cu  Cu26  1  0.59857900  0.31667600  0.95696100  1
  Cu  Cu27  1  0.68221900  0.40165600  0.54331400  1
  Cu  Cu28  1  0.71882000  0.76461600  0.26420900  1
  Cu  Cu29  1  0.23536600  0.28085600  0.23613300  1
  Cu  Cu30  1  0.28085600  0.23536600  0.73613300  1
  Cu  Cu31  1  0.76461600  0.71882000  0.76420900  1
  Cu  Cu32  1  0.37224500  0.75278400  0.49762700  1
  Cu  Cu33  1  0.24899600  0.62645200  0.00253100  1
  Cu  Cu34  1  0.62645200  0.24899600  0.50253100  1
  Cu  Cu35  1  0.75278400  0.37224500  0.99762700  1
  Cu  Cu36  1  0.52044400  0.86182500  0.43719000  1
  Cu  Cu37  1  0.13802000  0.47952300  0.06276000  1
  Cu  Cu38  1  0.47952300  0.13802000  0.56276000  1
  Cu  Cu39  1  0.86182500  0.52044400  0.93719000  1
  Cu  Cu40  1  0.56604000  0.81693900  0.14977100  1
  Cu  Cu41  1  0.18306200  0.43393200  0.35024100  1
  Cu  Cu42  1  0.43393200  0.18306200  0.85024100  1
  Cu  Cu43  1  0.81693900  0.56604000  0.64977100  1
  Cu  Cu44  1  0.42354800  0.67456200  0.17828800  1
  Cu  Cu45  1  0.32356300  0.57768400  0.32205600  1
  Cu  Cu46  1  0.57768400  0.32356300  0.82205600  1
  Cu  Cu47  1  0.67456200  0.42354800  0.67828800  1
  Cu  Cu48  1  0.00667400  0.01082100  0.48418200  1
  Cu  Cu49  1  0.01082200  0.00667400  0.98418200  1
  Cu  Cu50  1  0.11652800  0.87843000  0.23905300  1
  Cu  Cu51  1  0.87843000  0.11652800  0.73905300  1
  C  C52  1  0.53344400  0.28373700  0.98619400  1
  C  C53  1  0.71695100  0.46544800  0.51434000  1
  C  C54  1  0.46544800  0.71695100  0.01434000  1
  C  C55  1  0.28373700  0.53344400  0.48619400  1
  C  C56  1  0.62836200  0.23386000  0.44524300  1
  C  C57  1  0.76628100  0.37181100  0.05499000  1
  C  C58  1  0.37181100  0.76628100  0.55499000  1
  C  C59  1  0.23386000  0.62836200  0.94524300  1
  C  C60  1  0.54525500  0.84400900  0.25049600  1
  C  C61  1  0.15536400  0.45419100  0.24961600  1
  C  C62  1  0.45419100  0.15536400  0.74961600  1
  C  C63  1  0.84400900  0.54525500  0.75049600  1
  C  C64  1  0.56889300  0.81588900  0.08986500  1
  C  C65  1  0.18460000  0.43039900  0.41016700  1
  C  C66  1  0.43039900  0.18460000  0.91016700  1
  C  C67  1  0.81588900  0.56889300  0.58986500  1
  C  C68  1  0.53350200  0.14077300  0.36681200  1
  C  C69  1  0.85897600  0.46696400  0.13303000  1
  C  C70  1  0.46696400  0.85897600  0.63303000  1
  C  C71  1  0.14077300  0.53350200  0.86681200  1
  C  C72  1  0.34276900  0.74116200  0.41320300  1
  C  C73  1  0.26204800  0.65397000  0.08836800  1
  C  C74  1  0.65397000  0.26204800  0.58836800  1
  C  C75  1  0.74116200  0.34276900  0.91320300  1
  C  C76  1  0.96293600  0.95471000  0.06705900  1
  C  C77  1  0.04487100  0.04661300  0.42624700  1
  C  C78  1  0.04661300  0.04487100  0.92624700  1
  C  C79  1  0.95471000  0.96293600  0.56705900  1
  C  C80  1  0.23567500  0.99179000  0.29594900  1
  C  C81  1  0.00528100  0.76487700  0.20190200  1
  C  C82  1  0.76487700  0.00528100  0.70190200  1
  C  C83  1  0.99179000  0.23567500  0.79594900  1
  C  C84  1  0.54818500  0.57668500  0.17857700  1
  C  C85  1  0.42282800  0.45281200  0.32163400  1
  C  C86  1  0.45281200  0.42282800  0.82163400  1
  C  C87  1  0.57668500  0.54818500  0.67857700  1
  C  C88  1  0.13505700  0.88417700  0.17372700  1
  C  C89  1  0.11593500  0.86000400  0.32670600  1
  C  C90  1  0.86000400  0.11593500  0.82670600  1
  C  C91  1  0.88417700  0.13505700  0.67372700  1
  C  C92  1  0.30525000  0.16094900  0.22003700  1
  C  C93  1  0.83911000  0.69270900  0.28023000  1
  C  C94  1  0.69270900  0.83911000  0.78023000  1
  C  C95  1  0.16094900  0.30525000  0.72003700  1
  C  C96  1  0.37545200  0.03138200  0.37132500  1
  C  C97  1  0.96813500  0.62173800  0.12882700  1
  C  C98  1  0.62173800  0.96813500  0.62882700  1
  C  C99  1  0.03138200  0.37545200  0.87132500  1
  C  C100  1  0.62348100  0.77454900  0.46852800  1
  C  C101  1  0.22524800  0.37681900  0.03119200  1
  C  C102  1  0.37681900  0.22524800  0.53119200  1
  C  C103  1  0.77454900  0.62348100  0.96852800  1
