# generated using pymatgen
data_CuNi14C
_symmetry_space_group_name_H-M   'P 1'
_cell_length_a   6.31909344
_cell_length_b   6.28139166
_cell_length_c   10.38651679
_cell_angle_alpha   90.00000000
_cell_angle_beta   90.00000000
_cell_angle_gamma   119.80283616
_symmetry_Int_Tables_number   1
_chemical_formula_structural   CuNi14C
_chemical_formula_sum   'Cu1 Ni14 C1'
_cell_volume   357.74256974
_cell_formula_units_Z   1
loop_
 _symmetry_equiv_pos_site_id
 _symmetry_equiv_pos_as_xyz
  1  'x, y, z'
loop_
 _atom_site_type_symbol
 _atom_site_label
 _atom_site_symmetry_multiplicity
 _atom_site_fract_x
 _atom_site_fract_y
 _atom_site_fract_z
 _atom_site_occupancy
  Ni  Ni0  1  0.16656248  0.33328074  0.62500000  1
  Ni  Ni1  1  0.16699020  0.83349460  0.62500000  1
  Ni  Ni2  1  0.66757825  0.33429297  0.12500000  1
  Ni  Ni3  1  0.66659825  0.33301730  0.62500000  1
  Ni  Ni4  1  0.66757825  0.83328427  0.12500000  1
  Ni  Ni5  1  0.66659825  0.83357994  0.62500000  1
  Ni  Ni6  1  0.33228644  0.16287889  0.37263495  1
  Ni  Ni7  1  0.33228644  0.16287889  0.87736505  1
  Ni  Ni8  1  0.33228644  0.66940854  0.37263495  1
  Ni  Ni9  1  0.33228644  0.66940854  0.87736505  1
  Ni  Ni10  1  0.83282560  0.16641330  0.37609232  1
  Ni  Ni11  1  0.83282560  0.16641330  0.87390768  1
  Ni  Ni12  1  0.83694178  0.66847139  0.37317843  1
  Ni  Ni13  1  0.83694178  0.66847139  0.87682157  1
  Cu  Cu14  1  0.16337701  0.83168800  0.12500000  1
  C  C15  1  0.16603681  0.33301791  0.12500000  1
