# generated using pymatgen
data_Cu2NiC10
_symmetry_space_group_name_H-M   'P 1'
_cell_length_a   7.52072877
_cell_length_b   7.52072877
_cell_length_c   7.52072918
_cell_angle_alpha   43.18446836
_cell_angle_beta   43.18446836
_cell_angle_gamma   43.18446641
_symmetry_Int_Tables_number   1
_chemical_formula_structural   Cu2NiC10
_chemical_formula_sum   'Cu2 Ni1 C10'
_cell_volume   180.64258018
_cell_formula_units_Z   1
loop_
 _symmetry_equiv_pos_site_id
 _symmetry_equiv_pos_as_xyz
  1  'x, y, z'
loop_
 _atom_site_type_symbol
 _atom_site_label
 _atom_site_symmetry_multiplicity
 _atom_site_fract_x
 _atom_site_fract_y
 _atom_site_fract_z
 _atom_site_occupancy
  Ni  Ni0  1  0.00000000  0.00000000  0.00000000  1
  Cu  Cu1  1  0.20926400  0.20926400  0.20926400  1
  Cu  Cu2  1  0.79073600  0.79073600  0.79073600  1
  C  C3  1  0.40995700  0.40995700  0.40995700  1
  C  C4  1  0.59004300  0.59004300  0.59004300  1
  C  C5  1  0.33385200  0.33385200  0.33385200  1
  C  C6  1  0.66614800  0.66614800  0.66614800  1
  C  C7  1  0.28284300  0.74265000  0.28284300  1
  C  C8  1  0.28284300  0.28284300  0.74265000  1
  C  C9  1  0.74265000  0.28284300  0.28284300  1
  C  C10  1  0.71715700  0.25735000  0.71715700  1
  C  C11  1  0.71715700  0.71715700  0.25735000  1
  C  C12  1  0.25735000  0.71715700  0.71715700  1
