# generated using pymatgen
data_CuNiC4
_symmetry_space_group_name_H-M   'P 1'
_cell_length_a   8.61226850
_cell_length_b   8.61226850
_cell_length_c   8.61226870
_cell_angle_alpha   33.35354895
_cell_angle_beta   33.35354895
_cell_angle_gamma   33.35355019
_symmetry_Int_Tables_number   1
_chemical_formula_structural   CuNiC4
_chemical_formula_sum   'Cu2 Ni2 C8'
_cell_volume   171.93562647
_cell_formula_units_Z   2
loop_
 _symmetry_equiv_pos_site_id
 _symmetry_equiv_pos_as_xyz
  1  'x, y, z'
loop_
 _atom_site_type_symbol
 _atom_site_label
 _atom_site_symmetry_multiplicity
 _atom_site_fract_x
 _atom_site_fract_y
 _atom_site_fract_z
 _atom_site_occupancy
  C  C0  1  0.00000000  0.00000000  0.00000000  1
  Ni  Ni1  1  0.43065500  0.43065500  0.43065500  1
  Ni  Ni2  1  0.56934500  0.56934500  0.56934500  1
  Cu  Cu3  1  0.26468300  0.26468300  0.26468300  1
  Cu  Cu4  1  0.73531700  0.73531700  0.73531700  1
  C  C5  1  0.67526200  0.03638400  0.48682900  1
  C  C6  1  0.03638400  0.48682900  0.67526200  1
  C  C7  1  0.48682900  0.67526200  0.03638400  1
  C  C8  1  0.50000000  0.50000000  0.50000000  1
  C  C9  1  0.96361600  0.32473800  0.51317100  1
  C  C10  1  0.32473800  0.51317100  0.96361600  1
  C  C11  1  0.51317100  0.96361600  0.32473800  1
