# generated using pymatgen
data_Cu2Ni8C5
_symmetry_space_group_name_H-M   'P 1'
_cell_length_a   6.02407800
_cell_length_b   10.62093800
_cell_length_c   15.08398100
_cell_angle_alpha   90.00000000
_cell_angle_beta   90.00000000
_cell_angle_gamma   90.00000000
_symmetry_Int_Tables_number   1
_chemical_formula_structural   Cu2Ni8C5
_chemical_formula_sum   'Cu16 Ni64 C40'
_cell_volume   965.09360268
_cell_formula_units_Z   8
loop_
 _symmetry_equiv_pos_site_id
 _symmetry_equiv_pos_as_xyz
  1  'x, y, z'
loop_
 _atom_site_type_symbol
 _atom_site_label
 _atom_site_symmetry_multiplicity
 _atom_site_fract_x
 _atom_site_fract_y
 _atom_site_fract_z
 _atom_site_occupancy
  C  C0  1  0.25106800  0.07940800  0.99666100  1
  C  C1  1  0.74893200  0.57940800  0.00333900  1
  C  C2  1  0.75106800  0.57940800  0.50333900  1
  C  C3  1  0.24893200  0.07940800  0.49666100  1
  C  C4  1  0.24757300  0.41876800  0.25040200  1
  C  C5  1  0.75242700  0.91876800  0.74959800  1
  C  C6  1  0.74757300  0.91876800  0.24959800  1
  C  C7  1  0.25242700  0.41876800  0.75040200  1
  Ni  Ni8  1  0.22747200  0.37359400  0.03540400  1
  Ni  Ni9  1  0.77252800  0.87359400  0.96459600  1
  Ni  Ni10  1  0.72747200  0.87359400  0.46459600  1
  Ni  Ni11  1  0.27252800  0.37359400  0.53540400  1
  Ni  Ni12  1  0.21231900  0.33436600  0.92493400  1
  Ni  Ni13  1  0.78768100  0.83436600  0.07506600  1
  Ni  Ni14  1  0.71231900  0.83436600  0.57506600  1
  Ni  Ni15  1  0.28768100  0.33436600  0.42493400  1
  Ni  Ni16  1  0.40182600  0.43845500  0.96131400  1
  Ni  Ni17  1  0.59817400  0.93845500  0.03868600  1
  Ni  Ni18  1  0.90182600  0.93845500  0.53868600  1
  Ni  Ni19  1  0.09817400  0.43845500  0.46131400  1
  Ni  Ni20  1  0.13163100  0.47799300  0.95908100  1
  Ni  Ni21  1  0.86836900  0.97799300  0.04091900  1
  Ni  Ni22  1  0.63163100  0.97799300  0.54091900  1
  Ni  Ni23  1  0.36836900  0.47799300  0.45908100  1
  Ni  Ni24  1  0.26324100  0.79037200  0.11544500  1
  Ni  Ni25  1  0.73675900  0.29037200  0.88455500  1
  Ni  Ni26  1  0.76324100  0.29037200  0.38455500  1
  Ni  Ni27  1  0.23675900  0.79037200  0.61544500  1
  Ni  Ni28  1  0.28072000  0.64492500  0.16023300  1
  Ni  Ni29  1  0.71928000  0.14492500  0.83976700  1
  Ni  Ni30  1  0.78072000  0.14492500  0.33976700  1
  Ni  Ni31  1  0.21928000  0.64492500  0.66023300  1
  Ni  Ni32  1  0.37159900  0.67320800  0.05304400  1
  Ni  Ni33  1  0.62840100  0.17320800  0.94695600  1
  Ni  Ni34  1  0.87159900  0.17320800  0.44695600  1
  Ni  Ni35  1  0.12840100  0.67320800  0.55304400  1
  Ni  Ni36  1  0.09982000  0.67484800  0.07764500  1
  Ni  Ni37  1  0.90018000  0.17484800  0.92235500  1
  Ni  Ni38  1  0.59982000  0.17484800  0.42235500  1
  Ni  Ni39  1  0.40018000  0.67484800  0.57764500  1
  Ni  Ni40  1  0.23734500  0.12242400  0.28607300  1
  Ni  Ni41  1  0.76265500  0.62242400  0.71392700  1
  Ni  Ni42  1  0.73734500  0.62242400  0.21392700  1
  Ni  Ni43  1  0.26265500  0.12242400  0.78607300  1
  Ni  Ni44  1  0.22534800  0.17920900  0.17962500  1
  Ni  Ni45  1  0.77465200  0.67920900  0.82037500  1
  Ni  Ni46  1  0.72534800  0.67920900  0.32037500  1
  Ni  Ni47  1  0.27465200  0.17920900  0.67962500  1
  Ni  Ni48  1  0.41333400  0.06937600  0.20801200  1
  Ni  Ni49  1  0.58666600  0.56937600  0.79198800  1
  Ni  Ni50  1  0.91333400  0.56937600  0.29198800  1
  Ni  Ni51  1  0.08666600  0.06937600  0.70801200  1
  Ni  Ni52  1  0.14360500  0.03039600  0.20181300  1
  Ni  Ni53  1  0.85639500  0.53039600  0.79818700  1
  Ni  Ni54  1  0.64360500  0.53039600  0.29818700  1
  Ni  Ni55  1  0.35639500  0.03039600  0.70181300  1
  Ni  Ni56  1  0.26545200  0.71166400  0.36239800  1
  Ni  Ni57  1  0.73454800  0.21166400  0.63760200  1
  Ni  Ni58  1  0.76545200  0.21166400  0.13760200  1
  Ni  Ni59  1  0.23454800  0.71166400  0.86239800  1
  Ni  Ni60  1  0.27956200  0.85732700  0.40711400  1
  Ni  Ni61  1  0.72043800  0.35732700  0.59288600  1
  Ni  Ni62  1  0.77956200  0.35732700  0.09288600  1
  Ni  Ni63  1  0.22043800  0.85732700  0.90711400  1
  Ni  Ni64  1  0.35926400  0.83064300  0.29830900  1
  Ni  Ni65  1  0.64073600  0.33064300  0.70169100  1
  Ni  Ni66  1  0.85926400  0.33064300  0.20169100  1
  Ni  Ni67  1  0.14073600  0.83064300  0.79830900  1
  Ni  Ni68  1  0.08975100  0.82438400  0.32864200  1
  Ni  Ni69  1  0.91024900  0.32438400  0.67135800  1
  Ni  Ni70  1  0.58975100  0.32438400  0.17135800  1
  Ni  Ni71  1  0.41024900  0.82438400  0.82864200  1
  Cu  Cu72  1  0.24267500  0.40478900  0.97031500  1
  Cu  Cu73  1  0.75732500  0.90478900  0.02968500  1
  Cu  Cu74  1  0.74267500  0.90478900  0.52968500  1
  Cu  Cu75  1  0.25732500  0.40478900  0.47031500  1
  Cu  Cu76  1  0.25513900  0.69589700  0.10180800  1
  Cu  Cu77  1  0.74486100  0.19589700  0.89819200  1
  Cu  Cu78  1  0.75513900  0.19589700  0.39819200  1
  Cu  Cu79  1  0.24486100  0.69589700  0.60180800  1
  Cu  Cu80  1  0.25371000  0.10108800  0.21864900  1
  Cu  Cu81  1  0.74629000  0.60108800  0.78135100  1
  Cu  Cu82  1  0.75371000  0.60108800  0.28135100  1
  Cu  Cu83  1  0.24629000  0.10108800  0.71864900  1
  Cu  Cu84  1  0.25024800  0.80619500  0.34924500  1
  Cu  Cu85  1  0.74975200  0.30619500  0.65075500  1
  Cu  Cu86  1  0.75024800  0.30619500  0.15075500  1
  Cu  Cu87  1  0.24975200  0.80619500  0.84924500  1
  C  C88  1  0.24516700  0.12633600  0.89784100  1
  C  C89  1  0.75483300  0.62633600  0.10215900  1
  C  C90  1  0.74516700  0.62633600  0.60215900  1
  C  C91  1  0.25483300  0.12633600  0.39784100  1
  C  C92  1  0.24635200  0.93164600  0.00323900  1
  C  C93  1  0.75364800  0.43164600  0.99676100  1
  C  C94  1  0.74635200  0.43164600  0.49676100  1
  C  C95  1  0.25364800  0.93164600  0.50323900  1
  C  C96  1  0.47168300  0.12651700  0.03946400  1
  C  C97  1  0.52831700  0.62651700  0.96053600  1
  C  C98  1  0.97168300  0.62651700  0.46053600  1
  C  C99  1  0.02831700  0.12651700  0.53946400  1
  C  C100  1  0.03598900  0.12934600  0.04298000  1
  C  C101  1  0.96401100  0.62934600  0.95702000  1
  C  C102  1  0.53598900  0.62934600  0.45702000  1
  C  C103  1  0.46401100  0.12934600  0.54298000  1
  C  C104  1  0.25201900  0.36841300  0.15164200  1
  C  C105  1  0.74798100  0.86841300  0.84835800  1
  C  C106  1  0.75201900  0.86841300  0.34835800  1
  C  C107  1  0.24798100  0.36841300  0.65164200  1
  C  C108  1  0.25611000  0.56654100  0.25584500  1
  C  C109  1  0.74389000  0.06654100  0.74415500  1
  C  C110  1  0.75611000  0.06654100  0.24415500  1
  C  C111  1  0.24389000  0.56654100  0.75584500  1
  C  C112  1  0.02317900  0.37459200  0.29249600  1
  C  C113  1  0.97682100  0.87459200  0.70750400  1
  C  C114  1  0.52317900  0.87459200  0.20750400  1
  C  C115  1  0.47682100  0.37459200  0.79249600  1
  C  C116  1  0.45719900  0.36658200  0.29792000  1
  C  C117  1  0.54280100  0.86658200  0.70208000  1
  C  C118  1  0.95719900  0.86658200  0.20208000  1
  C  C119  1  0.04280100  0.36658200  0.79792000  1
