# generated using pymatgen
data_Cu(NiC)4
_symmetry_space_group_name_H-M   'P 1'
_cell_length_a   5.28099600
_cell_length_b   11.95417000
_cell_length_c   14.04166800
_cell_angle_alpha   90.00000000
_cell_angle_beta   90.00000000
_cell_angle_gamma   90.00000000
_symmetry_Int_Tables_number   1
_chemical_formula_structural   Cu(NiC)4
_chemical_formula_sum   'Cu8 Ni32 C32'
_cell_volume   886.44943302
_cell_formula_units_Z   8
loop_
 _symmetry_equiv_pos_site_id
 _symmetry_equiv_pos_as_xyz
  1  'x, y, z'
loop_
 _atom_site_type_symbol
 _atom_site_label
 _atom_site_symmetry_multiplicity
 _atom_site_fract_x
 _atom_site_fract_y
 _atom_site_fract_z
 _atom_site_occupancy
  C  C0  1  0.26372000  0.32821000  0.75521200  1
  C  C1  1  0.23628000  0.82821000  0.74478800  1
  C  C2  1  0.76372000  0.67179000  0.74478800  1
  C  C3  1  0.73628000  0.17179000  0.75521200  1
  C  C4  1  0.73628000  0.67179000  0.24478800  1
  C  C5  1  0.76372000  0.17179000  0.25521200  1
  C  C6  1  0.23628000  0.32821000  0.25521200  1
  C  C7  1  0.26372000  0.82821000  0.24478800  1
  C  C8  1  0.23915600  0.08342600  0.87524100  1
  C  C9  1  0.26084400  0.58342600  0.62475900  1
  C  C10  1  0.73915600  0.91657400  0.62475900  1
  C  C11  1  0.76084400  0.41657400  0.87524100  1
  C  C12  1  0.76084400  0.91657400  0.12475900  1
  C  C13  1  0.73915600  0.41657400  0.37524100  1
  C  C14  1  0.26084400  0.08342600  0.37524100  1
  C  C15  1  0.23915600  0.58342600  0.12475900  1
  C  C16  1  0.22774000  0.32571400  0.99017800  1
  C  C17  1  0.27226000  0.82571400  0.50982200  1
  C  C18  1  0.72774000  0.67428600  0.50982200  1
  C  C19  1  0.77226000  0.17428600  0.99017800  1
  C  C20  1  0.77226000  0.67428600  0.00982200  1
  C  C21  1  0.72774000  0.17428600  0.49017800  1
  C  C22  1  0.27226000  0.32571400  0.49017800  1
  C  C23  1  0.22774000  0.82571400  0.00982200  1
  C  C24  1  0.20350700  0.08699200  0.61923100  1
  C  C25  1  0.29649300  0.58699200  0.88076900  1
  C  C26  1  0.70350700  0.91300800  0.88076900  1
  C  C27  1  0.79649300  0.41300800  0.61923100  1
  C  C28  1  0.79649300  0.91300800  0.38076900  1
  C  C29  1  0.70350700  0.41300800  0.11923100  1
  C  C30  1  0.29649300  0.08699200  0.11923100  1
  C  C31  1  0.20350700  0.58699200  0.38076900  1
  Ni  Ni32  1  0.26693500  0.96028300  0.61236000  1
  Ni  Ni33  1  0.23306500  0.46028300  0.88764000  1
  Ni  Ni34  1  0.76693500  0.03971700  0.88764000  1
  Ni  Ni35  1  0.73306500  0.53971700  0.61236000  1
  Ni  Ni36  1  0.73306500  0.03971700  0.38764000  1
  Ni  Ni37  1  0.76693500  0.53971700  0.11236000  1
  Ni  Ni38  1  0.23306500  0.96028300  0.11236000  1
  Ni  Ni39  1  0.26693500  0.46028300  0.38764000  1
  Ni  Ni40  1  0.28517300  0.13342700  0.71658500  1
  Ni  Ni41  1  0.21482700  0.63342700  0.78341500  1
  Ni  Ni42  1  0.78517300  0.86657300  0.78341500  1
  Ni  Ni43  1  0.71482700  0.36657300  0.71658500  1
  Ni  Ni44  1  0.71482700  0.86657300  0.28341500  1
  Ni  Ni45  1  0.78517300  0.36657300  0.21658500  1
  Ni  Ni46  1  0.21482700  0.13342700  0.21658500  1
  Ni  Ni47  1  0.28517300  0.63342700  0.28341500  1
  Ni  Ni48  1  0.90871300  0.10260600  0.60562300  1
  Ni  Ni49  1  0.59128700  0.60260600  0.89437700  1
  Ni  Ni50  1  0.40871300  0.89739400  0.89437700  1
  Ni  Ni51  1  0.09128700  0.39739400  0.60562300  1
  Ni  Ni52  1  0.09128700  0.89739400  0.39437700  1
  Ni  Ni53  1  0.40871300  0.39739400  0.10562300  1
  Ni  Ni54  1  0.59128700  0.10260600  0.10562300  1
  Ni  Ni55  1  0.90871300  0.60260600  0.39437700  1
  Ni  Ni56  1  0.33904800  0.15113200  0.53638000  1
  Ni  Ni57  1  0.16095200  0.65113200  0.96362000  1
  Ni  Ni58  1  0.83904800  0.84886800  0.96362000  1
  Ni  Ni59  1  0.66095200  0.34886800  0.53638000  1
  Ni  Ni60  1  0.66095200  0.84886800  0.46362000  1
  Ni  Ni61  1  0.83904800  0.34886800  0.03638000  1
  Ni  Ni62  1  0.16095200  0.15113200  0.03638000  1
  Ni  Ni63  1  0.33904800  0.65113200  0.46362000  1
  Cu  Cu64  1  0.00000000  0.25000000  0.87586900  1
  Cu  Cu65  1  0.50000000  0.75000000  0.62413100  1
  Cu  Cu66  1  0.00000000  0.75000000  0.12413100  1
  Cu  Cu67  1  0.50000000  0.25000000  0.37586900  1
  Cu  Cu68  1  0.50000000  0.25000000  0.89876700  1
  Cu  Cu69  1  0.00000000  0.75000000  0.60123300  1
  Cu  Cu70  1  0.50000000  0.75000000  0.10123300  1
  Cu  Cu71  1  0.00000000  0.25000000  0.39876700  1
