# generated using pymatgen
data_Cu7Ni2C3
_symmetry_space_group_name_H-M   'P 1'
_cell_length_a   12.03296229
_cell_length_b   12.03296229
_cell_length_c   20.20117222
_cell_angle_alpha   67.24758771
_cell_angle_beta   67.24758771
_cell_angle_gamma   33.53375687
_symmetry_Int_Tables_number   1
_chemical_formula_structural   Cu7Ni2C3
_chemical_formula_sum   'Cu28 Ni8 C12'
_cell_volume   1478.15698321
_cell_formula_units_Z   4
loop_
 _symmetry_equiv_pos_site_id
 _symmetry_equiv_pos_as_xyz
  1  'x, y, z'
loop_
 _atom_site_type_symbol
 _atom_site_label
 _atom_site_symmetry_multiplicity
 _atom_site_fract_x
 _atom_site_fract_y
 _atom_site_fract_z
 _atom_site_occupancy
  C  C0  1  0.61196100  0.98421000  0.66882800  1
  C  C1  1  0.01579000  0.38803900  0.83117200  1
  C  C2  1  0.38803900  0.01579000  0.33117200  1
  C  C3  1  0.98421000  0.61196100  0.16882800  1
  C  C4  1  0.97017100  0.03893100  0.14191200  1
  C  C5  1  0.96106900  0.02982900  0.35808800  1
  C  C6  1  0.02982900  0.96106900  0.85808800  1
  C  C7  1  0.03893100  0.97017100  0.64191200  1
  C  C8  1  0.16608700  0.49910100  0.50154800  1
  C  C9  1  0.50089900  0.83391300  0.99845200  1
  C  C10  1  0.83391300  0.50089900  0.49845200  1
  C  C11  1  0.49910100  0.16608700  0.00154800  1
  Ni  Ni12  1  0.43318900  0.46537300  0.54305300  1
  Ni  Ni13  1  0.53462700  0.56681100  0.95694700  1
  Ni  Ni14  1  0.56681100  0.53462700  0.45694700  1
  Ni  Ni15  1  0.46537300  0.43318900  0.04305300  1
  Ni  Ni16  1  0.08623300  0.27082300  0.64179200  1
  Ni  Ni17  1  0.72917700  0.91376700  0.85820800  1
  Ni  Ni18  1  0.91376700  0.72917700  0.35820800  1
  Ni  Ni19  1  0.27082300  0.08623300  0.14179200  1
  Cu  Cu20  1  0.10093800  0.75255500  0.53108500  1
  Cu  Cu21  1  0.24744500  0.89906200  0.96891500  1
  Cu  Cu22  1  0.89906200  0.24744500  0.46891500  1
  Cu  Cu23  1  0.75255500  0.10093800  0.03108500  1
  Cu  Cu24  1  0.56263100  0.22331000  0.49961600  1
  Cu  Cu25  1  0.77669000  0.43736900  0.00038400  1
  Cu  Cu26  1  0.43736900  0.77669000  0.50038400  1
  Cu  Cu27  1  0.22331000  0.56263100  0.99961600  1
  Cu  Cu28  1  0.22496700  0.20900300  0.52374400  1
  Cu  Cu29  1  0.79099700  0.77503300  0.97625600  1
  Cu  Cu30  1  0.77503300  0.79099700  0.47625600  1
  Cu  Cu31  1  0.20900300  0.22496700  0.02374400  1
  Cu  Cu32  1  0.06882500  0.46756700  0.64835900  1
  Cu  Cu33  1  0.53243300  0.93117500  0.85164100  1
  Cu  Cu34  1  0.93117500  0.53243300  0.35164100  1
  Cu  Cu35  1  0.46756700  0.06882500  0.14835900  1
  Cu  Cu36  1  0.21802800  0.55504300  0.35432800  1
  Cu  Cu37  1  0.44495700  0.78197200  0.14567200  1
  Cu  Cu38  1  0.78197200  0.44495700  0.64567200  1
  Cu  Cu39  1  0.55504300  0.21802800  0.85432800  1
  Cu  Cu40  1  0.49637300  0.38518000  0.65087600  1
  Cu  Cu41  1  0.61482000  0.50362700  0.84912400  1
  Cu  Cu42  1  0.50362700  0.61482000  0.34912400  1
  Cu  Cu43  1  0.38518000  0.49637300  0.15087600  1
  Cu  Cu44  1  0.72301800  0.00528400  0.28247800  1
  Cu  Cu45  1  0.99471600  0.27698200  0.21752200  1
  Cu  Cu46  1  0.27698200  0.99471600  0.71752200  1
  Cu  Cu47  1  0.00528400  0.72301800  0.78247800  1
