# generated using pymatgen
data_Cu5Ni4C5
_symmetry_space_group_name_H-M   'P 1'
_cell_length_a   9.70787834
_cell_length_b   9.70787834
_cell_length_c   12.57779153
_cell_angle_alpha   89.72117414
_cell_angle_beta   89.72117414
_cell_angle_gamma   140.02113959
_symmetry_Int_Tables_number   1
_chemical_formula_structural   Cu5Ni4C5
_chemical_formula_sum   'Cu10 Ni8 C10'
_cell_volume   761.52733368
_cell_formula_units_Z   2
loop_
 _symmetry_equiv_pos_site_id
 _symmetry_equiv_pos_as_xyz
  1  'x, y, z'
loop_
 _atom_site_type_symbol
 _atom_site_label
 _atom_site_symmetry_multiplicity
 _atom_site_fract_x
 _atom_site_fract_y
 _atom_site_fract_z
 _atom_site_occupancy
  C  C0  1  0.95005300  0.54774600  0.80507900  1
  C  C1  1  0.54774600  0.95005300  0.30507900  1
  C  C2  1  0.26000400  0.37364100  0.10785000  1
  C  C3  1  0.37364100  0.26000400  0.60785000  1
  C  C4  1  0.61087700  0.47409100  0.09556400  1
  C  C5  1  0.47409100  0.61087700  0.59556400  1
  C  C6  1  0.36411600  0.30011800  0.27719600  1
  C  C7  1  0.30011800  0.36411600  0.77719600  1
  C  C8  1  0.21432500  0.05866200  0.09808600  1
  C  C9  1  0.05866200  0.21432500  0.59808600  1
  Ni  Ni10  1  0.14131300  0.58774100  0.93633200  1
  Ni  Ni11  1  0.58774100  0.14131300  0.43633200  1
  Ni  Ni12  1  0.10670900  0.63857700  0.64049900  1
  Ni  Ni13  1  0.63857700  0.10670900  0.14049900  1
  Ni  Ni14  1  0.60850800  0.19862600  0.81205700  1
  Ni  Ni15  1  0.19862600  0.60850800  0.31205700  1
  Ni  Ni16  1  0.93388700  0.76915000  0.83350400  1
  Ni  Ni17  1  0.76915000  0.93388700  0.33350400  1
  Cu  Cu18  1  0.71958400  0.94585400  0.91481800  1
  Cu  Cu19  1  0.94585400  0.71958400  0.41481800  1
  Cu  Cu20  1  0.50234300  0.53664500  0.06139400  1
  Cu  Cu21  1  0.53664500  0.50234300  0.56139400  1
  Cu  Cu22  1  0.60250800  0.46477500  0.22551100  1
  Cu  Cu23  1  0.46477500  0.60250800  0.72551100  1
  Cu  Cu24  1  0.22206300  0.06680100  0.22784300  1
  Cu  Cu25  1  0.06680100  0.22206300  0.72784300  1
  Cu  Cu26  1  0.12134100  0.13794200  0.06396700  1
  Cu  Cu27  1  0.13794200  0.12134100  0.56396700  1
