# generated using pymatgen
data_Cu54Ni4C13
_symmetry_space_group_name_H-M   'P 1'
_cell_length_a   13.94756782
_cell_length_b   14.38268754
_cell_length_c   14.38268754
_cell_angle_alpha   119.99999799
_cell_angle_beta   90.00000000
_cell_angle_gamma   90.00000000
_symmetry_Int_Tables_number   1
_chemical_formula_structural   Cu54Ni4C13
_chemical_formula_sum   'Cu108 Ni8 C26'
_cell_volume   2498.67179053
_cell_formula_units_Z   2
loop_
 _symmetry_equiv_pos_site_id
 _symmetry_equiv_pos_as_xyz
  1  'x, y, z'
loop_
 _atom_site_type_symbol
 _atom_site_label
 _atom_site_symmetry_multiplicity
 _atom_site_fract_x
 _atom_site_fract_y
 _atom_site_fract_z
 _atom_site_occupancy
  C  C0  1  0.94641532  0.79343691  0.20656309  1
  C  C1  1  0.05358468  0.20656309  0.79343691  1
  C  C2  1  0.94641532  0.41312618  0.20656309  1
  C  C3  1  0.44641532  0.20656309  0.79343691  1
  C  C4  1  0.05358468  0.58687382  0.79343691  1
  C  C5  1  0.55358468  0.79343691  0.20656309  1
  C  C6  1  0.94641532  0.79343691  0.58687382  1
  C  C7  1  0.44641532  0.58687382  0.79343691  1
  C  C8  1  0.05358468  0.20656309  0.41312618  1
  C  C9  1  0.55358468  0.41312618  0.20656309  1
  C  C10  1  0.44641532  0.20656309  0.41312618  1
  C  C11  1  0.55358468  0.79343691  0.58687382  1
  C  C12  1  0.75000000  0.45813943  0.54186057  1
  C  C13  1  0.25000000  0.54186057  0.45813943  1
  C  C14  1  0.75000000  0.08372113  0.54186057  1
  C  C15  1  0.25000000  0.91627887  0.45813943  1
  C  C16  1  0.75000000  0.45813943  0.91627887  1
  C  C17  1  0.25000000  0.54186057  0.08372113  1
  C  C18  1  0.75000000  0.12586553  0.87413447  1
  C  C19  1  0.25000000  0.87413447  0.12586553  1
  C  C20  1  0.75000000  0.74826894  0.87413447  1
  C  C21  1  0.25000000  0.25173106  0.12586553  1
  C  C22  1  0.75000000  0.12586553  0.25173106  1
  C  C23  1  0.25000000  0.87413447  0.74826894  1
  C  C24  1  -0.00000000  0.00000000  0.00000000  1
  C  C25  1  0.50000000  0.00000000  0.00000000  1
  Ni  Ni26  1  0.25000000  0.66666700  0.33333300  1
  Ni  Ni27  1  0.75000000  0.33333300  0.66666700  1
  Ni  Ni28  1  -0.00000000  0.50000000  0.50000000  1
  Ni  Ni29  1  -0.00000000  0.00000000  0.50000000  1
  Ni  Ni30  1  0.50000000  0.50000000  0.50000000  1
  Ni  Ni31  1  -0.00000000  0.50000000  0.00000000  1
  Ni  Ni32  1  0.50000000  0.00000000  0.50000000  1
  Ni  Ni33  1  0.50000000  0.50000000  0.00000000  1
  Cu  Cu34  1  0.94613833  0.39607937  0.60392063  1
  Cu  Cu35  1  0.05386167  0.60392063  0.39607937  1
  Cu  Cu36  1  0.94613833  0.20784126  0.60392063  1
  Cu  Cu37  1  0.44613833  0.60392063  0.39607937  1
  Cu  Cu38  1  0.05386167  0.79215874  0.39607937  1
  Cu  Cu39  1  0.55386167  0.39607937  0.60392063  1
  Cu  Cu40  1  0.94613833  0.39607937  0.79215874  1
  Cu  Cu41  1  0.44613833  0.79215874  0.39607937  1
  Cu  Cu42  1  0.05386167  0.60392063  0.20784126  1
  Cu  Cu43  1  0.55386167  0.20784126  0.60392063  1
  Cu  Cu44  1  0.44613833  0.60392063  0.20784126  1
  Cu  Cu45  1  0.55386167  0.39607937  0.79215874  1
  Cu  Cu46  1  0.34285819  0.76724121  0.23275879  1
  Cu  Cu47  1  0.65714181  0.23275879  0.76724121  1
  Cu  Cu48  1  0.34285819  0.46551757  0.23275879  1
  Cu  Cu49  1  0.84285819  0.23275879  0.76724121  1
  Cu  Cu50  1  0.65714181  0.53448243  0.76724121  1
  Cu  Cu51  1  0.15714181  0.76724121  0.23275879  1
  Cu  Cu52  1  0.34285819  0.76724121  0.53448243  1
  Cu  Cu53  1  0.84285819  0.53448243  0.76724121  1
  Cu  Cu54  1  0.65714181  0.23275879  0.46551757  1
  Cu  Cu55  1  0.15714181  0.46551757  0.23275879  1
  Cu  Cu56  1  0.84285819  0.23275879  0.46551757  1
  Cu  Cu57  1  0.15714181  0.76724121  0.53448243  1
  Cu  Cu58  1  -0.00000000  0.79991598  0.79991598  1
  Cu  Cu59  1  -0.00000000  0.20008402  0.20008402  1
  Cu  Cu60  1  -0.00000000  0.00000000  0.20008402  1
  Cu  Cu61  1  0.50000000  0.20008402  0.20008402  1
  Cu  Cu62  1  -0.00000000  1.00000000  0.79991598  1
  Cu  Cu63  1  0.50000000  0.79991598  0.79991598  1
  Cu  Cu64  1  -0.00000000  0.20008402  0.00000000  1
  Cu  Cu65  1  0.50000000  1.00000000  0.79991598  1
  Cu  Cu66  1  -0.00000000  0.79991598  1.00000000  1
  Cu  Cu67  1  0.50000000  0.00000000  0.20008402  1
  Cu  Cu68  1  0.50000000  0.79991598  1.00000000  1
  Cu  Cu69  1  0.50000000  0.20008402  0.00000000  1
  Cu  Cu70  1  0.75000000  0.73097858  0.26902142  1
  Cu  Cu71  1  0.25000000  0.26902142  0.73097858  1
  Cu  Cu72  1  0.75000000  0.53804284  0.26902142  1
  Cu  Cu73  1  0.25000000  0.46195716  0.73097858  1
  Cu  Cu74  1  0.75000000  0.73097858  0.46195716  1
  Cu  Cu75  1  0.25000000  0.26902142  0.53804284  1
  Cu  Cu76  1  0.75000000  0.91705799  0.28129880  1
  Cu  Cu77  1  0.25000000  0.08294201  0.71870120  1
  Cu  Cu78  1  0.75000000  0.36424082  0.08294201  1
  Cu  Cu79  1  0.25000000  0.63575918  0.71870120  1
  Cu  Cu80  1  0.25000000  0.63575918  0.91705799  1
  Cu  Cu81  1  0.75000000  0.36424082  0.28129880  1
  Cu  Cu82  1  0.75000000  0.71870120  0.63575918  1
  Cu  Cu83  1  0.25000000  0.28129880  0.91705799  1
  Cu  Cu84  1  0.25000000  0.28129880  0.36424082  1
  Cu  Cu85  1  0.75000000  0.71870120  0.08294201  1
  Cu  Cu86  1  0.25000000  0.08294201  0.36424082  1
  Cu  Cu87  1  0.75000000  0.91705799  0.63575918  1
  Cu  Cu88  1  0.89688357  0.63917871  0.67486401  1
  Cu  Cu89  1  0.10311643  0.36082129  0.32513599  1
  Cu  Cu90  1  0.89688357  0.03568530  0.36082129  1
  Cu  Cu91  1  0.39688357  0.36082129  0.32513599  1
  Cu  Cu92  1  0.10311643  0.96431470  0.32513599  1
  Cu  Cu93  1  0.10311643  0.96431470  0.63917871  1
  Cu  Cu94  1  0.60311643  0.63917871  0.67486401  1
  Cu  Cu95  1  0.89688357  0.03568530  0.67486401  1
  Cu  Cu96  1  0.89688357  0.32513599  0.96431470  1
  Cu  Cu97  1  0.39688357  0.96431470  0.63917871  1
  Cu  Cu98  1  0.10311643  0.67486401  0.63917871  1
  Cu  Cu99  1  0.10311643  0.67486401  0.03568530  1
  Cu  Cu100  1  0.60311643  0.03568530  0.36082129  1
  Cu  Cu101  1  0.89688357  0.32513599  0.36082129  1
  Cu  Cu102  1  0.60311643  0.03568530  0.67486401  1
  Cu  Cu103  1  0.39688357  0.96431470  0.32513599  1
  Cu  Cu104  1  0.39688357  0.67486401  0.03568530  1
  Cu  Cu105  1  0.60311643  0.32513599  0.36082129  1
  Cu  Cu106  1  0.60311643  0.32513599  0.96431470  1
  Cu  Cu107  1  0.39688357  0.67486401  0.63917871  1
  Cu  Cu108  1  0.10311643  0.36082129  0.03568530  1
  Cu  Cu109  1  0.89688357  0.63917871  0.96431470  1
  Cu  Cu110  1  0.60311643  0.63917871  0.96431470  1
  Cu  Cu111  1  0.39688357  0.36082129  0.03568530  1
  Cu  Cu112  1  0.90196133  0.66666700  0.33333300  1
  Cu  Cu113  1  0.09803867  0.33333300  0.66666700  1
  Cu  Cu114  1  0.40196133  0.33333300  0.66666700  1
  Cu  Cu115  1  0.59803867  0.66666700  0.33333300  1
  Cu  Cu116  1  0.35222311  0.43594787  0.56405213  1
  Cu  Cu117  1  0.64777689  0.56405213  0.43594787  1
  Cu  Cu118  1  0.35222311  0.12810425  0.56405213  1
  Cu  Cu119  1  0.85222311  0.56405213  0.43594787  1
  Cu  Cu120  1  0.64777689  0.87189575  0.43594787  1
  Cu  Cu121  1  0.14777689  0.43594787  0.56405213  1
  Cu  Cu122  1  0.35222311  0.43594787  0.87189575  1
  Cu  Cu123  1  0.85222311  0.87189575  0.43594787  1
  Cu  Cu124  1  0.64777689  0.56405213  0.12810425  1
  Cu  Cu125  1  0.14777689  0.12810425  0.56405213  1
  Cu  Cu126  1  0.85222311  0.56405213  0.12810425  1
  Cu  Cu127  1  0.14777689  0.43594787  0.87189575  1
  Cu  Cu128  1  0.84304733  0.90479459  0.09520541  1
  Cu  Cu129  1  0.15695267  0.09520541  0.90479459  1
  Cu  Cu130  1  0.84304733  0.19041082  0.09520541  1
  Cu  Cu131  1  0.34304733  0.09520541  0.90479459  1
  Cu  Cu132  1  0.15695267  0.80958918  0.90479459  1
  Cu  Cu133  1  0.65695267  0.90479459  0.09520541  1
  Cu  Cu134  1  0.84304733  0.90479459  0.80958918  1
  Cu  Cu135  1  0.34304733  0.80958918  0.90479459  1
  Cu  Cu136  1  0.15695267  0.09520541  0.19041082  1
  Cu  Cu137  1  0.65695267  0.19041082  0.09520541  1
  Cu  Cu138  1  0.34304733  0.09520541  0.19041082  1
  Cu  Cu139  1  0.65695267  0.90479459  0.80958918  1
  Cu  Cu140  1  0.75000000  0.00000000  0.00000000  1
  Cu  Cu141  1  0.25000000  0.00000000  0.00000000  1
