# generated using pymatgen
data_Cu3NiC7
_symmetry_space_group_name_H-M   'P 1'
_cell_length_a   9.60261000
_cell_length_b   9.70064100
_cell_length_c   9.95465900
_cell_angle_alpha   90.00000000
_cell_angle_beta   90.00000000
_cell_angle_gamma   90.00000000
_symmetry_Int_Tables_number   1
_chemical_formula_structural   Cu3NiC7
_chemical_formula_sum   'Cu24 Ni8 C56'
_cell_volume   927.29114183
_cell_formula_units_Z   8
loop_
 _symmetry_equiv_pos_site_id
 _symmetry_equiv_pos_as_xyz
  1  'x, y, z'
loop_
 _atom_site_type_symbol
 _atom_site_label
 _atom_site_symmetry_multiplicity
 _atom_site_fract_x
 _atom_site_fract_y
 _atom_site_fract_z
 _atom_site_occupancy
  C  C0  1  0.14742600  0.51200200  0.18249800  1
  C  C1  1  0.35257400  0.48799800  0.68249800  1
  C  C2  1  0.85257400  0.01200200  0.31750200  1
  C  C3  1  0.64742600  0.98799800  0.81750200  1
  C  C4  1  0.39751000  0.25651300  0.13726000  1
  C  C5  1  0.10249000  0.74348700  0.63726000  1
  C  C6  1  0.60249000  0.75651300  0.36274000  1
  C  C7  1  0.89751000  0.24348700  0.86274000  1
  Ni  Ni8  1  0.41711200  0.47942000  0.36162400  1
  Ni  Ni9  1  0.08288800  0.52058000  0.86162400  1
  Ni  Ni10  1  0.58288800  0.97942000  0.13837600  1
  Ni  Ni11  1  0.91711200  0.02058000  0.63837600  1
  Ni  Ni12  1  0.07642700  0.19987000  0.14297100  1
  Ni  Ni13  1  0.42357300  0.80013000  0.64297100  1
  Ni  Ni14  1  0.92357300  0.69987000  0.35702900  1
  Ni  Ni15  1  0.57642700  0.30013000  0.85702900  1
  Cu  Cu16  1  0.46984100  0.21986100  0.43817300  1
  Cu  Cu17  1  0.03015900  0.78013900  0.93817300  1
  Cu  Cu18  1  0.53015900  0.71986100  0.06182700  1
  Cu  Cu19  1  0.96984100  0.28013900  0.56182700  1
  Cu  Cu20  1  0.32951900  0.24126900  0.59746200  1
  Cu  Cu21  1  0.17048100  0.75873100  0.09746200  1
  Cu  Cu22  1  0.67048100  0.74126900  0.90253800  1
  Cu  Cu23  1  0.82951900  0.25873100  0.40253800  1
  Cu  Cu24  1  0.48383900  0.04959700  0.47648600  1
  Cu  Cu25  1  0.01616100  0.95040300  0.97648600  1
  Cu  Cu26  1  0.51616100  0.54959700  0.02351400  1
  Cu  Cu27  1  0.98383900  0.45040300  0.52351400  1
  Cu  Cu28  1  0.02658200  0.33550000  0.40221300  1
  Cu  Cu29  1  0.47341800  0.66450000  0.90221300  1
  Cu  Cu30  1  0.97341800  0.83550000  0.09778700  1
  Cu  Cu31  1  0.52658200  0.16450000  0.59778700  1
  Cu  Cu32  1  0.12438700  0.34753500  0.54540500  1
  Cu  Cu33  1  0.37561300  0.65246500  0.04540500  1
  Cu  Cu34  1  0.87561300  0.84753500  0.95459500  1
  Cu  Cu35  1  0.62438700  0.15246500  0.45459500  1
  Cu  Cu36  1  0.21230100  0.56873000  0.49259600  1
  Cu  Cu37  1  0.28769900  0.43127000  0.99259600  1
  Cu  Cu38  1  0.78769900  0.06873000  0.00740400  1
  Cu  Cu39  1  0.71230100  0.93127000  0.50740400  1
  C  C40  1  0.02247100  0.35370300  0.50543000  1
  C  C41  1  0.47752900  0.64629700  0.00543000  1
  C  C42  1  0.97752900  0.85370300  0.99457000  1
  C  C43  1  0.52247100  0.14629700  0.49457000  1
  C  C44  1  0.26056700  0.51285500  0.33931700  1
  C  C45  1  0.23943300  0.48714500  0.83931700  1
  C  C46  1  0.73943300  0.01285500  0.16068300  1
  C  C47  1  0.76056700  0.98714500  0.66068300  1
  C  C48  1  0.29311000  0.09336800  0.75740600  1
  C  C49  1  0.20689000  0.90663200  0.25740600  1
  C  C50  1  0.70689000  0.59336800  0.74259400  1
  C  C51  1  0.79311000  0.40663200  0.24259400  1
  C  C52  1  0.99941400  0.08813600  0.22122400  1
  C  C53  1  0.50058600  0.91186400  0.72122400  1
  C  C54  1  0.00058600  0.58813600  0.27877600  1
  C  C55  1  0.49941400  0.41186400  0.77877600  1
  C  C56  1  0.05998500  0.33929500  0.21981100  1
  C  C57  1  0.44001500  0.66070500  0.71981100  1
  C  C58  1  0.94001500  0.83929500  0.28018900  1
  C  C59  1  0.55998500  0.16070500  0.78018900  1
  C  C60  1  0.48707100  0.09315200  0.19082100  1
  C  C61  1  0.01292900  0.90684800  0.69082100  1
  C  C62  1  0.51292900  0.59315200  0.30917900  1
  C  C63  1  0.98707100  0.40684800  0.80917900  1
  C  C64  1  0.05611900  0.54059700  0.01434700  1
  C  C65  1  0.44388100  0.45940300  0.51434700  1
  C  C66  1  0.94388100  0.04059700  0.48565300  1
  C  C67  1  0.55611900  0.95940300  0.98565300  1
  C  C68  1  0.01898900  0.21147200  0.99887100  1
  C  C69  1  0.48101100  0.78852800  0.49887100  1
  C  C70  1  0.98101100  0.71147200  0.50112900  1
  C  C71  1  0.51898900  0.28852800  0.00112900  1
  C  C72  1  0.22978400  0.68513200  0.12950600  1
  C  C73  1  0.27021600  0.31486800  0.62950600  1
  C  C74  1  0.77021600  0.18513200  0.37049400  1
  C  C75  1  0.72978400  0.81486800  0.87049400  1
  C  C76  1  0.45047200  0.33824300  0.29434700  1
  C  C77  1  0.04952800  0.66175700  0.79434700  1
  C  C78  1  0.54952800  0.83824300  0.20565300  1
  C  C79  1  0.95047200  0.16175700  0.70565300  1
  C  C80  1  0.29538700  0.41740400  0.09138200  1
  C  C81  1  0.20461300  0.58259600  0.59138200  1
  C  C82  1  0.70461300  0.91740400  0.40861800  1
  C  C83  1  0.79538700  0.08259600  0.90861800  1
  C  C84  1  0.23295500  0.15889000  0.13709100  1
  C  C85  1  0.26704500  0.84111000  0.63709100  1
  C  C86  1  0.76704500  0.65889000  0.36290900  1
  C  C87  1  0.73295500  0.34111000  0.86290900  1
