# generated using pymatgen
data_CuNiC11
_symmetry_space_group_name_H-M   'P 1'
_cell_length_a   8.00682500
_cell_length_b   7.71439600
_cell_length_c   10.10131924
_cell_angle_alpha   112.44837983
_cell_angle_beta   90.00000000
_cell_angle_gamma   90.00000000
_symmetry_Int_Tables_number   1
_chemical_formula_structural   CuNiC11
_chemical_formula_sum   'Cu2 Ni2 C22'
_cell_volume   576.65700550
_cell_formula_units_Z   2
loop_
 _symmetry_equiv_pos_site_id
 _symmetry_equiv_pos_as_xyz
  1  'x, y, z'
loop_
 _atom_site_type_symbol
 _atom_site_label
 _atom_site_symmetry_multiplicity
 _atom_site_fract_x
 _atom_site_fract_y
 _atom_site_fract_z
 _atom_site_occupancy
  Ni  Ni0  1  0.10485600  0.62460400  0.24920900  1
  Ni  Ni1  1  0.60485600  0.37539600  0.75079100  1
  Cu  Cu2  1  0.11541100  0.91030200  0.82060300  1
  Cu  Cu3  1  0.61541100  0.08969800  0.17939700  1
  C  C4  1  0.79075300  0.81209200  0.62418300  1
  C  C5  1  0.29075300  0.18790800  0.37581700  1
  C  C6  1  0.97408100  0.10482300  0.86592900  1
  C  C7  1  0.97408100  0.76110600  0.86592900  1
  C  C8  1  0.47408100  0.89517700  0.13407100  1
  C  C9  1  0.47408100  0.23889400  0.13407100  1
  C  C10  1  0.15807300  0.66368100  0.64911600  1
  C  C11  1  0.15807300  0.98543500  0.64911600  1
  C  C12  1  0.65807300  0.33631900  0.35088400  1
  C  C13  1  0.65807300  0.01456500  0.35088400  1
  C  C14  1  0.09220700  0.32784400  0.25099700  1
  C  C15  1  0.09220700  0.92315300  0.25099700  1
  C  C16  1  0.59220700  0.67215600  0.74900300  1
  C  C17  1  0.59220700  0.07684700  0.74900300  1
  C  C18  1  0.84571300  0.57391400  0.14782800  1
  C  C19  1  0.34571300  0.42608600  0.85217200  1
  C  C20  1  0.36397200  0.67284100  0.34568200  1
  C  C21  1  0.86397200  0.32715900  0.65431800  1
  C  C22  1  0.79298400  0.75138900  0.50277800  1
  C  C23  1  0.29298400  0.24861100  0.49722200  1
  C  C24  1  0.29298800  0.96393300  0.92786500  1
  C  C25  1  0.79298800  0.03606700  0.07213500  1
