# generated using pymatgen
data_Cu5NiC12
_symmetry_space_group_name_H-M   'P 1'
_cell_length_a   10.10891580
_cell_length_b   7.51398400
_cell_length_c   12.44256900
_cell_angle_alpha   90.00000000
_cell_angle_beta   84.95373778
_cell_angle_gamma   90.00000000
_symmetry_Int_Tables_number   1
_chemical_formula_structural   Cu5NiC12
_chemical_formula_sum   'Cu20 Ni4 C48'
_cell_volume   941.45227061
_cell_formula_units_Z   4
loop_
 _symmetry_equiv_pos_site_id
 _symmetry_equiv_pos_as_xyz
  1  'x, y, z'
loop_
 _atom_site_type_symbol
 _atom_site_label
 _atom_site_symmetry_multiplicity
 _atom_site_fract_x
 _atom_site_fract_y
 _atom_site_fract_z
 _atom_site_occupancy
  Ni  Ni0  1  0.26495100  0.26019900  0.96069700  1
  Ni  Ni1  1  0.73504900  0.76019900  0.53930300  1
  Ni  Ni2  1  0.73504900  0.73980100  0.03930300  1
  Ni  Ni3  1  0.26495100  0.23980100  0.46069700  1
  Cu  Cu4  1  0.77242400  0.18612800  0.84773400  1
  Cu  Cu5  1  0.22757600  0.68612800  0.65226600  1
  Cu  Cu6  1  0.22757600  0.81387200  0.15226600  1
  Cu  Cu7  1  0.77242400  0.31387200  0.34773400  1
  Cu  Cu8  1  0.52691500  0.24648400  0.85590700  1
  Cu  Cu9  1  0.47308500  0.74648400  0.64409300  1
  Cu  Cu10  1  0.47308500  0.75351600  0.14409300  1
  Cu  Cu11  1  0.52691500  0.25351600  0.35590700  1
  Cu  Cu12  1  0.60449500  0.93940600  0.87949600  1
  Cu  Cu13  1  0.39550500  0.43940600  0.62050400  1
  Cu  Cu14  1  0.39550500  0.06059400  0.12050400  1
  Cu  Cu15  1  0.60449500  0.56059400  0.37949600  1
  Cu  Cu16  1  0.98422100  0.22884500  0.92603200  1
  Cu  Cu17  1  0.01577900  0.72884500  0.57396800  1
  Cu  Cu18  1  0.01577900  0.77115500  0.07396800  1
  Cu  Cu19  1  0.98422100  0.27115500  0.42603200  1
  Cu  Cu20  1  0.98570100  0.15891000  0.73694500  1
  Cu  Cu21  1  0.01429900  0.65891000  0.76305500  1
  Cu  Cu22  1  0.01429900  0.84109000  0.26305500  1
  Cu  Cu23  1  0.98570100  0.34109000  0.23694500  1
  C  C24  1  0.65602300  0.30193200  0.84365800  1
  C  C25  1  0.34397700  0.80193200  0.65634200  1
  C  C26  1  0.34397700  0.69806800  0.15634200  1
  C  C27  1  0.65602300  0.19806800  0.34365800  1
  C  C28  1  0.73245300  0.00049100  0.87114400  1
  C  C29  1  0.26754700  0.50049100  0.62885600  1
  C  C30  1  0.26754700  0.99950900  0.12885600  1
  C  C31  1  0.73245300  0.49950900  0.37114400  1
  C  C32  1  0.85119900  0.24224900  0.93659200  1
  C  C33  1  0.14880100  0.74224900  0.56340800  1
  C  C34  1  0.14880100  0.75775100  0.06340800  1
  C  C35  1  0.85119900  0.25775100  0.43659200  1
  C  C36  1  0.85300800  0.18360200  0.74183000  1
  C  C37  1  0.14699200  0.68360200  0.75817000  1
  C  C38  1  0.14699200  0.81639800  0.25817000  1
  C  C39  1  0.85300800  0.31639800  0.24183000  1
  C  C40  1  0.50135800  0.06026700  0.86797400  1
  C  C41  1  0.49864200  0.56026700  0.63202600  1
  C  C42  1  0.49864200  0.93973300  0.13202600  1
  C  C43  1  0.50135800  0.43973300  0.36797400  1
  C  C44  1  0.05688500  0.19545400  0.82611200  1
  C  C45  1  0.94311500  0.69545400  0.67388800  1
  C  C46  1  0.94311500  0.80454600  0.17388800  1
  C  C47  1  0.05688500  0.30454600  0.32611200  1
  C  C48  1  0.42198400  0.36071100  0.85736600  1
  C  C49  1  0.57801600  0.86071100  0.64263400  1
  C  C50  1  0.57801600  0.63928900  0.14263400  1
  C  C51  1  0.42198400  0.13928900  0.35736600  1
  C  C52  1  0.57968600  0.76739800  0.91358800  1
  C  C53  1  0.42031400  0.26739800  0.58641200  1
  C  C54  1  0.42031400  0.23260200  0.08641200  1
  C  C55  1  0.57968600  0.73260200  0.41358800  1
  C  C56  1  0.06242700  0.23059900  0.01301400  1
  C  C57  1  0.93757300  0.73059900  0.48698600  1
  C  C58  1  0.93757300  0.76940100  0.98698600  1
  C  C59  1  0.06242700  0.26940100  0.51301400  1
  C  C60  1  0.05601100  0.07897900  0.64773700  1
  C  C61  1  0.94398900  0.57897900  0.85226300  1
  C  C62  1  0.94398900  0.92102100  0.35226300  1
  C  C63  1  0.05601100  0.42102100  0.14773700  1
  C  C64  1  0.27114800  0.10085300  0.68747700  1
  C  C65  1  0.72885200  0.60085300  0.81252300  1
  C  C66  1  0.72885200  0.89914700  0.31252300  1
  C  C67  1  0.27114800  0.39914700  0.18747700  1
  C  C68  1  0.71070500  0.45364900  0.59325700  1
  C  C69  1  0.28929500  0.95364900  0.90674300  1
  C  C70  1  0.28929500  0.54635100  0.40674300  1
  C  C71  1  0.71070500  0.04635100  0.09325700  1
