# generated using pymatgen
data_Cu4Ni2C15
_symmetry_space_group_name_H-M   'P 1'
_cell_length_a   7.74981326
_cell_length_b   7.74981326
_cell_length_c   10.04150390
_cell_angle_alpha   80.34366516
_cell_angle_beta   80.34366516
_cell_angle_gamma   88.72441891
_symmetry_Int_Tables_number   1
_chemical_formula_structural   Cu4Ni2C15
_chemical_formula_sum   'Cu8 Ni4 C30'
_cell_volume   586.10950183
_cell_formula_units_Z   2
loop_
 _symmetry_equiv_pos_site_id
 _symmetry_equiv_pos_as_xyz
  1  'x, y, z'
loop_
 _atom_site_type_symbol
 _atom_site_label
 _atom_site_symmetry_multiplicity
 _atom_site_fract_x
 _atom_site_fract_y
 _atom_site_fract_z
 _atom_site_occupancy
  C  C0  1  0.50000000  0.00000000  0.00000000  1
  C  C1  1  0.00000000  0.50000000  0.50000000  1
  Ni  Ni2  1  0.44706000  0.55294000  0.75000000  1
  Ni  Ni3  1  0.55294000  0.44706000  0.25000000  1
  Ni  Ni4  1  0.00000000  0.00000000  0.00000000  1
  Ni  Ni5  1  0.00000000  0.00000000  0.50000000  1
  Cu  Cu6  1  0.63433000  0.25210000  0.56046500  1
  Cu  Cu7  1  0.74790000  0.36567000  0.93953500  1
  Cu  Cu8  1  0.36567000  0.74790000  0.43953500  1
  Cu  Cu9  1  0.25210000  0.63433000  0.06046500  1
  Cu  Cu10  1  0.26929400  0.17884500  0.70050000  1
  Cu  Cu11  1  0.82115500  0.73070600  0.79950000  1
  Cu  Cu12  1  0.73070600  0.82115500  0.29950000  1
  Cu  Cu13  1  0.17884500  0.26929400  0.20050000  1
  C  C14  1  0.47833700  0.13817100  0.66261900  1
  C  C15  1  0.86182900  0.52166300  0.83738100  1
  C  C16  1  0.52166300  0.86182900  0.33738100  1
  C  C17  1  0.13817100  0.47833700  0.16261900  1
  C  C18  1  0.80372700  0.16100400  0.59361300  1
  C  C19  1  0.83899600  0.19627300  0.90638700  1
  C  C20  1  0.19627300  0.83899600  0.40638700  1
  C  C21  1  0.16100400  0.80372700  0.09361300  1
  C  C22  1  0.17569100  0.14822300  0.58464700  1
  C  C23  1  0.85177700  0.82430900  0.91535300  1
  C  C24  1  0.82430900  0.85177700  0.41535300  1
  C  C25  1  0.14822300  0.17569100  0.08464700  1
  C  C26  1  0.22250000  0.04951500  0.83448000  1
  C  C27  1  0.95048500  0.77750000  0.66552000  1
  C  C28  1  0.77750000  0.95048500  0.16552000  1
  C  C29  1  0.04951500  0.22250000  0.33448000  1
  C  C30  1  0.25280900  0.37300600  0.71453200  1
  C  C31  1  0.62699400  0.74719100  0.78546800  1
  C  C32  1  0.74719100  0.62699400  0.28546800  1
  C  C33  1  0.37300600  0.25280900  0.21453200  1
  C  C34  1  0.56323500  0.36384900  0.90095000  1
  C  C35  1  0.63615100  0.43676500  0.59905000  1
  C  C36  1  0.43676500  0.63615100  0.09905000  1
  C  C37  1  0.36384900  0.56323500  0.40095000  1
  C  C38  1  0.25319000  0.61190000  0.91279000  1
  C  C39  1  0.38810000  0.74681000  0.58721000  1
  C  C40  1  0.74681000  0.38810000  0.08721000  1
  C  C41  1  0.61190000  0.25319000  0.41279000  1
