# generated using pymatgen
data_Cu(NiC12)3
_symmetry_space_group_name_H-M   'P 1'
_cell_length_a   9.12738100
_cell_length_b   5.37676800
_cell_length_c   9.86001240
_cell_angle_alpha   75.33170251
_cell_angle_beta   90.00000000
_cell_angle_gamma   90.00000000
_symmetry_Int_Tables_number   1
_chemical_formula_structural   Cu(NiC12)3
_chemical_formula_sum   'Cu1 Ni3 C36'
_cell_volume   468.11722124
_cell_formula_units_Z   1
loop_
 _symmetry_equiv_pos_site_id
 _symmetry_equiv_pos_as_xyz
  1  'x, y, z'
loop_
 _atom_site_type_symbol
 _atom_site_label
 _atom_site_symmetry_multiplicity
 _atom_site_fract_x
 _atom_site_fract_y
 _atom_site_fract_z
 _atom_site_occupancy
  Ni  Ni0  1  0.80541500  0.50000000  0.50000000  1
  Ni  Ni1  1  0.30025400  0.00000000  0.00000000  1
  Ni  Ni2  1  0.19461100  0.00000000  0.50000000  1
  Cu  Cu3  1  0.70339300  0.50000000  0.00000000  1
  C  C4  1  0.39280000  0.50000000  0.50000000  1
  C  C5  1  0.60616700  0.00000000  0.50000000  1
  C  C6  1  0.10144200  0.50000000  0.00000000  1
  C  C7  1  0.90172600  0.00000000  0.00000000  1
  C  C8  1  0.08708700  0.70062500  0.28885500  1
  C  C9  1  0.58918300  0.19848200  0.78979400  1
  C  C10  1  0.08708700  0.29937500  0.71114500  1
  C  C11  1  0.58918300  0.80151800  0.21020600  1
  C  C12  1  0.91289200  0.80019900  0.70998400  1
  C  C13  1  0.41020600  0.29925100  0.21082800  1
  C  C14  1  0.91289200  0.19980100  0.29001600  1
  C  C15  1  0.41020600  0.70074900  0.78917200  1
  C  C16  1  0.24720200  0.69839600  0.36018000  1
  C  C17  1  0.74617900  0.20764100  0.86185500  1
  C  C18  1  0.24720200  0.30160400  0.63982000  1
  C  C19  1  0.74617900  0.79235900  0.13814500  1
  C  C20  1  0.75206500  0.80174400  0.64049500  1
  C  C21  1  0.25171100  0.30047400  0.13985800  1
  C  C22  1  0.75206500  0.19825600  0.35950500  1
  C  C23  1  0.25171100  0.69952600  0.86014200  1
  C  C24  1  0.01054700  0.41228900  0.34991000  1
  C  C25  1  0.51275900  0.90876800  0.84998100  1
  C  C26  1  0.01054700  0.58771100  0.65009000  1
  C  C27  1  0.51275900  0.09123200  0.15001900  1
  C  C28  1  0.98951000  0.08671200  0.65090600  1
  C  C29  1  0.49110500  0.58502600  0.14990700  1
  C  C30  1  0.98951000  0.91328800  0.34909400  1
  C  C31  1  0.49110500  0.41497400  0.85009300  1
  C  C32  1  0.08271500  0.77487800  0.11790400  1
  C  C33  1  0.57893000  0.27604300  0.61816100  1
  C  C34  1  0.08271500  0.22512200  0.88209600  1
  C  C35  1  0.57893000  0.72395700  0.38183900  1
  C  C36  1  0.91488300  0.71715800  0.88215800  1
  C  C37  1  0.42012300  0.22300600  0.38220800  1
  C  C38  1  0.91488300  0.28284200  0.11784200  1
  C  C39  1  0.42012300  0.77699400  0.61779200  1
