# generated using pymatgen
data_Cu12Ni4C27
_symmetry_space_group_name_H-M   'P 1'
_cell_length_a   7.56571141
_cell_length_b   7.98841125
_cell_length_c   9.17091800
_cell_angle_alpha   115.84836212
_cell_angle_beta   114.33542772
_cell_angle_gamma   90.14022507
_symmetry_Int_Tables_number   1
_chemical_formula_structural   Cu12Ni4C27
_chemical_formula_sum   'Cu12 Ni4 C27'
_cell_volume   443.14681901
_cell_formula_units_Z   1
loop_
 _symmetry_equiv_pos_site_id
 _symmetry_equiv_pos_as_xyz
  1  'x, y, z'
loop_
 _atom_site_type_symbol
 _atom_site_label
 _atom_site_symmetry_multiplicity
 _atom_site_fract_x
 _atom_site_fract_y
 _atom_site_fract_z
 _atom_site_occupancy
  C  C0  1  0.39165522  0.89107387  0.78274766  1
  C  C1  1  0.00804219  0.50849462  0.01625498  1
  C  C2  1  0.45413245  0.74726776  0.12817994  1
  C  C3  1  0.67518247  0.38348193  0.13024839  1
  C  C4  1  0.29225538  0.23485962  0.80381747  1
  C  C5  1  0.51013352  0.56555467  0.80010535  1
  C  C6  1  0.65652037  0.88881735  0.31117611  1
  C  C7  1  0.65617986  0.42439236  0.31295918  1
  C  C8  1  0.30190272  0.11384631  0.61442422  1
  C  C9  1  0.30886861  0.50008261  0.61269612  1
  C  C10  1  0.67472101  0.74781682  0.12764802  1
  C  C11  1  0.45422682  0.38245766  0.13002056  1
  C  C12  1  0.50776735  0.23386311  0.79845327  1
  C  C13  1  0.29087775  0.56359530  0.79809259  1
  C  C14  1  0.94813842  0.78896487  0.89809760  1
  C  C15  1  0.95036890  0.10946263  0.89849048  1
  C  C16  1  0.05915052  0.20956220  0.11562617  1
  C  C17  1  0.05629269  0.90673991  0.11527777  1
  C  C18  1  0.92354539  0.81752741  0.63528415  1
  C  C19  1  0.71207597  0.81805379  0.63524629  1
  C  C20  1  0.29222819  0.18435390  0.36984105  1
  C  C21  1  0.07771969  0.18428363  0.36966823  1
  C  C22  1  0.56789667  0.06837879  0.13548684  1
  C  C23  1  0.92689238  0.32106938  0.64394914  1
  C  C24  1  0.71708213  0.32063689  0.64362682  1
  C  C25  1  0.30096748  0.69780725  0.39470095  1
  C  C26  1  0.09391250  0.69674692  0.39458300  1
  Ni  Ni27  1  0.58644807  0.83204422  0.17187072  1
  Ni  Ni28  1  0.58654023  0.34196969  0.17357900  1
  Ni  Ni29  1  0.37305124  0.14803458  0.74910284  1
  Ni  Ni30  1  0.37518480  0.59973076  0.74786364  1
  Cu  Cu31  1  0.07984083  0.40304898  0.80277852  1
  Cu  Cu32  1  0.72262599  0.39922551  0.80224929  1
  Cu  Cu33  1  0.30082773  0.62193027  0.24133087  1
  Cu  Cu34  1  0.94056398  0.62016682  0.24108081  1
  Cu  Cu35  1  0.93322816  0.24454384  0.49539683  1
  Cu  Cu36  1  0.56225638  0.24676118  0.49482254  1
  Cu  Cu37  1  0.45286087  0.77547055  0.55017024  1
  Cu  Cu38  1  0.09745585  0.77359703  0.54992538  1
  Cu  Cu39  1  0.00174937  0.77575226  0.00995431  1
  Cu  Cu40  1  0.00810188  0.23493066  0.01037627  1
  Cu  Cu41  1  0.85788673  0.85788640  0.71528739  1
  Cu  Cu42  1  0.14597422  0.14607272  0.29179497  1
