# generated using pymatgen
data_CuNi2C11
_symmetry_space_group_name_H-M   'P 1'
_cell_length_a   3.98807700
_cell_length_b   3.98813900
_cell_length_c   13.16543600
_cell_angle_alpha   90.00000000
_cell_angle_beta   90.00000000
_cell_angle_gamma   90.00000000
_symmetry_Int_Tables_number   1
_chemical_formula_structural   CuNi2C11
_chemical_formula_sum   'Cu1 Ni2 C11'
_cell_volume   209.39633092
_cell_formula_units_Z   1
loop_
 _symmetry_equiv_pos_site_id
 _symmetry_equiv_pos_as_xyz
  1  'x, y, z'
loop_
 _atom_site_type_symbol
 _atom_site_label
 _atom_site_symmetry_multiplicity
 _atom_site_fract_x
 _atom_site_fract_y
 _atom_site_fract_z
 _atom_site_occupancy
  Ni  Ni0  1  0.50000000  0.50000000  0.83070600  1
  Ni  Ni1  1  0.50000000  0.50000000  0.11856300  1
  C  C2  1  0.50000000  0.50000000  0.33703900  1
  Cu  Cu3  1  0.50000000  0.50000000  0.53593000  1
  C  C4  1  0.00000000  0.00000000  0.66657900  1
  C  C5  1  0.00000000  0.00000000  0.36625300  1
  C  C6  1  0.00000000  0.00000000  0.97670200  1
  C  C7  1  0.50000000  0.00000000  0.63263300  1
  C  C8  1  0.00000000  0.50000000  0.63262900  1
  C  C9  1  0.50000000  0.00000000  0.37309500  1
  C  C10  1  0.00000000  0.50000000  0.37309800  1
  C  C11  1  0.00000000  0.50000000  0.00197700  1
  C  C12  1  0.50000000  0.00000000  0.00197400  1
  C  C13  1  0.00000000  0.00000000  0.81971000  1
