# generated using pymatgen
data_Cu2Ni2C13
_symmetry_space_group_name_H-M   'P 1'
_cell_length_a   14.60320788
_cell_length_b   14.60320788
_cell_length_c   14.60320788
_cell_angle_alpha   164.90286601
_cell_angle_beta   164.90286601
_cell_angle_gamma   21.41326413
_symmetry_Int_Tables_number   1
_chemical_formula_structural   Cu2Ni2C13
_chemical_formula_sum   'Cu2 Ni2 C13'
_cell_volume   211.22595368
_cell_formula_units_Z   1
loop_
 _symmetry_equiv_pos_site_id
 _symmetry_equiv_pos_as_xyz
  1  'x, y, z'
loop_
 _atom_site_type_symbol
 _atom_site_label
 _atom_site_symmetry_multiplicity
 _atom_site_fract_x
 _atom_site_fract_y
 _atom_site_fract_z
 _atom_site_occupancy
  Ni  Ni0  1  0.71216600  0.71216600  0.00000000  1
  Ni  Ni1  1  0.28783400  0.28783400  0.00000000  1
  Cu  Cu2  1  0.57538300  0.57538300  0.00000000  1
  Cu  Cu3  1  0.42461700  0.42461700  0.00000000  1
  C  C4  1  0.85397600  0.85397600  0.00000000  1
  C  C5  1  0.14602400  0.14602400  0.00000000  1
  C  C6  1  0.00000000  0.00000000  0.00000000  1
  C  C7  1  0.36923300  0.86923300  0.50000000  1
  C  C8  1  0.86923300  0.36923300  0.50000000  1
  C  C9  1  0.63076700  0.13076700  0.50000000  1
  C  C10  1  0.13076700  0.63076700  0.50000000  1
  C  C11  1  0.79244200  0.79244200  0.00000000  1
  C  C12  1  0.20755800  0.20755800  0.00000000  1
  C  C13  1  0.50000000  0.00000000  0.50000000  1
  C  C14  1  0.06737700  0.06737700  0.00000000  1
  C  C15  1  0.93262300  0.93262300  0.00000000  1
  C  C16  1  0.00000000  0.50000000  0.50000000  1
