# generated using pymatgen
data_Cu2NiC4
_symmetry_space_group_name_H-M   'P 1'
_cell_length_a   3.12187200
_cell_length_b   9.63103500
_cell_length_c   14.29225800
_cell_angle_alpha   90.00000000
_cell_angle_beta   90.00000000
_cell_angle_gamma   90.00000000
_symmetry_Int_Tables_number   1
_chemical_formula_structural   Cu2NiC4
_chemical_formula_sum   'Cu8 Ni4 C16'
_cell_volume   429.72329890
_cell_formula_units_Z   4
loop_
 _symmetry_equiv_pos_site_id
 _symmetry_equiv_pos_as_xyz
  1  'x, y, z'
loop_
 _atom_site_type_symbol
 _atom_site_label
 _atom_site_symmetry_multiplicity
 _atom_site_fract_x
 _atom_site_fract_y
 _atom_site_fract_z
 _atom_site_occupancy
  Ni  Ni0  1  0.25000000  0.74492400  0.37206400  1
  Ni  Ni1  1  0.75000000  0.25507600  0.62793600  1
  Ni  Ni2  1  0.25000000  0.24492400  0.12793600  1
  Ni  Ni3  1  0.75000000  0.75507600  0.87206400  1
  Cu  Cu4  1  0.75000000  0.92547400  0.12185700  1
  Cu  Cu5  1  0.25000000  0.57452600  0.62185700  1
  Cu  Cu6  1  0.75000000  0.42547400  0.37814300  1
  Cu  Cu7  1  0.25000000  0.07452600  0.87814300  1
  Cu  Cu8  1  0.25000000  0.06625600  0.35363000  1
  Cu  Cu9  1  0.75000000  0.93374400  0.64637000  1
  Cu  Cu10  1  0.25000000  0.56625600  0.14637000  1
  Cu  Cu11  1  0.75000000  0.43374400  0.85363000  1
  C  C12  1  0.75000000  0.39670200  0.13114000  1
  C  C13  1  0.25000000  0.60329800  0.86886000  1
  C  C14  1  0.75000000  0.89670200  0.36886000  1
  C  C15  1  0.25000000  0.10329800  0.63114000  1
  C  C16  1  0.75000000  0.53899500  0.71111000  1
  C  C17  1  0.25000000  0.46100500  0.28889000  1
  C  C18  1  0.75000000  0.03899500  0.78889000  1
  C  C19  1  0.25000000  0.96100500  0.21111000  1
  C  C20  1  0.75000000  0.12303600  0.07870700  1
  C  C21  1  0.25000000  0.87696400  0.92129300  1
  C  C22  1  0.75000000  0.62303600  0.42129300  1
  C  C23  1  0.25000000  0.37696400  0.57870700  1
  C  C24  1  0.25000000  0.32679900  0.78392000  1
  C  C25  1  0.75000000  0.67320100  0.21608000  1
  C  C26  1  0.75000000  0.17320100  0.28392000  1
  C  C27  1  0.25000000  0.82679900  0.71608000  1
