# generated using pymatgen
data_CuNi4C7
_symmetry_space_group_name_H-M   'P 1'
_cell_length_a   6.70871468
_cell_length_b   6.70871468
_cell_length_c   11.64519079
_cell_angle_alpha   75.83190721
_cell_angle_beta   75.83190721
_cell_angle_gamma   32.86447389
_symmetry_Int_Tables_number   1
_chemical_formula_structural   CuNi4C7
_chemical_formula_sum   'Cu1 Ni4 C7'
_cell_volume   274.99541259
_cell_formula_units_Z   1
loop_
 _symmetry_equiv_pos_site_id
 _symmetry_equiv_pos_as_xyz
  1  'x, y, z'
loop_
 _atom_site_type_symbol
 _atom_site_label
 _atom_site_symmetry_multiplicity
 _atom_site_fract_x
 _atom_site_fract_y
 _atom_site_fract_z
 _atom_site_occupancy
  Ni  Ni0  1  0.69991900  0.69991900  0.18820700  1
  Ni  Ni1  1  0.30143600  0.30143600  0.81106200  1
  Ni  Ni2  1  0.11626300  0.11626300  0.57717500  1
  Ni  Ni3  1  0.99951900  0.99951900  0.99854600  1
  Cu  Cu4  1  0.88499300  0.88499300  0.42343400  1
  C  C5  1  0.04125800  0.04125800  0.21475100  1
  C  C6  1  0.95812500  0.95812500  0.78480100  1
  C  C7  1  0.73997600  0.73997600  0.65022100  1
  C  C8  1  0.25810900  0.25810900  0.35011600  1
  C  C9  1  0.50018300  0.50018300  0.50111400  1
  C  C10  1  0.34122500  0.34122500  0.05112000  1
  C  C11  1  0.65899200  0.65899200  0.94945300  1
