# generated using pymatgen
data_Cu8Ni2C
_symmetry_space_group_name_H-M   'P 1'
_cell_length_a   7.97220666
_cell_length_b   7.97220666
_cell_length_c   9.27759279
_cell_angle_alpha   126.29330370
_cell_angle_beta   126.29330370
_cell_angle_gamma   79.08012343
_symmetry_Int_Tables_number   1
_chemical_formula_structural   Cu8Ni2C
_chemical_formula_sum   'Cu16 Ni4 C2'
_cell_volume   371.11385492
_cell_formula_units_Z   2
loop_
 _symmetry_equiv_pos_site_id
 _symmetry_equiv_pos_as_xyz
  1  'x, y, z'
loop_
 _atom_site_type_symbol
 _atom_site_label
 _atom_site_symmetry_multiplicity
 _atom_site_fract_x
 _atom_site_fract_y
 _atom_site_fract_z
 _atom_site_occupancy
  C  C0  1  0.73394300  0.26605700  0.25000000  1
  C  C1  1  0.26605700  0.73394300  0.75000000  1
  Ni  Ni2  1  0.89833300  0.65351500  0.67168000  1
  Ni  Ni3  1  0.34648500  0.10166700  0.82832000  1
  Ni  Ni4  1  0.10166700  0.34648500  0.32832000  1
  Ni  Ni5  1  0.65351500  0.89833300  0.17168000  1
  Cu  Cu6  1  0.79193500  0.73807400  0.73654700  1
  Cu  Cu7  1  0.26192600  0.20806500  0.76345300  1
  Cu  Cu8  1  0.20806500  0.26192600  0.26345300  1
  Cu  Cu9  1  0.73807400  0.79193500  0.23654700  1
  Cu  Cu10  1  0.88885900  0.67651600  0.54750300  1
  Cu  Cu11  1  0.32348300  0.11114100  0.95249700  1
  Cu  Cu12  1  0.11114100  0.32348300  0.45249700  1
  Cu  Cu13  1  0.67651600  0.88885900  0.04750300  1
  Cu  Cu14  1  0.76118500  0.46570500  0.97665500  1
  Cu  Cu15  1  0.53429500  0.23881500  0.52334500  1
  Cu  Cu16  1  0.23881500  0.53429500  0.02334500  1
  Cu  Cu17  1  0.46570500  0.76118500  0.47665500  1
  Cu  Cu18  1  0.04445700  0.58531600  0.76106400  1
  Cu  Cu19  1  0.41468400  0.95554300  0.73893600  1
  Cu  Cu20  1  0.95554300  0.41468400  0.23893600  1
  Cu  Cu21  1  0.58531600  0.04445700  0.26106400  1
