# generated using pymatgen
data_Cu(NiC7)2
_symmetry_space_group_name_H-M   'P 1'
_cell_length_a   7.57055000
_cell_length_b   4.79307300
_cell_length_c   10.04142312
_cell_angle_alpha   89.45149652
_cell_angle_beta   90.00000000
_cell_angle_gamma   90.00000000
_symmetry_Int_Tables_number   1
_chemical_formula_structural   Cu(NiC7)2
_chemical_formula_sum   'Cu2 Ni4 C28'
_cell_volume   364.34837956
_cell_formula_units_Z   2
loop_
 _symmetry_equiv_pos_site_id
 _symmetry_equiv_pos_as_xyz
  1  'x, y, z'
loop_
 _atom_site_type_symbol
 _atom_site_label
 _atom_site_symmetry_multiplicity
 _atom_site_fract_x
 _atom_site_fract_y
 _atom_site_fract_z
 _atom_site_occupancy
  C  C0  1  0.60625700  0.00137000  0.82879500  1
  C  C1  1  0.10625700  0.99863000  0.67120500  1
  C  C2  1  0.39374300  0.99863000  0.17120500  1
  C  C3  1  0.89374300  0.00137000  0.32879500  1
  Ni  Ni4  1  0.91302500  0.53417000  0.83451700  1
  Ni  Ni5  1  0.41302500  0.46583000  0.66548300  1
  Ni  Ni6  1  0.08697500  0.46583000  0.16548300  1
  Ni  Ni7  1  0.58697500  0.53417000  0.33451700  1
  Cu  Cu8  1  0.00000000  0.00000000  0.00000000  1
  Cu  Cu9  1  0.50000000  0.00000000  0.50000000  1
  C  C10  1  0.77953000  0.48060100  0.57769300  1
  C  C11  1  0.27953000  0.51939900  0.92230700  1
  C  C12  1  0.22047000  0.51939900  0.42230700  1
  C  C13  1  0.72047000  0.48060100  0.07769300  1
  C  C14  1  0.60652400  0.31363600  0.64168600  1
  C  C15  1  0.10652400  0.68636400  0.85831400  1
  C  C16  1  0.39347600  0.68636400  0.35831400  1
  C  C17  1  0.89347600  0.31363600  0.14168600  1
  C  C18  1  0.41250500  0.79828500  0.66846400  1
  C  C19  1  0.91250500  0.20171500  0.83153600  1
  C  C20  1  0.58749500  0.20171500  0.33153600  1
  C  C21  1  0.21333900  0.32411200  0.04946900  1
  C  C22  1  0.58555100  0.23790600  0.02899200  1
  C  C23  1  0.08555100  0.76209400  0.47100800  1
  C  C24  1  0.84821000  0.69059500  0.69550600  1
  C  C25  1  0.91444900  0.23790600  0.52899200  1
  C  C26  1  0.71333900  0.67588800  0.45053100  1
  C  C27  1  0.41444900  0.76209400  0.97100800  1
  C  C28  1  0.28666100  0.32411200  0.54946900  1
  C  C29  1  0.78666100  0.67588800  0.95053100  1
  C  C30  1  0.65179000  0.69059500  0.19550600  1
  C  C31  1  0.15179000  0.30940500  0.30449400  1
  C  C32  1  0.34821000  0.30940500  0.80449400  1
  C  C33  1  0.08749500  0.79828500  0.16846400  1
