# generated using pymatgen
data_Cu4NiC16
_symmetry_space_group_name_H-M   'P 1'
_cell_length_a   5.95983888
_cell_length_b   6.39964499
_cell_length_c   8.77261600
_cell_angle_alpha   90.00009006
_cell_angle_beta   89.99995254
_cell_angle_gamma   87.58997259
_symmetry_Int_Tables_number   1
_chemical_formula_structural   Cu4NiC16
_chemical_formula_sum   'Cu4 Ni1 C16'
_cell_volume   334.29910308
_cell_formula_units_Z   1
loop_
 _symmetry_equiv_pos_site_id
 _symmetry_equiv_pos_as_xyz
  1  'x, y, z'
loop_
 _atom_site_type_symbol
 _atom_site_label
 _atom_site_symmetry_multiplicity
 _atom_site_fract_x
 _atom_site_fract_y
 _atom_site_fract_z
 _atom_site_occupancy
  C  C0  1  0.96522300  0.99606700  0.75000100  1
  C  C1  1  0.55165300  0.63560400  0.25000000  1
  C  C2  1  0.53008800  0.51807500  0.75000000  1
  C  C3  1  0.97108100  0.03340500  0.24999900  1
  Ni  Ni4  1  0.47036100  0.20589400  0.25000000  1
  Cu  Cu5  1  0.00005600  0.48892700  0.48001600  1
  Cu  Cu6  1  0.45882700  0.97008500  0.56097500  1
  Cu  Cu7  1  0.45882700  0.97008500  0.93902500  1
  Cu  Cu8  1  0.00005600  0.48892700  0.01998400  1
  C  C9  1  0.70232300  0.31516900  0.39457600  1
  C  C10  1  0.11585400  0.11195100  0.53828600  1
  C  C11  1  0.81940200  0.78289500  0.10044200  1
  C  C12  1  0.37468800  0.62994200  0.96998100  1
  C  C13  1  0.37468900  0.62994100  0.53001900  1
  C  C14  1  0.81940100  0.78289500  0.39955800  1
  C  C15  1  0.11585300  0.11195000  0.96171400  1
  C  C16  1  0.70232300  0.31516900  0.10542400  1
  C  C17  1  0.18700800  0.39651500  0.25000100  1
  C  C18  1  0.66898100  0.20206300  0.75000000  1
  C  C19  1  0.33472500  0.93264200  0.25000000  1
  C  C20  1  0.83691000  0.67971900  0.75000000  1
