# generated using pymatgen
data_CuNi2C7
_symmetry_space_group_name_H-M   'P 1'
_cell_length_a   7.37143200
_cell_length_b   5.43560500
_cell_length_c   5.50906285
_cell_angle_alpha   79.06703448
_cell_angle_beta   90.00000000
_cell_angle_gamma   90.00000000
_symmetry_Int_Tables_number   1
_chemical_formula_structural   CuNi2C7
_chemical_formula_sum   'Cu2 Ni4 C14'
_cell_volume   216.73173888
_cell_formula_units_Z   2
loop_
 _symmetry_equiv_pos_site_id
 _symmetry_equiv_pos_as_xyz
  1  'x, y, z'
loop_
 _atom_site_type_symbol
 _atom_site_label
 _atom_site_symmetry_multiplicity
 _atom_site_fract_x
 _atom_site_fract_y
 _atom_site_fract_z
 _atom_site_occupancy
  Ni  Ni0  1  0.75000000  0.46443900  0.57905200  1
  Ni  Ni1  1  0.25000000  0.53556100  0.42094800  1
  Ni  Ni2  1  0.75000000  0.93560300  0.02633800  1
  Ni  Ni3  1  0.25000000  0.06439700  0.97366200  1
  Cu  Cu4  1  0.50000000  0.50000000  0.00000000  1
  Cu  Cu5  1  0.00000000  0.50000000  0.00000000  1
  C  C6  1  0.50000000  0.00000000  0.50000000  1
  C  C7  1  0.00000000  0.00000000  0.50000000  1
  C  C8  1  0.44537600  0.64622100  0.67452300  1
  C  C9  1  0.07204400  0.86406200  0.20954100  1
  C  C10  1  0.94537600  0.35377900  0.32547700  1
  C  C11  1  0.57204400  0.13593800  0.79045900  1
  C  C12  1  0.42795600  0.86406200  0.20954100  1
  C  C13  1  0.92795600  0.13593800  0.79045900  1
  C  C14  1  0.25000000  0.12573400  0.58919700  1
  C  C15  1  0.05462400  0.64622100  0.67452300  1
  C  C16  1  0.75000000  0.59693400  0.91898800  1
  C  C17  1  0.55462400  0.35377900  0.32547700  1
  C  C18  1  0.75000000  0.87426600  0.41080300  1
  C  C19  1  0.25000000  0.40306600  0.08101200  1
