# generated using pymatgen
data_CuNi13C10
_symmetry_space_group_name_H-M   'P 1'
_cell_length_a   5.81194667
_cell_length_b   5.81194667
_cell_length_c   24.18573200
_cell_angle_alpha   90.00000000
_cell_angle_beta   90.00000000
_cell_angle_gamma   119.01423027
_symmetry_Int_Tables_number   1
_chemical_formula_structural   CuNi13C10
_chemical_formula_sum   'Cu2 Ni26 C20'
_cell_volume   714.43369376
_cell_formula_units_Z   2
loop_
 _symmetry_equiv_pos_site_id
 _symmetry_equiv_pos_as_xyz
  1  'x, y, z'
loop_
 _atom_site_type_symbol
 _atom_site_label
 _atom_site_symmetry_multiplicity
 _atom_site_fract_x
 _atom_site_fract_y
 _atom_site_fract_z
 _atom_site_occupancy
  C  C0  1  0.02909900  0.03591800  0.75000000  1
  C  C1  1  0.03591800  0.02909900  0.25000000  1
  C  C2  1  0.66663500  0.33530300  0.54041400  1
  C  C3  1  0.33530300  0.66663500  0.45958600  1
  C  C4  1  0.33530300  0.66663500  0.04041400  1
  C  C5  1  0.66663500  0.33530300  0.95958600  1
  C  C6  1  0.33665700  0.66857000  0.63874400  1
  C  C7  1  0.66857000  0.33665700  0.36125600  1
  C  C8  1  0.66857000  0.33665700  0.13874400  1
  C  C9  1  0.33665700  0.66857000  0.86125600  1
  C  C10  1  0.00051900  0.00051900  0.50000000  1
  C  C11  1  0.00051900  0.00051900  0.00000000  1
  C  C12  1  0.66533000  0.32772300  0.68103400  1
  C  C13  1  0.32772300  0.66533000  0.31896600  1
  C  C14  1  0.32772300  0.66533000  0.18103400  1
  C  C15  1  0.66533000  0.32772300  0.81896600  1
  C  C16  1  0.00260600  0.01287200  0.60451000  1
  C  C17  1  0.01287200  0.00260600  0.39549000  1
  C  C18  1  0.01287200  0.00260600  0.10451000  1
  C  C19  1  0.00260600  0.01287200  0.89549000  1
  Ni  Ni20  1  0.33039600  0.17199500  0.65202800  1
  Ni  Ni21  1  0.84729400  0.16146500  0.64857100  1
  Ni  Ni22  1  0.83762900  0.66007500  0.65906200  1
  Ni  Ni23  1  0.66007500  0.83762900  0.34093800  1
  Ni  Ni24  1  0.16146500  0.84729400  0.35142900  1
  Ni  Ni25  1  0.17199500  0.33039600  0.34797200  1
  Ni  Ni26  1  0.66007500  0.83762900  0.15906200  1
  Ni  Ni27  1  0.16146500  0.84729400  0.14857100  1
  Ni  Ni28  1  0.17199500  0.33039600  0.15202800  1
  Ni  Ni29  1  0.33039600  0.17199500  0.84797200  1
  Ni  Ni30  1  0.84729400  0.16146500  0.85142900  1
  Ni  Ni31  1  0.83762900  0.66007500  0.84093800  1
  Ni  Ni32  1  0.14513300  0.85275100  0.55669700  1
  Ni  Ni33  1  0.14832700  0.31560200  0.54731700  1
  Ni  Ni34  1  0.69471100  0.85387900  0.54940600  1
  Ni  Ni35  1  0.85275100  0.14513300  0.44330300  1
  Ni  Ni36  1  0.85387900  0.69471100  0.45059400  1
  Ni  Ni37  1  0.31560200  0.14832700  0.45268300  1
  Ni  Ni38  1  0.85275100  0.14513300  0.05669700  1
  Ni  Ni39  1  0.85387900  0.69471100  0.04940600  1
  Ni  Ni40  1  0.31560200  0.14832700  0.04731700  1
  Ni  Ni41  1  0.14513300  0.85275100  0.94330300  1
  Ni  Ni42  1  0.14832700  0.31560200  0.95268300  1
  Ni  Ni43  1  0.69471100  0.85387900  0.95059400  1
  Ni  Ni44  1  0.60219400  0.17248500  0.75000000  1
  Ni  Ni45  1  0.17248500  0.60219400  0.25000000  1
  Cu  Cu46  1  0.27222700  0.55413200  0.75000000  1
  Cu  Cu47  1  0.55413200  0.27222700  0.25000000  1
