# generated using pymatgen
data_Cu3Ni2C9
_symmetry_space_group_name_H-M   'P 1'
_cell_length_a   5.99481631
_cell_length_b   7.28581155
_cell_length_c   15.58566400
_cell_angle_alpha   90.00000000
_cell_angle_beta   90.00000000
_cell_angle_gamma   100.77761571
_symmetry_Int_Tables_number   1
_chemical_formula_structural   Cu3Ni2C9
_chemical_formula_sum   'Cu12 Ni8 C36'
_cell_volume   668.72870062
_cell_formula_units_Z   4
loop_
 _symmetry_equiv_pos_site_id
 _symmetry_equiv_pos_as_xyz
  1  'x, y, z'
loop_
 _atom_site_type_symbol
 _atom_site_label
 _atom_site_symmetry_multiplicity
 _atom_site_fract_x
 _atom_site_fract_y
 _atom_site_fract_z
 _atom_site_occupancy
  C  C0  1  0.02604000  0.19239000  0.68184100  1
  C  C1  1  0.97396000  0.30761000  0.18184100  1
  C  C2  1  0.97396000  0.80761000  0.31815900  1
  C  C3  1  0.02604000  0.69239000  0.81815900  1
  C  C4  1  0.22813000  0.78490700  0.60032100  1
  C  C5  1  0.77187000  0.71509300  0.10032100  1
  C  C6  1  0.77187000  0.21509300  0.39967900  1
  C  C7  1  0.22813000  0.28490700  0.89967900  1
  Ni  Ni8  1  0.32557800  0.12481200  0.52576000  1
  Ni  Ni9  1  0.67442200  0.37518800  0.02576000  1
  Ni  Ni10  1  0.67442200  0.87518800  0.47424000  1
  Ni  Ni11  1  0.32557800  0.62481200  0.97424000  1
  Ni  Ni12  1  0.44500700  0.13488000  0.61990600  1
  Ni  Ni13  1  0.55499300  0.36512000  0.11990600  1
  Ni  Ni14  1  0.55499300  0.86512000  0.38009400  1
  Ni  Ni15  1  0.44500700  0.63488000  0.88009400  1
  Cu  Cu16  1  0.70144500  0.78625500  0.65126100  1
  Cu  Cu17  1  0.29855500  0.71374500  0.15126100  1
  Cu  Cu18  1  0.29855500  0.21374500  0.34873900  1
  Cu  Cu19  1  0.70144500  0.28625500  0.84873900  1
  Cu  Cu20  1  0.54813600  0.74482200  0.73264600  1
  Cu  Cu21  1  0.45186400  0.75517800  0.23264600  1
  Cu  Cu22  1  0.45186400  0.25517800  0.26735400  1
  Cu  Cu23  1  0.54813600  0.24482200  0.76735400  1
  Cu  Cu24  1  0.00450100  0.57195300  0.46330700  1
  Cu  Cu25  1  0.99549900  0.92804700  0.96330700  1
  Cu  Cu26  1  0.99549900  0.42804700  0.53669300  1
  Cu  Cu27  1  0.00450100  0.07195300  0.03669300  1
  C  C28  1  0.11154800  0.73705000  0.47663900  1
  C  C29  1  0.88845200  0.76295000  0.97663900  1
  C  C30  1  0.88845200  0.26295000  0.52336100  1
  C  C31  1  0.11154800  0.23705000  0.02336100  1
  C  C32  1  0.90363300  0.51571600  0.39429700  1
  C  C33  1  0.09636700  0.98428400  0.89429700  1
  C  C34  1  0.09636700  0.48428400  0.60570300  1
  C  C35  1  0.90363300  0.01571600  0.10570300  1
  C  C36  1  0.30649700  0.07821900  0.58571300  1
  C  C37  1  0.69350300  0.42178100  0.08571300  1
  C  C38  1  0.69350300  0.92178100  0.41428700  1
  C  C39  1  0.30649700  0.57821900  0.91428700  1
  C  C40  1  0.63641600  0.70166800  0.80120200  1
  C  C41  1  0.36358400  0.79833200  0.30120200  1
  C  C42  1  0.36358400  0.29833200  0.19879800  1
  C  C43  1  0.63641600  0.20166800  0.69879800  1
  C  C44  1  0.91382200  0.82175500  0.66424600  1
  C  C45  1  0.08617800  0.67824500  0.16424600  1
  C  C46  1  0.08617800  0.17824500  0.33575400  1
  C  C47  1  0.91382200  0.32175500  0.83575400  1
  C  C48  1  0.59830300  0.78233800  0.57990600  1
  C  C49  1  0.40169700  0.71766200  0.07990600  1
  C  C50  1  0.40169700  0.21766300  0.42009400  1
  C  C51  1  0.59830300  0.28233800  0.92009400  1
  C  C52  1  0.34009800  0.75776800  0.72374100  1
  C  C53  1  0.65990200  0.74223200  0.22374100  1
  C  C54  1  0.65990200  0.24223200  0.27625900  1
  C  C55  1  0.34009800  0.25776800  0.77625900  1
