# generated using pymatgen
data_Cu2NiC17
_symmetry_space_group_name_H-M   'P 1'
_cell_length_a   5.63695400
_cell_length_b   5.63695400
_cell_length_c   8.22660500
_cell_angle_alpha   90.00000000
_cell_angle_beta   90.00000000
_cell_angle_gamma   90.00000000
_symmetry_Int_Tables_number   1
_chemical_formula_structural   Cu2NiC17
_chemical_formula_sum   'Cu2 Ni1 C17'
_cell_volume   261.40243380
_cell_formula_units_Z   1
loop_
 _symmetry_equiv_pos_site_id
 _symmetry_equiv_pos_as_xyz
  1  'x, y, z'
loop_
 _atom_site_type_symbol
 _atom_site_label
 _atom_site_symmetry_multiplicity
 _atom_site_fract_x
 _atom_site_fract_y
 _atom_site_fract_z
 _atom_site_occupancy
  C  C0  1  0.00000000  0.50000000  0.25004500  1
  C  C1  1  0.50000000  0.00000000  0.74995500  1
  C  C2  1  0.50000000  0.00000000  0.25004500  1
  C  C3  1  0.00000000  0.50000000  0.74995500  1
  C  C4  1  0.00000000  0.00000000  0.00000000  1
  Ni  Ni5  1  0.50000000  0.50000000  0.50000000  1
  Cu  Cu6  1  0.50000000  0.50000000  0.00000000  1
  Cu  Cu7  1  0.00000000  0.00000000  0.50000000  1
  C  C8  1  0.00000000  0.00000000  0.26237500  1
  C  C9  1  0.50000000  0.50000000  0.76261600  1
  C  C10  1  0.50000000  0.50000000  0.23738400  1
  C  C11  1  0.00000000  0.00000000  0.73762500  1
  C  C12  1  0.71816400  0.79702900  0.50000000  1
  C  C13  1  0.21762700  0.29924200  0.00000000  1
  C  C14  1  0.78237300  0.70075800  0.00000000  1
  C  C15  1  0.28183600  0.20297100  0.50000000  1
  C  C16  1  0.70075800  0.21762700  0.00000000  1
  C  C17  1  0.20297100  0.71816400  0.50000000  1
  C  C18  1  0.79702900  0.28183600  0.50000000  1
  C  C19  1  0.29924200  0.78237300  0.00000000  1
