# generated using pymatgen
data_Cu15NiC8
_symmetry_space_group_name_H-M   'P 1'
_cell_length_a   7.55465700
_cell_length_b   10.75396500
_cell_length_c   18.81928000
_cell_angle_alpha   90.00000000
_cell_angle_beta   90.00000000
_cell_angle_gamma   90.00000000
_symmetry_Int_Tables_number   1
_chemical_formula_structural   Cu15NiC8
_chemical_formula_sum   'Cu60 Ni4 C32'
_cell_volume   1528.92567467
_cell_formula_units_Z   4
loop_
 _symmetry_equiv_pos_site_id
 _symmetry_equiv_pos_as_xyz
  1  'x, y, z'
loop_
 _atom_site_type_symbol
 _atom_site_label
 _atom_site_symmetry_multiplicity
 _atom_site_fract_x
 _atom_site_fract_y
 _atom_site_fract_z
 _atom_site_occupancy
  C  C0  1  0.25931300  0.38837400  0.10778300  1
  C  C1  1  0.74068700  0.61162600  0.89221700  1
  C  C2  1  0.24068700  0.88837400  0.89221700  1
  C  C3  1  0.74068700  0.61162600  0.60778300  1
  C  C4  1  0.75931300  0.11162600  0.10778300  1
  C  C5  1  0.25931300  0.38837400  0.39221700  1
  C  C6  1  0.75931300  0.11162600  0.39221700  1
  C  C7  1  0.24068700  0.88837400  0.60778300  1
  C  C8  1  0.28048900  0.48478200  0.75000000  1
  C  C9  1  0.71951100  0.51521800  0.25000000  1
  C  C10  1  0.21951100  0.98478200  0.25000000  1
  C  C11  1  0.78048900  0.01521800  0.75000000  1
  C  C12  1  0.00060900  0.25373300  0.58499500  1
  C  C13  1  0.99939100  0.74626700  0.41500500  1
  C  C14  1  0.49939100  0.75373300  0.41500500  1
  C  C15  1  0.99939100  0.74626700  0.08499500  1
  C  C16  1  0.50060900  0.24626700  0.58499500  1
  C  C17  1  0.00060900  0.25373300  0.91500500  1
  C  C18  1  0.50060900  0.24626700  0.91500500  1
  C  C19  1  0.49939100  0.75373300  0.08499500  1
  C  C20  1  0.22023800  0.14648300  0.75000000  1
  C  C21  1  0.77976200  0.85351700  0.25000000  1
  C  C22  1  0.27976200  0.64648300  0.25000000  1
  C  C23  1  0.72023800  0.35351700  0.75000000  1
  C  C24  1  0.20730700  0.55878800  0.55705000  1
  C  C25  1  0.79269300  0.44121200  0.44295000  1
  C  C26  1  0.29269300  0.05878800  0.44295000  1
  C  C27  1  0.79269300  0.44121200  0.05705000  1
  C  C28  1  0.70730700  0.94121200  0.55705000  1
  C  C29  1  0.20730700  0.55878800  0.94295000  1
  C  C30  1  0.70730700  0.94121200  0.94295000  1
  C  C31  1  0.29269300  0.05878800  0.05705000  1
  Ni  Ni32  1  0.11913000  0.75642900  0.75000000  1
  Ni  Ni33  1  0.88087000  0.24357100  0.25000000  1
  Ni  Ni34  1  0.38087000  0.25642900  0.25000000  1
  Ni  Ni35  1  0.61913000  0.74357100  0.75000000  1
  Cu  Cu36  1  0.12572100  0.11004900  0.11610400  1
  Cu  Cu37  1  0.87427900  0.88995100  0.88389600  1
  Cu  Cu38  1  0.37427900  0.61004900  0.88389600  1
  Cu  Cu39  1  0.87427900  0.88995100  0.61610400  1
  Cu  Cu40  1  0.62572100  0.38995100  0.11610400  1
  Cu  Cu41  1  0.12572100  0.11004900  0.38389600  1
  Cu  Cu42  1  0.62572100  0.38995100  0.38389600  1
  Cu  Cu43  1  0.37427900  0.61004900  0.61610400  1
  Cu  Cu44  1  0.22654300  0.09987600  0.53522400  1
  Cu  Cu45  1  0.77345700  0.90012400  0.46477600  1
  Cu  Cu46  1  0.27345700  0.59987600  0.46477600  1
  Cu  Cu47  1  0.77345700  0.90012400  0.03522400  1
  Cu  Cu48  1  0.72654300  0.40012400  0.53522400  1
  Cu  Cu49  1  0.22654300  0.09987600  0.96477600  1
  Cu  Cu50  1  0.72654300  0.40012400  0.96477600  1
  Cu  Cu51  1  0.27345700  0.59987600  0.03522400  1
  Cu  Cu52  1  0.41751900  0.06107700  0.75000000  1
  Cu  Cu53  1  0.58248100  0.93892300  0.25000000  1
  Cu  Cu54  1  0.08248100  0.56107700  0.25000000  1
  Cu  Cu55  1  0.91751900  0.43892300  0.75000000  1
  Cu  Cu56  1  0.25082100  0.27318400  0.68279900  1
  Cu  Cu57  1  0.74917900  0.72681600  0.31720100  1
  Cu  Cu58  1  0.24917900  0.77318400  0.31720100  1
  Cu  Cu59  1  0.74917900  0.72681600  0.18279900  1
  Cu  Cu60  1  0.75082100  0.22681600  0.68279900  1
  Cu  Cu61  1  0.25082100  0.27318400  0.81720100  1
  Cu  Cu62  1  0.75082100  0.22681600  0.81720100  1
  Cu  Cu63  1  0.24917900  0.77318400  0.18279900  1
  Cu  Cu64  1  0.03886500  0.48908700  0.61545600  1
  Cu  Cu65  1  0.96113500  0.51091300  0.38454400  1
  Cu  Cu66  1  0.46113500  0.98908700  0.38454400  1
  Cu  Cu67  1  0.96113500  0.51091300  0.11545500  1
  Cu  Cu68  1  0.53886500  0.01091300  0.61545600  1
  Cu  Cu69  1  0.03886500  0.48908700  0.88454400  1
  Cu  Cu70  1  0.53886500  0.01091300  0.88454400  1
  Cu  Cu71  1  0.46113500  0.98908700  0.11545500  1
  Cu  Cu72  1  0.05514300  0.69367900  0.55128300  1
  Cu  Cu73  1  0.94485700  0.30632100  0.44871700  1
  Cu  Cu74  1  0.44485700  0.19367900  0.44871700  1
  Cu  Cu75  1  0.94485700  0.30632100  0.05128300  1
  Cu  Cu76  1  0.55514300  0.80632100  0.55128300  1
  Cu  Cu77  1  0.05514300  0.69367900  0.94871700  1
  Cu  Cu78  1  0.55514300  0.80632100  0.94871700  1
  Cu  Cu79  1  0.44485700  0.19367900  0.05128300  1
  Cu  Cu80  1  0.07805900  0.07124600  0.68248400  1
  Cu  Cu81  1  0.92194100  0.92875400  0.31751600  1
  Cu  Cu82  1  0.42194100  0.57124600  0.31751600  1
  Cu  Cu83  1  0.92194100  0.92875400  0.18248400  1
  Cu  Cu84  1  0.57805900  0.42875400  0.68248400  1
  Cu  Cu85  1  0.07805900  0.07124600  0.81751600  1
  Cu  Cu86  1  0.57805900  0.42875400  0.81751600  1
  Cu  Cu87  1  0.42194100  0.57124600  0.18248400  1
  Cu  Cu88  1  0.26390000  0.39649300  0.53136700  1
  Cu  Cu89  1  0.73610000  0.60350700  0.46863300  1
  Cu  Cu90  1  0.23610000  0.89649300  0.46863300  1
  Cu  Cu91  1  0.73610000  0.60350700  0.03136700  1
  Cu  Cu92  1  0.76390000  0.10350700  0.53136700  1
  Cu  Cu93  1  0.26390000  0.39649300  0.96863300  1
  Cu  Cu94  1  0.76390000  0.10350700  0.96863300  1
  Cu  Cu95  1  0.23610000  0.89649300  0.03136700  1
