# generated using pymatgen
data_Cu4(NiC7)3
_symmetry_space_group_name_H-M   'P 1'
_cell_length_a   7.80652816
_cell_length_b   7.80652816
_cell_length_c   30.07754820
_cell_angle_alpha   90.00000000
_cell_angle_beta   90.00000000
_cell_angle_gamma   90.00000000
_symmetry_Int_Tables_number   1
_chemical_formula_structural   Cu4(NiC7)3
_chemical_formula_sum   'Cu16 Ni12 C84'
_cell_volume   1832.98239063
_cell_formula_units_Z   4
loop_
 _symmetry_equiv_pos_site_id
 _symmetry_equiv_pos_as_xyz
  1  'x, y, z'
loop_
 _atom_site_type_symbol
 _atom_site_label
 _atom_site_symmetry_multiplicity
 _atom_site_fract_x
 _atom_site_fract_y
 _atom_site_fract_z
 _atom_site_occupancy
  C  C0  1  0.11493167  0.86473716  0.28898195  1
  C  C1  1  0.88506833  0.13526284  0.78898195  1
  C  C2  1  0.86473716  0.88506833  0.03898195  1
  C  C3  1  0.13526284  0.11493167  0.53898195  1
  C  C4  1  0.61569245  0.56419118  0.30231755  1
  C  C5  1  0.38430755  0.43580882  0.80231755  1
  C  C6  1  0.56419118  0.38430755  0.05231755  1
  C  C7  1  0.43580882  0.61569245  0.55231755  1
  C  C8  1  0.02937695  0.47658217  0.41710952  1
  C  C9  1  0.97062305  0.52341783  0.91710952  1
  C  C10  1  0.47658217  0.97062305  0.16710952  1
  C  C11  1  0.52341783  0.02937695  0.66710952  1
  C  C12  1  0.72652504  0.97978280  0.40753185  1
  C  C13  1  0.27347496  0.02021720  0.90753185  1
  C  C14  1  0.97978280  0.27347496  0.15753185  1
  C  C15  1  0.02021720  0.72652504  0.65753185  1
  C  C16  1  0.37091408  0.22079951  0.35451100  1
  C  C17  1  0.62908592  0.77920049  0.85451100  1
  C  C18  1  0.22079951  0.62908592  0.10451100  1
  C  C19  1  0.77920049  0.37091408  0.60451100  1
  Ni  Ni20  1  0.34037720  0.76402126  0.45357669  1
  Ni  Ni21  1  0.65962280  0.23597874  0.95357669  1
  Ni  Ni22  1  0.76402126  0.65962280  0.20357669  1
  Ni  Ni23  1  0.23597874  0.34037720  0.70357669  1
  Ni  Ni24  1  0.57551441  0.28687817  0.48361710  1
  Ni  Ni25  1  0.42448559  0.71312183  0.98361710  1
  Ni  Ni26  1  0.28687817  0.42448559  0.23361710  1
  Ni  Ni27  1  0.71312183  0.57551441  0.73361710  1
  Ni  Ni28  1  0.81000435  0.81550749  0.50382077  1
  Ni  Ni29  1  0.18999565  0.18449251  0.00382077  1
  Ni  Ni30  1  0.81550749  0.18999565  0.25382077  1
  Ni  Ni31  1  0.18449251  0.81000435  0.75382077  1
  Cu  Cu32  1  0.19768120  0.96200884  0.41712393  1
  Cu  Cu33  1  0.80231880  0.03799116  0.91712393  1
  Cu  Cu34  1  0.96200884  0.80231880  0.16712393  1
  Cu  Cu35  1  0.03799116  0.19768120  0.66712393  1
  Cu  Cu36  1  0.53584905  0.49357002  0.42129932  1
  Cu  Cu37  1  0.46415095  0.50642998  0.92129932  1
  Cu  Cu38  1  0.49357002  0.46415095  0.17129932  1
  Cu  Cu39  1  0.50642998  0.53584905  0.67129932  1
  Cu  Cu40  1  0.62400218  0.09135830  0.53951872  1
  Cu  Cu41  1  0.37599782  0.90864170  0.03951872  1
  Cu  Cu42  1  0.09135830  0.37599782  0.28951872  1
  Cu  Cu43  1  0.90864170  0.62400218  0.78951872  1
  Cu  Cu44  1  0.96176920  0.62433937  0.53881530  1
  Cu  Cu45  1  0.03823080  0.37566063  0.03881530  1
  Cu  Cu46  1  0.62433937  0.03823080  0.28881530  1
  Cu  Cu47  1  0.37566063  0.96176920  0.78881530  1
  C  C48  1  0.10018065  0.10673799  0.43502819  1
  C  C49  1  0.89981935  0.89326201  0.93502819  1
  C  C50  1  0.10673799  0.89981935  0.18502819  1
  C  C51  1  0.89326201  0.10018065  0.68502819  1
  C  C52  1  0.09073157  0.83535123  0.39396796  1
  C  C53  1  0.90926843  0.16464877  0.89396796  1
  C  C54  1  0.83535123  0.90926843  0.14396796  1
  C  C55  1  0.16464877  0.09073157  0.64396796  1
  C  C56  1  0.34643879  0.01282901  0.38982347  1
  C  C57  1  0.65356121  0.98717099  0.88982347  1
  C  C58  1  0.01282901  0.65356121  0.13982347  1
  C  C59  1  0.98717099  0.34643879  0.63982347  1
  C  C60  1  0.27335836  0.87393602  0.46058374  1
  C  C61  1  0.72664164  0.12606398  0.96058374  1
  C  C62  1  0.87393602  0.72664164  0.21058374  1
  C  C63  1  0.12606398  0.27335836  0.71058374  1
  C  C64  1  0.66769880  0.60288190  0.40047921  1
  C  C65  1  0.33230120  0.39711810  0.90047921  1
  C  C66  1  0.60288190  0.33230120  0.15047921  1
  C  C67  1  0.39711810  0.66769880  0.65047921  1
  C  C68  1  0.41516479  0.42810218  0.38699773  1
  C  C69  1  0.58483521  0.57189782  0.88699773  1
  C  C70  1  0.42810218  0.58483521  0.13699773  1
  C  C71  1  0.57189782  0.41516479  0.63699773  1
  C  C72  1  0.43692604  0.58848852  0.45606154  1
  C  C73  1  0.56307396  0.41151148  0.95606154  1
  C  C74  1  0.58848852  0.56307396  0.20606154  1
  C  C75  1  0.41151148  0.43692604  0.70606154  1
  C  C76  1  0.62546293  0.34327290  0.44357094  1
  C  C77  1  0.37453707  0.65672710  0.94357094  1
  C  C78  1  0.34327290  0.37453707  0.19357094  1
  C  C79  1  0.65672710  0.62546293  0.69357094  1
  C  C80  1  0.49171013  0.99435680  0.56316429  1
  C  C81  1  0.50828987  0.00564320  0.06316429  1
  C  C82  1  0.99435680  0.50828987  0.31316429  1
  C  C83  1  0.00564320  0.49171013  0.81316429  1
  C  C84  1  0.75381647  0.16247330  0.56995658  1
  C  C85  1  0.24618353  0.83752670  0.06995658  1
  C  C86  1  0.16247330  0.24618353  0.31995658  1
  C  C87  1  0.83752670  0.75381647  0.81995658  1
  C  C88  1  0.52816973  0.24340119  0.51669879  1
  C  C89  1  0.47183027  0.75659881  0.01669879  1
  C  C90  1  0.24340119  0.47183027  0.26669879  1
  C  C91  1  0.75659881  0.52816973  0.76669879  1
  C  C92  1  0.70799410  0.99107560  0.50359401  1
  C  C93  1  0.29200590  0.00892440  0.00359401  1
  C  C94  1  0.99107560  0.29200590  0.25359401  1
  C  C95  1  0.00892440  0.70799410  0.75359401  1
  C  C96  1  0.05644115  0.47843550  0.52077794  1
  C  C97  1  0.94355885  0.52156450  0.02077794  1
  C  C98  1  0.47843550  0.94355885  0.27077794  1
  C  C99  1  0.52156450  0.05644115  0.77077794  1
  C  C100  1  0.07196817  0.75421822  0.55964136  1
  C  C101  1  0.92803183  0.24578178  0.05964136  1
  C  C102  1  0.75421822  0.92803183  0.30964136  1
  C  C103  1  0.24578178  0.07196817  0.80964136  1
  C  C104  1  0.81872038  0.57686039  0.56850002  1
  C  C105  1  0.18127962  0.42313961  0.06850002  1
  C  C106  1  0.57686039  0.18127962  0.31850002  1
  C  C107  1  0.42313961  0.81872038  0.81850002  1
  C  C108  1  0.87721384  0.70795709  0.49589053  1
  C  C109  1  0.12278616  0.29204291  0.99589053  1
  C  C110  1  0.70795709  0.12278616  0.24589053  1
  C  C111  1  0.29204291  0.87721384  0.74589053  1
