# generated using pymatgen
data_Cu3NiC136
_symmetry_space_group_name_H-M   'P 1'
_cell_length_a   8.93387794
_cell_length_b   9.25744456
_cell_length_c   29.73032162
_cell_angle_alpha   97.10044853
_cell_angle_beta   81.35992972
_cell_angle_gamma   118.85052247
_symmetry_Int_Tables_number   1
_chemical_formula_structural   Cu3NiC136
_chemical_formula_sum   'Cu3 Ni1 C136'
_cell_volume   2125.50074299
_cell_formula_units_Z   1
loop_
 _symmetry_equiv_pos_site_id
 _symmetry_equiv_pos_as_xyz
  1  'x, y, z'
loop_
 _atom_site_type_symbol
 _atom_site_label
 _atom_site_symmetry_multiplicity
 _atom_site_fract_x
 _atom_site_fract_y
 _atom_site_fract_z
 _atom_site_occupancy
  Ni  Ni0  1  0.75000000  0.25000000  0.75000000  1
  Cu  Cu1  1  0.99997254  -0.00001666  0.00000073  1
  Cu  Cu2  1  0.25000000  0.75000000  0.25000000  1
  Cu  Cu3  1  0.50002746  0.50001666  0.49999927  1
  C  C4  1  0.69953806  0.73897075  0.33990781  1
  C  C5  1  0.94954047  0.48899421  0.58985440  1
  C  C6  1  0.19944831  0.23876913  0.83994052  1
  C  C7  1  0.44954145  0.98896405  0.08990561  1
  C  C8  1  0.05045755  0.51103495  0.41009339  1
  C  C9  1  0.30055069  0.26122987  0.66005948  1
  C  C10  1  0.55045953  0.01100479  0.91014460  1
  C  C11  1  0.80046094  0.76102825  0.16009119  1
  C  C12  1  0.06359661  0.33993155  0.21272120  1
  C  C13  1  0.31361549  0.08994116  0.46271690  1
  C  C14  1  0.56332723  0.83869490  0.71245946  1
  C  C15  1  0.81341146  0.59015810  0.96289227  1
  C  C16  1  0.68658854  0.90984190  0.53710773  1
  C  C17  1  0.93667277  0.66130510  0.78754054  1
  C  C18  1  0.18638451  0.41005884  0.03728310  1
  C  C19  1  0.43640339  0.16006845  0.28727880  1
  C  C20  1  0.39484391  0.87841909  0.36349839  1
  C  C21  1  0.64487943  0.62823452  0.61342826  1
  C  C22  1  0.89582109  0.37954529  0.86397390  1
  C  C23  1  0.14486695  0.12843657  0.11350255  1
  C  C24  1  0.01440353  0.98407085  0.25783436  1
  C  C25  1  0.26441389  0.73408446  0.50783980  1
  C  C26  1  0.51365759  0.48521509  0.75798636  1
  C  C27  1  0.76441313  0.23412345  0.00784883  1
  C  C28  1  0.89317318  0.80275784  0.43912358  1
  C  C29  1  0.14443990  0.55433438  0.68895692  1
  C  C30  1  0.39313572  0.30277345  0.93914299  1
  C  C31  1  0.64312353  0.05275891  0.18914439  1
  C  C32  1  0.35513305  0.37156343  0.38649745  1
  C  C33  1  0.60417891  0.12045471  0.63602610  1
  C  C34  1  0.85512057  0.87176548  0.88657174  1
  C  C35  1  0.10515609  0.62158091  0.13650161  1
  C  C36  1  0.73558687  0.26587655  0.49215117  1
  C  C37  1  0.98634241  0.01478491  0.74201364  1
  C  C38  1  0.23558611  0.76591554  0.99216020  1
  C  C39  1  0.48559647  0.51592915  0.24216564  1
  C  C40  1  0.85687647  0.44724109  0.31085561  1
  C  C41  1  0.10686428  0.19722655  0.56085701  1
  C  C42  1  0.35556010  0.94566562  0.81104308  1
  C  C43  1  0.60682682  0.69724216  0.06087642  1
  C  C44  1  0.08081640  0.35074787  0.56581306  1
  C  C45  1  0.33182710  0.10066906  0.81563175  1
  C  C46  1  0.58083619  0.85079830  0.06581630  1
  C  C47  1  0.83086246  0.60081816  0.31581436  1
  C  C48  1  0.76653241  0.28710145  0.62901941  1
  C  C49  1  0.01713212  0.03797222  0.87875449  1
  C  C50  1  0.26706891  0.78785606  0.12875787  1
  C  C51  1  0.51705772  0.53784494  0.37875598  1
  C  C52  1  0.79783081  0.38196540  0.53457320  1
  C  C53  1  0.04699690  0.13195716  0.78438255  1
  C  C54  1  0.29790089  0.88206431  0.03457034  1
  C  C55  1  0.54785503  0.63207917  0.28457427  1
  C  C56  1  0.66913754  0.89918184  0.18418564  1
  C  C57  1  0.91916381  0.64920170  0.43418370  1
  C  C58  1  0.16817290  0.39933094  0.68436825  1
  C  C59  1  0.41918360  0.14925213  0.93418694  1
  C  C60  1  0.98294228  0.96215506  0.12124402  1
  C  C61  1  0.23293109  0.71214394  0.37124213  1
  C  C62  1  0.48286788  0.46202778  0.62124551  1
  C  C63  1  0.73346759  0.21289855  0.87098059  1
  C  C64  1  0.95214497  0.86792083  0.21542573  1
  C  C65  1  0.20209911  0.61793569  0.46542966  1
  C  C66  1  0.45300310  0.36804284  0.71561745  1
  C  C67  1  0.70216919  0.11803460  0.96542680  1
  C  C68  1  0.84505717  0.83196418  0.39493176  1
  C  C69  1  0.09537577  0.58187462  0.64467797  1
  C  C70  1  0.34507851  0.33190227  0.89492753  1
  C  C71  1  0.59504320  0.08191916  0.14493604  1
  C  C72  1  0.55955361  0.86433786  0.36253332  1
  C  C73  1  0.80956796  0.61408079  0.61249272  1
  C  C74  1  0.05977605  0.36408672  0.86274502  1
  C  C75  1  0.30957295  0.11436097  0.11253320  1
  C  C76  1  0.87899931  0.92762760  0.29925981  1
  C  C77  1  0.12900490  0.67765390  0.54925590  1
  C  C78  1  0.37793678  0.42728959  0.79928979  1
  C  C79  1  0.62898186  0.17758275  0.04926432  1
  C  C80  1  0.90495680  0.41808084  0.35506396  1
  C  C81  1  0.15492149  0.16809773  0.60507247  1
  C  C82  1  0.40462423  0.91812538  0.85532203  1
  C  C83  1  0.65494283  0.66803582  0.10506824  1
  C  C84  1  0.19042705  0.38563903  0.38746680  1
  C  C85  1  0.44022395  0.13591328  0.63725498  1
  C  C86  1  0.69043204  0.88591921  0.88750728  1
  C  C87  1  0.94044639  0.63566214  0.13746668  1
  C  C88  1  0.87101814  0.32241725  0.45073568  1
  C  C89  1  0.12206322  0.07271041  0.70071021  1
  C  C90  1  0.37099510  0.82234610  0.95074410  1
  C  C91  1  0.62100069  0.57237240  0.20074019  1
  C  C92  1  0.35973320  0.31504204  0.43350663  1
  C  C93  1  0.60575726  0.05891158  0.68234808  1
  C  C94  1  0.85975763  0.81527240  0.93358586  1
  C  C95  1  0.10976193  0.56506259  0.18350611  1
  C  C96  1  0.56984923  0.26700969  0.48156088  1
  C  C97  1  0.81925596  0.01057303  0.73081003  1
  C  C98  1  0.06990514  0.76707509  0.98157439  1
  C  C99  1  0.31984289  0.51699232  0.23156049  1
  C  C100  1  0.00609342  0.47651134  0.27206570  1
  C  C101  1  0.25613818  0.22649821  0.52207091  1
  C  C102  1  0.50179839  0.96927014  0.77205952  1
  C  C103  1  0.75609857  0.72661459  0.02211676  1
  C  C104  1  0.39023807  0.93493741  0.31649389  1
  C  C105  1  0.64024237  0.68472760  0.56641414  1
  C  C106  1  0.89424274  0.44108842  0.81765192  1
  C  C107  1  0.14026680  0.18495796  0.06649337  1
  C  C108  1  0.18015711  0.98300768  0.26843951  1
  C  C109  1  0.43009486  0.73292491  0.51842561  1
  C  C110  1  0.68074404  0.48942697  0.76918997  1
  C  C111  1  0.93015077  0.23299031  0.01843912  1
  C  C112  1  0.74390143  0.77338541  0.47788324  1
  C  C113  1  0.99820161  0.53072986  0.72794048  1
  C  C114  1  0.24386182  0.27350179  0.97792909  1
  C  C115  1  0.49390658  0.02348866  0.22793430  1
  C  C116  1  0.14642347  0.25861469  0.15191487  1
  C  C117  1  0.39642894  0.00859390  0.40191821  1
  C  C118  1  0.64668326  0.75822538  0.65169513  1
  C  C119  1  0.89667963  0.50856132  0.90257823  1
  C  C120  1  0.05696517  0.16187444  0.24861861  1
  C  C121  1  0.30693421  0.91187955  0.49862775  1
  C  C122  1  0.55520753  0.66187364  0.74858577  1
  C  C123  1  0.80690212  0.41185782  0.99867341  1
  C  C124  1  0.80973489  0.20841973  0.20208662  1
  C  C125  1  0.05972344  0.95843058  0.45208754  1
  C  C126  1  0.31111743  0.70887601  0.70162974  1
  C  C127  1  0.55967041  0.45846439  0.95208934  1
  C  C128  1  0.60332037  0.99143868  0.59742177  1
  C  C129  1  0.85331674  0.74177462  0.84830487  1
  C  C130  1  0.10357106  0.49140610  0.09808179  1
  C  C131  1  0.35357653  0.24138531  0.34808513  1
  C  C132  1  0.69309788  0.08814218  0.50132659  1
  C  C133  1  0.94479247  0.83812636  0.75141423  1
  C  C134  1  0.19306579  0.58812045  0.00137225  1
  C  C135  1  0.44303483  0.33812556  0.25138139  1
  C  C136  1  0.94032959  0.04153561  0.54791066  1
  C  C137  1  0.18888257  0.79112399  0.79837026  1
  C  C138  1  0.44027656  0.54156942  0.04791246  1
  C  C139  1  0.69026511  0.29158027  0.29791338  1
