# generated using pymatgen
data_Cu2Ni3C11
_symmetry_space_group_name_H-M   'P 1'
_cell_length_a   6.68276731
_cell_length_b   7.83925588
_cell_length_c   10.66320944
_cell_angle_alpha   68.44911750
_cell_angle_beta   89.79038038
_cell_angle_gamma   77.51382515
_symmetry_Int_Tables_number   1
_chemical_formula_structural   Cu2Ni3C11
_chemical_formula_sum   'Cu4 Ni6 C22'
_cell_volume   505.51378538
_cell_formula_units_Z   2
loop_
 _symmetry_equiv_pos_site_id
 _symmetry_equiv_pos_as_xyz
  1  'x, y, z'
loop_
 _atom_site_type_symbol
 _atom_site_label
 _atom_site_symmetry_multiplicity
 _atom_site_fract_x
 _atom_site_fract_y
 _atom_site_fract_z
 _atom_site_occupancy
  Ni  Ni0  1  0.68739000  0.77096900  0.47836200  1
  Ni  Ni1  1  0.31261000  0.22903100  0.52163800  1
  Ni  Ni2  1  0.79307400  0.33736100  0.19997800  1
  Ni  Ni3  1  0.20692600  0.66263900  0.80002200  1
  Ni  Ni4  1  0.76747900  0.95026000  0.15932100  1
  Ni  Ni5  1  0.23252100  0.04974000  0.84067900  1
  Cu  Cu6  1  0.31524500  0.29281400  0.11209700  1
  Cu  Cu7  1  0.68475500  0.70718600  0.88790300  1
  Cu  Cu8  1  0.18876300  0.71991800  0.39405100  1
  Cu  Cu9  1  0.81123700  0.28008200  0.60594900  1
  C  C10  1  0.20200700  0.40793900  0.94600000  1
  C  C11  1  0.79799300  0.59206100  0.05400000  1
  C  C12  1  0.74222300  0.03756700  0.31116500  1
  C  C13  1  0.25777700  0.96243300  0.68883500  1
  C  C14  1  0.47456900  0.41521000  0.15257100  1
  C  C15  1  0.52543100  0.58479000  0.84742900  1
  C  C16  1  0.70278700  0.71746800  0.31659100  1
  C  C17  1  0.29721300  0.28253200  0.68340900  1
  C  C18  1  0.08608000  0.83831900  0.22964100  1
  C  C19  1  0.91392000  0.16168100  0.77035900  1
  C  C20  1  0.00592800  0.69308500  0.51256500  1
  C  C21  1  0.99407200  0.30691500  0.48743500  1
  C  C22  1  0.82911800  0.21741700  0.07170300  1
  C  C23  1  0.17088200  0.78258300  0.92829700  1
  C  C24  1  0.44409700  0.07566600  0.11477400  1
  C  C25  1  0.55590300  0.92433400  0.88522600  1
  C  C26  1  0.35063900  0.82937800  0.44521700  1
  C  C27  1  0.64936100  0.17062200  0.55478300  1
  C  C28  1  0.12880900  0.27942200  0.22477100  1
  C  C29  1  0.87119100  0.72057800  0.77522900  1
  C  C30  1  0.32331400  0.49740200  0.40545700  1
  C  C31  1  0.67668600  0.50259800  0.59454300  1
