# generated using pymatgen
data_Cu6NiC12
_symmetry_space_group_name_H-M   'P 1'
_cell_length_a   7.42614499
_cell_length_b   5.88532656
_cell_length_c   6.06059470
_cell_angle_alpha   77.48845295
_cell_angle_beta   69.67652893
_cell_angle_gamma   73.77692215
_symmetry_Int_Tables_number   1
_chemical_formula_structural   Cu6NiC12
_chemical_formula_sum   'Cu6 Ni1 C12'
_cell_volume   236.38634130
_cell_formula_units_Z   1
loop_
 _symmetry_equiv_pos_site_id
 _symmetry_equiv_pos_as_xyz
  1  'x, y, z'
loop_
 _atom_site_type_symbol
 _atom_site_label
 _atom_site_symmetry_multiplicity
 _atom_site_fract_x
 _atom_site_fract_y
 _atom_site_fract_z
 _atom_site_occupancy
  Ni  Ni0  1  0.83926200  0.66243800  0.16008000  1
  Cu  Cu1  1  0.82859900  0.67858100  0.66147900  1
  Cu  Cu2  1  0.66375900  0.28432500  0.36986900  1
  Cu  Cu3  1  0.33068200  0.69956600  0.63557000  1
  Cu  Cu4  1  0.16508400  0.29671300  0.33390300  1
  Cu  Cu5  1  0.49277600  0.01689000  0.03287800  1
  Cu  Cu6  1  0.99643300  0.05462100  0.97351500  1
  C  C7  1  0.63740700  0.57676700  0.49982700  1
  C  C8  1  0.94244700  0.28697800  0.19905700  1
  C  C9  1  0.72082200  0.03994900  0.15156900  1
  C  C10  1  0.02424600  0.77724000  0.82180200  1
  C  C11  1  0.31617500  0.95866000  0.36731500  1
  C  C12  1  0.66761700  0.03369400  0.67338800  1
  C  C13  1  0.34614300  0.38355500  0.97009500  1
  C  C14  1  0.29099600  0.95806600  0.88487400  1
  C  C15  1  0.37025400  0.38701800  0.45405400  1
  C  C16  1  0.64610200  0.63479100  0.01673000  1
  C  C17  1  0.98011400  0.31946800  0.68811600  1
  C  C18  1  0.02811800  0.67985100  0.31421300  1
