# generated using pymatgen
data_Cu5Ni2C25
_symmetry_space_group_name_H-M   'P 1'
_cell_length_a   2.89427100
_cell_length_b   5.89930500
_cell_length_c   16.97154914
_cell_angle_alpha   89.76304534
_cell_angle_beta   90.00000000
_cell_angle_gamma   90.00000000
_symmetry_Int_Tables_number   1
_chemical_formula_structural   Cu5Ni2C25
_chemical_formula_sum   'Cu5 Ni2 C25'
_cell_volume   289.77293203
_cell_formula_units_Z   1
loop_
 _symmetry_equiv_pos_site_id
 _symmetry_equiv_pos_as_xyz
  1  'x, y, z'
loop_
 _atom_site_type_symbol
 _atom_site_label
 _atom_site_symmetry_multiplicity
 _atom_site_fract_x
 _atom_site_fract_y
 _atom_site_fract_z
 _atom_site_occupancy
  C  C0  1  0.50000000  0.74580000  0.62351000  1
  C  C1  1  0.50000000  0.25420000  0.37649000  1
  C  C2  1  0.50000000  0.74258300  0.11724700  1
  C  C3  1  0.00000000  0.00000000  0.50000000  1
  C  C4  1  0.00000000  0.49769700  0.24433000  1
  C  C5  1  0.00000000  0.00000000  0.00000000  1
  C  C6  1  0.50000000  0.25741700  0.88275300  1
  C  C7  1  0.00000000  0.50230300  0.75567000  1
  C  C8  1  0.00000000  0.50000000  0.00000000  1
  Ni  Ni9  1  0.00000000  0.99817500  0.75080200  1
  Ni  Ni10  1  0.00000000  0.00182500  0.24919800  1
  Cu  Cu11  1  0.00000000  0.50000000  0.50000000  1
  Cu  Cu12  1  0.50000000  0.74719700  0.37548200  1
  Cu  Cu13  1  0.50000000  0.26248600  0.11052800  1
  Cu  Cu14  1  0.50000000  0.73751400  0.88947200  1
  Cu  Cu15  1  0.50000000  0.25280300  0.62451800  1
  C  C16  1  0.50000000  0.77905300  0.74468900  1
  C  C17  1  0.50000000  0.26404500  0.49882600  1
  C  C18  1  0.50000000  0.77966200  0.24873500  1
  C  C19  1  0.00000000  0.02361000  0.63273000  1
  C  C20  1  0.00000000  0.52069900  0.37723600  1
  C  C21  1  0.00000000  0.02165800  0.13713500  1
  C  C22  1  0.50000000  0.24347100  0.00596000  1
  C  C23  1  0.00000000  0.51857600  0.87267600  1
  C  C24  1  0.50000000  0.73595500  0.50117400  1
  C  C25  1  0.50000000  0.22094700  0.25531100  1
  C  C26  1  0.50000000  0.75652900  0.99404000  1
  C  C27  1  0.00000000  0.97639000  0.36727000  1
  C  C28  1  0.00000000  0.48142400  0.12732400  1
  C  C29  1  0.00000000  0.97834200  0.86286500  1
  C  C30  1  0.50000000  0.22033800  0.75126500  1
  C  C31  1  0.00000000  0.47930100  0.62276400  1
