# generated using pymatgen
data_Cu9Ni4C3
_symmetry_space_group_name_H-M   'P 1'
_cell_length_a   12.69882355
_cell_length_b   13.70757094
_cell_length_c   12.75205778
_cell_angle_alpha   90.00000000
_cell_angle_beta   90.00000000
_cell_angle_gamma   90.00000000
_symmetry_Int_Tables_number   1
_chemical_formula_structural   Cu9Ni4C3
_chemical_formula_sum   'Cu36 Ni16 C12'
_cell_volume   2219.75101231
_cell_formula_units_Z   4
loop_
 _symmetry_equiv_pos_site_id
 _symmetry_equiv_pos_as_xyz
  1  'x, y, z'
loop_
 _atom_site_type_symbol
 _atom_site_label
 _atom_site_symmetry_multiplicity
 _atom_site_fract_x
 _atom_site_fract_y
 _atom_site_fract_z
 _atom_site_occupancy
  C  C0  1  0.75082097  0.42831150  0.56029871  1
  C  C1  1  0.75082097  0.92831150  0.93970129  1
  C  C2  1  0.25082097  0.57168850  0.43970129  1
  C  C3  1  0.25082097  0.07168850  0.06029871  1
  C  C4  1  0.16646198  0.93742907  0.54227592  1
  C  C5  1  0.66646198  0.06257093  0.45772408  1
  C  C6  1  0.66646198  0.56257093  0.04227592  1
  C  C7  1  0.16646198  0.43742907  0.95772408  1
  Ni  Ni8  1  0.08839529  0.32763598  0.62673877  1
  Ni  Ni9  1  0.41325892  0.82742340  0.87046925  1
  Ni  Ni10  1  0.58839529  0.67236402  0.37326123  1
  Ni  Ni11  1  0.91325892  0.17257660  0.12953075  1
  Ni  Ni12  1  0.91325892  0.67257660  0.37046925  1
  Ni  Ni13  1  0.58839529  0.17236402  0.12673877  1
  Ni  Ni14  1  0.41325892  0.32742340  0.62953075  1
  Ni  Ni15  1  0.08839529  0.82763598  0.87326123  1
  Ni  Ni16  1  0.89516389  0.23277772  0.81741995  1
  Ni  Ni17  1  0.60278955  0.73221868  0.68416527  1
  Ni  Ni18  1  0.39516389  0.76722228  0.18258005  1
  Ni  Ni19  1  0.10278955  0.26778132  0.31583473  1
  Ni  Ni20  1  0.10278955  0.76778132  0.18416527  1
  Ni  Ni21  1  0.39516389  0.26722228  0.31741995  1
  Ni  Ni22  1  0.60278955  0.23221868  0.81583473  1
  Ni  Ni23  1  0.89516389  0.73277772  0.68258005  1
  Cu  Cu24  1  0.74909872  0.30060869  0.95335332  1
  Cu  Cu25  1  0.74909872  0.80060869  0.54664668  1
  Cu  Cu26  1  0.24909872  0.69939131  0.04664668  1
  Cu  Cu27  1  0.24909872  0.19939131  0.45335332  1
  Cu  Cu28  1  0.95559677  0.40632026  0.76032267  1
  Cu  Cu29  1  0.54689378  0.90686241  0.74037319  1
  Cu  Cu30  1  0.45559677  0.59367974  0.23967733  1
  Cu  Cu31  1  0.04689378  0.09313759  0.25962681  1
  Cu  Cu32  1  0.04689378  0.59313759  0.24037319  1
  Cu  Cu33  1  0.45559677  0.09367974  0.26032267  1
  Cu  Cu34  1  0.54689378  0.40686241  0.75962681  1
  Cu  Cu35  1  0.95559677  0.90632026  0.73967733  1
  Cu  Cu36  1  0.99420085  0.12189080  0.95065519  1
  Cu  Cu37  1  0.50705867  0.62015841  0.54968988  1
  Cu  Cu38  1  0.49420085  0.87810920  0.04934481  1
  Cu  Cu39  1  0.00705867  0.37984159  0.45031012  1
  Cu  Cu40  1  0.00705867  0.87984159  0.04968988  1
  Cu  Cu41  1  0.49420085  0.37810920  0.45065519  1
  Cu  Cu42  1  0.50705867  0.12015841  0.95031012  1
  Cu  Cu43  1  0.99420085  0.62189080  0.54934481  1
  Cu  Cu44  1  0.05562237  0.15360002  0.68224406  1
  Cu  Cu45  1  0.44860520  0.65220248  0.82275264  1
  Cu  Cu46  1  0.55562237  0.84639998  0.31775594  1
  Cu  Cu47  1  0.94860520  0.34779752  0.17724736  1
  Cu  Cu48  1  0.94860520  0.84779752  0.32275264  1
  Cu  Cu49  1  0.55562237  0.34639998  0.18224406  1
  Cu  Cu50  1  0.44860520  0.15220248  0.67724736  1
  Cu  Cu51  1  0.05562237  0.65360002  0.81775594  1
  Cu  Cu52  1  0.75049110  0.14722587  0.70752425  1
  Cu  Cu53  1  0.75049110  0.64722587  0.79247575  1
  Cu  Cu54  1  0.25049110  0.85277413  0.29247575  1
  Cu  Cu55  1  0.25049110  0.35277413  0.20752425  1
  Cu  Cu56  1  0.25037477  0.43124774  0.67736740  1
  Cu  Cu57  1  0.25037477  0.93124774  0.82263260  1
  Cu  Cu58  1  0.75037477  0.56875226  0.32263260  1
  Cu  Cu59  1  0.75037477  0.06875226  0.17736740  1
  C  C60  1  0.73866719  0.27024804  0.40620767  1
  C  C61  1  0.73866719  0.77024804  0.09379233  1
  C  C62  1  0.23866719  0.72975196  0.59379233  1
  C  C63  1  0.23866719  0.22975196  0.90620767  1
