# generated using pymatgen
data_Cu(NiC2)2
_symmetry_space_group_name_H-M   'P 1'
_cell_length_a   6.08334100
_cell_length_b   11.39251000
_cell_length_c   11.84215100
_cell_angle_alpha   90.00000000
_cell_angle_beta   90.00000000
_cell_angle_gamma   90.00000000
_symmetry_Int_Tables_number   1
_chemical_formula_structural   Cu(NiC2)2
_chemical_formula_sum   'Cu8 Ni16 C32'
_cell_volume   820.71462843
_cell_formula_units_Z   8
loop_
 _symmetry_equiv_pos_site_id
 _symmetry_equiv_pos_as_xyz
  1  'x, y, z'
loop_
 _atom_site_type_symbol
 _atom_site_label
 _atom_site_symmetry_multiplicity
 _atom_site_fract_x
 _atom_site_fract_y
 _atom_site_fract_z
 _atom_site_occupancy
  Ni  Ni0  1  0.51214400  0.26772900  0.66492500  1
  Ni  Ni1  1  0.48785600  0.73227100  0.66492500  1
  Ni  Ni2  1  0.01214400  0.23227100  0.16492500  1
  Ni  Ni3  1  0.98785600  0.76772900  0.16492500  1
  Ni  Ni4  1  0.49600100  0.74021200  0.31014500  1
  Ni  Ni5  1  0.50399900  0.25978800  0.31014500  1
  Ni  Ni6  1  0.99600100  0.75978800  0.81014500  1
  Ni  Ni7  1  0.00399900  0.24021200  0.81014500  1
  Ni  Ni8  1  0.50000000  0.50000000  0.48652300  1
  Ni  Ni9  1  0.00000000  0.00000000  0.98652300  1
  Ni  Ni10  1  0.50000000  0.50000000  0.14427700  1
  Ni  Ni11  1  0.00000000  0.00000000  0.64427700  1
  Ni  Ni12  1  0.50000000  0.50000000  0.84149700  1
  Ni  Ni13  1  0.00000000  0.00000000  0.34149700  1
  Ni  Ni14  1  0.00000000  0.50000000  0.99455600  1
  Ni  Ni15  1  0.50000000  0.00000000  0.49455600  1
  Cu  Cu16  1  0.96093400  0.74088500  0.48609700  1
  Cu  Cu17  1  0.03906600  0.25911500  0.48609700  1
  Cu  Cu18  1  0.46093400  0.75911500  0.98609700  1
  Cu  Cu19  1  0.53906600  0.24088500  0.98609700  1
  Cu  Cu20  1  0.00000000  0.50000000  0.33621800  1
  Cu  Cu21  1  0.50000000  0.00000000  0.83621800  1
  Cu  Cu22  1  0.00000000  0.50000000  0.63405000  1
  Cu  Cu23  1  0.50000000  0.00000000  0.13405000  1
  C  C24  1  0.30197600  0.86647500  0.10765800  1
  C  C25  1  0.69802400  0.13352500  0.10765800  1
  C  C26  1  0.80197600  0.63352500  0.60765800  1
  C  C27  1  0.19802400  0.36647500  0.60765800  1
  C  C28  1  0.31079800  0.86218100  0.86191400  1
  C  C29  1  0.68920200  0.13781900  0.86191400  1
  C  C30  1  0.81079800  0.63781900  0.36191400  1
  C  C31  1  0.18920200  0.36218100  0.36191400  1
  C  C32  1  0.69549700  0.91928200  0.22365200  1
  C  C33  1  0.30450300  0.08071800  0.22365200  1
  C  C34  1  0.19549700  0.58071800  0.72365200  1
  C  C35  1  0.80450300  0.41928200  0.72365200  1
  C  C36  1  0.69746800  0.92347900  0.74584300  1
  C  C37  1  0.30253200  0.07652100  0.74584300  1
  C  C38  1  0.19746800  0.57652100  0.24584300  1
  C  C39  1  0.80253200  0.42347900  0.24584300  1
  C  C40  1  0.26203900  0.62822100  0.99234900  1
  C  C41  1  0.73796100  0.37177900  0.99234900  1
  C  C42  1  0.76203900  0.87177900  0.49234900  1
  C  C43  1  0.23796000  0.12822100  0.49234900  1
  C  C44  1  0.65145000  0.92407500  0.98425800  1
  C  C45  1  0.34855000  0.07592500  0.98425800  1
  C  C46  1  0.15145000  0.57592500  0.48425800  1
  C  C47  1  0.84855000  0.42407500  0.48425800  1
  C  C48  1  0.73774700  0.68073500  0.04000900  1
  C  C49  1  0.26225300  0.31926500  0.04000900  1
  C  C50  1  0.23774700  0.81926500  0.54000900  1
  C  C51  1  0.76225300  0.18073500  0.54000900  1
  C  C52  1  0.72090500  0.66312800  0.90653900  1
  C  C53  1  0.27909500  0.33687200  0.90653900  1
  C  C54  1  0.22090500  0.83687200  0.40653900  1
  C  C55  1  0.77909500  0.16312800  0.40653900  1
