# generated using pymatgen
data_Cu2Ni4C3
_symmetry_space_group_name_H-M   'P 1'
_cell_length_a   7.15922200
_cell_length_b   7.57725000
_cell_length_c   8.61891000
_cell_angle_alpha   90.00000000
_cell_angle_beta   90.00000000
_cell_angle_gamma   90.00000000
_symmetry_Int_Tables_number   1
_chemical_formula_structural   Cu2Ni4C3
_chemical_formula_sum   'Cu8 Ni16 C12'
_cell_volume   467.55186297
_cell_formula_units_Z   4
loop_
 _symmetry_equiv_pos_site_id
 _symmetry_equiv_pos_as_xyz
  1  'x, y, z'
loop_
 _atom_site_type_symbol
 _atom_site_label
 _atom_site_symmetry_multiplicity
 _atom_site_fract_x
 _atom_site_fract_y
 _atom_site_fract_z
 _atom_site_occupancy
  Ni  Ni0  1  0.02881700  0.47769600  0.23407400  1
  Ni  Ni1  1  0.62657900  0.15702400  0.82644400  1
  Ni  Ni2  1  0.48215900  0.01250500  0.78620100  1
  Ni  Ni3  1  0.52881700  0.52230400  0.76592600  1
  Ni  Ni4  1  0.98215900  0.98749500  0.21379900  1
  Ni  Ni5  1  0.12657900  0.84297600  0.17355600  1
  Ni  Ni6  1  0.98215900  0.51250500  0.71379900  1
  Ni  Ni7  1  0.12657900  0.65702400  0.67355600  1
  Ni  Ni8  1  0.52881700  0.97769600  0.26592600  1
  Ni  Ni9  1  0.62657900  0.34297600  0.32644400  1
  Ni  Ni10  1  0.48215900  0.48749500  0.28620100  1
  Ni  Ni11  1  0.02881700  0.02230400  0.73407400  1
  Ni  Ni12  1  0.14996400  0.91297400  0.44503200  1
  Ni  Ni13  1  0.14996400  0.58702600  0.94503200  1
  Ni  Ni14  1  0.64996400  0.08702600  0.55496800  1
  Ni  Ni15  1  0.64996400  0.41297400  0.05496800  1
  Cu  Cu16  1  0.20738000  0.36772000  0.36203400  1
  Cu  Cu17  1  0.20738000  0.13228000  0.86203400  1
  Cu  Cu18  1  0.70738000  0.63228000  0.63796600  1
  Cu  Cu19  1  0.70738000  0.86772000  0.13796600  1
  Cu  Cu20  1  0.63390800  0.11165200  0.43502500  1
  Cu  Cu21  1  0.63390800  0.38834800  0.93502500  1
  Cu  Cu22  1  0.13390800  0.88834800  0.56497500  1
  Cu  Cu23  1  0.13390800  0.61165200  0.06497500  1
  C  C24  1  0.02020100  0.38343300  0.31484400  1
  C  C25  1  0.61327200  0.04422400  0.77119800  1
  C  C26  1  0.52020100  0.61656700  0.68515600  1
  C  C27  1  0.11327200  0.95577600  0.22880200  1
  C  C28  1  0.11327200  0.54422400  0.72880200  1
  C  C29  1  0.52020100  0.88343300  0.18515600  1
  C  C30  1  0.61327200  0.45577600  0.27119800  1
  C  C31  1  0.02020100  0.11656700  0.81484400  1
  C  C32  1  0.22740900  0.25569000  0.45830300  1
  C  C33  1  0.22740900  0.24431000  0.95830300  1
  C  C34  1  0.72740900  0.74431000  0.54169700  1
  C  C35  1  0.72740900  0.75569000  0.04169700  1
