# generated using pymatgen
data_Cu14NiC16
_symmetry_space_group_name_H-M   'P 1'
_cell_length_a   4.17764700
_cell_length_b   8.41779500
_cell_length_c   10.78961400
_cell_angle_alpha   90.00000000
_cell_angle_beta   90.00000000
_cell_angle_gamma   90.00000000
_symmetry_Int_Tables_number   1
_chemical_formula_structural   Cu14NiC16
_chemical_formula_sum   'Cu14 Ni1 C16'
_cell_volume   379.43378105
_cell_formula_units_Z   1
loop_
 _symmetry_equiv_pos_site_id
 _symmetry_equiv_pos_as_xyz
  1  'x, y, z'
loop_
 _atom_site_type_symbol
 _atom_site_label
 _atom_site_symmetry_multiplicity
 _atom_site_fract_x
 _atom_site_fract_y
 _atom_site_fract_z
 _atom_site_occupancy
  C  C0  1  0.00000000  0.00000000  0.93644000  1
  Ni  Ni1  1  0.00000000  0.50000000  0.98985700  1
  Cu  Cu2  1  0.00000000  0.00000000  0.47404800  1
  Cu  Cu3  1  0.00000000  0.50000000  0.46045100  1
  Cu  Cu4  1  0.50000000  0.76649700  0.07739200  1
  Cu  Cu5  1  0.50000000  0.23350300  0.07739200  1
  Cu  Cu6  1  0.50000000  0.74441700  0.48156000  1
  Cu  Cu7  1  0.50000000  0.25558300  0.48156000  1
  Cu  Cu8  1  0.50000000  0.00000000  0.67227500  1
  Cu  Cu9  1  0.50000000  0.50000000  0.72415900  1
  Cu  Cu10  1  0.50000000  0.00000000  0.26831700  1
  Cu  Cu11  1  0.50000000  0.50000000  0.27085700  1
  Cu  Cu12  1  0.00000000  0.74774900  0.68409800  1
  Cu  Cu13  1  0.00000000  0.25225100  0.68409800  1
  Cu  Cu14  1  0.00000000  0.75315000  0.26645200  1
  Cu  Cu15  1  0.00000000  0.24685000  0.26645200  1
  C  C16  1  0.00000000  0.50000000  0.79290000  1
  C  C17  1  0.00000000  0.00000000  0.28954300  1
  C  C18  1  0.00000000  0.50000000  0.27418800  1
  C  C19  1  0.50000000  0.74147100  0.68448200  1
  C  C20  1  0.50000000  0.25852900  0.68448200  1
  C  C21  1  0.50000000  0.74606600  0.26968900  1
  C  C22  1  0.50000000  0.25393400  0.26968900  1
  C  C23  1  0.50000000  0.00000000  0.07932100  1
  C  C24  1  0.50000000  0.50000000  0.03441000  1
  C  C25  1  0.50000000  0.00000000  0.48174600  1
  C  C26  1  0.50000000  0.50000000  0.47632300  1
  C  C27  1  0.00000000  0.71885300  0.06339400  1
  C  C28  1  0.00000000  0.28114700  0.06339400  1
  C  C29  1  0.00000000  0.74299100  0.48551700  1
  C  C30  1  0.00000000  0.25700900  0.48551700  1
