# generated using pymatgen
data_Cu10Ni2C17
_symmetry_space_group_name_H-M   'P 1'
_cell_length_a   9.05099099
_cell_length_b   9.05099099
_cell_length_c   9.05099099
_cell_angle_alpha   110.21042184
_cell_angle_beta   110.21042184
_cell_angle_gamma   108.00272330
_symmetry_Int_Tables_number   1
_chemical_formula_structural   Cu10Ni2C17
_chemical_formula_sum   'Cu10 Ni2 C17'
_cell_volume   570.49672839
_cell_formula_units_Z   1
loop_
 _symmetry_equiv_pos_site_id
 _symmetry_equiv_pos_as_xyz
  1  'x, y, z'
loop_
 _atom_site_type_symbol
 _atom_site_label
 _atom_site_symmetry_multiplicity
 _atom_site_fract_x
 _atom_site_fract_y
 _atom_site_fract_z
 _atom_site_occupancy
  Ni  Ni0  1  0.77762200  0.77762200  0.00000000  1
  Ni  Ni1  1  0.22237800  0.22237800  0.00000000  1
  Cu  Cu2  1  0.75240000  0.50000000  0.25240000  1
  Cu  Cu3  1  0.25000000  0.75000000  0.50000000  1
  Cu  Cu4  1  0.50000000  0.24760000  0.74760000  1
  Cu  Cu5  1  0.50000000  0.75240000  0.25240000  1
  Cu  Cu6  1  0.75000000  0.25000000  0.50000000  1
  Cu  Cu7  1  0.24760000  0.50000000  0.74760000  1
  Cu  Cu8  1  0.00000000  0.77818500  0.77818500  1
  Cu  Cu9  1  0.77818500  0.00000000  0.77818500  1
  Cu  Cu10  1  0.00000000  0.22181500  0.22181500  1
  Cu  Cu11  1  0.22181500  0.00000000  0.22181500  1
  C  C12  1  0.46576200  0.46576200  0.45800800  1
  C  C13  1  0.00775400  0.00775400  0.54199200  1
  C  C14  1  0.99224600  0.53423800  0.00000000  1
  C  C15  1  0.53423800  0.99224600  0.00000000  1
  C  C16  1  0.00000000  0.00000000  0.00000000  1
  C  C17  1  0.51163500  0.51163500  0.76298800  1
  C  C18  1  0.77096600  0.51961100  0.52194800  1
  C  C19  1  0.51961100  0.77096600  0.52194800  1
  C  C20  1  0.74864800  0.74864800  0.23701200  1
  C  C21  1  0.99766200  0.24901800  0.47805200  1
  C  C22  1  0.24901800  0.99766200  0.47805200  1
  C  C23  1  0.25135200  0.48836500  0.00000000  1
  C  C24  1  0.00233800  0.48038900  0.25135600  1
  C  C25  1  0.75098200  0.22903400  0.74864400  1
  C  C26  1  0.48836500  0.25135200  0.00000000  1
  C  C27  1  0.22903400  0.75098200  0.74864400  1
  C  C28  1  0.48038900  0.00233800  0.25135600  1
