# generated using pymatgen
data_Cu2Ni14C9
_symmetry_space_group_name_H-M   'P 1'
_cell_length_a   7.37368634
_cell_length_b   7.73977968
_cell_length_c   5.67588043
_cell_angle_alpha   111.90994259
_cell_angle_beta   109.01506010
_cell_angle_gamma   82.80592625
_symmetry_Int_Tables_number   1
_chemical_formula_structural   Cu2Ni14C9
_chemical_formula_sum   'Cu2 Ni14 C9'
_cell_volume   284.12830907
_cell_formula_units_Z   1
loop_
 _symmetry_equiv_pos_site_id
 _symmetry_equiv_pos_as_xyz
  1  'x, y, z'
loop_
 _atom_site_type_symbol
 _atom_site_label
 _atom_site_symmetry_multiplicity
 _atom_site_fract_x
 _atom_site_fract_y
 _atom_site_fract_z
 _atom_site_occupancy
  C  C0  1  0.12499100  0.64087700  0.77565000  1
  C  C1  1  0.74950300  0.23925400  0.50531000  1
  C  C2  1  0.49288500  0.00293600  0.98112400  1
  C  C3  1  0.25177700  0.23783000  0.52577900  1
  C  C4  1  0.72405100  0.78823700  0.47203900  1
  C  C5  1  0.51346800  0.46030100  0.02345300  1
  C  C6  1  0.95649300  0.03531100  0.99182400  1
  C  C7  1  0.25743900  0.75977300  0.46796500  1
  C  C8  1  0.99023800  0.48993300  0.06258800  1
  Ni  Ni9  1  0.98036800  0.17745300  0.36279800  1
  Ni  Ni10  1  0.90607100  0.23977100  0.86032700  1
  Ni  Ni11  1  0.57948200  0.25548000  0.15829500  1
  Ni  Ni12  1  0.32379200  0.01757100  0.63616500  1
  Ni  Ni13  1  0.52092900  0.32901700  0.67127300  1
  Ni  Ni14  1  0.75942000  0.57986100  0.17044000  1
  Ni  Ni15  1  0.70540100  0.91713500  0.81799000  1
  Ni  Ni16  1  0.24229200  0.41967800  0.87683300  1
  Ni  Ni17  1  0.48175000  0.66568600  0.33271300  1
  Ni  Ni18  1  0.64499400  0.98178100  0.31509200  1
  Ni  Ni19  1  0.16901600  0.51272300  0.40582700  1
  Ni  Ni20  1  0.37763100  0.76185900  0.82049400  1
  Ni  Ni21  1  0.08328100  0.75041600  0.14145100  1
  Ni  Ni22  1  0.98689200  0.84402900  0.64703800  1
  Cu  Cu23  1  0.86144400  0.51452900  0.68127800  1
  Cu  Cu24  1  0.25157200  0.09152400  0.14149100  1
