# generated using pymatgen
data_CuNi149
_symmetry_space_group_name_H-M   'P 1'
_cell_length_a   15.88866224
_cell_length_b   15.88866890
_cell_length_c   15.59662804
_cell_angle_alpha   90.00000000
_cell_angle_beta   90.00000000
_cell_angle_gamma   120.00001158
_symmetry_Int_Tables_number   1
_chemical_formula_structural   CuNi149
_chemical_formula_sum   'Cu1 Ni149'
_cell_volume   3409.85682482
_cell_formula_units_Z   1
loop_
 _symmetry_equiv_pos_site_id
 _symmetry_equiv_pos_as_xyz
  1  'x, y, z'
loop_
 _atom_site_type_symbol
 _atom_site_label
 _atom_site_symmetry_multiplicity
 _atom_site_fract_x
 _atom_site_fract_y
 _atom_site_fract_z
 _atom_site_occupancy
  Ni  Ni0  1  0.80433486  0.00099468  -0.00000000  1
  Ni  Ni1  1  0.19666082  0.00099468  -0.00000000  1
  Ni  Ni2  1  0.99900532  0.19566514  0.00000000  1
  Ni  Ni3  1  0.19666082  0.19566514  0.00000000  1
  Ni  Ni4  1  0.39882079  0.19940990  0.00000000  1
  Ni  Ni5  1  0.80058910  0.19941090  0.00000000  1
  Ni  Ni6  1  0.59986086  0.19972273  -0.00000000  1
  Ni  Ni7  1  0.19919333  0.39838766  0.00000000  1
  Ni  Ni8  1  0.00003930  0.39928052  -0.00000000  1
  Ni  Ni9  1  0.39924222  0.39928052  0.00000000  1
  Ni  Ni10  1  0.59986086  0.40013914  0.00000000  1
  Ni  Ni11  1  0.80027727  0.40013914  0.00000000  1
  Ni  Ni12  1  0.40007913  0.59992087  -0.00000000  1
  Ni  Ni13  1  0.19984073  0.59992087  -0.00000000  1
  Ni  Ni14  1  0.00003930  0.60075878  0.00000000  1
  Ni  Ni15  1  0.60071948  0.60075878  0.00000000  1
  Ni  Ni16  1  0.80058910  0.60117921  0.00000000  1
  Ni  Ni17  1  0.40007913  0.80015827  -0.00000000  1
  Ni  Ni18  1  0.60161134  0.80080567  0.00000000  1
  Ni  Ni19  1  0.19919333  0.80080567  -0.00000000  1
  Ni  Ni20  1  0.99900532  0.80334018  0.00000000  1
  Ni  Ni21  1  0.80433486  0.80334018  -0.00000000  1
  Ni  Ni22  1  0.60071948  0.99996070  0.00000000  1
  Ni  Ni23  1  0.39924222  0.99996070  0.00000000  1
  Ni  Ni24  1  0.06546793  0.13093586  0.16333147  1
  Ni  Ni25  1  0.86906414  0.93453207  0.16333147  1
  Ni  Ni26  1  0.06546793  0.93453207  0.16333147  1
  Ni  Ni27  1  0.06630858  0.33209452  0.16612277  1
  Ni  Ni28  1  0.26578594  0.33209452  0.16612277  1
  Ni  Ni29  1  0.06630858  0.73421406  0.16612277  1
  Ni  Ni30  1  0.66790548  0.73421406  0.16612277  1
  Ni  Ni31  1  0.26578594  0.93369142  0.16612277  1
  Ni  Ni32  1  0.66790548  0.93369242  0.16612277  1
  Ni  Ni33  1  0.06665198  0.53332549  0.16647811  1
  Ni  Ni34  1  0.46667451  0.53332549  0.16647811  1
  Ni  Ni35  1  0.46667451  0.93334802  0.16647811  1
  Ni  Ni36  1  0.46693814  0.13344295  0.16657586  1
  Ni  Ni37  1  0.66650381  0.13344295  0.16657586  1
  Ni  Ni38  1  0.46693814  0.33349519  0.16657586  1
  Ni  Ni39  1  0.86655705  0.33349519  0.16657586  1
  Ni  Ni40  1  0.66650381  0.53306086  0.16657586  1
  Ni  Ni41  1  0.86655705  0.53306086  0.16657586  1
  Ni  Ni42  1  0.26643519  0.53286937  0.16650930  1
  Ni  Ni43  1  0.46712963  0.73356481  0.16650930  1
  Ni  Ni44  1  0.26643519  0.73356481  0.16650930  1
  Ni  Ni45  1  0.66666700  0.33333300  0.16660635  1
  Ni  Ni46  1  0.26758717  0.13379309  0.16724545  1
  Ni  Ni47  1  0.86620691  0.13379309  0.16724545  1
  Ni  Ni48  1  0.86620691  0.73241283  0.16724545  1
  Ni  Ni49  1  0.00000000  0.00000000  0.33205680  1
  Ni  Ni50  1  0.80036698  0.99980966  0.33264870  1
  Ni  Ni51  1  0.19944168  0.99980966  0.33264870  1
  Ni  Ni52  1  0.19944168  0.19963202  0.33264870  1
  Ni  Ni53  1  0.00019034  0.19963202  0.33264870  1
  Ni  Ni54  1  0.80036698  0.80055732  0.33264870  1
  Ni  Ni55  1  0.00019034  0.80055832  0.33264870  1
  Ni  Ni56  1  0.60023562  0.00000210  0.33310307  1
  Ni  Ni57  1  0.39976748  0.00000210  0.33310307  1
  Ni  Ni58  1  0.39976748  0.39976438  0.33310307  1
  Ni  Ni59  1  -0.00000210  0.39976438  0.33310307  1
  Ni  Ni60  1  -0.00000210  0.60023352  0.33310307  1
  Ni  Ni61  1  0.60023562  0.60023352  0.33310307  1
  Ni  Ni62  1  0.19997207  0.39994214  0.33320435  1
  Ni  Ni63  1  0.60005686  0.80002893  0.33320435  1
  Ni  Ni64  1  0.19997207  0.80002893  0.33320435  1
  Ni  Ni65  1  0.59996213  0.19992526  0.33334273  1
  Ni  Ni66  1  0.59996213  0.40003787  0.33334273  1
  Ni  Ni67  1  0.80007474  0.40003787  0.33334273  1
  Ni  Ni68  1  0.39993421  0.19996660  0.33345438  1
  Ni  Ni69  1  0.80003340  0.19996760  0.33345438  1
  Ni  Ni70  1  0.80003340  0.60006579  0.33345438  1
  Ni  Ni71  1  0.40001605  0.59998395  0.33342401  1
  Ni  Ni72  1  0.19996789  0.59998395  0.33342401  1
  Ni  Ni73  1  0.40001605  0.80003211  0.33342401  1
  Ni  Ni74  1  0.06663185  0.13326371  0.50000000  1
  Ni  Ni75  1  0.26655329  0.13327664  0.50000000  1
  Ni  Ni76  1  0.86672336  0.13327664  0.50000000  1
  Ni  Ni77  1  0.46684697  0.13343048  0.50000000  1
  Ni  Ni78  1  0.66658352  0.13343048  0.50000000  1
  Ni  Ni79  1  0.06650086  0.33313001  0.50000000  1
  Ni  Ni80  1  0.26663015  0.33313101  0.50000000  1
  Ni  Ni81  1  0.66666700  0.33333300  0.50000000  1
  Ni  Ni82  1  0.46684697  0.33341648  0.50000000  1
  Ni  Ni83  1  0.86656952  0.33341648  0.50000000  1
  Ni  Ni84  1  0.66658352  0.53315203  0.50000000  1
  Ni  Ni85  1  0.86656952  0.53315203  0.50000000  1
  Ni  Ni86  1  0.06653786  0.53326843  0.50000000  1
  Ni  Ni87  1  0.46673057  0.53326843  0.50000000  1
  Ni  Ni88  1  0.26660500  0.53321000  0.50000000  1
  Ni  Ni89  1  0.06650086  0.73336985  0.50000000  1
  Ni  Ni90  1  0.66686999  0.73337085  0.50000000  1
  Ni  Ni91  1  0.26660500  0.73339500  0.50000000  1
  Ni  Ni92  1  0.46679000  0.73339500  0.50000000  1
  Ni  Ni93  1  0.86672336  0.73344671  0.50000000  1
  Ni  Ni94  1  0.06663185  0.93336815  0.50000000  1
  Ni  Ni95  1  0.86673529  0.93336815  0.50000000  1
  Ni  Ni96  1  0.46673057  0.93346114  0.50000000  1
  Ni  Ni97  1  0.26663015  0.93349914  0.50000000  1
  Ni  Ni98  1  0.66686999  0.93349914  0.50000000  1
  Ni  Ni99  1  0.40001605  0.59998395  0.66657599  1
  Ni  Ni100  1  0.19996789  0.59998395  0.66657599  1
  Ni  Ni101  1  0.40001605  0.80003211  0.66657599  1
  Ni  Ni102  1  0.39993421  0.19996660  0.66654562  1
  Ni  Ni103  1  0.80003340  0.19996760  0.66654562  1
  Ni  Ni104  1  0.80003340  0.60006579  0.66654562  1
  Ni  Ni105  1  0.59996213  0.19992526  0.66665727  1
  Ni  Ni106  1  0.59996213  0.40003787  0.66665727  1
  Ni  Ni107  1  0.80007474  0.40003787  0.66665727  1
  Ni  Ni108  1  0.19997207  0.39994214  0.66679565  1
  Ni  Ni109  1  0.60005686  0.80002893  0.66679565  1
  Ni  Ni110  1  0.19997207  0.80002893  0.66679565  1
  Ni  Ni111  1  0.60023562  0.00000210  0.66689693  1
  Ni  Ni112  1  0.39976748  0.00000210  0.66689693  1
  Ni  Ni113  1  0.39976748  0.39976438  0.66689693  1
  Ni  Ni114  1  -0.00000210  0.39976438  0.66689693  1
  Ni  Ni115  1  -0.00000210  0.60023352  0.66689693  1
  Ni  Ni116  1  0.60023562  0.60023352  0.66689693  1
  Ni  Ni117  1  0.80036698  0.99980966  0.66735130  1
  Ni  Ni118  1  0.19944168  0.99980966  0.66735130  1
  Ni  Ni119  1  0.19944168  0.19963202  0.66735130  1
  Ni  Ni120  1  0.00019034  0.19963202  0.66735130  1
  Ni  Ni121  1  0.80036698  0.80055732  0.66735130  1
  Ni  Ni122  1  0.00019034  0.80055832  0.66735130  1
  Ni  Ni123  1  0.00000000  0.00000000  0.66794220  1
  Ni  Ni124  1  0.26758717  0.13379309  0.83275455  1
  Ni  Ni125  1  0.86620691  0.13379309  0.83275455  1
  Ni  Ni126  1  0.86620691  0.73241283  0.83275455  1
  Ni  Ni127  1  0.66666700  0.33333300  0.83339365  1
  Ni  Ni128  1  0.26643519  0.53286937  0.83349070  1
  Ni  Ni129  1  0.46712963  0.73356481  0.83349070  1
  Ni  Ni130  1  0.26643519  0.73356481  0.83349070  1
  Ni  Ni131  1  0.46693814  0.13344295  0.83342414  1
  Ni  Ni132  1  0.66650381  0.13344295  0.83342414  1
  Ni  Ni133  1  0.46693814  0.33349519  0.83342414  1
  Ni  Ni134  1  0.86655705  0.33349519  0.83342414  1
  Ni  Ni135  1  0.66650381  0.53306086  0.83342414  1
  Ni  Ni136  1  0.86655705  0.53306086  0.83342414  1
  Ni  Ni137  1  0.06665198  0.53332549  0.83352189  1
  Ni  Ni138  1  0.46667451  0.53332549  0.83352189  1
  Ni  Ni139  1  0.46667451  0.93334802  0.83352189  1
  Ni  Ni140  1  0.06630858  0.33209452  0.83387723  1
  Ni  Ni141  1  0.26578594  0.33209452  0.83387723  1
  Ni  Ni142  1  0.06630858  0.73421406  0.83387723  1
  Ni  Ni143  1  0.66790548  0.73421406  0.83387723  1
  Ni  Ni144  1  0.26578594  0.93369142  0.83387723  1
  Ni  Ni145  1  0.66790548  0.93369242  0.83387723  1
  Ni  Ni146  1  0.06546793  0.13093586  0.83666753  1
  Ni  Ni147  1  0.86906414  0.93453207  0.83666753  1
  Ni  Ni148  1  0.06546793  0.93453207  0.83666753  1
  Cu  Cu149  1  0.00000000  0.00000000  0.00000000  1
