# generated using pymatgen
data_CuNiC8
_symmetry_space_group_name_H-M   'P 1'
_cell_length_a   5.80981500
_cell_length_b   5.47325700
_cell_length_c   9.44071101
_cell_angle_alpha   55.01548592
_cell_angle_beta   90.00000000
_cell_angle_gamma   90.00000000
_symmetry_Int_Tables_number   1
_chemical_formula_structural   CuNiC8
_chemical_formula_sum   'Cu2 Ni2 C16'
_cell_volume   245.95719715
_cell_formula_units_Z   2
loop_
 _symmetry_equiv_pos_site_id
 _symmetry_equiv_pos_as_xyz
  1  'x, y, z'
loop_
 _atom_site_type_symbol
 _atom_site_label
 _atom_site_symmetry_multiplicity
 _atom_site_fract_x
 _atom_site_fract_y
 _atom_site_fract_z
 _atom_site_occupancy
  C  C0  1  0.93362600  0.73396600  0.75042900  1
  C  C1  1  0.43362600  0.26603400  0.74957100  1
  C  C2  1  0.06637400  0.26603400  0.24957100  1
  C  C3  1  0.56637400  0.73396600  0.25042900  1
  Ni  Ni4  1  0.50000000  0.00000000  0.50000000  1
  Ni  Ni5  1  0.00000000  0.00000000  0.00000000  1
  Cu  Cu6  1  0.50000000  0.50000000  0.00000000  1
  Cu  Cu7  1  0.00000000  0.50000000  0.50000000  1
  C  C8  1  0.19403300  0.33867100  0.95333500  1
  C  C9  1  0.69403300  0.66132900  0.54666500  1
  C  C10  1  0.81595800  0.26576100  0.45092100  1
  C  C11  1  0.31595800  0.73423900  0.04907900  1
  C  C12  1  0.80596700  0.66132900  0.04666500  1
  C  C13  1  0.30596700  0.33867100  0.45333500  1
  C  C14  1  0.18404200  0.73423900  0.54907900  1
  C  C15  1  0.68404200  0.26576100  0.95092100  1
  C  C16  1  0.52372300  0.84762100  0.74570900  1
  C  C17  1  0.02372300  0.15237900  0.75429100  1
  C  C18  1  0.47627700  0.15237900  0.25429100  1
  C  C19  1  0.97627700  0.84762100  0.24570900  1
