# generated using pymatgen
data_CuNi4C3
_symmetry_space_group_name_H-M   'P 1'
_cell_length_a   5.59532524
_cell_length_b   5.59532524
_cell_length_c   6.95523945
_cell_angle_alpha   102.39024724
_cell_angle_beta   102.39024724
_cell_angle_gamma   99.99232802
_symmetry_Int_Tables_number   1
_chemical_formula_structural   CuNi4C3
_chemical_formula_sum   'Cu2 Ni8 C6'
_cell_volume   202.15049687
_cell_formula_units_Z   2
loop_
 _symmetry_equiv_pos_site_id
 _symmetry_equiv_pos_as_xyz
  1  'x, y, z'
loop_
 _atom_site_type_symbol
 _atom_site_label
 _atom_site_symmetry_multiplicity
 _atom_site_fract_x
 _atom_site_fract_y
 _atom_site_fract_z
 _atom_site_occupancy
  C  C0  1  0.34971900  0.65028100  0.25000000  1
  C  C1  1  0.65028100  0.34971900  0.75000000  1
  C  C2  1  0.00000000  0.00000000  0.50000000  1
  C  C3  1  0.00000000  0.00000000  0.00000000  1
  C  C4  1  0.69645400  0.30354600  0.25000000  1
  C  C5  1  0.30354600  0.69645400  0.75000000  1
  Ni  Ni6  1  0.69728700  0.09841600  0.36141200  1
  Ni  Ni7  1  0.90158400  0.30271300  0.13858800  1
  Ni  Ni8  1  0.30271300  0.90158400  0.63858800  1
  Ni  Ni9  1  0.09841600  0.69728700  0.86141200  1
  Ni  Ni10  1  0.74566600  0.55005700  0.39745900  1
  Ni  Ni11  1  0.44994300  0.25433400  0.10254100  1
  Ni  Ni12  1  0.25433400  0.44994300  0.60254100  1
  Ni  Ni13  1  0.55005700  0.74566600  0.89745900  1
  Cu  Cu14  1  0.09325000  0.90675000  0.25000000  1
  Cu  Cu15  1  0.90675000  0.09325000  0.75000000  1
