# generated using pymatgen
data_CuNiC22
_symmetry_space_group_name_H-M   'P 1'
_cell_length_a   11.33943900
_cell_length_b   11.33943900
_cell_length_c   11.33943900
_cell_angle_alpha   90.00000000
_cell_angle_beta   90.00000000
_cell_angle_gamma   90.00000000
_symmetry_Int_Tables_number   1
_chemical_formula_structural   CuNiC22
_chemical_formula_sum   'Cu4 Ni4 C88'
_cell_volume   1458.05768831
_cell_formula_units_Z   4
loop_
 _symmetry_equiv_pos_site_id
 _symmetry_equiv_pos_as_xyz
  1  'x, y, z'
loop_
 _atom_site_type_symbol
 _atom_site_label
 _atom_site_symmetry_multiplicity
 _atom_site_fract_x
 _atom_site_fract_y
 _atom_site_fract_z
 _atom_site_occupancy
  Ni  Ni0  1  0.00000000  0.00000000  0.00000000  1
  Ni  Ni1  1  0.50000000  0.00000000  0.50000000  1
  Ni  Ni2  1  0.00000000  0.50000000  0.50000000  1
  Ni  Ni3  1  0.50000000  0.50000000  0.00000000  1
  Cu  Cu4  1  0.50000000  0.50000000  0.50000000  1
  Cu  Cu5  1  0.00000000  0.50000000  0.00000000  1
  Cu  Cu6  1  0.50000000  0.00000000  0.00000000  1
  Cu  Cu7  1  0.00000000  0.00000000  0.50000000  1
  C  C8  1  0.19810500  0.19810500  0.19810500  1
  C  C9  1  0.80189500  0.80189500  0.80189500  1
  C  C10  1  0.30189500  0.80189500  0.69810500  1
  C  C11  1  0.80189500  0.69810500  0.30189500  1
  C  C12  1  0.69810500  0.19810500  0.30189500  1
  C  C13  1  0.19810500  0.30189500  0.69810500  1
  C  C14  1  0.69810500  0.30189500  0.80189500  1
  C  C15  1  0.30189500  0.69810500  0.19810500  1
  C  C16  1  0.98348800  0.98727600  0.31660500  1
  C  C17  1  0.01651200  0.01272400  0.68339500  1
  C  C18  1  0.51651200  0.01272400  0.81660500  1
  C  C19  1  0.01651200  0.48727600  0.18339500  1
  C  C20  1  0.31660500  0.98348800  0.98727600  1
  C  C21  1  0.48348800  0.98727600  0.18339500  1
  C  C22  1  0.98348800  0.51272400  0.81660500  1
  C  C23  1  0.68339500  0.01651200  0.01272400  1
  C  C24  1  0.48348800  0.51272400  0.68339500  1
  C  C25  1  0.81660500  0.51651200  0.01272400  1
  C  C26  1  0.51651200  0.48727600  0.31660500  1
  C  C27  1  0.18339500  0.48348800  0.98727600  1
  C  C28  1  0.18339500  0.01651200  0.48727600  1
  C  C29  1  0.81660500  0.98348800  0.51272400  1
  C  C30  1  0.68339500  0.48348800  0.51272400  1
  C  C31  1  0.31660500  0.51651200  0.48727600  1
  C  C32  1  0.98727600  0.31660500  0.98348800  1
  C  C33  1  0.01272400  0.68339500  0.01651200  1
  C  C34  1  0.48727600  0.18339500  0.01651200  1
  C  C35  1  0.51272400  0.81660500  0.98348800  1
  C  C36  1  0.51272400  0.68339500  0.48348800  1
  C  C37  1  0.48727600  0.31660500  0.51651200  1
  C  C38  1  0.01272400  0.81660500  0.51651200  1
  C  C39  1  0.98727600  0.18339500  0.48348800  1
  C  C40  1  0.24910400  0.47237200  0.41077100  1
  C  C41  1  0.75089600  0.52762800  0.58922900  1
  C  C42  1  0.25089600  0.52762800  0.91077100  1
  C  C43  1  0.75089600  0.97237200  0.08922900  1
  C  C44  1  0.41077100  0.24910400  0.47237200  1
  C  C45  1  0.74910400  0.47237200  0.08922900  1
  C  C46  1  0.24910400  0.02762800  0.91077100  1
  C  C47  1  0.58922900  0.75089600  0.52762800  1
  C  C48  1  0.74910400  0.02762800  0.58922900  1
  C  C49  1  0.91077100  0.25089600  0.52762800  1
  C  C50  1  0.25089600  0.97237200  0.41077100  1
  C  C51  1  0.08922900  0.74910400  0.47237200  1
  C  C52  1  0.08922900  0.75089600  0.97237200  1
  C  C53  1  0.91077100  0.24910400  0.02762800  1
  C  C54  1  0.58922900  0.74910400  0.02762800  1
  C  C55  1  0.41077100  0.25089600  0.97237200  1
  C  C56  1  0.47237200  0.41077100  0.24910400  1
  C  C57  1  0.52762800  0.58922900  0.75089600  1
  C  C58  1  0.97237200  0.08922900  0.75089600  1
  C  C59  1  0.02762800  0.91077100  0.24910400  1
  C  C60  1  0.02762800  0.58922900  0.74910400  1
  C  C61  1  0.97237200  0.41077100  0.25089600  1
  C  C62  1  0.52762800  0.91077100  0.25089600  1
  C  C63  1  0.47237200  0.08922900  0.74910400  1
  C  C64  1  0.07515100  0.19527800  0.24473000  1
  C  C65  1  0.92484900  0.80472200  0.75527000  1
  C  C66  1  0.42484900  0.80472200  0.74473000  1
  C  C67  1  0.92484900  0.69527800  0.25527000  1
  C  C68  1  0.24473000  0.07515100  0.19527800  1
  C  C69  1  0.57515100  0.19527800  0.25527000  1
  C  C70  1  0.07515100  0.30472200  0.74473000  1
  C  C71  1  0.75527000  0.92484900  0.80472200  1
  C  C72  1  0.57515100  0.30472200  0.75527000  1
  C  C73  1  0.74473000  0.42484900  0.80472200  1
  C  C74  1  0.42484900  0.69527800  0.24473000  1
  C  C75  1  0.25527000  0.57515100  0.19527800  1
  C  C76  1  0.25527000  0.92484900  0.69527800  1
  C  C77  1  0.74473000  0.07515100  0.30472200  1
  C  C78  1  0.75527000  0.57515100  0.30472200  1
  C  C79  1  0.24473000  0.42484900  0.69527800  1
  C  C80  1  0.19527800  0.24473000  0.07515100  1
  C  C81  1  0.80472200  0.75527000  0.92484900  1
  C  C82  1  0.69527800  0.25527000  0.92484900  1
  C  C83  1  0.30472200  0.74473000  0.07515100  1
  C  C84  1  0.30472200  0.75527000  0.57515100  1
  C  C85  1  0.69527800  0.24473000  0.42484900  1
  C  C86  1  0.80472200  0.74473000  0.42484900  1
  C  C87  1  0.19527800  0.25527000  0.57515100  1
  C  C88  1  0.27347900  0.27347900  0.27347900  1
  C  C89  1  0.72652100  0.72652100  0.72652100  1
  C  C90  1  0.22652100  0.72652100  0.77347900  1
  C  C91  1  0.72652100  0.77347900  0.22652100  1
  C  C92  1  0.77347900  0.27347900  0.22652100  1
  C  C93  1  0.27347900  0.22652100  0.77347900  1
  C  C94  1  0.77347900  0.22652100  0.72652100  1
  C  C95  1  0.22652100  0.77347900  0.27347900  1
