# generated using pymatgen
data_Cu20NiC13
_symmetry_space_group_name_H-M   'P 1'
_cell_length_a   9.18307920
_cell_length_b   9.18307920
_cell_length_c   6.66568292
_cell_angle_alpha   76.86236638
_cell_angle_beta   76.86236638
_cell_angle_gamma   107.81236729
_symmetry_Int_Tables_number   1
_chemical_formula_structural   Cu20NiC13
_chemical_formula_sum   'Cu20 Ni1 C13'
_cell_volume   493.72841329
_cell_formula_units_Z   1
loop_
 _symmetry_equiv_pos_site_id
 _symmetry_equiv_pos_as_xyz
  1  'x, y, z'
loop_
 _atom_site_type_symbol
 _atom_site_label
 _atom_site_symmetry_multiplicity
 _atom_site_fract_x
 _atom_site_fract_y
 _atom_site_fract_z
 _atom_site_occupancy
  C  C0  1  0.08046000  0.35082600  0.44426500  1
  C  C1  1  0.35082600  0.08046000  0.44426500  1
  C  C2  1  0.91954000  0.64917400  0.55573500  1
  C  C3  1  0.64917400  0.91954000  0.55573500  1
  C  C4  1  0.00000000  0.00000000  0.00000000  1
  C  C5  1  0.76555300  0.23444700  0.00000000  1
  C  C6  1  0.23444700  0.76555300  0.00000000  1
  C  C7  1  0.69783300  0.30216700  0.50000000  1
  C  C8  1  0.30216700  0.69783300  0.50000000  1
  C  C9  1  0.81633700  0.60013000  0.09858100  1
  C  C10  1  0.60013000  0.81633700  0.09858100  1
  C  C11  1  0.18366300  0.39987000  0.90141900  1
  C  C12  1  0.39987000  0.18366300  0.90141900  1
  Ni  Ni13  1  0.00000000  0.00000000  0.50000000  1
  Cu  Cu14  1  0.82182700  0.48409700  0.94813800  1
  Cu  Cu15  1  0.48409700  0.82182700  0.94813800  1
  Cu  Cu16  1  0.17817300  0.51590300  0.05186200  1
  Cu  Cu17  1  0.51590300  0.17817300  0.05186200  1
  Cu  Cu18  1  0.68602700  0.68602700  0.06409100  1
  Cu  Cu19  1  0.31397300  0.31397300  0.93590900  1
  Cu  Cu20  1  0.80716500  0.28964000  0.65922800  1
  Cu  Cu21  1  0.28964000  0.80716500  0.65922800  1
  Cu  Cu22  1  0.19283500  0.71036000  0.34077200  1
  Cu  Cu23  1  0.71036000  0.19283500  0.34077200  1
  Cu  Cu24  1  0.00891800  0.26099100  0.94881200  1
  Cu  Cu25  1  0.26099100  0.00891800  0.94881200  1
  Cu  Cu26  1  0.99108200  0.73900900  0.05118800  1
  Cu  Cu27  1  0.73900900  0.99108200  0.05118800  1
  Cu  Cu28  1  0.75890500  0.49503200  0.35958800  1
  Cu  Cu29  1  0.49503200  0.75890500  0.35958800  1
  Cu  Cu30  1  0.24109500  0.50496800  0.64041200  1
  Cu  Cu31  1  0.50496800  0.24109500  0.64041200  1
  Cu  Cu32  1  0.65193200  0.65193200  0.67127600  1
  Cu  Cu33  1  0.34806800  0.34806800  0.32872400  1
