# generated using pymatgen
data_CuNi6C
_symmetry_space_group_name_H-M   'P 1'
_cell_length_a   4.98241600
_cell_length_b   6.51103300
_cell_length_c   11.04858200
_cell_angle_alpha   90.00000000
_cell_angle_beta   90.00000000
_cell_angle_gamma   90.00000000
_symmetry_Int_Tables_number   1
_chemical_formula_structural   CuNi6C
_chemical_formula_sum   'Cu2 Ni12 C2'
_cell_volume   358.42345783
_cell_formula_units_Z   2
loop_
 _symmetry_equiv_pos_site_id
 _symmetry_equiv_pos_as_xyz
  1  'x, y, z'
loop_
 _atom_site_type_symbol
 _atom_site_label
 _atom_site_symmetry_multiplicity
 _atom_site_fract_x
 _atom_site_fract_y
 _atom_site_fract_z
 _atom_site_occupancy
  C  C0  1  0.00000000  0.50000000  0.16910900  1
  C  C1  1  0.00000000  0.00000000  0.66910900  1
  Ni  Ni2  1  0.50000000  0.24943100  0.08317600  1
  Ni  Ni3  1  0.50000000  0.75056900  0.08317600  1
  Ni  Ni4  1  0.50000000  0.50000000  0.83298300  1
  Ni  Ni5  1  0.00000000  0.25474700  0.91865100  1
  Ni  Ni6  1  0.00000000  0.74525300  0.91865100  1
  Ni  Ni7  1  0.00000000  0.50000000  0.66599400  1
  Ni  Ni8  1  0.50000000  0.74943100  0.58317600  1
  Ni  Ni9  1  0.50000000  0.25056900  0.58317600  1
  Ni  Ni10  1  0.50000000  0.00000000  0.33298300  1
  Ni  Ni11  1  0.00000000  0.75474700  0.41865100  1
  Ni  Ni12  1  0.00000000  0.24525300  0.41865100  1
  Ni  Ni13  1  0.00000000  0.00000000  0.16599400  1
  Cu  Cu14  1  0.50000000  0.50000000  0.32825900  1
  Cu  Cu15  1  0.50000000  0.00000000  0.82825900  1
