# generated using pymatgen
data_Cu2NiC8
_symmetry_space_group_name_H-M   'P 1'
_cell_length_a   6.53956300
_cell_length_b   7.21994200
_cell_length_c   12.71347835
_cell_angle_alpha   62.39697472
_cell_angle_beta   90.00000000
_cell_angle_gamma   90.00000000
_symmetry_Int_Tables_number   1
_chemical_formula_structural   Cu2NiC8
_chemical_formula_sum   'Cu8 Ni4 C32'
_cell_volume   531.94696506
_cell_formula_units_Z   4
loop_
 _symmetry_equiv_pos_site_id
 _symmetry_equiv_pos_as_xyz
  1  'x, y, z'
loop_
 _atom_site_type_symbol
 _atom_site_label
 _atom_site_symmetry_multiplicity
 _atom_site_fract_x
 _atom_site_fract_y
 _atom_site_fract_z
 _atom_site_occupancy
  C  C0  1  0.35422200  0.74180900  0.52812300  1
  C  C1  1  0.64577800  0.25819100  0.47187700  1
  C  C2  1  0.85422200  0.25819100  0.97187700  1
  C  C3  1  0.14577800  0.74180900  0.02812300  1
  Ni  Ni4  1  0.39831800  0.71088500  0.27119300  1
  Ni  Ni5  1  0.60168200  0.28911500  0.72880700  1
  Ni  Ni6  1  0.89831800  0.28911500  0.22880700  1
  Ni  Ni7  1  0.10168200  0.71088500  0.77119300  1
  Cu  Cu8  1  0.65782100  0.71212600  0.04770300  1
  Cu  Cu9  1  0.34217900  0.28787400  0.95229700  1
  Cu  Cu10  1  0.15782100  0.28787400  0.45229700  1
  Cu  Cu11  1  0.84217900  0.71212600  0.54770300  1
  Cu  Cu12  1  0.91005700  0.80245000  0.27884400  1
  Cu  Cu13  1  0.08994300  0.19755000  0.72115600  1
  Cu  Cu14  1  0.41005700  0.19755000  0.22115600  1
  Cu  Cu15  1  0.58994300  0.80245000  0.77884400  1
  C  C16  1  0.37583400  0.92468400  0.30677300  1
  C  C17  1  0.62416600  0.07531600  0.69322700  1
  C  C18  1  0.87583400  0.07531600  0.19322700  1
  C  C19  1  0.12416600  0.92468400  0.80677300  1
  C  C20  1  0.82836700  0.91066800  0.02251800  1
  C  C21  1  0.17163300  0.08933200  0.97748200  1
  C  C22  1  0.32836700  0.08933200  0.47748200  1
  C  C23  1  0.67163300  0.91066800  0.52251800  1
  C  C24  1  0.61564000  0.27800000  0.27989000  1
  C  C25  1  0.38436000  0.72200000  0.72011000  1
  C  C26  1  0.11564000  0.72200000  0.22011000  1
  C  C27  1  0.88436000  0.27800000  0.77989000  1
  C  C28  1  0.00383700  0.74894600  0.42564100  1
  C  C29  1  0.99616300  0.25105400  0.57435900  1
  C  C30  1  0.50383700  0.25105400  0.07435900  1
  C  C31  1  0.49616300  0.74894600  0.92564100  1
  C  C32  1  0.44385000  0.70590400  0.13291700  1
  C  C33  1  0.55615000  0.29409600  0.86708300  1
  C  C34  1  0.94385000  0.29409600  0.36708300  1
  C  C35  1  0.05615000  0.70590400  0.63291700  1
  C  C36  1  0.84471700  0.51015400  0.08243200  1
  C  C37  1  0.15528300  0.48984600  0.91756800  1
  C  C38  1  0.34471700  0.48984600  0.41756800  1
  C  C39  1  0.65528300  0.51015400  0.58243200  1
  C  C40  1  0.68202600  0.65618200  0.31328700  1
  C  C41  1  0.31797400  0.34381800  0.68671300  1
  C  C42  1  0.18202600  0.34381800  0.18671300  1
  C  C43  1  0.81797400  0.65618200  0.81328700  1
