# generated using pymatgen
data_Cu(NiC4)2
_symmetry_space_group_name_H-M   'P 1'
_cell_length_a   7.42780611
_cell_length_b   7.42780611
_cell_length_c   7.42780611
_cell_angle_alpha   120.59752996
_cell_angle_beta   119.62924760
_cell_angle_gamma   89.80576928
_symmetry_Int_Tables_number   1
_chemical_formula_structural   Cu(NiC4)2
_chemical_formula_sum   'Cu2 Ni4 C16'
_cell_volume   289.25447463
_cell_formula_units_Z   2
loop_
 _symmetry_equiv_pos_site_id
 _symmetry_equiv_pos_as_xyz
  1  'x, y, z'
loop_
 _atom_site_type_symbol
 _atom_site_label
 _atom_site_symmetry_multiplicity
 _atom_site_fract_x
 _atom_site_fract_y
 _atom_site_fract_z
 _atom_site_occupancy
  C  C0  1  0.50000000  0.00000000  0.00000000  1
  C  C1  1  0.50000000  0.50000000  0.50000000  1
  Ni  Ni2  1  0.00000000  0.50000000  0.00000000  1
  Ni  Ni3  1  0.00000000  0.00000000  0.50000000  1
  Ni  Ni4  1  0.00000000  0.50000000  0.50000000  1
  Ni  Ni5  1  0.50000000  0.50000000  0.00000000  1
  Cu  Cu6  1  0.50000000  0.00000000  0.50000000  1
  Cu  Cu7  1  0.00000000  0.00000000  0.00000000  1
  C  C8  1  0.33255000  0.59198000  0.17010900  1
  C  C9  1  0.92187100  0.16244100  0.32989100  1
  C  C10  1  0.32777200  0.57777200  0.75000000  1
  C  C11  1  0.91319600  0.16319600  0.75000000  1
  C  C12  1  0.33255000  0.16244100  0.74057000  1
  C  C13  1  0.92187100  0.59198000  0.75943000  1
  C  C14  1  0.66745000  0.40802000  0.82989100  1
  C  C15  1  0.07812900  0.83755900  0.67010900  1
  C  C16  1  0.67222800  0.42222800  0.25000000  1
  C  C17  1  0.08680400  0.83680400  0.25000000  1
  C  C18  1  0.66745000  0.83755900  0.25943000  1
  C  C19  1  0.07812900  0.40802000  0.24057000  1
  C  C20  1  0.63339200  0.88339200  0.75000000  1
  C  C21  1  0.36660800  0.11660800  0.25000000  1
