# generated using pymatgen
data_Cu2Ni4C13
_symmetry_space_group_name_H-M   'P 1'
_cell_length_a   5.58734741
_cell_length_b   5.90275828
_cell_length_c   13.50693000
_cell_angle_alpha   90.00000000
_cell_angle_beta   90.00000000
_cell_angle_gamma   106.08917389
_symmetry_Int_Tables_number   1
_chemical_formula_structural   Cu2Ni4C13
_chemical_formula_sum   'Cu4 Ni8 C26'
_cell_volume   428.02050302
_cell_formula_units_Z   2
loop_
 _symmetry_equiv_pos_site_id
 _symmetry_equiv_pos_as_xyz
  1  'x, y, z'
loop_
 _atom_site_type_symbol
 _atom_site_label
 _atom_site_symmetry_multiplicity
 _atom_site_fract_x
 _atom_site_fract_y
 _atom_site_fract_z
 _atom_site_occupancy
  C  C0  1  0.76207100  0.58152100  0.38527600  1
  C  C1  1  0.73792900  0.41847900  0.88527600  1
  C  C2  1  0.23792900  0.41847900  0.61472400  1
  C  C3  1  0.26207100  0.58152100  0.11472400  1
  C  C4  1  0.50000000  0.00000000  0.50000000  1
  C  C5  1  0.00000000  0.00000000  0.00000000  1
  Ni  Ni6  1  0.50538400  0.90902500  0.30028900  1
  Ni  Ni7  1  0.99461600  0.09097500  0.80028900  1
  Ni  Ni8  1  0.49461600  0.09097500  0.69971100  1
  Ni  Ni9  1  0.00538400  0.90902500  0.19971100  1
  Ni  Ni10  1  0.31812300  0.68104200  0.34801800  1
  Ni  Ni11  1  0.18187700  0.31895800  0.84801800  1
  Ni  Ni12  1  0.68187700  0.31895800  0.65198200  1
  Ni  Ni13  1  0.81812300  0.68104200  0.15198200  1
  Cu  Cu14  1  0.07297200  0.22848800  0.38435400  1
  Cu  Cu15  1  0.42702800  0.77151200  0.88435400  1
  Cu  Cu16  1  0.92702800  0.77151200  0.61564600  1
  Cu  Cu17  1  0.57297200  0.22848800  0.11564600  1
  C  C18  1  0.01773100  0.00522200  0.32909100  1
  C  C19  1  0.48226900  0.99477800  0.82909100  1
  C  C20  1  0.98226900  0.99477800  0.67090900  1
  C  C21  1  0.51773100  0.00522200  0.17090900  1
  C  C22  1  0.30843400  0.26406400  0.44455200  1
  C  C23  1  0.19156600  0.73593600  0.94455200  1
  C  C24  1  0.69156600  0.73593600  0.55544800  1
  C  C25  1  0.80843400  0.26406400  0.05544800  1
  C  C26  1  0.86373300  0.23042400  0.45501500  1
  C  C27  1  0.63626700  0.76957600  0.95501500  1
  C  C28  1  0.13626700  0.76957600  0.54498500  1
  C  C29  1  0.36373300  0.23042400  0.04498500  1
  C  C30  1  0.10186900  0.43556900  0.31746800  1
  C  C31  1  0.39813100  0.56443100  0.81746800  1
  C  C32  1  0.89813100  0.56443100  0.68253200  1
  C  C33  1  0.60186900  0.43556900  0.18253200  1
  C  C34  1  0.47543200  0.80939300  0.36050300  1
  C  C35  1  0.02456800  0.19060700  0.86050300  1
  C  C36  1  0.52456800  0.19060700  0.63949700  1
  C  C37  1  0.97543200  0.80939300  0.13949700  1
