# generated using pymatgen
data_Cu3NiC9
_symmetry_space_group_name_H-M   'P 1'
_cell_length_a   10.73121108
_cell_length_b   10.73121108
_cell_length_c   10.73121099
_cell_angle_alpha   110.03993146
_cell_angle_beta   110.03993146
_cell_angle_gamma   110.03993448
_symmetry_Int_Tables_number   1
_chemical_formula_structural   Cu3NiC9
_chemical_formula_sum   'Cu18 Ni6 C54'
_cell_volume   930.74561441
_cell_formula_units_Z   6
loop_
 _symmetry_equiv_pos_site_id
 _symmetry_equiv_pos_as_xyz
  1  'x, y, z'
loop_
 _atom_site_type_symbol
 _atom_site_label
 _atom_site_symmetry_multiplicity
 _atom_site_fract_x
 _atom_site_fract_y
 _atom_site_fract_z
 _atom_site_occupancy
  C  C0  1  0.19784700  0.54183800  0.98321200  1
  C  C1  1  0.98321200  0.19784700  0.54183800  1
  C  C2  1  0.54183800  0.98321200  0.19784700  1
  C  C3  1  0.80215300  0.45816200  0.01678800  1
  C  C4  1  0.01678800  0.80215300  0.45816200  1
  C  C5  1  0.45816200  0.01678800  0.80215300  1
  C  C6  1  0.19308300  0.86170500  0.17647100  1
  C  C7  1  0.17647100  0.19308300  0.86170400  1
  C  C8  1  0.86170400  0.17647100  0.19308300  1
  C  C9  1  0.80691700  0.13829600  0.82352900  1
  C  C10  1  0.82352900  0.80691700  0.13829600  1
  C  C11  1  0.13829600  0.82352900  0.80691700  1
  C  C12  1  0.88864500  0.65251500  0.87094700  1
  C  C13  1  0.87094700  0.88864500  0.65251500  1
  C  C14  1  0.65251500  0.87094700  0.88864500  1
  C  C15  1  0.11135500  0.34748500  0.12905300  1
  C  C16  1  0.12905300  0.11135500  0.34748500  1
  C  C17  1  0.34748500  0.12905300  0.11135500  1
  C  C18  1  0.28837000  0.56463200  0.29819500  1
  C  C19  1  0.29819500  0.28837000  0.56463200  1
  C  C20  1  0.56463200  0.29819500  0.28837000  1
  C  C21  1  0.71163000  0.43536800  0.70180500  1
  C  C22  1  0.70180500  0.71163000  0.43536800  1
  C  C23  1  0.43536800  0.70180500  0.71163000  1
  C  C24  1  0.40774100  0.73905200  0.42301500  1
  C  C25  1  0.42301500  0.40774100  0.73905200  1
  C  C26  1  0.73905200  0.42301500  0.40774100  1
  C  C27  1  0.59225900  0.26094800  0.57698500  1
  C  C28  1  0.57698500  0.59225900  0.26094800  1
  C  C29  1  0.26094800  0.57698500  0.59225900  1
  C  C30  1  0.99409200  0.49153400  0.68454100  1
  C  C31  1  0.68454100  0.99409200  0.49153400  1
  C  C32  1  0.49153400  0.68454100  0.99409200  1
  C  C33  1  0.00590800  0.50846600  0.31545900  1
  C  C34  1  0.31545900  0.00590800  0.50846600  1
  C  C35  1  0.50846600  0.31545900  0.00590800  1
  C  C36  1  0.89897000  0.37562900  0.71721900  1
  C  C37  1  0.71721900  0.89897000  0.37562900  1
  C  C38  1  0.37562900  0.71721900  0.89897000  1
  C  C39  1  0.10103000  0.62437100  0.28278100  1
  C  C40  1  0.28278100  0.10103000  0.62437100  1
  C  C41  1  0.62437100  0.28278100  0.10103000  1
  C  C42  1  0.28080600  0.29196700  0.14673500  1
  C  C43  1  0.14673500  0.28080600  0.29196700  1
  C  C44  1  0.29196700  0.14673500  0.28080600  1
  C  C45  1  0.71919400  0.70803300  0.85326500  1
  C  C46  1  0.85326500  0.71919400  0.70803300  1
  C  C47  1  0.70803300  0.85326500  0.71919400  1
  C  C48  1  0.29927300  0.32437100  0.00744400  1
  C  C49  1  0.00744400  0.29927300  0.32437100  1
  C  C50  1  0.32437100  0.00744400  0.29927300  1
  C  C51  1  0.70072700  0.67562900  0.99255600  1
  C  C52  1  0.99255600  0.70072700  0.67562900  1
  C  C53  1  0.67562900  0.99255600  0.70072700  1
  Ni  Ni54  1  0.18677900  0.32814500  0.19785900  1
  Ni  Ni55  1  0.19785900  0.18677900  0.32814500  1
  Ni  Ni56  1  0.32814500  0.19785900  0.18677900  1
  Ni  Ni57  1  0.81322100  0.67185500  0.80214100  1
  Ni  Ni58  1  0.80214100  0.81322100  0.67185500  1
  Ni  Ni59  1  0.67185500  0.80214100  0.81322100  1
  Cu  Cu60  1  0.00847100  0.57067200  0.00088400  1
  Cu  Cu61  1  0.00088400  0.00847100  0.57067200  1
  Cu  Cu62  1  0.57067200  0.00088400  0.00847100  1
  Cu  Cu63  1  0.99152900  0.42932800  0.99911600  1
  Cu  Cu64  1  0.99911600  0.99152900  0.42932800  1
  Cu  Cu65  1  0.42932800  0.99911600  0.99152900  1
  Cu  Cu66  1  0.31390600  0.66980700  0.31949500  1
  Cu  Cu67  1  0.31949500  0.31390600  0.66980700  1
  Cu  Cu68  1  0.66980700  0.31949500  0.31390600  1
  Cu  Cu69  1  0.68609400  0.33019300  0.68050500  1
  Cu  Cu70  1  0.68050500  0.68609400  0.33019300  1
  Cu  Cu71  1  0.33019300  0.68050500  0.68609400  1
  Cu  Cu72  1  0.98516400  0.40306100  0.69782900  1
  Cu  Cu73  1  0.69782900  0.98516400  0.40306100  1
  Cu  Cu74  1  0.40306100  0.69782900  0.98516400  1
  Cu  Cu75  1  0.01483600  0.59693900  0.30217100  1
  Cu  Cu76  1  0.30217100  0.01483600  0.59693900  1
  Cu  Cu77  1  0.59693900  0.30217100  0.01483600  1
