# generated using pymatgen
data_CuNiC13
_symmetry_space_group_name_H-M   'P 1'
_cell_length_a   9.10187006
_cell_length_b   4.61172767
_cell_length_c   4.61153541
_cell_angle_alpha   90.00767293
_cell_angle_beta   90.00011536
_cell_angle_gamma   89.99981640
_symmetry_Int_Tables_number   1
_chemical_formula_structural   CuNiC13
_chemical_formula_sum   'Cu1 Ni1 C13'
_cell_volume   193.57079274
_cell_formula_units_Z   1
loop_
 _symmetry_equiv_pos_site_id
 _symmetry_equiv_pos_as_xyz
  1  'x, y, z'
loop_
 _atom_site_type_symbol
 _atom_site_label
 _atom_site_symmetry_multiplicity
 _atom_site_fract_x
 _atom_site_fract_y
 _atom_site_fract_z
 _atom_site_occupancy
  Ni  Ni0  1  0.01355902  0.49999973  0.49999910  1
  Cu  Cu1  1  0.00488123  0.00000022  0.00000047  1
  C  C2  1  0.49624371  0.00000196  0.00000370  1
  C  C3  1  0.49845446  0.50000009  0.50000439  1
  C  C4  1  0.26498158  0.00000039  0.50001354  1
  C  C5  1  0.72100939  -0.00000617  0.50000577  1
  C  C6  1  0.26500405  0.50001148  0.00000026  1
  C  C7  1  0.72099049  0.49999681  0.00001292  1
  C  C8  1  0.27496067  -0.00000965  -0.00000689  1
  C  C9  1  0.72440791  0.00000081  -0.00000557  1
  C  C10  1  0.71421363  0.50000579  0.49998117  1
  C  C11  1  0.03259382  -0.00000070  0.49999694  1
  C  C12  1  0.49306824  -0.00000067  0.49999773  1
  C  C13  1  0.03256255  0.50000347  0.00000044  1
  C  C14  1  0.49306926  0.49999645  -0.00000397  1
