# generated using pymatgen
data_Cu3Ni
_symmetry_space_group_name_H-M   'P 1'
_cell_length_a   9.09519053
_cell_length_b   9.09519053
_cell_length_c   6.32323100
_cell_angle_alpha   90.00000000
_cell_angle_beta   90.00000000
_cell_angle_gamma   139.42733402
_symmetry_Int_Tables_number   1
_chemical_formula_structural   Cu3Ni
_chemical_formula_sum   'Cu12 Ni4'
_cell_volume   340.21318577
_cell_formula_units_Z   4
loop_
 _symmetry_equiv_pos_site_id
 _symmetry_equiv_pos_as_xyz
  1  'x, y, z'
loop_
 _atom_site_type_symbol
 _atom_site_label
 _atom_site_symmetry_multiplicity
 _atom_site_fract_x
 _atom_site_fract_y
 _atom_site_fract_z
 _atom_site_occupancy
  Ni  Ni0  1  0.57950700  0.42049300  0.50000000  1
  Ni  Ni1  1  0.07950700  0.92049300  0.00000000  1
  Ni  Ni2  1  0.42049300  0.57950700  0.50000000  1
  Ni  Ni3  1  0.92049300  0.07950700  0.00000000  1
  Cu  Cu4  1  0.16399700  0.16399700  0.66361900  1
  Cu  Cu5  1  0.66399700  0.66399700  0.83638100  1
  Cu  Cu6  1  0.33600300  0.33600300  0.16361900  1
  Cu  Cu7  1  0.83600300  0.83600300  0.33638100  1
  Cu  Cu8  1  0.98186800  0.65179400  0.68217100  1
  Cu  Cu9  1  0.48186800  0.15179400  0.81782900  1
  Cu  Cu10  1  0.84820600  0.51813200  0.18217100  1
  Cu  Cu11  1  0.34820600  0.01813200  0.31782900  1
  Cu  Cu12  1  0.65179400  0.98186800  0.68217100  1
  Cu  Cu13  1  0.15179400  0.48186800  0.81782900  1
  Cu  Cu14  1  0.51813200  0.84820600  0.18217100  1
  Cu  Cu15  1  0.01813200  0.34820600  0.31782900  1
