# generated using pymatgen
data_CuNi3C8
_symmetry_space_group_name_H-M   'P 1'
_cell_length_a   3.37972327
_cell_length_b   3.37972327
_cell_length_c   38.42081500
_cell_angle_alpha   90.00000000
_cell_angle_beta   90.00000000
_cell_angle_gamma   119.99998573
_symmetry_Int_Tables_number   1
_chemical_formula_structural   CuNi3C8
_chemical_formula_sum   'Cu1 Ni3 C8'
_cell_volume   380.06646485
_cell_formula_units_Z   1
loop_
 _symmetry_equiv_pos_site_id
 _symmetry_equiv_pos_as_xyz
  1  'x, y, z'
loop_
 _atom_site_type_symbol
 _atom_site_label
 _atom_site_symmetry_multiplicity
 _atom_site_fract_x
 _atom_site_fract_y
 _atom_site_fract_z
 _atom_site_occupancy
  C  C0  1  0.00000000  0.00000000  0.70642500  1
  C  C1  1  0.00000000  0.00000000  0.60867200  1
  Ni  Ni2  1  0.00000000  0.00000000  0.09389800  1
  Ni  Ni3  1  0.33333300  0.66666700  0.28179200  1
  Ni  Ni4  1  0.33333300  0.66666700  0.65756000  1
  Cu  Cu5  1  0.00000000  0.00000000  0.46965100  1
  C  C6  1  0.00000000  0.00000000  0.32483200  1
  C  C7  1  0.33333300  0.66666700  0.05089600  1
  C  C8  1  0.33333300  0.66666700  0.42646900  1
  C  C9  1  0.33333300  0.66666700  0.13695200  1
  C  C10  1  0.33333300  0.66666700  0.51284000  1
  C  C11  1  0.00000000  0.00000000  0.23876200  1
