# generated using pymatgen
data_Cu5(Ni2C5)2
_symmetry_space_group_name_H-M   'P 1'
_cell_length_a   10.26195100
_cell_length_b   14.45478435
_cell_length_c   14.84923951
_cell_angle_alpha   103.44926857
_cell_angle_beta   109.83297292
_cell_angle_gamma   105.52754063
_symmetry_Int_Tables_number   1
_chemical_formula_structural   Cu5(Ni2C5)2
_chemical_formula_sum   'Cu30 Ni24 C60'
_cell_volume   1864.95872352
_cell_formula_units_Z   6
loop_
 _symmetry_equiv_pos_site_id
 _symmetry_equiv_pos_as_xyz
  1  'x, y, z'
loop_
 _atom_site_type_symbol
 _atom_site_label
 _atom_site_symmetry_multiplicity
 _atom_site_fract_x
 _atom_site_fract_y
 _atom_site_fract_z
 _atom_site_occupancy
  C  C0  1  0.68210600  0.81683100  0.42217600  1
  C  C1  1  0.31789400  0.18316900  0.57782400  1
  C  C2  1  0.81216200  0.68095500  0.56812300  1
  C  C3  1  0.18783800  0.31904500  0.43187700  1
  C  C4  1  0.42616700  0.06050700  0.07198300  1
  C  C5  1  0.57383300  0.93949300  0.92801700  1
  C  C6  1  0.91732800  0.55913400  0.06581900  1
  C  C7  1  0.08267200  0.44086600  0.93418100  1
  C  C8  1  0.62206700  0.68928600  0.22187900  1
  C  C9  1  0.37793300  0.31071400  0.77812100  1
  C  C10  1  0.67597800  0.63191100  0.30579500  1
  C  C11  1  0.32402200  0.36808900  0.69420500  1
  C  C12  1  0.96332800  0.80057000  0.48695800  1
  C  C13  1  0.03667200  0.19943000  0.51304200  1
  C  C14  1  0.53244400  0.69677400  0.50480800  1
  C  C15  1  0.46755600  0.30322600  0.49519200  1
  C  C16  1  0.87291200  0.81263400  0.76732500  1
  C  C17  1  0.12708800  0.18736600  0.23267500  1
  C  C18  1  0.83088700  0.87146300  0.68522400  1
  C  C19  1  0.16911300  0.12853700  0.31477600  1
  C  C20  1  0.61072500  0.07600600  0.27250300  1
  C  C21  1  0.38927500  0.92399400  0.72749700  1
  C  C22  1  0.65642500  0.01075600  0.18952000  1
  C  C23  1  0.34357500  0.98924400  0.81048000  1
  C  C24  1  0.66901800  0.14915800  0.02806500  1
  C  C25  1  0.33098200  0.85084200  0.97193500  1
  C  C26  1  0.10000100  0.57429100  0.26875000  1
  C  C27  1  0.89999900  0.42570900  0.73125000  1
  C  C28  1  0.18317600  0.55205200  0.19358200  1
  C  C29  1  0.81682400  0.44794800  0.80641800  1
  C  C30  1  0.12108800  0.64535600  0.99394600  1
  C  C31  1  0.87891200  0.35464400  0.00605400  1
  C  C32  1  0.08358100  0.76960900  0.92161800  1
  C  C33  1  0.91641900  0.23039100  0.07838200  1
  C  C34  1  0.15037300  0.70517600  0.86462400  1
  C  C35  1  0.84962700  0.29482400  0.13537600  1
  C  C36  1  0.47045600  0.93654500  0.61074200  1
  C  C37  1  0.52954400  0.06345500  0.38925800  1
  C  C38  1  0.29487000  0.87197300  0.55855300  1
  C  C39  1  0.70513000  0.12802700  0.44144700  1
  C  C40  1  0.09480800  0.73905100  0.41550700  1
  C  C41  1  0.90519200  0.26094900  0.58449300  1
  C  C42  1  0.09686600  0.84685000  0.40648700  1
  C  C43  1  0.90313400  0.15315000  0.59351300  1
  C  C44  1  0.82820000  0.74078800  0.87943800  1
  C  C45  1  0.17180000  0.25921200  0.12056200  1
  C  C46  1  0.92242300  0.85872300  0.93732400  1
  C  C47  1  0.07757700  0.14127700  0.06267600  1
  C  C48  1  0.20741200  0.63000800  0.43811700  1
  C  C49  1  0.79258800  0.36999200  0.56188300  1
  C  C50  1  0.03145300  0.56371100  0.38935100  1
  C  C51  1  0.96854700  0.43628900  0.61064900  1
  C  C52  1  0.59730400  0.24327500  0.41945100  1
  C  C53  1  0.40269600  0.75672500  0.58054900  1
  C  C54  1  0.60355300  0.35353700  0.41534200  1
  C  C55  1  0.39644700  0.64646300  0.58465800  1
  C  C56  1  0.52098900  0.64140600  0.05277100  1
  C  C57  1  0.47901100  0.35859400  0.94722900  1
  C  C58  1  0.65427900  0.74961200  0.10452700  1
  C  C59  1  0.34572100  0.25038800  0.89547300  1
  Ni  Ni60  1  0.73607300  0.96548900  0.58980800  1
  Ni  Ni61  1  0.26392700  0.03451100  0.41019200  1
  Ni  Ni62  1  0.41621200  0.80587900  0.32689800  1
  Ni  Ni63  1  0.58378800  0.19412100  0.67310200  1
  Ni  Ni64  1  0.82440100  0.93393600  0.35384300  1
  Ni  Ni65  1  0.17559900  0.06606400  0.64615700  1
  Ni  Ni66  1  0.07719500  0.68720800  0.66299200  1
  Ni  Ni67  1  0.92280500  0.31279200  0.33700800  1
  Ni  Ni68  1  0.75841000  0.53070400  0.40321000  1
  Ni  Ni69  1  0.24159000  0.46929600  0.59679000  1
  Ni  Ni70  1  0.67542700  0.57122700  0.64427200  1
  Ni  Ni71  1  0.32457300  0.42877300  0.35572800  1
  Ni  Ni72  1  0.50448700  0.25055300  0.17552800  1
  Ni  Ni73  1  0.49551300  0.74944700  0.82447200  1
  Ni  Ni74  1  0.21810800  0.06242800  0.91142600  1
  Ni  Ni75  1  0.78189200  0.93757200  0.08857400  1
  Ni  Ni76  1  0.23948100  0.97975300  0.13762800  1
  Ni  Ni77  1  0.76051900  0.02024700  0.86237200  1
  Ni  Ni78  1  0.71524800  0.55860100  0.90194100  1
  Ni  Ni79  1  0.28475200  0.44139900  0.09805900  1
  Ni  Ni80  1  0.99404800  0.74821800  0.16914300  1
  Ni  Ni81  1  0.00595200  0.25178200  0.83085700  1
  Ni  Ni82  1  0.72780300  0.47492100  0.12818200  1
  Ni  Ni83  1  0.27219700  0.52507900  0.87181800  1
  Cu  Cu84  1  0.63612800  0.68473300  0.29238200  1
  Cu  Cu85  1  0.36387200  0.31526700  0.70761800  1
  Cu  Cu86  1  0.87722600  0.79288400  0.50665300  1
  Cu  Cu87  1  0.12277400  0.20711600  0.49334700  1
  Cu  Cu88  1  0.61786500  0.70444100  0.48474200  1
  Cu  Cu89  1  0.38213500  0.29555900  0.51525800  1
  Cu  Cu90  1  0.86932800  0.81825100  0.70047700  1
  Cu  Cu91  1  0.13067200  0.18174900  0.29952300  1
  Cu  Cu92  1  0.61252300  0.06237500  0.20272900  1
  Cu  Cu93  1  0.38747700  0.93762500  0.79727100  1
  Cu  Cu94  1  0.57949700  0.08476900  0.00511000  1
  Cu  Cu95  1  0.42050300  0.91523100  0.99489000  1
  Cu  Cu96  1  0.08583300  0.54389000  0.19545900  1
  Cu  Cu97  1  0.91416700  0.45611000  0.80454100  1
  Cu  Cu98  1  0.09353100  0.58717800  0.01785600  1
  Cu  Cu99  1  0.90646900  0.41282200  0.98214400  1
  Cu  Cu100  1  0.16686100  0.74459500  0.93361500  1
  Cu  Cu101  1  0.83313900  0.25540500  0.06638500  1
  Cu  Cu102  1  0.39149100  0.88555200  0.61613300  1
  Cu  Cu103  1  0.60850900  0.11444800  0.38386700  1
  Cu  Cu104  1  0.10575300  0.80926100  0.45382600  1
  Cu  Cu105  1  0.89424700  0.19073900  0.54617400  1
  Cu  Cu106  1  0.90974500  0.79824100  0.88356600  1
  Cu  Cu107  1  0.09025500  0.20175900  0.11643400  1
  Cu  Cu108  1  0.10810300  0.61471700  0.38178200  1
  Cu  Cu109  1  0.89189700  0.38528300  0.61821800  1
  Cu  Cu110  1  0.61023600  0.31305500  0.46015500  1
  Cu  Cu111  1  0.38976400  0.68694500  0.53984500  1
  Cu  Cu112  1  0.58084100  0.70107500  0.11637200  1
  Cu  Cu113  1  0.41915900  0.29892500  0.88362800  1
