# generated using pymatgen
data_Cu71(Ni3C)4
_symmetry_space_group_name_H-M   'P 1'
_cell_length_a   10.42338800
_cell_length_b   10.46906679
_cell_length_c   19.27921029
_cell_angle_alpha   105.20271846
_cell_angle_beta   99.52470778
_cell_angle_gamma   93.14222720
_symmetry_Int_Tables_number   1
_chemical_formula_structural   Cu71(Ni3C)4
_chemical_formula_sum   'Cu142 Ni24 C8'
_cell_volume   1991.50716158
_cell_formula_units_Z   2
loop_
 _symmetry_equiv_pos_site_id
 _symmetry_equiv_pos_as_xyz
  1  'x, y, z'
loop_
 _atom_site_type_symbol
 _atom_site_label
 _atom_site_symmetry_multiplicity
 _atom_site_fract_x
 _atom_site_fract_y
 _atom_site_fract_z
 _atom_site_occupancy
  Ni  Ni0  1  0.68629200  0.65484200  0.54362800  1
  Ni  Ni1  1  0.31370800  0.34515800  0.45637200  1
  Ni  Ni2  1  0.64597700  0.47211500  0.36742300  1
  Ni  Ni3  1  0.35402300  0.52788500  0.63257700  1
  Ni  Ni4  1  0.35898400  0.75438700  0.36477100  1
  Ni  Ni5  1  0.64101600  0.24561300  0.63522900  1
  Ni  Ni6  1  0.36463400  0.79430700  0.49596800  1
  Ni  Ni7  1  0.63536600  0.20569300  0.50403200  1
  Ni  Ni8  1  0.52372500  0.79855700  0.54903800  1
  Ni  Ni9  1  0.47627500  0.20144300  0.45096200  1
  Ni  Ni10  1  0.47903200  0.91526200  0.46200200  1
  Ni  Ni11  1  0.52096800  0.08473800  0.53799800  1
  Ni  Ni12  1  0.88603500  0.51896000  0.46572800  1
  Ni  Ni13  1  0.11396500  0.48104000  0.53427200  1
  Ni  Ni14  1  0.83755600  0.48890600  0.55189300  1
  Ni  Ni15  1  0.16244400  0.51109400  0.44810700  1
  Ni  Ni16  1  0.79481300  0.37448900  0.49834100  1
  Ni  Ni17  1  0.20518700  0.62551100  0.50165900  1
  Ni  Ni18  1  0.42175600  0.49457200  0.28187800  1
  Ni  Ni19  1  0.57824400  0.50542800  0.71812200  1
  Ni  Ni20  1  0.32027600  0.63183300  0.27333300  1
  Ni  Ni21  1  0.67972400  0.36816700  0.72666700  1
  Ni  Ni22  1  0.46889900  0.65840200  0.23995900  1
  Ni  Ni23  1  0.53110100  0.34159800  0.76004100  1
  Cu  Cu24  1  0.28431600  0.75397600  0.97846800  1
  Cu  Cu25  1  0.71568400  0.24602400  0.02153200  1
  Cu  Cu26  1  0.22769600  0.63044100  0.96005600  1
  Cu  Cu27  1  0.77230400  0.36955900  0.03994400  1
  Cu  Cu28  1  0.32509200  0.58555000  0.92750200  1
  Cu  Cu29  1  0.67490800  0.41445000  0.07249800  1
  Cu  Cu30  1  0.39752100  0.70231900  0.89466700  1
  Cu  Cu31  1  0.60247900  0.29768100  0.10533300  1
  Cu  Cu32  1  0.37782300  0.80513700  0.92845200  1
  Cu  Cu33  1  0.62217700  0.19486300  0.07154800  1
  Cu  Cu34  1  0.38903500  0.93841200  0.89277100  1
  Cu  Cu35  1  0.61096500  0.06158800  0.10722900  1
  Cu  Cu36  1  0.29820000  0.03917100  0.89512900  1
  Cu  Cu37  1  0.70180000  0.96082900  0.10487100  1
  Cu  Cu38  1  0.19535700  0.00406800  0.93288100  1
  Cu  Cu39  1  0.80464300  0.99593200  0.06711900  1
  Cu  Cu40  1  0.17846100  0.86780500  0.98027000  1
  Cu  Cu41  1  0.82153900  0.13219500  0.01973000  1
  Cu  Cu42  1  0.03956100  0.83213200  0.95903100  1
  Cu  Cu43  1  0.96043900  0.16786800  0.04096900  1
  Cu  Cu44  1  0.00050700  0.71113000  0.94516400  1
  Cu  Cu45  1  0.99949300  0.28887000  0.05483600  1
  Cu  Cu46  1  0.09377000  0.61014100  0.94374800  1
  Cu  Cu47  1  0.90623000  0.38985900  0.05625200  1
  Cu  Cu48  1  0.03129200  0.54571500  0.88736400  1
  Cu  Cu49  1  0.96870800  0.45428500  0.11263600  1
  Cu  Cu50  1  0.09857600  0.50111600  0.84226800  1
  Cu  Cu51  1  0.90142400  0.49888400  0.15773200  1
  Cu  Cu52  1  0.23955500  0.49627100  0.84947800  1
  Cu  Cu53  1  0.76044500  0.50372900  0.15052200  1
  Cu  Cu54  1  0.27228300  0.56692000  0.77903000  1
  Cu  Cu55  1  0.72771700  0.43308000  0.22097000  1
  Cu  Cu56  1  0.36286200  0.67119900  0.76707000  1
  Cu  Cu57  1  0.63713800  0.32880100  0.23293000  1
  Cu  Cu58  1  0.42356600  0.73675500  0.82325700  1
  Cu  Cu59  1  0.57643400  0.26324500  0.17674300  1
  Cu  Cu60  1  0.43898700  0.87659300  0.78690100  1
  Cu  Cu61  1  0.56101300  0.12340700  0.21309900  1
  Cu  Cu62  1  0.42246000  0.97490200  0.82081600  1
  Cu  Cu63  1  0.57754000  0.02509800  0.17918400  1
  Cu  Cu64  1  0.35533500  0.09779600  0.77850100  1
  Cu  Cu65  1  0.64466500  0.90220400  0.22149900  1
  Cu  Cu66  1  0.27767700  0.13621200  0.82408000  1
  Cu  Cu67  1  0.72232300  0.86378800  0.17592000  1
  Cu  Cu68  1  0.15441400  0.19395000  0.79253200  1
  Cu  Cu69  1  0.84558600  0.80605000  0.20746800  1
  Cu  Cu70  1  0.04629900  0.15324100  0.83049900  1
  Cu  Cu71  1  0.95370100  0.84675900  0.16950100  1
  Cu  Cu72  1  0.06672400  0.05745800  0.89844800  1
  Cu  Cu73  1  0.93327600  0.94254200  0.10155200  1
  Cu  Cu74  1  0.97121700  0.95255800  0.91477200  1
  Cu  Cu75  1  0.02878300  0.04744200  0.08522800  1
  Cu  Cu76  1  0.85812300  0.94841700  0.86305300  1
  Cu  Cu77  1  0.14187700  0.05158300  0.13694700  1
  Cu  Cu78  1  0.81244200  0.82194400  0.85170300  1
  Cu  Cu79  1  0.18755800  0.17805600  0.14829700  1
  Cu  Cu80  1  0.88429000  0.70647200  0.89136200  1
  Cu  Cu81  1  0.11571000  0.29352800  0.10863800  1
  Cu  Cu82  1  0.90291300  0.60640400  0.85572500  1
  Cu  Cu83  1  0.09708700  0.39359600  0.14427500  1
  Cu  Cu84  1  0.84805200  0.62521900  0.78171000  1
  Cu  Cu85  1  0.15194800  0.37478100  0.21829000  1
  Cu  Cu86  1  0.92263100  0.58866100  0.73454100  1
  Cu  Cu87  1  0.07736900  0.41133900  0.26545900  1
  Cu  Cu88  1  0.04566900  0.53179300  0.76435700  1
  Cu  Cu89  1  0.95433100  0.46820700  0.23564300  1
  Cu  Cu90  1  0.15258000  0.57266800  0.72544900  1
  Cu  Cu91  1  0.84742000  0.42733200  0.27455100  1
  Cu  Cu92  1  0.13294000  0.66968700  0.65855100  1
  Cu  Cu93  1  0.86706000  0.33031300  0.34144900  1
  Cu  Cu94  1  0.23073000  0.77213100  0.64353200  1
  Cu  Cu95  1  0.76927000  0.22786900  0.35646800  1
  Cu  Cu96  1  0.34184100  0.77355500  0.69709600  1
  Cu  Cu97  1  0.65815900  0.22644500  0.30290400  1
  Cu  Cu98  1  0.39029800  0.89927400  0.70927900  1
  Cu  Cu99  1  0.60970200  0.10072600  0.29072100  1
  Cu  Cu100  1  0.32629300  0.01827800  0.66814600  1
  Cu  Cu101  1  0.67370700  0.98172200  0.33185400  1
  Cu  Cu102  1  0.30812900  0.11940400  0.70359900  1
  Cu  Cu103  1  0.69187100  0.88059600  0.29640100  1
  Cu  Cu104  1  0.18031500  0.17903800  0.67109300  1
  Cu  Cu105  1  0.81968500  0.82096200  0.32890700  1
  Cu  Cu106  1  0.10468600  0.21528000  0.71487700  1
  Cu  Cu107  1  0.89531400  0.78472000  0.28512300  1
  Cu  Cu108  1  0.96524800  0.18728700  0.70516300  1
  Cu  Cu109  1  0.03475200  0.81271300  0.29483700  1
  Cu  Cu110  1  0.92910900  0.14864400  0.77680400  1
  Cu  Cu111  1  0.07089100  0.85135600  0.22319600  1
  Cu  Cu112  1  0.83631700  0.04837000  0.79286300  1
  Cu  Cu113  1  0.16368300  0.95163000  0.20713700  1
  Cu  Cu114  1  0.77541500  0.98298600  0.73788300  1
  Cu  Cu115  1  0.22458500  0.01701400  0.26211700  1
  Cu  Cu116  1  0.75958900  0.84311800  0.77442400  1
  Cu  Cu117  1  0.24041100  0.15688200  0.22557600  1
  Cu  Cu118  1  0.77685700  0.74627900  0.73993200  1
  Cu  Cu119  1  0.22314300  0.25372100  0.26006800  1
  Cu  Cu120  1  0.81053700  0.78555500  0.66757200  1
  Cu  Cu121  1  0.18946300  0.21444500  0.33242800  1
  Cu  Cu122  1  0.90090300  0.68763600  0.66433200  1
  Cu  Cu123  1  0.09909700  0.31236400  0.33566800  1
  Cu  Cu124  1  0.00487500  0.72799900  0.62689500  1
  Cu  Cu125  1  0.99512500  0.27200100  0.37310500  1
  Cu  Cu126  1  0.02325000  0.86745000  0.59141600  1
  Cu  Cu127  1  0.97675000  0.13255000  0.40858400  1
  Cu  Cu128  1  0.16297900  0.89486500  0.60147900  1
  Cu  Cu129  1  0.83702100  0.10513500  0.39852100  1
  Cu  Cu130  1  0.21012500  0.01587500  0.61358300  1
  Cu  Cu131  1  0.78987500  0.98412500  0.38641700  1
  Cu  Cu132  1  0.11933000  0.11458000  0.61576800  1
  Cu  Cu133  1  0.88067000  0.88542000  0.38423200  1
  Cu  Cu134  1  0.98495500  0.08777800  0.60636700  1
  Cu  Cu135  1  0.01504500  0.91222200  0.39363300  1
  Cu  Cu136  1  0.90659200  0.12440000  0.65207600  1
  Cu  Cu137  1  0.09340800  0.87560000  0.34792400  1
  Cu  Cu138  1  0.80986700  0.02056700  0.66866500  1
  Cu  Cu139  1  0.19013300  0.97943300  0.33133500  1
  Cu  Cu140  1  0.82773900  0.92016300  0.63280400  1
  Cu  Cu141  1  0.17226100  0.07983700  0.36719600  1
  Cu  Cu142  1  0.93597500  0.96176800  0.59423200  1
  Cu  Cu143  1  0.06402500  0.03823200  0.40576800  1
  Cu  Cu144  1  0.27291500  0.79393600  0.04483300  1
  Cu  Cu145  1  0.72708500  0.20606400  0.95516700  1
  Cu  Cu146  1  0.33353200  0.45146900  0.91813000  1
  Cu  Cu147  1  0.66646800  0.54853100  0.08187000  1
  Cu  Cu148  1  0.51791900  0.71655300  0.45778500  1
  Cu  Cu149  1  0.48208100  0.28344700  0.54221500  1
  Cu  Cu150  1  0.63327600  0.64444600  0.49103500  1
  Cu  Cu151  1  0.36672400  0.35555400  0.50896500  1
  Cu  Cu152  1  0.68111100  0.55632600  0.45904600  1
  Cu  Cu153  1  0.31888900  0.44367400  0.54095400  1
  Cu  Cu154  1  0.61029400  0.54133100  0.39259100  1
  Cu  Cu155  1  0.38970600  0.45866900  0.60740900  1
  Cu  Cu156  1  0.49450900  0.61204800  0.35763300  1
  Cu  Cu157  1  0.50549100  0.38795200  0.64236700  1
  Cu  Cu158  1  0.44955800  0.69932800  0.39116500  1
  Cu  Cu159  1  0.55044200  0.30067200  0.60883500  1
  Cu  Cu160  1  0.46886800  0.81082700  0.49313800  1
  Cu  Cu161  1  0.53113200  0.18917300  0.50686200  1
  Cu  Cu162  1  0.80616100  0.48073300  0.49580800  1
  Cu  Cu163  1  0.19383900  0.51926700  0.50419200  1
  Cu  Cu164  1  0.42211100  0.59804400  0.28481600  1
  Cu  Cu165  1  0.57788900  0.40195600  0.71518400  1
  C  C166  1  0.22525600  0.70361200  0.09967200  1
  C  C167  1  0.77474400  0.29638800  0.90032800  1
  C  C168  1  0.37326800  0.86253200  0.07458200  1
  C  C169  1  0.62673200  0.13746800  0.92541800  1
  C  C170  1  0.29176600  0.34895600  0.97083700  1
  C  C171  1  0.70823400  0.65104400  0.02916300  1
  C  C172  1  0.45497700  0.41720000  0.91052100  1
  C  C173  1  0.54502300  0.58280000  0.08947900  1
