# generated using pymatgen
data_Cu2Ni4C11
_symmetry_space_group_name_H-M   'P 1'
_cell_length_a   11.92008900
_cell_length_b   11.92008900
_cell_length_c   9.97903000
_cell_angle_alpha   90.00000000
_cell_angle_beta   90.00000000
_cell_angle_gamma   90.00000000
_symmetry_Int_Tables_number   1
_chemical_formula_structural   Cu2Ni4C11
_chemical_formula_sum   'Cu8 Ni16 C44'
_cell_volume   1417.90562138
_cell_formula_units_Z   4
loop_
 _symmetry_equiv_pos_site_id
 _symmetry_equiv_pos_as_xyz
  1  'x, y, z'
loop_
 _atom_site_type_symbol
 _atom_site_label
 _atom_site_symmetry_multiplicity
 _atom_site_fract_x
 _atom_site_fract_y
 _atom_site_fract_z
 _atom_site_occupancy
  C  C0  1  0.00000000  0.50000000  0.03624000  1
  C  C1  1  0.00000000  0.50000000  0.53624000  1
  C  C2  1  0.50000000  0.00000000  0.46376000  1
  C  C3  1  0.50000000  0.00000000  0.96376000  1
  C  C4  1  0.22741100  0.65231400  0.26514000  1
  C  C5  1  0.77258900  0.34768600  0.26514000  1
  C  C6  1  0.84768600  0.72741100  0.76514000  1
  C  C7  1  0.15231400  0.27258900  0.76514000  1
  C  C8  1  0.27258900  0.84768600  0.23486000  1
  C  C9  1  0.72741100  0.15231400  0.23486000  1
  C  C10  1  0.65231400  0.77258900  0.73486000  1
  C  C11  1  0.34768600  0.22741100  0.73486000  1
  Ni  Ni12  1  0.18131700  0.79384700  0.49400400  1
  Ni  Ni13  1  0.81868300  0.20615300  0.49400400  1
  Ni  Ni14  1  0.70615300  0.68131700  0.99400400  1
  Ni  Ni15  1  0.29384700  0.31868300  0.99400400  1
  Ni  Ni16  1  0.31868300  0.70615300  0.00599600  1
  Ni  Ni17  1  0.68131700  0.29384700  0.00599600  1
  Ni  Ni18  1  0.79384700  0.81868300  0.50599600  1
  Ni  Ni19  1  0.20615300  0.18131700  0.50599600  1
  Ni  Ni20  1  0.45046300  0.71128700  0.34614200  1
  Ni  Ni21  1  0.54953700  0.28871300  0.34614200  1
  Ni  Ni22  1  0.78871300  0.95046300  0.84614200  1
  Ni  Ni23  1  0.21128700  0.04953700  0.84614200  1
  Ni  Ni24  1  0.04953700  0.78871300  0.15385800  1
  Ni  Ni25  1  0.95046300  0.21128700  0.15385800  1
  Ni  Ni26  1  0.71128700  0.54953700  0.65385800  1
  Ni  Ni27  1  0.28871300  0.45046300  0.65385800  1
  Cu  Cu28  1  0.18000500  0.45199000  0.30445700  1
  Cu  Cu29  1  0.81999500  0.54801000  0.30445700  1
  Cu  Cu30  1  0.04801000  0.68000500  0.80445700  1
  Cu  Cu31  1  0.95199000  0.31999500  0.80445700  1
  Cu  Cu32  1  0.31999500  0.04801000  0.19554300  1
  Cu  Cu33  1  0.68000500  0.95199000  0.19554300  1
  Cu  Cu34  1  0.45199000  0.81999500  0.69554300  1
  Cu  Cu35  1  0.54801000  0.18000500  0.69554300  1
  C  C36  1  0.39342400  0.62582000  0.34237500  1
  C  C37  1  0.60657600  0.37418000  0.34237500  1
  C  C38  1  0.87418000  0.89342400  0.84237500  1
  C  C39  1  0.12582000  0.10657600  0.84237500  1
  C  C40  1  0.10657600  0.87418000  0.15762500  1
  C  C41  1  0.89342400  0.12582000  0.15762500  1
  C  C42  1  0.62582000  0.60657600  0.65762500  1
  C  C43  1  0.37418000  0.39342400  0.65762500  1
  C  C44  1  0.43651400  0.81039400  0.31403100  1
  C  C45  1  0.56348600  0.18960600  0.31403100  1
  C  C46  1  0.68960600  0.93651400  0.81403100  1
  C  C47  1  0.31039400  0.06348600  0.81403100  1
  C  C48  1  0.06348600  0.68960600  0.18596900  1
  C  C49  1  0.93651400  0.31039400  0.18596900  1
  C  C50  1  0.81039400  0.56348600  0.68596900  1
  C  C51  1  0.18960600  0.43651400  0.68596900  1
  C  C52  1  0.17058200  0.69400700  0.46462600  1
  C  C53  1  0.82941800  0.30599300  0.46462600  1
  C  C54  1  0.80599300  0.67058200  0.96462600  1
  C  C55  1  0.19400700  0.32941800  0.96462600  1
  C  C56  1  0.32941800  0.80599300  0.03537400  1
  C  C57  1  0.67058200  0.19400700  0.03537400  1
  C  C58  1  0.69400700  0.82941800  0.53537400  1
  C  C59  1  0.30599300  0.17058200  0.53537400  1
  C  C60  1  0.28468600  0.62154500  0.06356300  1
  C  C61  1  0.71531400  0.37845500  0.06356300  1
  C  C62  1  0.87845500  0.78468600  0.56356300  1
  C  C63  1  0.12154500  0.21531400  0.56356300  1
  C  C64  1  0.21531400  0.87845500  0.43643700  1
  C  C65  1  0.78468600  0.12154500  0.43643700  1
  C  C66  1  0.62154500  0.71531400  0.93643700  1
  C  C67  1  0.37845500  0.28468600  0.93643700  1
