# generated using pymatgen
data_CuNiC8
_symmetry_space_group_name_H-M   'P 1'
_cell_length_a   5.98004100
_cell_length_b   5.28981900
_cell_length_c   9.16967095
_cell_angle_alpha   56.10341106
_cell_angle_beta   90.00000000
_cell_angle_gamma   90.00000000
_symmetry_Int_Tables_number   1
_chemical_formula_structural   CuNiC8
_chemical_formula_sum   'Cu2 Ni2 C16'
_cell_volume   240.76902743
_cell_formula_units_Z   2
loop_
 _symmetry_equiv_pos_site_id
 _symmetry_equiv_pos_as_xyz
  1  'x, y, z'
loop_
 _atom_site_type_symbol
 _atom_site_label
 _atom_site_symmetry_multiplicity
 _atom_site_fract_x
 _atom_site_fract_y
 _atom_site_fract_z
 _atom_site_occupancy
  Ni  Ni0  1  0.50000000  0.50000000  0.50000000  1
  Ni  Ni1  1  0.00000000  0.50000000  0.00000000  1
  Cu  Cu2  1  0.50000000  0.00000000  0.00000000  1
  Cu  Cu3  1  0.00000000  0.00000000  0.50000000  1
  C  C4  1  0.53548600  0.74326800  0.75203200  1
  C  C5  1  0.03548600  0.25673200  0.74796800  1
  C  C6  1  0.46451400  0.25673200  0.24796800  1
  C  C7  1  0.96451400  0.74326800  0.25203200  1
  C  C8  1  0.57620200  0.07041000  0.75487500  1
  C  C9  1  0.07620200  0.92959000  0.74512500  1
  C  C10  1  0.42379800  0.92959000  0.24512500  1
  C  C11  1  0.92379800  0.07041000  0.25487500  1
  C  C12  1  0.69759900  0.46145700  0.92423300  1
  C  C13  1  0.19759900  0.53854300  0.57576700  1
  C  C14  1  0.30217400  0.18974800  0.42585400  1
  C  C15  1  0.80217400  0.81025200  0.07414600  1
  C  C16  1  0.30240100  0.53854300  0.07576700  1
  C  C17  1  0.80240100  0.46145700  0.42423300  1
  C  C18  1  0.69782600  0.81025200  0.57414600  1
  C  C19  1  0.19782600  0.18974800  0.92585400  1
