# generated using pymatgen
data_CuNiC16
_symmetry_space_group_name_H-M   'P 1'
_cell_length_a   7.28866474
_cell_length_b   7.28866474
_cell_length_c   10.04927529
_cell_angle_alpha   66.87622359
_cell_angle_beta   66.87622359
_cell_angle_gamma   70.16056297
_symmetry_Int_Tables_number   1
_chemical_formula_structural   CuNiC16
_chemical_formula_sum   'Cu2 Ni2 C32'
_cell_volume   440.57435388
_cell_formula_units_Z   2
loop_
 _symmetry_equiv_pos_site_id
 _symmetry_equiv_pos_as_xyz
  1  'x, y, z'
loop_
 _atom_site_type_symbol
 _atom_site_label
 _atom_site_symmetry_multiplicity
 _atom_site_fract_x
 _atom_site_fract_y
 _atom_site_fract_z
 _atom_site_occupancy
  Ni  Ni0  1  0.95145400  0.04854600  0.25000000  1
  Ni  Ni1  1  0.04854600  0.95145400  0.75000000  1
  Cu  Cu2  1  0.50000000  0.00000000  0.50000000  1
  Cu  Cu3  1  0.00000000  0.50000000  0.00000000  1
  C  C4  1  0.31660500  0.29341700  0.19604500  1
  C  C5  1  0.70658300  0.68339500  0.30395500  1
  C  C6  1  0.68339500  0.70658300  0.80395500  1
  C  C7  1  0.29341700  0.31660500  0.69604500  1
  C  C8  1  0.73237500  0.25303600  0.97675800  1
  C  C9  1  0.74696400  0.26762500  0.52324200  1
  C  C10  1  0.26762500  0.74696400  0.02324200  1
  C  C11  1  0.25303600  0.73237500  0.47675800  1
  C  C12  1  0.31652200  0.53080200  0.14993500  1
  C  C13  1  0.46919800  0.68347800  0.35006500  1
  C  C14  1  0.68347800  0.46919800  0.85006500  1
  C  C15  1  0.53080200  0.31652200  0.64993500  1
  C  C16  1  0.50604200  0.21138100  0.06662700  1
  C  C17  1  0.78861900  0.49395800  0.43337300  1
  C  C18  1  0.49395800  0.78861900  0.93337300  1
  C  C19  1  0.21138100  0.50604200  0.56662700  1
  C  C20  1  0.34637500  0.19041000  0.34859100  1
  C  C21  1  0.80959000  0.65362500  0.15140900  1
  C  C22  1  0.65362500  0.80959000  0.65140900  1
  C  C23  1  0.19041000  0.34637500  0.84859100  1
  C  C24  1  0.12582200  0.27740200  0.17729500  1
  C  C25  1  0.72259800  0.87417800  0.32270500  1
  C  C26  1  0.87417800  0.72259800  0.82270500  1
  C  C27  1  0.27740200  0.12582200  0.67729500  1
  C  C28  1  0.81376500  0.28435900  0.08312400  1
  C  C29  1  0.71564100  0.18623500  0.41687600  1
  C  C30  1  0.18623500  0.71564100  0.91687600  1
  C  C31  1  0.28435900  0.81376500  0.58312400  1
  C  C32  1  0.84981500  0.09233400  0.90227800  1
  C  C33  1  0.90766600  0.15018500  0.59772200  1
  C  C34  1  0.15018500  0.90766600  0.09772200  1
  C  C35  1  0.09233400  0.84981500  0.40227800  1
