# generated using pymatgen
data_Cu3Ni5C32
_symmetry_space_group_name_H-M   'P 1'
_cell_length_a   7.77046218
_cell_length_b   7.77046218
_cell_length_c   7.75429701
_cell_angle_alpha   89.99841165
_cell_angle_beta   89.99841165
_cell_angle_gamma   89.99832113
_symmetry_Int_Tables_number   1
_chemical_formula_structural   Cu3Ni5C32
_chemical_formula_sum   'Cu3 Ni5 C32'
_cell_volume   468.20509234
_cell_formula_units_Z   1
loop_
 _symmetry_equiv_pos_site_id
 _symmetry_equiv_pos_as_xyz
  1  'x, y, z'
loop_
 _atom_site_type_symbol
 _atom_site_label
 _atom_site_symmetry_multiplicity
 _atom_site_fract_x
 _atom_site_fract_y
 _atom_site_fract_z
 _atom_site_occupancy
  Ni  Ni0  1  0.74905900  0.25101500  0.25073400  1
  Ni  Ni1  1  0.25095400  0.25095400  0.25066400  1
  Ni  Ni2  1  0.74903800  0.74903800  0.25060300  1
  Ni  Ni3  1  0.25101500  0.74905900  0.25073400  1
  Ni  Ni4  1  0.74898900  0.74898900  0.74931300  1
  Cu  Cu5  1  0.74861500  0.25128900  0.74898500  1
  Cu  Cu6  1  0.25137300  0.25137300  0.74904300  1
  Cu  Cu7  1  0.25128900  0.74861500  0.74898500  1
  C  C8  1  0.49942200  0.00079900  0.50172200  1
  C  C9  1  0.49938700  0.49938700  0.99763200  1
  C  C10  1  0.00079900  0.49942200  0.50172200  1
  C  C11  1  0.49949400  0.49949400  0.50154500  1
  C  C12  1  0.00078200  0.00078200  0.99779600  1
  C  C13  1  0.49946900  0.00060000  0.99808700  1
  C  C14  1  0.00060900  0.00060900  0.50173100  1
  C  C15  1  0.00060000  0.49946900  0.99808700  1
  C  C16  1  0.00076500  0.24698200  0.99388900  1
  C  C17  1  0.49932100  0.25372500  0.99367400  1
  C  C18  1  0.00066500  0.25376200  0.50645300  1
  C  C19  1  0.49955300  0.25093800  0.50719500  1
  C  C20  1  0.00276700  0.75323900  0.99572800  1
  C  C21  1  0.49706400  0.74615200  0.99578600  1
  C  C22  1  0.00292100  0.74618300  0.50417800  1
  C  C23  1  0.49655500  0.74898900  0.50434600  1
  C  C24  1  0.00073200  0.00073200  0.24659100  1
  C  C25  1  0.49946600  0.00062700  0.25390300  1
  C  C26  1  0.00256400  0.00256400  0.75286800  1
  C  C27  1  0.49717300  0.00272800  0.74633600  1
  C  C28  1  0.00062700  0.49946600  0.25390300  1
  C  C29  1  0.49957500  0.49957500  0.25109300  1
  C  C30  1  0.00272800  0.49717300  0.74633600  1
  C  C31  1  0.49666200  0.49666200  0.74909200  1
  C  C32  1  0.75323900  0.00276700  0.99572800  1
  C  C33  1  0.24698200  0.00076500  0.99388900  1
  C  C34  1  0.74618300  0.00292100  0.50417800  1
  C  C35  1  0.25376200  0.00066500  0.50645300  1
  C  C36  1  0.74615200  0.49706400  0.99578600  1
  C  C37  1  0.25372500  0.49932100  0.99367400  1
  C  C38  1  0.74898900  0.49655500  0.50434600  1
  C  C39  1  0.25093800  0.49955300  0.50719500  1
