# generated using pymatgen
data_Cu11Ni3C14
_symmetry_space_group_name_H-M   'P 1'
_cell_length_a   8.02899400
_cell_length_b   9.26392724
_cell_length_c   9.35791757
_cell_angle_alpha   117.45928751
_cell_angle_beta   95.29185053
_cell_angle_gamma   92.38996557
_symmetry_Int_Tables_number   1
_chemical_formula_structural   Cu11Ni3C14
_chemical_formula_sum   'Cu22 Ni6 C28'
_cell_volume   612.19181733
_cell_formula_units_Z   2
loop_
 _symmetry_equiv_pos_site_id
 _symmetry_equiv_pos_as_xyz
  1  'x, y, z'
loop_
 _atom_site_type_symbol
 _atom_site_label
 _atom_site_symmetry_multiplicity
 _atom_site_fract_x
 _atom_site_fract_y
 _atom_site_fract_z
 _atom_site_occupancy
  C  C0  1  0.78134800  0.61624100  0.77892900  1
  C  C1  1  0.21865200  0.38375900  0.22107100  1
  C  C2  1  0.80713200  0.56367500  0.26956200  1
  C  C3  1  0.19286800  0.43632500  0.73043800  1
  C  C4  1  0.84677000  0.76730800  0.37451800  1
  C  C5  1  0.15323000  0.23269200  0.62548200  1
  C  C6  1  0.30894400  0.89590200  0.32706400  1
  C  C7  1  0.69105600  0.10409800  0.67293600  1
  C  C8  1  0.12008200  0.96474100  0.30949800  1
  C  C9  1  0.87991800  0.03525900  0.69050200  1
  C  C10  1  0.62488900  0.20801300  0.22742200  1
  C  C11  1  0.37511100  0.79198700  0.77257800  1
  C  C12  1  0.61996300  0.09010000  0.31788600  1
  C  C13  1  0.38003700  0.90990000  0.68211400  1
  C  C14  1  0.72685800  0.97086800  0.85508800  1
  C  C15  1  0.27314200  0.02913200  0.14491200  1
  C  C16  1  0.70529700  0.96421900  0.02237600  1
  C  C17  1  0.29470300  0.03578100  0.97762400  1
  C  C18  1  0.50502900  0.66088600  0.00463800  1
  C  C19  1  0.49497100  0.33911400  0.99536200  1
  C  C20  1  0.67661000  0.67034200  0.11305000  1
  C  C21  1  0.32339000  0.32965800  0.88695000  1
  C  C22  1  0.59946200  0.67973000  0.41572700  1
  C  C23  1  0.40053800  0.32027000  0.58427300  1
  C  C24  1  0.14523200  0.71872200  0.10113600  1
  C  C25  1  0.85476800  0.28127800  0.89886400  1
  C  C26  1  0.86731500  0.23575900  0.38004400  1
  C  C27  1  0.13268500  0.76424100  0.61995600  1
  Ni  Ni28  1  0.75533300  0.67257700  0.30618200  1
  Ni  Ni29  1  0.24466700  0.32742300  0.69381800  1
  Ni  Ni30  1  0.21664200  0.90504300  0.24820800  1
  Ni  Ni31  1  0.78335800  0.09495700  0.75179200  1
  Ni  Ni32  1  0.69202700  0.13129200  0.25633500  1
  Ni  Ni33  1  0.30797300  0.86870800  0.74366500  1
  Cu  Cu34  1  0.51144000  0.81860300  0.43042400  1
  Cu  Cu35  1  0.48856000  0.18139700  0.56957600  1
  Cu  Cu36  1  0.49714000  0.48114800  0.68366300  1
  Cu  Cu37  1  0.50286000  0.51885200  0.31633700  1
  Cu  Cu38  1  0.67110000  0.69898400  0.57486500  1
  Cu  Cu39  1  0.32890000  0.30101600  0.42513500  1
  Cu  Cu40  1  0.98164400  0.74422900  0.03652100  1
  Cu  Cu41  1  0.01835600  0.25577100  0.96347900  1
  Cu  Cu42  1  0.27010300  0.67074800  0.98775500  1
  Cu  Cu43  1  0.72989700  0.32925200  0.01224500  1
  Cu  Cu44  1  0.87419000  0.39251400  0.82645600  1
  Cu  Cu45  1  0.12581000  0.60748600  0.17354400  1
  Cu  Cu46  1  0.93926100  0.12461100  0.43355200  1
  Cu  Cu47  1  0.06073900  0.87538900  0.56644800  1
  Cu  Cu48  1  0.82308300  0.38831500  0.51308400  1
  Cu  Cu49  1  0.17691700  0.61168500  0.48691600  1
  Cu  Cu50  1  0.03259300  0.72688200  0.72519600  1
  Cu  Cu51  1  0.96740700  0.27311800  0.27480400  1
  Cu  Cu52  1  0.70291100  0.89747000  0.90367800  1
  Cu  Cu53  1  0.29708900  0.10253000  0.09632200  1
  Cu  Cu54  1  0.62834200  0.66994300  0.01082700  1
  Cu  Cu55  1  0.37165800  0.33005700  0.98917300  1
