# generated using pymatgen
data_Cu(NiC4)5
_symmetry_space_group_name_H-M   'P 1'
_cell_length_a   10.02501358
_cell_length_b   10.02501380
_cell_length_c   10.02501393
_cell_angle_alpha   109.46939702
_cell_angle_beta   109.47213805
_cell_angle_gamma   109.47212858
_symmetry_Int_Tables_number   1
_chemical_formula_structural   Cu(NiC4)5
_chemical_formula_sum   'Cu2 Ni10 C40'
_cell_volume   775.59148603
_cell_formula_units_Z   2
loop_
 _symmetry_equiv_pos_site_id
 _symmetry_equiv_pos_as_xyz
  1  'x, y, z'
loop_
 _atom_site_type_symbol
 _atom_site_label
 _atom_site_symmetry_multiplicity
 _atom_site_fract_x
 _atom_site_fract_y
 _atom_site_fract_z
 _atom_site_occupancy
  Ni  Ni0  1  0.25000000  0.87500000  0.62500000  1
  Ni  Ni1  1  0.75000000  0.12500000  0.37500000  1
  Ni  Ni2  1  0.83244000  0.72167100  0.29641200  1
  Ni  Ni3  1  0.57474100  0.79641200  0.46397200  1
  Ni  Ni4  1  0.92525800  0.38923100  0.22167100  1
  Ni  Ni5  1  0.66756000  0.96397300  0.88923100  1
  Ni  Ni6  1  0.16756000  0.27832900  0.70358800  1
  Ni  Ni7  1  0.42525900  0.20358700  0.53602800  1
  Ni  Ni8  1  0.07474100  0.61076900  0.77832900  1
  Ni  Ni9  1  0.33244000  0.03602800  0.11077000  1
  Cu  Cu10  1  0.75000000  0.62499900  0.87500000  1
  Cu  Cu11  1  0.25000000  0.37500000  0.12500000  1
  C  C12  1  0.33708300  0.54501600  0.56971100  1
  C  C13  1  0.47530500  0.70793400  0.04501600  1
  C  C14  1  0.02469400  0.06971000  0.23262800  1
  C  C15  1  0.16291800  0.73262900  0.20793400  1
  C  C16  1  0.83708200  0.26737100  0.79206600  1
  C  C17  1  0.52469500  0.29206600  0.95498400  1
  C  C18  1  0.97530500  0.93028900  0.76737100  1
  C  C19  1  0.66291800  0.45498400  0.43028900  1
  C  C20  1  0.79027300  0.48671600  0.34319100  1
  C  C21  1  0.85647500  0.84319200  0.55291900  1
  C  C22  1  0.64352500  0.19644400  0.98671700  1
  C  C23  1  0.70972700  0.05291800  0.69644300  1
  C  C24  1  0.20972700  0.51328300  0.65680800  1
  C  C25  1  0.14352500  0.15680800  0.44708200  1
  C  C26  1  0.35647500  0.80355600  0.01328300  1
  C  C27  1  0.29027300  0.94708100  0.30355700  1
  C  C28  1  0.51273000  0.51839300  0.36444500  1
  C  C29  1  0.84605300  0.86444600  0.85171600  1
  C  C30  1  0.65394700  0.50566300  0.01839200  1
  C  C31  1  0.98727100  0.35171600  0.00566400  1
  C  C32  1  0.48727100  0.48160700  0.63555400  1
  C  C33  1  0.15394800  0.13555500  0.14828400  1
  C  C34  1  0.34605300  0.49433600  0.98160700  1
  C  C35  1  0.01272900  0.64828400  0.99433600  1
  C  C36  1  0.42127600  0.27155300  0.07080100  1
  C  C37  1  0.79924700  0.57080000  0.64952400  1
  C  C38  1  0.70075300  0.35027700  0.77155300  1
  C  C39  1  0.07872400  0.14952400  0.85027700  1
  C  C40  1  0.07253800  0.69755200  0.32905300  1
  C  C41  1  0.63150000  0.82905200  0.25651500  1
  C  C42  1  0.86849900  0.12501400  0.19755100  1
  C  C43  1  0.42746300  0.75651400  0.62501400  1
  C  C44  1  0.92746200  0.30244800  0.67094800  1
  C  C45  1  0.36850000  0.17094800  0.74348600  1
  C  C46  1  0.57872400  0.72844700  0.92920000  1
  C  C47  1  0.57253700  0.24348500  0.37498500  1
  C  C48  1  0.92127600  0.85047600  0.14972300  1
  C  C49  1  0.29924700  0.64972300  0.22844700  1
  C  C50  1  0.20075300  0.42920000  0.35047600  1
  C  C51  1  0.13150000  0.87498500  0.80244800  1
