# generated using pymatgen
data_CuNiC
_symmetry_space_group_name_H-M   'P 1'
_cell_length_a   3.61758600
_cell_length_b   6.00228000
_cell_length_c   6.79504600
_cell_angle_alpha   90.00000000
_cell_angle_beta   90.00000000
_cell_angle_gamma   90.00000000
_symmetry_Int_Tables_number   1
_chemical_formula_structural   CuNiC
_chemical_formula_sum   'Cu4 Ni4 C4'
_cell_volume   147.54602587
_cell_formula_units_Z   4
loop_
 _symmetry_equiv_pos_site_id
 _symmetry_equiv_pos_as_xyz
  1  'x, y, z'
loop_
 _atom_site_type_symbol
 _atom_site_label
 _atom_site_symmetry_multiplicity
 _atom_site_fract_x
 _atom_site_fract_y
 _atom_site_fract_z
 _atom_site_occupancy
  Ni  Ni0  1  0.25000000  0.02045400  0.81722400  1
  Ni  Ni1  1  0.25000000  0.52045400  0.68277600  1
  Ni  Ni2  1  0.75000000  0.97954600  0.18277600  1
  Ni  Ni3  1  0.75000000  0.47954600  0.31722400  1
  Cu  Cu4  1  0.25000000  0.14899500  0.43750900  1
  Cu  Cu5  1  0.25000000  0.64899500  0.06249100  1
  Cu  Cu6  1  0.75000000  0.85100500  0.56249100  1
  Cu  Cu7  1  0.75000000  0.35100500  0.93750900  1
  C  C8  1  0.25000000  0.77593100  0.38060400  1
  C  C9  1  0.25000000  0.27593100  0.11939600  1
  C  C10  1  0.75000000  0.22406900  0.61939600  1
  C  C11  1  0.75000000  0.72406900  0.88060400  1
