# generated using pymatgen
data_CuNiC16
_symmetry_space_group_name_H-M   'P 1'
_cell_length_a   5.36300800
_cell_length_b   5.36300800
_cell_length_c   7.55828000
_cell_angle_alpha   90.00000000
_cell_angle_beta   90.00000000
_cell_angle_gamma   90.00000000
_symmetry_Int_Tables_number   1
_chemical_formula_structural   CuNiC16
_chemical_formula_sum   'Cu1 Ni1 C16'
_cell_volume   217.39015196
_cell_formula_units_Z   1
loop_
 _symmetry_equiv_pos_site_id
 _symmetry_equiv_pos_as_xyz
  1  'x, y, z'
loop_
 _atom_site_type_symbol
 _atom_site_label
 _atom_site_symmetry_multiplicity
 _atom_site_fract_x
 _atom_site_fract_y
 _atom_site_fract_z
 _atom_site_occupancy
  Ni  Ni0  1  0.00000000  0.00000000  0.50000000  1
  Cu  Cu1  1  0.50000000  0.50000000  0.00000000  1
  C  C2  1  0.33362200  0.00000000  0.15138700  1
  C  C3  1  0.66637800  0.00000000  0.15138700  1
  C  C4  1  0.50000000  0.83192600  0.65019300  1
  C  C5  1  0.50000000  0.16807400  0.65019300  1
  C  C6  1  0.16807400  0.50000000  0.34980700  1
  C  C7  1  0.83192600  0.50000000  0.34980700  1
  C  C8  1  0.00000000  0.66637800  0.84861300  1
  C  C9  1  0.00000000  0.33362200  0.84861300  1
  C  C10  1  0.75059800  0.00000000  0.85326500  1
  C  C11  1  0.24940200  0.00000000  0.85326500  1
  C  C12  1  0.50000000  0.25010700  0.35753500  1
  C  C13  1  0.50000000  0.74989300  0.35753500  1
  C  C14  1  0.74989300  0.50000000  0.64246500  1
  C  C15  1  0.25010700  0.50000000  0.64246500  1
  C  C16  1  0.00000000  0.24940200  0.14673500  1
  C  C17  1  0.00000000  0.75059800  0.14673500  1
