# generated using pymatgen
data_CuNiC2
_symmetry_space_group_name_H-M   'P 1'
_cell_length_a   5.05198200
_cell_length_b   10.17212900
_cell_length_c   12.57702400
_cell_angle_alpha   90.00000000
_cell_angle_beta   90.00000000
_cell_angle_gamma   90.00000000
_symmetry_Int_Tables_number   1
_chemical_formula_structural   CuNiC2
_chemical_formula_sum   'Cu16 Ni16 C32'
_cell_volume   646.32587574
_cell_formula_units_Z   16
loop_
 _symmetry_equiv_pos_site_id
 _symmetry_equiv_pos_as_xyz
  1  'x, y, z'
loop_
 _atom_site_type_symbol
 _atom_site_label
 _atom_site_symmetry_multiplicity
 _atom_site_fract_x
 _atom_site_fract_y
 _atom_site_fract_z
 _atom_site_occupancy
  Ni  Ni0  1  0.63898400  0.03721600  0.18637300  1
  Ni  Ni1  1  0.13898400  0.46278400  0.81362700  1
  Ni  Ni2  1  0.36101600  0.53721600  0.31362700  1
  Ni  Ni3  1  0.86101600  0.96278400  0.68637300  1
  Ni  Ni4  1  0.36101600  0.96278400  0.81362700  1
  Ni  Ni5  1  0.86101600  0.53721600  0.18637300  1
  Ni  Ni6  1  0.63898400  0.46278400  0.68637300  1
  Ni  Ni7  1  0.13898400  0.03721600  0.31362700  1
  Ni  Ni8  1  0.78697000  0.28968900  0.06115400  1
  Ni  Ni9  1  0.28697000  0.21031100  0.93884600  1
  Ni  Ni10  1  0.21303000  0.78968900  0.43884600  1
  Ni  Ni11  1  0.71303000  0.71031100  0.56115400  1
  Ni  Ni12  1  0.21303000  0.71031100  0.93884600  1
  Ni  Ni13  1  0.71303000  0.78968900  0.06115400  1
  Ni  Ni14  1  0.78697000  0.21031100  0.56115400  1
  Ni  Ni15  1  0.28697000  0.28968900  0.43884600  1
  Cu  Cu16  1  0.67007000  0.95180000  0.44254800  1
  Cu  Cu17  1  0.17007000  0.54820000  0.55745200  1
  Cu  Cu18  1  0.32993000  0.45180000  0.05745200  1
  Cu  Cu19  1  0.82993000  0.04820000  0.94254800  1
  Cu  Cu20  1  0.32993000  0.04820000  0.55745200  1
  Cu  Cu21  1  0.82993000  0.45180000  0.44254800  1
  Cu  Cu22  1  0.67007000  0.54820000  0.94254800  1
  Cu  Cu23  1  0.17007000  0.95180000  0.05745200  1
  Cu  Cu24  1  0.79009900  0.29206200  0.30402800  1
  Cu  Cu25  1  0.29009900  0.20793800  0.69597200  1
  Cu  Cu26  1  0.20990100  0.79206200  0.19597200  1
  Cu  Cu27  1  0.70990100  0.70793800  0.80402800  1
  Cu  Cu28  1  0.20990100  0.70793800  0.69597200  1
  Cu  Cu29  1  0.70990100  0.79206200  0.30402800  1
  Cu  Cu30  1  0.79009900  0.20793800  0.80402800  1
  Cu  Cu31  1  0.29009900  0.29206200  0.19597200  1
  C  C32  1  0.68690000  0.48500300  0.29848800  1
  C  C33  1  0.18690000  0.01499700  0.70151200  1
  C  C34  1  0.31310000  0.98500300  0.20151200  1
  C  C35  1  0.81310000  0.51499700  0.79848800  1
  C  C36  1  0.31310000  0.51499700  0.70151200  1
  C  C37  1  0.81310000  0.98500300  0.29848800  1
  C  C38  1  0.68690000  0.01499700  0.79848800  1
  C  C39  1  0.18690000  0.48500300  0.20151200  1
  C  C40  1  0.63106700  0.27555600  0.44941700  1
  C  C41  1  0.13106700  0.22444400  0.55058300  1
  C  C42  1  0.36893300  0.77555600  0.05058300  1
  C  C43  1  0.86893300  0.72444400  0.94941700  1
  C  C44  1  0.36893300  0.72444400  0.55058300  1
  C  C45  1  0.86893300  0.77555600  0.44941700  1
  C  C46  1  0.63106700  0.22444400  0.94941700  1
  C  C47  1  0.13106700  0.27555600  0.05058300  1
  C  C48  1  0.72399200  0.45822300  0.07585200  1
  C  C49  1  0.22399200  0.04177700  0.92414800  1
  C  C50  1  0.27600800  0.95822300  0.42414800  1
  C  C51  1  0.77600800  0.54177700  0.57585200  1
  C  C52  1  0.27600800  0.54177700  0.92414800  1
  C  C53  1  0.77600800  0.95822300  0.07585200  1
  C  C54  1  0.72399200  0.04177700  0.57585200  1
  C  C55  1  0.22399200  0.45822300  0.42414800  1
  C  C56  1  0.65324400  0.20852900  0.17299100  1
  C  C57  1  0.15324400  0.29147100  0.82700900  1
  C  C58  1  0.34675600  0.70852900  0.32700900  1
  C  C59  1  0.84675600  0.79147100  0.67299100  1
  C  C60  1  0.34675600  0.79147100  0.82700900  1
  C  C61  1  0.84675600  0.70852900  0.17299100  1
  C  C62  1  0.65324400  0.29147100  0.67299100  1
  C  C63  1  0.15324400  0.20852900  0.32700900  1
