# generated using pymatgen
data_Cu6Ni2C
_symmetry_space_group_name_H-M   'P 1'
_cell_length_a   6.31032100
_cell_length_b   6.25003238
_cell_length_c   18.98081500
_cell_angle_alpha   90.00000000
_cell_angle_beta   90.00000000
_cell_angle_gamma   120.31960240
_symmetry_Int_Tables_number   1
_chemical_formula_structural   Cu6Ni2C
_chemical_formula_sum   'Cu24 Ni8 C4'
_cell_volume   646.20679801
_cell_formula_units_Z   4
loop_
 _symmetry_equiv_pos_site_id
 _symmetry_equiv_pos_as_xyz
  1  'x, y, z'
loop_
 _atom_site_type_symbol
 _atom_site_label
 _atom_site_symmetry_multiplicity
 _atom_site_fract_x
 _atom_site_fract_y
 _atom_site_fract_z
 _atom_site_occupancy
  C  C0  1  0.50000000  0.50000000  0.00000000  1
  C  C1  1  0.00000000  0.50000000  0.50000000  1
  C  C2  1  0.50000000  0.00000000  0.25000000  1
  C  C3  1  0.50000000  0.00000000  0.75000000  1
  Ni  Ni4  1  0.00000000  0.00000000  0.15980900  1
  Ni  Ni5  1  0.00000000  0.00000000  0.84019100  1
  Ni  Ni6  1  0.00000000  0.00000000  0.34019100  1
  Ni  Ni7  1  0.00000000  0.00000000  0.65980900  1
  Ni  Ni8  1  0.50000000  0.50000000  0.40978100  1
  Ni  Ni9  1  0.50000000  0.50000000  0.59021900  1
  Ni  Ni10  1  0.00000000  0.50000000  0.09021900  1
  Ni  Ni11  1  0.00000000  0.50000000  0.90978100  1
  Cu  Cu12  1  0.32800100  0.17667900  0.00000000  1
  Cu  Cu13  1  0.67199900  0.82332100  0.00000000  1
  Cu  Cu14  1  0.84867800  0.17667900  0.50000000  1
  Cu  Cu15  1  0.15132200  0.82332100  0.50000000  1
  Cu  Cu16  1  0.31185800  0.49571300  0.41015300  1
  Cu  Cu17  1  0.68814200  0.50428700  0.58984700  1
  Cu  Cu18  1  0.68814200  0.50428700  0.41015300  1
  Cu  Cu19  1  0.18385400  0.49571300  0.08984700  1
  Cu  Cu20  1  0.31185800  0.49571300  0.58984700  1
  Cu  Cu21  1  0.81614600  0.50428700  0.91015300  1
  Cu  Cu22  1  0.81614600  0.50428700  0.08984700  1
  Cu  Cu23  1  0.18385400  0.49571300  0.91015300  1
  Cu  Cu24  1  0.18388400  0.99543600  0.16022600  1
  Cu  Cu25  1  0.81611600  0.00456400  0.83977400  1
  Cu  Cu26  1  0.81611600  0.00456400  0.16022600  1
  Cu  Cu27  1  0.81155200  0.99543600  0.33977400  1
  Cu  Cu28  1  0.18388400  0.99543600  0.83977400  1
  Cu  Cu29  1  0.18844800  0.00456400  0.66022600  1
  Cu  Cu30  1  0.18844800  0.00456400  0.33977400  1
  Cu  Cu31  1  0.81155200  0.99543600  0.66022600  1
  Cu  Cu32  1  0.33823300  0.67646600  0.25000000  1
  Cu  Cu33  1  0.66176700  0.32353400  0.75000000  1
  Cu  Cu34  1  0.66176700  0.32353400  0.25000000  1
  Cu  Cu35  1  0.33823300  0.67646600  0.75000000  1
