# generated using pymatgen
data_Cu2NiC8
_symmetry_space_group_name_H-M   'P 1'
_cell_length_a   7.18538725
_cell_length_b   8.89732861
_cell_length_c   9.64607022
_cell_angle_alpha   73.72327209
_cell_angle_beta   103.02419984
_cell_angle_gamma   68.04438369
_symmetry_Int_Tables_number   1
_chemical_formula_structural   Cu2NiC8
_chemical_formula_sum   'Cu8 Ni4 C32'
_cell_volume   509.88392926
_cell_formula_units_Z   4
loop_
 _symmetry_equiv_pos_site_id
 _symmetry_equiv_pos_as_xyz
  1  'x, y, z'
loop_
 _atom_site_type_symbol
 _atom_site_label
 _atom_site_symmetry_multiplicity
 _atom_site_fract_x
 _atom_site_fract_y
 _atom_site_fract_z
 _atom_site_occupancy
  C  C0  1  0.16034400  0.37715100  0.81080000  1
  C  C1  1  0.83964000  0.62302100  0.18916900  1
  C  C2  1  0.16039300  0.87691400  0.31081900  1
  C  C3  1  0.83959600  0.12304700  0.68919100  1
  Ni  Ni4  1  0.65171000  0.83668800  0.81518500  1
  Ni  Ni5  1  0.65173100  0.33664200  0.31519400  1
  Ni  Ni6  1  0.34828900  0.66337400  0.68478400  1
  Ni  Ni7  1  0.34824800  0.16332100  0.18478600  1
  Cu  Cu8  1  0.68482300  0.60386200  0.48697800  1
  Cu  Cu9  1  0.68471000  0.10393300  0.98694500  1
  Cu  Cu10  1  0.31526500  0.89604400  0.01307500  1
  Cu  Cu11  1  0.31521300  0.39611600  0.51300800  1
  Cu  Cu12  1  0.19572400  0.09510800  0.51591600  1
  Cu  Cu13  1  0.19579200  0.59509200  0.01598900  1
  Cu  Cu14  1  0.80424600  0.40490900  0.98404300  1
  Cu  Cu15  1  0.80423200  0.90490500  0.48406300  1
  C  C16  1  0.68541000  0.05462100  0.84576000  1
  C  C17  1  0.68557200  0.55454900  0.34580600  1
  C  C18  1  0.31450000  0.44543500  0.65419100  1
  C  C19  1  0.31456700  0.94539500  0.15424400  1
  C  C20  1  0.86013700  0.45934500  0.63933700  1
  C  C21  1  0.86001700  0.95939200  0.13930200  1
  C  C22  1  0.13991300  0.04049700  0.86072400  1
  C  C23  1  0.13991800  0.54066300  0.36065700  1
  C  C24  1  0.45882900  0.67785800  0.49505600  1
  C  C25  1  0.45873600  0.17798500  0.99501700  1
  C  C26  1  0.54121500  0.82204500  0.00495600  1
  C  C27  1  0.54119500  0.32208800  0.50493500  1
  C  C28  1  0.65077300  0.58398500  0.84442400  1
  C  C29  1  0.65074300  0.08395600  0.34444800  1
  C  C30  1  0.34923400  0.91604100  0.65553600  1
  C  C31  1  0.34922700  0.41599200  0.15557000  1
  C  C32  1  0.21608800  0.08980300  0.36153400  1
  C  C33  1  0.21622500  0.58988300  0.86159400  1
  C  C34  1  0.78383800  0.41019000  0.13842200  1
  C  C35  1  0.78386700  0.91019400  0.63845200  1
  C  C36  1  0.27051200  0.22786000  0.56144800  1
  C  C37  1  0.27065500  0.72774500  0.06166900  1
  C  C38  1  0.72944400  0.27217300  0.93847600  1
  C  C39  1  0.72944400  0.77215500  0.43853000  1
  C  C40  1  0.04070800  0.83392500  0.49596300  1
  C  C41  1  0.04070300  0.33396100  0.99594500  1
  C  C42  1  0.95930100  0.66608200  0.00402100  1
  C  C43  1  0.95926700  0.16605600  0.50403600  1
