# generated using pymatgen
data_Cu2Ni6C19
_symmetry_space_group_name_H-M   'P 1'
_cell_length_a   5.99818700
_cell_length_b   7.98704500
_cell_length_c   18.60767197
_cell_angle_alpha   88.52891081
_cell_angle_beta   90.00000000
_cell_angle_gamma   90.00000000
_symmetry_Int_Tables_number   1
_chemical_formula_structural   Cu2Ni6C19
_chemical_formula_sum   'Cu4 Ni12 C38'
_cell_volume   891.15861455
_cell_formula_units_Z   2
loop_
 _symmetry_equiv_pos_site_id
 _symmetry_equiv_pos_as_xyz
  1  'x, y, z'
loop_
 _atom_site_type_symbol
 _atom_site_label
 _atom_site_symmetry_multiplicity
 _atom_site_fract_x
 _atom_site_fract_y
 _atom_site_fract_z
 _atom_site_occupancy
  Ni  Ni0  1  0.75738300  0.50163900  0.08238500  1
  Ni  Ni1  1  0.24261700  0.49836100  0.91761500  1
  Ni  Ni2  1  0.75738300  0.49836100  0.41761500  1
  Ni  Ni3  1  0.24261700  0.50163900  0.58238500  1
  Ni  Ni4  1  0.74468200  0.96910700  0.09008100  1
  Ni  Ni5  1  0.25531800  0.03089300  0.90991900  1
  Ni  Ni6  1  0.74468200  0.03089300  0.40991900  1
  Ni  Ni7  1  0.25531800  0.96910700  0.59008100  1
  Ni  Ni8  1  0.72409800  0.00000000  0.75000000  1
  Ni  Ni9  1  0.27590200  0.00000000  0.25000000  1
  Ni  Ni10  1  0.66990800  0.50000000  0.75000000  1
  Ni  Ni11  1  0.33009200  0.50000000  0.25000000  1
  Cu  Cu12  1  0.74599800  0.75221300  0.90999600  1
  Cu  Cu13  1  0.25400200  0.24778700  0.09000400  1
  Cu  Cu14  1  0.74599800  0.24778700  0.59000400  1
  Cu  Cu15  1  0.25400200  0.75221300  0.40999600  1
  C  C16  1  0.75151700  0.75262000  0.55683700  1
  C  C17  1  0.24848300  0.24738000  0.44316300  1
  C  C18  1  0.75151700  0.24738000  0.94316300  1
  C  C19  1  0.24848300  0.75262000  0.05683700  1
  C  C20  1  0.77268100  0.77979200  0.26670000  1
  C  C21  1  0.22731900  0.22020800  0.73330000  1
  C  C22  1  0.77268100  0.22020800  0.23330000  1
  C  C23  1  0.22731900  0.77979200  0.76670000  1
  C  C24  1  0.21054500  0.00000000  0.75000000  1
  C  C25  1  0.78945500  0.00000000  0.25000000  1
  C  C26  1  0.49260700  0.76393900  0.00090100  1
  C  C27  1  0.50739300  0.23606100  0.99909900  1
  C  C28  1  0.49260700  0.23606100  0.49909900  1
  C  C29  1  0.50739300  0.76393900  0.50090100  1
  C  C30  1  0.75936000  0.94249500  0.60705400  1
  C  C31  1  0.24064000  0.05750500  0.39294600  1
  C  C32  1  0.75936000  0.05750500  0.89294600  1
  C  C33  1  0.24064000  0.94249500  0.10705400  1
  C  C34  1  0.00858500  0.76206800  0.99796800  1
  C  C35  1  0.99141500  0.23793200  0.00203200  1
  C  C36  1  0.00858500  0.23793200  0.50203200  1
  C  C37  1  0.99141500  0.76206800  0.49796800  1
  C  C38  1  0.31378300  0.69372400  0.68588800  1
  C  C39  1  0.68621700  0.30627600  0.31411200  1
  C  C40  1  0.31378300  0.30627600  0.81411200  1
  C  C41  1  0.68621700  0.69372400  0.18588800  1
  C  C42  1  0.44507600  0.75192700  0.83248200  1
  C  C43  1  0.55492400  0.24807300  0.16751800  1
  C  C44  1  0.44507600  0.24807300  0.66751800  1
  C  C45  1  0.55492400  0.75192700  0.33248200  1
  C  C46  1  0.96845500  0.73023000  0.80858100  1
  C  C47  1  0.03154500  0.26977000  0.19141900  1
  C  C48  1  0.96845500  0.26977000  0.69141900  1
  C  C49  1  0.03154500  0.73023000  0.30858100  1
  C  C50  1  0.75444700  0.54169200  0.59323900  1
  C  C51  1  0.24555300  0.45830800  0.40676100  1
  C  C52  1  0.75444700  0.45830800  0.90676100  1
  C  C53  1  0.24555300  0.54169200  0.09323900  1
