# generated using pymatgen
data_CuNi
_symmetry_space_group_name_H-M   'P 1'
_cell_length_a   4.03314200
_cell_length_b   5.94564100
_cell_length_c   10.56022666
_cell_angle_alpha   86.40497489
_cell_angle_beta   90.00000000
_cell_angle_gamma   90.00000000
_symmetry_Int_Tables_number   1
_chemical_formula_structural   CuNi
_chemical_formula_sum   'Cu4 Ni4'
_cell_volume   252.73185143
_cell_formula_units_Z   4
loop_
 _symmetry_equiv_pos_site_id
 _symmetry_equiv_pos_as_xyz
  1  'x, y, z'
loop_
 _atom_site_type_symbol
 _atom_site_label
 _atom_site_symmetry_multiplicity
 _atom_site_fract_x
 _atom_site_fract_y
 _atom_site_fract_z
 _atom_site_occupancy
  Ni  Ni0  1  0.75000000  0.30896500  0.63270800  1
  Ni  Ni1  1  0.25000000  0.69103500  0.36729200  1
  Ni  Ni2  1  0.75000000  0.75356000  0.89674500  1
  Ni  Ni3  1  0.25000000  0.24644000  0.10325500  1
  Cu  Cu4  1  0.75000000  0.26242400  0.92469100  1
  Cu  Cu5  1  0.25000000  0.73757600  0.07530900  1
  Cu  Cu6  1  0.25000000  0.61745500  0.64378000  1
  Cu  Cu7  1  0.75000000  0.38254500  0.35622000  1
