# generated using pymatgen
data_CuNi9C2
_symmetry_space_group_name_H-M   'P 1'
_cell_length_a   7.73517804
_cell_length_b   12.26365740
_cell_length_c   19.78612654
_cell_angle_alpha   90.00000000
_cell_angle_beta   90.00000000
_cell_angle_gamma   90.00000000
_symmetry_Int_Tables_number   1
_chemical_formula_structural   CuNi9C2
_chemical_formula_sum   'Cu16 Ni144 C32'
_cell_volume   1876.94309528
_cell_formula_units_Z   16
loop_
 _symmetry_equiv_pos_site_id
 _symmetry_equiv_pos_as_xyz
  1  'x, y, z'
loop_
 _atom_site_type_symbol
 _atom_site_label
 _atom_site_symmetry_multiplicity
 _atom_site_fract_x
 _atom_site_fract_y
 _atom_site_fract_z
 _atom_site_occupancy
  C  C0  1  0.53270840  0.40750821  0.35436644  1
  C  C1  1  0.03270840  0.09249179  0.64563356  1
  C  C2  1  0.46729160  0.90750821  0.14563356  1
  C  C3  1  0.96729160  0.59249179  0.85436644  1
  C  C4  1  0.46729160  0.59249179  0.64563356  1
  C  C5  1  0.96729160  0.90750821  0.35436644  1
  C  C6  1  0.53270840  0.09249179  0.85436644  1
  C  C7  1  0.03270840  0.40750821  0.14563356  1
  C  C8  1  0.20612513  0.60088781  0.74670582  1
  C  C9  1  0.70612513  0.89911219  0.25329418  1
  C  C10  1  0.79387487  0.10088781  0.75329418  1
  C  C11  1  0.29387487  0.39911219  0.24670582  1
  C  C12  1  0.79387487  0.39911219  0.25329418  1
  C  C13  1  0.29387487  0.10088781  0.74670582  1
  C  C14  1  0.20612513  0.89911219  0.24670582  1
  C  C15  1  0.70612513  0.60088781  0.75329418  1
  C  C16  1  0.23907982  0.61735318  0.55385189  1
  C  C17  1  0.73907982  0.88264682  0.44614811  1
  C  C18  1  0.76092018  0.11735318  0.94614811  1
  C  C19  1  0.26092018  0.38264682  0.05385189  1
  C  C20  1  0.76092018  0.38264682  0.44614811  1
  C  C21  1  0.26092018  0.11735318  0.55385189  1
  C  C22  1  0.23907982  0.88264682  0.05385189  1
  C  C23  1  0.73907982  0.61735318  0.94614811  1
  C  C24  1  0.47179771  0.61215526  0.35704100  1
  C  C25  1  0.97179771  0.88784474  0.64295900  1
  C  C26  1  0.52820229  0.11215526  0.14295900  1
  C  C27  1  0.02820229  0.38784474  0.85704100  1
  C  C28  1  0.52820229  0.38784474  0.64295900  1
  C  C29  1  0.02820229  0.11215526  0.35704100  1
  C  C30  1  0.47179771  0.88784474  0.85704100  1
  C  C31  1  0.97179771  0.61215526  0.14295900  1
  Ni  Ni32  1  0.84812532  0.31620486  0.65535943  1
  Ni  Ni33  1  0.34812532  0.18379514  0.34464057  1
  Ni  Ni34  1  0.15187468  0.81620486  0.84464057  1
  Ni  Ni35  1  0.65187468  0.68379514  0.15535943  1
  Ni  Ni36  1  0.15187468  0.68379514  0.34464057  1
  Ni  Ni37  1  0.65187468  0.81620486  0.65535943  1
  Ni  Ni38  1  0.84812532  0.18379514  0.15535943  1
  Ni  Ni39  1  0.34812532  0.31620486  0.84464057  1
  Ni  Ni40  1  0.05300202  0.34491772  0.64333592  1
  Ni  Ni41  1  0.55300202  0.15508228  0.35666408  1
  Ni  Ni42  1  0.94699798  0.84491772  0.85666408  1
  Ni  Ni43  1  0.44699798  0.65508228  0.14333592  1
  Ni  Ni44  1  0.94699798  0.65508228  0.35666408  1
  Ni  Ni45  1  0.44699798  0.84491772  0.64333592  1
  Ni  Ni46  1  0.05300202  0.15508228  0.14333592  1
  Ni  Ni47  1  0.55300202  0.34491772  0.85666408  1
  Ni  Ni48  1  0.98419860  0.31087413  0.71833418  1
  Ni  Ni49  1  0.48419860  0.18912587  0.28166582  1
  Ni  Ni50  1  0.01580140  0.81087413  0.78166582  1
  Ni  Ni51  1  0.51580140  0.68912587  0.21833418  1
  Ni  Ni52  1  0.01580140  0.68912587  0.28166582  1
  Ni  Ni53  1  0.51580140  0.81087413  0.71833418  1
  Ni  Ni54  1  0.98419860  0.18912587  0.21833418  1
  Ni  Ni55  1  0.48419860  0.31087413  0.78166582  1
  Ni  Ni56  1  0.16399392  0.79466326  0.47254725  1
  Ni  Ni57  1  0.66399392  0.70533674  0.52745275  1
  Ni  Ni58  1  0.83600608  0.29466326  0.02745275  1
  Ni  Ni59  1  0.33600608  0.20533674  0.97254725  1
  Ni  Ni60  1  0.83600608  0.20533674  0.52745275  1
  Ni  Ni61  1  0.33600608  0.29466326  0.47254725  1
  Ni  Ni62  1  0.16399392  0.70533674  0.97254725  1
  Ni  Ni63  1  0.66399392  0.79466326  0.02745275  1
  Ni  Ni64  1  0.20799265  0.92484359  0.47554919  1
  Ni  Ni65  1  0.70799265  0.57515641  0.52445081  1
  Ni  Ni66  1  0.79200735  0.42484359  0.02445081  1
  Ni  Ni67  1  0.29200735  0.07515641  0.97554919  1
  Ni  Ni68  1  0.79200735  0.07515641  0.52445081  1
  Ni  Ni69  1  0.29200735  0.42484359  0.47554919  1
  Ni  Ni70  1  0.20799265  0.57515641  0.97554919  1
  Ni  Ni71  1  0.70799265  0.92484359  0.02445081  1
  Ni  Ni72  1  0.31351791  0.84520212  0.42361503  1
  Ni  Ni73  1  0.81351791  0.65479788  0.57638497  1
  Ni  Ni74  1  0.68648209  0.34520212  0.07638497  1
  Ni  Ni75  1  0.18648209  0.15479788  0.92361503  1
  Ni  Ni76  1  0.68648209  0.15479788  0.57638497  1
  Ni  Ni77  1  0.18648209  0.34520212  0.42361503  1
  Ni  Ni78  1  0.31351791  0.65479788  0.92361503  1
  Ni  Ni79  1  0.81351791  0.84520212  0.07638497  1
  Ni  Ni80  1  0.04877930  0.60223027  0.73886213  1
  Ni  Ni81  1  0.54877930  0.89776973  0.26113787  1
  Ni  Ni82  1  0.95122070  0.10223027  0.76113787  1
  Ni  Ni83  1  0.45122070  0.39776973  0.23886213  1
  Ni  Ni84  1  0.95122070  0.39776973  0.26113787  1
  Ni  Ni85  1  0.45122070  0.10223027  0.73886213  1
  Ni  Ni86  1  0.04877930  0.89776973  0.23886213  1
  Ni  Ni87  1  0.54877930  0.60223027  0.76113787  1
  Ni  Ni88  1  0.26145028  0.51621161  0.72186884  1
  Ni  Ni89  1  0.76145028  0.98378839  0.27813116  1
  Ni  Ni90  1  0.73854972  0.01621161  0.77813116  1
  Ni  Ni91  1  0.23854972  0.48378839  0.22186884  1
  Ni  Ni92  1  0.73854972  0.48378839  0.27813116  1
  Ni  Ni93  1  0.23854972  0.01621161  0.72186884  1
  Ni  Ni94  1  0.26145028  0.98378839  0.22186884  1
  Ni  Ni95  1  0.76145028  0.51621161  0.77813116  1
  Ni  Ni96  1  0.24801976  0.60258223  0.80660760  1
  Ni  Ni97  1  0.74801976  0.89741777  0.19339240  1
  Ni  Ni98  1  0.75198024  0.10258223  0.69339240  1
  Ni  Ni99  1  0.25198024  0.39741777  0.30660760  1
  Ni  Ni100  1  0.75198024  0.39741777  0.19339240  1
  Ni  Ni101  1  0.25198024  0.10258223  0.80660760  1
  Ni  Ni102  1  0.24801976  0.89741777  0.30660760  1
  Ni  Ni103  1  0.74801976  0.60258223  0.69339240  1
  Ni  Ni104  1  0.26422339  0.68281188  0.71910811  1
  Ni  Ni105  1  0.76422339  0.81718812  0.28089189  1
  Ni  Ni106  1  0.73577661  0.18281188  0.78089189  1
  Ni  Ni107  1  0.23577661  0.31718812  0.21910811  1
  Ni  Ni108  1  0.73577661  0.31718812  0.28089189  1
  Ni  Ni109  1  0.23577661  0.18281188  0.71910811  1
  Ni  Ni110  1  0.26422339  0.81718812  0.21910811  1
  Ni  Ni111  1  0.76422339  0.68281188  0.78089189  1
  Ni  Ni112  1  0.36089801  0.56130906  0.53322762  1
  Ni  Ni113  1  0.86089801  0.93869094  0.46677238  1
  Ni  Ni114  1  0.63910199  0.06130906  0.96677238  1
  Ni  Ni115  1  0.13910199  0.43869094  0.03322762  1
  Ni  Ni116  1  0.63910199  0.43869094  0.46677238  1
  Ni  Ni117  1  0.13910199  0.06130906  0.53322762  1
  Ni  Ni118  1  0.36089801  0.93869094  0.03322762  1
  Ni  Ni119  1  0.86089801  0.56130906  0.96677238  1
  Ni  Ni120  1  0.18011095  0.57202056  0.60458803  1
  Ni  Ni121  1  0.68011095  0.92797944  0.39541197  1
  Ni  Ni122  1  0.81988905  0.07202056  0.89541197  1
  Ni  Ni123  1  0.31988905  0.42797944  0.10458803  1
  Ni  Ni124  1  0.81988905  0.42797944  0.39541197  1
  Ni  Ni125  1  0.31988905  0.07202056  0.60458803  1
  Ni  Ni126  1  0.18011095  0.92797944  0.10458803  1
  Ni  Ni127  1  0.68011095  0.57202056  0.89541197  1
  Ni  Ni128  1  0.12901544  0.62838802  0.51093443  1
  Ni  Ni129  1  0.62901544  0.87161198  0.48906557  1
  Ni  Ni130  1  0.87098456  0.12838802  0.98906557  1
  Ni  Ni131  1  0.37098456  0.37161198  0.01093443  1
  Ni  Ni132  1  0.87098456  0.37161198  0.48906557  1
  Ni  Ni133  1  0.37098456  0.12838802  0.51093443  1
  Ni  Ni134  1  0.12901544  0.87161198  0.01093443  1
  Ni  Ni135  1  0.62901544  0.62838802  0.98906557  1
  Ni  Ni136  1  0.29997224  0.70584029  0.57179106  1
  Ni  Ni137  1  0.79997224  0.79415971  0.42820894  1
  Ni  Ni138  1  0.70002776  0.20584029  0.92820894  1
  Ni  Ni139  1  0.20002776  0.29415971  0.07179106  1
  Ni  Ni140  1  0.70002776  0.29415971  0.42820894  1
  Ni  Ni141  1  0.20002776  0.20584029  0.57179106  1
  Ni  Ni142  1  0.29997224  0.79415971  0.07179106  1
  Ni  Ni143  1  0.79997224  0.70584029  0.92820894  1
  Ni  Ni144  1  0.61469222  0.59481464  0.38228917  1
  Ni  Ni145  1  0.11469222  0.90518536  0.61771083  1
  Ni  Ni146  1  0.38530778  0.09481464  0.11771083  1
  Ni  Ni147  1  0.88530778  0.40518536  0.88228917  1
  Ni  Ni148  1  0.38530778  0.40518536  0.61771083  1
  Ni  Ni149  1  0.88530778  0.09481464  0.38228917  1
  Ni  Ni150  1  0.61469222  0.90518536  0.88228917  1
  Ni  Ni151  1  0.11469222  0.59481464  0.11771083  1
  Ni  Ni152  1  0.43751629  0.70823106  0.35693362  1
  Ni  Ni153  1  0.93751629  0.79176894  0.64306638  1
  Ni  Ni154  1  0.56248371  0.20823106  0.14306638  1
  Ni  Ni155  1  0.06248371  0.29176894  0.85693362  1
  Ni  Ni156  1  0.56248371  0.29176894  0.64306638  1
  Ni  Ni157  1  0.06248371  0.20823106  0.35693362  1
  Ni  Ni158  1  0.43751629  0.79176894  0.85693362  1
  Ni  Ni159  1  0.93751629  0.70823106  0.14306638  1
  Ni  Ni160  1  0.36374632  0.55893900  0.38920972  1
  Ni  Ni161  1  0.86374632  0.94106100  0.61079028  1
  Ni  Ni162  1  0.63625368  0.05893900  0.11079028  1
  Ni  Ni163  1  0.13625368  0.44106100  0.88920972  1
  Ni  Ni164  1  0.63625368  0.44106100  0.61079028  1
  Ni  Ni165  1  0.13625368  0.05893900  0.38920972  1
  Ni  Ni166  1  0.36374632  0.94106100  0.88920972  1
  Ni  Ni167  1  0.86374632  0.55893900  0.11079028  1
  Ni  Ni168  1  0.47297555  0.57518473  0.29904653  1
  Ni  Ni169  1  0.97297555  0.92481527  0.70095347  1
  Ni  Ni170  1  0.52702445  0.07518473  0.20095347  1
  Ni  Ni171  1  0.02702445  0.42481527  0.79904653  1
  Ni  Ni172  1  0.52702445  0.42481527  0.70095347  1
  Ni  Ni173  1  0.02702445  0.07518473  0.29904653  1
  Ni  Ni174  1  0.47297555  0.92481527  0.79904653  1
  Ni  Ni175  1  0.97297555  0.57518473  0.20095347  1
  Cu  Cu176  1  0.97109220  0.29258105  0.66804658  1
  Cu  Cu177  1  0.47109220  0.20741895  0.33195342  1
  Cu  Cu178  1  0.02890780  0.79258105  0.83195342  1
  Cu  Cu179  1  0.52890780  0.70741895  0.16804658  1
  Cu  Cu180  1  0.02890780  0.70741895  0.33195342  1
  Cu  Cu181  1  0.52890780  0.79258105  0.66804658  1
  Cu  Cu182  1  0.97109220  0.20741895  0.16804658  1
  Cu  Cu183  1  0.47109220  0.29258105  0.83195342  1
  Cu  Cu184  1  0.19266907  0.86070366  0.44282697  1
  Cu  Cu185  1  0.69266907  0.63929634  0.55717303  1
  Cu  Cu186  1  0.80733093  0.36070366  0.05717303  1
  Cu  Cu187  1  0.30733093  0.13929634  0.94282697  1
  Cu  Cu188  1  0.80733093  0.13929634  0.55717303  1
  Cu  Cu189  1  0.30733093  0.36070366  0.44282697  1
  Cu  Cu190  1  0.19266907  0.63929634  0.94282697  1
  Cu  Cu191  1  0.69266907  0.86070366  0.05717303  1
