# generated using pymatgen
data_CuNi3C2
_symmetry_space_group_name_H-M   'P 1'
_cell_length_a   7.74475612
_cell_length_b   7.74475612
_cell_length_c   7.74475612
_cell_angle_alpha   149.62720255
_cell_angle_beta   148.60458712
_cell_angle_gamma   44.24635525
_symmetry_Int_Tables_number   1
_chemical_formula_structural   CuNi3C2
_chemical_formula_sum   'Cu1 Ni3 C2'
_cell_volume   122.00355313
_cell_formula_units_Z   1
loop_
 _symmetry_equiv_pos_site_id
 _symmetry_equiv_pos_as_xyz
  1  'x, y, z'
loop_
 _atom_site_type_symbol
 _atom_site_label
 _atom_site_symmetry_multiplicity
 _atom_site_fract_x
 _atom_site_fract_y
 _atom_site_fract_z
 _atom_site_occupancy
  C  C0  1  0.12964300  0.12964300  0.00000000  1
  C  C1  1  0.37068600  0.87068600  0.50000000  1
  Ni  Ni2  1  0.70503900  0.70503900  0.00000000  1
  Ni  Ni3  1  0.54056000  0.54056000  0.00000000  1
  Ni  Ni4  1  0.79455400  0.29455400  0.50000000  1
  Cu  Cu5  1  0.95951800  0.45951800  0.50000000  1
