# generated using pymatgen
data_Cu8Ni4C3
_symmetry_space_group_name_H-M   'P 1'
_cell_length_a   11.11595881
_cell_length_b   11.11595881
_cell_length_c   9.74184335
_cell_angle_alpha   84.08767510
_cell_angle_beta   84.08767510
_cell_angle_gamma   91.71653868
_symmetry_Int_Tables_number   1
_chemical_formula_structural   Cu8Ni4C3
_chemical_formula_sum   'Cu32 Ni16 C12'
_cell_volume   1189.97279455
_cell_formula_units_Z   4
loop_
 _symmetry_equiv_pos_site_id
 _symmetry_equiv_pos_as_xyz
  1  'x, y, z'
loop_
 _atom_site_type_symbol
 _atom_site_label
 _atom_site_symmetry_multiplicity
 _atom_site_fract_x
 _atom_site_fract_y
 _atom_site_fract_z
 _atom_site_occupancy
  C  C0  1  0.23969900  0.57048400  0.03554200  1
  C  C1  1  0.42951600  0.76030100  0.46445800  1
  C  C2  1  0.76030100  0.42951600  0.96445800  1
  C  C3  1  0.57048400  0.23969900  0.53554200  1
  C  C4  1  0.27117400  0.08908800  0.03541800  1
  C  C5  1  0.91091200  0.72882600  0.46458200  1
  C  C6  1  0.72882600  0.91091200  0.96458200  1
  C  C7  1  0.08908800  0.27117400  0.53541800  1
  C  C8  1  0.42572900  0.81907000  0.10241600  1
  C  C9  1  0.18093000  0.57427100  0.39758400  1
  C  C10  1  0.57427100  0.18093000  0.89758400  1
  C  C11  1  0.81907000  0.42572900  0.60241600  1
  Ni  Ni12  1  0.13511300  0.73983600  0.98184600  1
  Ni  Ni13  1  0.26016400  0.86488700  0.51815400  1
  Ni  Ni14  1  0.86488700  0.26016400  0.01815400  1
  Ni  Ni15  1  0.73983600  0.13511300  0.48184600  1
  Ni  Ni16  1  0.36920400  0.44756600  0.14522300  1
  Ni  Ni17  1  0.55243400  0.63079600  0.35477700  1
  Ni  Ni18  1  0.63079600  0.55243400  0.85477700  1
  Ni  Ni19  1  0.44756600  0.36920400  0.64522300  1
  Ni  Ni20  1  0.22900900  0.04192400  0.82208300  1
  Ni  Ni21  1  0.95807600  0.77099100  0.67791700  1
  Ni  Ni22  1  0.77099100  0.95807600  0.17791700  1
  Ni  Ni23  1  0.04192400  0.22900900  0.32208300  1
  Ni  Ni24  1  0.38101600  0.11549200  0.21709000  1
  Ni  Ni25  1  0.88450800  0.61898400  0.28291000  1
  Ni  Ni26  1  0.61898400  0.88450800  0.78291000  1
  Ni  Ni27  1  0.11549200  0.38101600  0.71709000  1
  Cu  Cu28  1  0.29779500  0.55252200  0.87003700  1
  Cu  Cu29  1  0.44747800  0.70220500  0.62996300  1
  Cu  Cu30  1  0.70220500  0.44747800  0.12996300  1
  Cu  Cu31  1  0.55252200  0.29779500  0.37003700  1
  Cu  Cu32  1  0.11718100  0.47110700  0.05960800  1
  Cu  Cu33  1  0.52889300  0.88281900  0.44039200  1
  Cu  Cu34  1  0.88281900  0.52889300  0.94039200  1
  Cu  Cu35  1  0.47110700  0.11718100  0.55960800  1
  Cu  Cu36  1  0.21471700  0.23063300  0.02135500  1
  Cu  Cu37  1  0.76936700  0.78528300  0.47864500  1
  Cu  Cu38  1  0.78528300  0.76936700  0.97864500  1
  Cu  Cu39  1  0.23063300  0.21471700  0.52135500  1
  Cu  Cu40  1  0.15372300  0.00639000  0.13113800  1
  Cu  Cu41  1  0.99361000  0.84627700  0.36886200  1
  Cu  Cu42  1  0.84627700  0.99361000  0.86886200  1
  Cu  Cu43  1  0.00639000  0.15372300  0.63113800  1
  Cu  Cu44  1  0.39259300  0.70616800  0.04303100  1
  Cu  Cu45  1  0.29383200  0.60740700  0.45696900  1
  Cu  Cu46  1  0.60740700  0.29383200  0.95696900  1
  Cu  Cu47  1  0.70616800  0.39259300  0.54303100  1
  Cu  Cu48  1  0.37506100  0.92319000  0.02209600  1
  Cu  Cu49  1  0.07681000  0.62493900  0.47790400  1
  Cu  Cu50  1  0.62493900  0.07681000  0.97790400  1
  Cu  Cu51  1  0.92319000  0.37506100  0.52209600  1
  Cu  Cu52  1  0.18740400  0.62373400  0.24925200  1
  Cu  Cu53  1  0.37626600  0.81259600  0.25074800  1
  Cu  Cu54  1  0.81259600  0.37626600  0.75074800  1
  Cu  Cu55  1  0.62373400  0.18740400  0.74925200  1
  Cu  Cu56  1  0.44038500  0.16641500  0.90950200  1
  Cu  Cu57  1  0.83358500  0.55961500  0.59049800  1
  Cu  Cu58  1  0.55961500  0.83358500  0.09049800  1
  Cu  Cu59  1  0.16641500  0.44038500  0.40950200  1
