# generated using pymatgen
data_Cu(Ni2C5)2
_symmetry_space_group_name_H-M   'P 1'
_cell_length_a   11.86453350
_cell_length_b   11.86453350
_cell_length_c   11.86453350
_cell_angle_alpha   134.10085078
_cell_angle_beta   128.29224773
_cell_angle_gamma   71.60318415
_symmetry_Int_Tables_number   1
_chemical_formula_structural   Cu(Ni2C5)2
_chemical_formula_sum   'Cu2 Ni8 C20'
_cell_volume   921.29443243
_cell_formula_units_Z   2
loop_
 _symmetry_equiv_pos_site_id
 _symmetry_equiv_pos_as_xyz
  1  'x, y, z'
loop_
 _atom_site_type_symbol
 _atom_site_label
 _atom_site_symmetry_multiplicity
 _atom_site_fract_x
 _atom_site_fract_y
 _atom_site_fract_z
 _atom_site_occupancy
  Ni  Ni0  1  0.41570300  0.29913700  0.88343400  1
  Ni  Ni1  1  0.58429700  0.70086300  0.11656600  1
  Ni  Ni2  1  0.08429700  0.46773200  0.38343400  1
  Ni  Ni3  1  0.91570300  0.53226800  0.61656600  1
  Ni  Ni4  1  0.00960900  0.75960900  0.25000000  1
  Ni  Ni5  1  0.49039100  0.24039100  0.25000000  1
  Ni  Ni6  1  0.99039100  0.24039100  0.75000000  1
  Ni  Ni7  1  0.50960900  0.75960900  0.75000000  1
  Cu  Cu8  1  0.25000000  0.00000000  0.25000000  1
  Cu  Cu9  1  0.75000000  0.00000000  0.75000000  1
  C  C10  1  0.87096700  0.07625900  0.20529200  1
  C  C11  1  0.12903300  0.92374100  0.79470800  1
  C  C12  1  0.62903300  0.33432600  0.70529200  1
  C  C13  1  0.37096700  0.66567500  0.29470800  1
  C  C14  1  0.09742300  0.22251400  0.47377400  1
  C  C15  1  0.25126000  0.77748600  0.87490900  1
  C  C16  1  0.40257700  0.37635100  0.62509100  1
  C  C17  1  0.24874000  0.62364900  0.02622600  1
  C  C18  1  0.90257700  0.77748600  0.52622600  1
  C  C19  1  0.74874000  0.22251400  0.12509100  1
  C  C20  1  0.59742300  0.62364900  0.37490900  1
  C  C21  1  0.75126000  0.37635100  0.97377400  1
  C  C22  1  0.39568400  0.92763300  0.53194900  1
  C  C23  1  0.60431600  0.07236700  0.46805100  1
  C  C24  1  0.10431600  0.13626400  0.03194900  1
  C  C25  1  0.89568400  0.86373600  0.96805100  1
  C  C26  1  0.24200600  0.98839100  0.74638600  1
  C  C27  1  0.75799400  0.01160900  0.25361400  1
  C  C28  1  0.25799400  0.50438000  0.24638600  1
  C  C29  1  0.74200600  0.49562000  0.75361400  1
