# generated using pymatgen
data_Cu(NiC5)2
_symmetry_space_group_name_H-M   'P 1'
_cell_length_a   10.09959759
_cell_length_b   10.09959759
_cell_length_c   5.25844700
_cell_angle_alpha   89.67078171
_cell_angle_beta   89.67078171
_cell_angle_gamma   34.15230613
_symmetry_Int_Tables_number   1
_chemical_formula_structural   Cu(NiC5)2
_chemical_formula_sum   'Cu2 Ni4 C20'
_cell_volume   301.11064567
_cell_formula_units_Z   2
loop_
 _symmetry_equiv_pos_site_id
 _symmetry_equiv_pos_as_xyz
  1  'x, y, z'
loop_
 _atom_site_type_symbol
 _atom_site_label
 _atom_site_symmetry_multiplicity
 _atom_site_fract_x
 _atom_site_fract_y
 _atom_site_fract_z
 _atom_site_occupancy
  C  C0  1  0.72508800  0.04914000  0.76349700  1
  C  C1  1  0.95086000  0.27491200  0.73650300  1
  C  C2  1  0.27491200  0.95086000  0.23650300  1
  C  C3  1  0.04914000  0.72508800  0.26349700  1
  Ni  Ni4  1  0.57000100  0.87355800  0.73573600  1
  Ni  Ni5  1  0.12644200  0.42999900  0.76426400  1
  Ni  Ni6  1  0.42999900  0.12644200  0.26426400  1
  Ni  Ni7  1  0.87355800  0.57000100  0.23573600  1
  Cu  Cu8  1  0.35933500  0.64066500  0.75000000  1
  Cu  Cu9  1  0.64066500  0.35933500  0.25000000  1
  C  C10  1  0.81747900  0.04600700  0.42245400  1
  C  C11  1  0.95399300  0.18252100  0.07754600  1
  C  C12  1  0.18252100  0.95399300  0.57754600  1
  C  C13  1  0.04600700  0.81747900  0.92245400  1
  C  C14  1  0.56827800  0.31911900  0.91314300  1
  C  C15  1  0.68088100  0.43172200  0.58685700  1
  C  C16  1  0.43172200  0.68088100  0.08685700  1
  C  C17  1  0.31911900  0.56827800  0.41314300  1
  C  C18  1  0.71661400  0.92731000  0.05909500  1
  C  C19  1  0.07269000  0.28338600  0.44090500  1
  C  C20  1  0.15874800  0.45446800  0.13387000  1
  C  C21  1  0.54553200  0.84125200  0.36613000  1
  C  C22  1  0.84125200  0.54553200  0.86613000  1
  C  C23  1  0.45446800  0.15874800  0.63387000  1
  C  C24  1  0.92731000  0.71661400  0.55909500  1
  C  C25  1  0.28338600  0.07269000  0.94090500  1
