# generated using pymatgen
data_Cu16Ni3C13
_symmetry_space_group_name_H-M   'P 1'
_cell_length_a   7.79693604
_cell_length_b   8.70493100
_cell_length_c   11.02427078
_cell_angle_alpha   90.00000000
_cell_angle_beta   101.79871760
_cell_angle_gamma   90.00000000
_symmetry_Int_Tables_number   1
_chemical_formula_structural   Cu16Ni3C13
_chemical_formula_sum   'Cu32 Ni6 C26'
_cell_volume   732.42821662
_cell_formula_units_Z   2
loop_
 _symmetry_equiv_pos_site_id
 _symmetry_equiv_pos_as_xyz
  1  'x, y, z'
loop_
 _atom_site_type_symbol
 _atom_site_label
 _atom_site_symmetry_multiplicity
 _atom_site_fract_x
 _atom_site_fract_y
 _atom_site_fract_z
 _atom_site_occupancy
  C  C0  1  0.54913000  0.75000000  0.10911000  1
  C  C1  1  0.45087000  0.25000000  0.89089000  1
  C  C2  1  0.19240300  0.05170100  0.10476700  1
  C  C3  1  0.80759700  0.55170100  0.89523300  1
  C  C4  1  0.80759700  0.94829900  0.89523300  1
  C  C5  1  0.19240300  0.44829900  0.10476700  1
  C  C6  1  0.54884100  0.94603900  0.36085800  1
  C  C7  1  0.45115900  0.44603900  0.63914200  1
  C  C8  1  0.45115900  0.05396100  0.63914200  1
  C  C9  1  0.54884100  0.55396100  0.36085800  1
  C  C10  1  0.88686300  0.03036200  0.33176500  1
  C  C11  1  0.11313700  0.53036200  0.66823500  1
  C  C12  1  0.11313700  0.96963800  0.66823500  1
  C  C13  1  0.88686300  0.46963800  0.33176500  1
  C  C14  1  0.85768300  0.12244800  0.45162100  1
  C  C15  1  0.14231700  0.62244800  0.54837900  1
  C  C16  1  0.14231700  0.87755200  0.54837900  1
  C  C17  1  0.85768300  0.37755200  0.45162100  1
  C  C18  1  0.53001800  0.06180400  0.13576700  1
  C  C19  1  0.46998200  0.56180400  0.86423300  1
  C  C20  1  0.46998200  0.93819600  0.86423300  1
  C  C21  1  0.53001800  0.43819600  0.13576700  1
  C  C22  1  0.80877000  0.75000000  0.33583400  1
  C  C23  1  0.19122900  0.25000000  0.66416600  1
  C  C24  1  0.86878000  0.75000000  0.07966900  1
  C  C25  1  0.13122000  0.25000000  0.92033100  1
  Ni  Ni26  1  0.16357600  0.75000000  0.88732200  1
  Ni  Ni27  1  0.83642400  0.25000000  0.11267800  1
  Ni  Ni28  1  0.26858900  0.25000000  0.38633600  1
  Ni  Ni29  1  0.73141100  0.75000000  0.61366400  1
  Ni  Ni30  1  0.14997900  0.75000000  0.30741400  1
  Ni  Ni31  1  0.85002100  0.25000000  0.69258600  1
  Cu  Cu32  1  0.36419200  0.75000000  0.93302200  1
  Cu  Cu33  1  0.63580800  0.25000000  0.06697800  1
  Cu  Cu34  1  0.09653000  0.89121900  0.95119400  1
  Cu  Cu35  1  0.90347000  0.39121900  0.04880600  1
  Cu  Cu36  1  0.90347000  0.10878100  0.04880600  1
  Cu  Cu37  1  0.09653000  0.60878100  0.95119400  1
  Cu  Cu38  1  0.38734600  0.10897000  0.43248300  1
  Cu  Cu39  1  0.61265400  0.60897000  0.56751700  1
  Cu  Cu40  1  0.61265400  0.89103000  0.56751700  1
  Cu  Cu41  1  0.38734600  0.39103000  0.43248300  1
  Cu  Cu42  1  0.25096500  0.25000000  0.24407800  1
  Cu  Cu43  1  0.74903500  0.75000000  0.75592200  1
  Cu  Cu44  1  0.07439200  0.75000000  0.42133000  1
  Cu  Cu45  1  0.92560800  0.25000000  0.57867000  1
  Cu  Cu46  1  0.34730300  0.75000000  0.34184300  1
  Cu  Cu47  1  0.65269700  0.25000000  0.65815700  1
  Cu  Cu48  1  0.09007700  0.60909200  0.23465700  1
  Cu  Cu49  1  0.90992300  0.10909200  0.76534300  1
  Cu  Cu50  1  0.90992300  0.39090800  0.76534300  1
  Cu  Cu51  1  0.09007700  0.89090800  0.23465700  1
  Cu  Cu52  1  0.79909800  0.06417500  0.37762400  1
  Cu  Cu53  1  0.20090200  0.56417500  0.62237600  1
  Cu  Cu54  1  0.20090200  0.93582500  0.62237600  1
  Cu  Cu55  1  0.79909800  0.43582500  0.37762400  1
  Cu  Cu56  1  0.46043500  0.97688000  0.15964400  1
  Cu  Cu57  1  0.53956500  0.47688000  0.84035600  1
  Cu  Cu58  1  0.53956500  0.02312000  0.84035600  1
  Cu  Cu59  1  0.46043500  0.52312000  0.15964400  1
  Cu  Cu60  1  0.68181700  0.75000000  0.30389700  1
  Cu  Cu61  1  0.31818300  0.25000000  0.69610300  1
  Cu  Cu62  1  0.76222700  0.75000000  0.01489900  1
  Cu  Cu63  1  0.23777300  0.25000000  0.98510100  1
