# generated using pymatgen
data_Cu2NiC15
_symmetry_space_group_name_H-M   'P 1'
_cell_length_a   7.04432200
_cell_length_b   7.86575682
_cell_length_c   19.16557794
_cell_angle_alpha   94.29589387
_cell_angle_beta   89.87496045
_cell_angle_gamma   116.46854162
_symmetry_Int_Tables_number   1
_chemical_formula_structural   Cu2NiC15
_chemical_formula_sum   'Cu8 Ni4 C60'
_cell_volume   947.38009040
_cell_formula_units_Z   4
loop_
 _symmetry_equiv_pos_site_id
 _symmetry_equiv_pos_as_xyz
  1  'x, y, z'
loop_
 _atom_site_type_symbol
 _atom_site_label
 _atom_site_symmetry_multiplicity
 _atom_site_fract_x
 _atom_site_fract_y
 _atom_site_fract_z
 _atom_site_occupancy
  Ni  Ni0  1  0.86777000  0.73516200  0.49034500  1
  Ni  Ni1  1  0.13223000  0.26483800  0.50965500  1
  Ni  Ni2  1  0.86436400  0.23931800  0.99730900  1
  Ni  Ni3  1  0.13563600  0.76068200  0.00269100  1
  Cu  Cu4  1  0.50099300  0.49952600  0.71761000  1
  Cu  Cu5  1  0.49900700  0.50047400  0.28239000  1
  Cu  Cu6  1  0.52036800  0.04534600  0.77999000  1
  Cu  Cu7  1  0.47963200  0.95465400  0.22001000  1
  Cu  Cu8  1  0.99642400  0.49925600  0.71531300  1
  Cu  Cu9  1  0.00357600  0.50074400  0.28468700  1
  Cu  Cu10  1  0.01989500  0.04261200  0.78441100  1
  Cu  Cu11  1  0.98010500  0.95738800  0.21558900  1
  C  C12  1  0.76525900  0.47799100  0.87990100  1
  C  C13  1  0.23474100  0.52200900  0.12009900  1
  C  C14  1  0.78641300  0.01437500  0.62248000  1
  C  C15  1  0.21358700  0.98562500  0.37752000  1
  C  C16  1  0.22635800  0.01405400  0.62262400  1
  C  C17  1  0.77364200  0.98594600  0.37737600  1
  C  C18  1  0.34530700  0.19358900  0.93160500  1
  C  C19  1  0.65469300  0.80641100  0.06839500  1
  C  C20  1  0.65809800  0.82414600  0.90985400  1
  C  C21  1  0.34190200  0.17585400  0.09014600  1
  C  C22  1  0.20576100  0.47486800  0.88029900  1
  C  C23  1  0.79423900  0.52513200  0.11970100  1
  C  C24  1  0.66524100  0.33098600  0.41003000  1
  C  C25  1  0.33475900  0.66901400  0.58997000  1
  C  C26  1  0.64412500  0.29066600  0.56938100  1
  C  C27  1  0.35587500  0.70933400  0.43061900  1
  C  C28  1  0.79162800  0.20137200  0.39259200  1
  C  C29  1  0.20837200  0.79862800  0.60740800  1
  C  C30  1  0.70315400  0.39159300  0.80034900  1
  C  C31  1  0.29684600  0.60840700  0.19965100  1
  C  C32  1  0.18372800  0.38947300  0.80072000  1
  C  C33  1  0.81627200  0.61052700  0.19928000  1
  C  C34  1  0.41034300  0.20068200  0.39262000  1
  C  C35  1  0.58965700  0.79931800  0.60738000  1
  C  C36  1  0.99888900  0.50391100  0.90908600  1
  C  C37  1  0.00111100  0.49608900  0.09091400  1
  C  C38  1  0.71601200  0.43725000  0.63691200  1
  C  C39  1  0.28398800  0.56275000  0.36308800  1
  C  C40  1  0.76563700  0.15207400  0.56469000  1
  C  C41  1  0.23436300  0.84792600  0.43531000  1
  C  C42  1  0.78242600  0.69148200  0.89708200  1
  C  C43  1  0.21757400  0.30851800  0.10291800  1
  C  C44  1  0.38521500  0.15105200  0.56480500  1
  C  C45  1  0.61478500  0.84894800  0.43519500  1
  C  C46  1  0.27458600  0.04635500  0.86406900  1
  C  C47  1  0.72541400  0.95364500  0.13593100  1
  C  C48  1  0.74257300  0.99897300  0.86169400  1
  C  C49  1  0.25742700  0.00102700  0.13830600  1
  C  C50  1  0.70339400  0.90974600  0.99369900  1
  C  C51  1  0.29660600  0.09025400  0.00630100  1
  C  C52  1  0.99304100  0.98697500  0.59333200  1
  C  C53  1  0.00695900  0.01302500  0.40666800  1
  C  C54  1  0.40247900  0.68600300  0.90019900  1
  C  C55  1  0.59752100  0.31399700  0.09980100  1
  C  C56  1  0.29322600  0.10524400  0.70170100  1
  C  C57  1  0.70677400  0.89475600  0.29829900  1
  C  C58  1  0.60394300  0.33592700  0.93611600  1
  C  C59  1  0.39605700  0.66407300  0.06388400  1
  C  C60  1  0.76072900  0.52306300  0.37040100  1
  C  C61  1  0.23927100  0.47693700  0.62959900  1
  C  C62  1  0.21813700  0.32791200  0.93601400  1
  C  C63  1  0.78186300  0.67208800  0.06398600  1
  C  C64  1  0.69731400  0.39646100  0.49547200  1
  C  C65  1  0.30268600  0.60353900  0.50452800  1
  C  C66  1  0.80910200  0.10482400  0.70156400  1
  C  C67  1  0.19089800  0.89517600  0.29843600  1
  C  C68  1  0.63947000  0.26503900  0.25498300  1
  C  C69  1  0.36053000  0.73496100  0.74501700  1
  C  C70  1  0.87104800  0.73720800  0.73913700  1
  C  C71  1  0.12895200  0.26279200  0.26086300  1
