# generated using pymatgen
data_CuNi5C12
_symmetry_space_group_name_H-M   'P 1'
_cell_length_a   8.75764000
_cell_length_b   6.70797400
_cell_length_c   14.87643740
_cell_angle_alpha   86.52070053
_cell_angle_beta   90.00000000
_cell_angle_gamma   90.00000000
_symmetry_Int_Tables_number   1
_chemical_formula_structural   CuNi5C12
_chemical_formula_sum   'Cu4 Ni20 C48'
_cell_volume   872.32067077
_cell_formula_units_Z   4
loop_
 _symmetry_equiv_pos_site_id
 _symmetry_equiv_pos_as_xyz
  1  'x, y, z'
loop_
 _atom_site_type_symbol
 _atom_site_label
 _atom_site_symmetry_multiplicity
 _atom_site_fract_x
 _atom_site_fract_y
 _atom_site_fract_z
 _atom_site_occupancy
  C  C0  1  0.65324600  0.50015500  0.10669000  1
  C  C1  1  0.15324600  0.49984500  0.39331000  1
  C  C2  1  0.34675400  0.49984500  0.89331000  1
  C  C3  1  0.84675400  0.50015500  0.60669000  1
  C  C4  1  0.48784600  0.95491700  0.27908600  1
  C  C5  1  0.98784600  0.04508300  0.22091400  1
  C  C6  1  0.51215400  0.04508300  0.72091400  1
  C  C7  1  0.01215400  0.95491700  0.77908600  1
  Ni  Ni8  1  0.76347600  0.20939400  0.38959200  1
  Ni  Ni9  1  0.26347600  0.79060600  0.11040800  1
  Ni  Ni10  1  0.23652400  0.79060600  0.61040800  1
  Ni  Ni11  1  0.73652400  0.20939400  0.88959200  1
  Ni  Ni12  1  0.32726800  0.46100700  0.19139500  1
  Ni  Ni13  1  0.82726800  0.53899300  0.30860500  1
  Ni  Ni14  1  0.67273200  0.53899300  0.80860500  1
  Ni  Ni15  1  0.17273200  0.46100700  0.69139500  1
  Ni  Ni16  1  0.68555100  0.83371500  0.92192500  1
  Ni  Ni17  1  0.18555100  0.16628500  0.57807500  1
  Ni  Ni18  1  0.31444900  0.16628500  0.07807500  1
  Ni  Ni19  1  0.81444900  0.83371500  0.42192500  1
  Ni  Ni20  1  0.80879400  0.05346600  0.54987500  1
  Ni  Ni21  1  0.30879400  0.94653400  0.95012500  1
  Ni  Ni22  1  0.19120600  0.94653400  0.45012500  1
  Ni  Ni23  1  0.69120600  0.05346600  0.04987500  1
  Ni  Ni24  1  0.54519000  0.43863500  0.32515100  1
  Ni  Ni25  1  0.04519000  0.56136500  0.17484900  1
  Ni  Ni26  1  0.45481000  0.56136500  0.67484900  1
  Ni  Ni27  1  0.95481000  0.43863500  0.82515100  1
  Cu  Cu28  1  0.01250600  0.39905500  0.05880000  1
  Cu  Cu29  1  0.51250600  0.60094500  0.44120000  1
  Cu  Cu30  1  0.98749400  0.60094500  0.94120000  1
  Cu  Cu31  1  0.48749400  0.39905500  0.55880000  1
  C  C32  1  0.36856200  0.67044600  0.16781300  1
  C  C33  1  0.86856200  0.32955400  0.33218700  1
  C  C34  1  0.63143800  0.32955400  0.83218700  1
  C  C35  1  0.13143800  0.67044600  0.66781300  1
  C  C36  1  0.95627500  0.42683900  0.11322400  1
  C  C37  1  0.45627500  0.57316100  0.38677600  1
  C  C38  1  0.04372500  0.57316100  0.88677600  1
  C  C39  1  0.54372500  0.42683900  0.61322400  1
  C  C40  1  0.60412700  0.26186700  0.37616400  1
  C  C41  1  0.10412700  0.73813300  0.12383600  1
  C  C42  1  0.39587300  0.73813300  0.62383600  1
  C  C43  1  0.89587300  0.26186700  0.87616400  1
  C  C44  1  0.43221200  0.36953400  0.25871300  1
  C  C45  1  0.93221200  0.63046600  0.24128700  1
  C  C46  1  0.56778800  0.63046600  0.74128700  1
  C  C47  1  0.06778800  0.36953400  0.75871300  1
  C  C48  1  0.65077200  0.64551800  0.89889000  1
  C  C49  1  0.15077200  0.35448200  0.60111000  1
  C  C50  1  0.34922800  0.35448200  0.10111000  1
  C  C51  1  0.84922800  0.64551800  0.39889000  1
  C  C52  1  0.16757000  0.43790300  0.21933600  1
  C  C53  1  0.66757000  0.56209700  0.28066400  1
  C  C54  1  0.83243000  0.56209700  0.78066400  1
  C  C55  1  0.33243000  0.43790300  0.71933600  1
  C  C56  1  0.78340400  0.99174400  0.36179300  1
  C  C57  1  0.28340400  0.00825600  0.13820700  1
  C  C58  1  0.21659600  0.00825600  0.63820700  1
  C  C59  1  0.71659600  0.99174400  0.86179300  1
  C  C60  1  0.68849600  0.07431000  0.13867900  1
  C  C61  1  0.18849600  0.92569000  0.36132100  1
  C  C62  1  0.31150400  0.92569000  0.86132100  1
  C  C63  1  0.81150400  0.07431000  0.63867900  1
  C  C64  1  0.80816400  0.21477700  0.48635400  1
  C  C65  1  0.30816400  0.78522300  0.01364600  1
  C  C66  1  0.19183600  0.78522300  0.51364600  1
  C  C67  1  0.69183600  0.21477700  0.98635400  1
  C  C68  1  0.69069600  0.86007700  0.01475200  1
  C  C69  1  0.19069600  0.13992300  0.48524800  1
  C  C70  1  0.30930400  0.13992300  0.98524800  1
  C  C71  1  0.80930400  0.86007700  0.51475200  1
