# generated using pymatgen
data_CuNiC24
_symmetry_space_group_name_H-M   'P 1'
_cell_length_a   5.86272887
_cell_length_b   12.64828409
_cell_length_c   12.64828409
_cell_angle_alpha   90.00000000
_cell_angle_beta   90.00000000
_cell_angle_gamma   90.00000000
_symmetry_Int_Tables_number   1
_chemical_formula_structural   CuNiC24
_chemical_formula_sum   'Cu2 Ni2 C48'
_cell_volume   937.91403201
_cell_formula_units_Z   2
loop_
 _symmetry_equiv_pos_site_id
 _symmetry_equiv_pos_as_xyz
  1  'x, y, z'
loop_
 _atom_site_type_symbol
 _atom_site_label
 _atom_site_symmetry_multiplicity
 _atom_site_fract_x
 _atom_site_fract_y
 _atom_site_fract_z
 _atom_site_occupancy
  Ni  Ni0  1  -0.00000000  -0.00000000  -0.00000000  1
  Ni  Ni1  1  0.50000000  0.50000000  0.50000000  1
  Cu  Cu2  1  0.25000000  -0.00000000  0.50000000  1
  Cu  Cu3  1  0.75000000  0.50000000  0.00000000  1
  C  C4  1  0.01964675  0.40930851  0.28483826  1
  C  C5  1  0.01964675  0.59069149  0.71516174  1
  C  C6  1  0.98035325  0.28483826  0.59069149  1
  C  C7  1  0.51964675  0.90930851  0.21516174  1
  C  C8  1  0.98035325  0.71516174  0.40930851  1
  C  C9  1  0.51964675  0.09069149  0.78483826  1
  C  C10  1  0.48035325  0.78483826  0.90930851  1
  C  C11  1  0.48035325  0.21516174  0.09069149  1
  C  C12  1  0.20519370  0.18419071  0.04853226  1
  C  C13  1  0.20519370  0.81580929  0.95146774  1
  C  C14  1  0.79480630  0.04853226  0.81580929  1
  C  C15  1  0.70519370  0.68419071  0.45146774  1
  C  C16  1  0.79480630  0.95146774  0.18419071  1
  C  C17  1  0.70519370  0.31580929  0.54853226  1
  C  C18  1  0.29480630  0.54853226  0.68419071  1
  C  C19  1  0.29480630  0.45146774  0.31580929  1
  C  C20  1  0.17748364  0.36450623  0.52518475  1
  C  C21  1  0.17748364  0.63549377  0.47481525  1
  C  C22  1  0.82251636  0.52518475  0.63549377  1
  C  C23  1  0.67748364  0.86450623  0.97481525  1
  C  C24  1  0.82251636  0.47481525  0.36450623  1
  C  C25  1  0.67748364  0.13549377  0.02518475  1
  C  C26  1  0.32251636  0.02518475  0.86450623  1
  C  C27  1  0.32251636  0.97481525  0.13549377  1
  C  C28  1  0.03795441  0.14773721  0.56393130  1
  C  C29  1  0.03795441  0.85226279  0.43606870  1
  C  C30  1  0.96204559  0.56393130  0.85226279  1
  C  C31  1  0.53795441  0.64773721  0.93606870  1
  C  C32  1  0.96204559  0.43606870  0.14773721  1
  C  C33  1  0.53795441  0.35226279  0.06393130  1
  C  C34  1  0.46204559  0.06393130  0.64773721  1
  C  C35  1  0.46204559  0.93606870  0.35226279  1
  C  C36  1  0.50031900  0.19049310  0.22568572  1
  C  C37  1  0.50031900  0.80950690  0.77431428  1
  C  C38  1  0.49968100  0.22568572  0.80950690  1
  C  C39  1  0.00031900  0.69049310  0.27431428  1
  C  C40  1  0.49968100  0.77431428  0.19049310  1
  C  C41  1  0.00031900  0.30950690  0.72568572  1
  C  C42  1  0.99968100  0.72568572  0.69049310  1
  C  C43  1  0.99968100  0.27431428  0.30950690  1
  C  C44  1  0.03450745  0.06356480  0.35560616  1
  C  C45  1  0.03450745  0.93643520  0.64439384  1
  C  C46  1  0.96549255  0.35560616  0.93643520  1
  C  C47  1  0.53450745  0.56356480  0.14439384  1
  C  C48  1  0.96549255  0.64439384  0.06356480  1
  C  C49  1  0.53450745  0.43643520  0.85560616  1
  C  C50  1  0.46549255  0.85560616  0.56356480  1
  C  C51  1  0.46549255  0.14439384  0.43643520  1
