# generated using pymatgen
data_Cu10Ni4C21
_symmetry_space_group_name_H-M   'P 1'
_cell_length_a   14.91314816
_cell_length_b   14.91314816
_cell_length_c   14.91314816
_cell_angle_alpha   134.14245627
_cell_angle_beta   134.14245627
_cell_angle_gamma   66.86558903
_symmetry_Int_Tables_number   1
_chemical_formula_structural   Cu10Ni4C21
_chemical_formula_sum   'Cu20 Ni8 C42'
_cell_volume   1680.42482527
_cell_formula_units_Z   2
loop_
 _symmetry_equiv_pos_site_id
 _symmetry_equiv_pos_as_xyz
  1  'x, y, z'
loop_
 _atom_site_type_symbol
 _atom_site_label
 _atom_site_symmetry_multiplicity
 _atom_site_fract_x
 _atom_site_fract_y
 _atom_site_fract_z
 _atom_site_occupancy
  C  C0  1  0.26932800  0.39467800  0.28132200  1
  C  C1  1  0.73067200  0.60532200  0.71867800  1
  C  C2  1  0.11335600  0.98800600  0.71867800  1
  C  C3  1  0.39467800  0.11335600  0.12535000  1
  C  C4  1  0.38664400  0.10532200  0.87465000  1
  C  C5  1  0.88664400  0.01199400  0.28132200  1
  C  C6  1  0.60532200  0.88664400  0.87465000  1
  C  C7  1  0.61335600  0.89467800  0.12535000  1
  C  C8  1  0.98800600  0.26932800  0.87465000  1
  C  C9  1  0.23067200  0.51199400  0.12535000  1
  C  C10  1  0.01199400  0.73067200  0.12535000  1
  C  C11  1  0.76932800  0.48800600  0.87465000  1
  C  C12  1  0.51199400  0.38664400  0.28132200  1
  C  C13  1  0.48800600  0.61335600  0.71867800  1
  C  C14  1  0.10532200  0.23067200  0.71867800  1
  C  C15  1  0.89467800  0.76932800  0.28132200  1
  C  C16  1  0.60223500  0.10223500  0.50000000  1
  C  C17  1  0.39776500  0.89776500  0.50000000  1
  C  C18  1  0.10223500  0.60223500  0.50000000  1
  C  C19  1  0.89776500  0.39776500  0.50000000  1
  C  C20  1  0.65052100  0.15052100  0.80104300  1
  C  C21  1  0.34947900  0.84947900  0.19895700  1
  C  C22  1  0.15052100  0.34947900  0.50000000  1
  C  C23  1  0.84947900  0.65052100  0.50000000  1
  C  C24  1  0.27091000  0.14561600  0.27669800  1
  C  C25  1  0.72909000  0.85438400  0.72330200  1
  C  C26  1  0.86891800  0.99421200  0.72330200  1
  C  C27  1  0.14561600  0.86891800  0.87470600  1
  C  C28  1  0.63108200  0.35438400  0.12529400  1
  C  C29  1  0.13108200  0.00578800  0.27669800  1
  C  C30  1  0.85438400  0.13108200  0.12529400  1
  C  C31  1  0.36891800  0.64561600  0.87470600  1
  C  C32  1  0.99421200  0.27091000  0.12529400  1
  C  C33  1  0.22909000  0.50578800  0.87470600  1
  C  C34  1  0.00578800  0.72909000  0.87470600  1
  C  C35  1  0.77091000  0.49421200  0.12529400  1
  C  C36  1  0.50578800  0.63108200  0.27669800  1
  C  C37  1  0.49421200  0.36891800  0.72330200  1
  C  C38  1  0.35438400  0.22909000  0.72330200  1
  C  C39  1  0.64561600  0.77091000  0.27669800  1
  C  C40  1  0.75000000  0.25000000  0.50000000  1
  C  C41  1  0.25000000  0.75000000  0.50000000  1
  Ni  Ni42  1  0.34130400  0.84130400  0.81258600  1
  Ni  Ni43  1  0.65869600  0.15869600  0.18741400  1
  Ni  Ni44  1  0.02871800  0.52871800  0.18741400  1
  Ni  Ni45  1  0.84130400  0.02871800  0.50000000  1
  Ni  Ni46  1  0.47128200  0.65869600  0.50000000  1
  Ni  Ni47  1  0.97128200  0.47128200  0.81258600  1
  Ni  Ni48  1  0.15869600  0.97128200  0.50000000  1
  Ni  Ni49  1  0.52871800  0.34130400  0.50000000  1
  Cu  Cu50  1  0.79215900  0.29215900  0.86993100  1
  Cu  Cu51  1  0.20784100  0.70784100  0.13006900  1
  Cu  Cu52  1  0.42222800  0.92222800  0.13006900  1
  Cu  Cu53  1  0.29215900  0.42222800  0.50000000  1
  Cu  Cu54  1  0.07777200  0.20784100  0.50000000  1
  Cu  Cu55  1  0.57777200  0.07777200  0.86993100  1
  Cu  Cu56  1  0.70784100  0.57777200  0.50000000  1
  Cu  Cu57  1  0.92222800  0.79215900  0.50000000  1
  Cu  Cu58  1  0.09741500  0.59741500  0.69483000  1
  Cu  Cu59  1  0.90258500  0.40258500  0.30517000  1
  Cu  Cu60  1  0.59741500  0.90258500  0.50000000  1
  Cu  Cu61  1  0.40258500  0.09741500  0.50000000  1
  Cu  Cu62  1  0.00000000  0.00000000  0.00000000  1
  Cu  Cu63  1  0.50000000  0.50000000  0.00000000  1
  Cu  Cu64  1  0.13137500  0.13137500  0.00000000  1
  Cu  Cu65  1  0.86862500  0.86862500  0.00000000  1
  Cu  Cu66  1  0.36862500  0.36862500  0.00000000  1
  Cu  Cu67  1  0.63137500  0.63137500  0.00000000  1
  Cu  Cu68  1  0.25000000  0.25000000  0.00000000  1
  Cu  Cu69  1  0.75000000  0.75000000  0.00000000  1
