# generated using pymatgen
data_Cu5Ni5C6
_symmetry_space_group_name_H-M   'P 1'
_cell_length_a   5.21790100
_cell_length_b   9.47050067
_cell_length_c   12.45463306
_cell_angle_alpha   69.82599680
_cell_angle_beta   87.56463731
_cell_angle_gamma   86.86692720
_symmetry_Int_Tables_number   1
_chemical_formula_structural   Cu5Ni5C6
_chemical_formula_sum   'Cu10 Ni10 C12'
_cell_volume   576.65405426
_cell_formula_units_Z   2
loop_
 _symmetry_equiv_pos_site_id
 _symmetry_equiv_pos_as_xyz
  1  'x, y, z'
loop_
 _atom_site_type_symbol
 _atom_site_label
 _atom_site_symmetry_multiplicity
 _atom_site_fract_x
 _atom_site_fract_y
 _atom_site_fract_z
 _atom_site_occupancy
  C  C0  1  0.00200200  0.73555900  0.74377900  1
  C  C1  1  0.99799800  0.26444100  0.25622100  1
  C  C2  1  0.94290700  0.15413200  0.92248100  1
  C  C3  1  0.14272900  0.75253400  0.32438000  1
  C  C4  1  0.54147800  0.95445400  0.12269400  1
  C  C5  1  0.34235400  0.35297800  0.72526300  1
  C  C6  1  0.74198900  0.55629800  0.52098600  1
  C  C7  1  0.85727100  0.24746600  0.67562000  1
  C  C8  1  0.05709300  0.84586800  0.07751900  1
  C  C9  1  0.45852200  0.04554600  0.87730600  1
  C  C10  1  0.25801100  0.44370200  0.47901400  1
  C  C11  1  0.65764600  0.64702200  0.27473700  1
  Ni  Ni12  1  0.15543800  0.16450200  0.78433000  1
  Ni  Ni13  1  0.35474200  0.76426200  0.18514100  1
  Ni  Ni14  1  0.75536300  0.96400500  0.98441200  1
  Ni  Ni15  1  0.55508600  0.36565400  0.58515600  1
  Ni  Ni16  1  0.95484100  0.56325400  0.38458000  1
  Ni  Ni17  1  0.64525800  0.23573800  0.81485900  1
  Ni  Ni18  1  0.84456200  0.83549800  0.21567000  1
  Ni  Ni19  1  0.24463700  0.03599500  0.01558800  1
  Ni  Ni20  1  0.04515900  0.43674600  0.61542000  1
  Ni  Ni21  1  0.44491400  0.63434600  0.41484400  1
  Cu  Cu22  1  0.51959000  0.61356000  0.69137500  1
  Cu  Cu23  1  0.92104600  0.80788800  0.49177700  1
  Cu  Cu24  1  0.32638500  0.00766100  0.29239300  1
  Cu  Cu25  1  0.71364700  0.21216000  0.08766000  1
  Cu  Cu26  1  0.11879000  0.41192000  0.88804000  1
  Cu  Cu27  1  0.07895400  0.19211200  0.50822300  1
  Cu  Cu28  1  0.48041000  0.38644000  0.30862500  1
  Cu  Cu29  1  0.88121000  0.58808000  0.11196000  1
  Cu  Cu30  1  0.28635300  0.78784000  0.91234000  1
  Cu  Cu31  1  0.67361500  0.99233900  0.70760700  1
