# generated using pymatgen
data_Cu5(NiC)2
_symmetry_space_group_name_H-M   'P 1'
_cell_length_a   10.93924581
_cell_length_b   10.93924581
_cell_length_c   9.04367909
_cell_angle_alpha   80.48721858
_cell_angle_beta   80.48721858
_cell_angle_gamma   90.12215108
_symmetry_Int_Tables_number   1
_chemical_formula_structural   Cu5(NiC)2
_chemical_formula_sum   'Cu20 Ni8 C8'
_cell_volume   1052.18900493
_cell_formula_units_Z   4
loop_
 _symmetry_equiv_pos_site_id
 _symmetry_equiv_pos_as_xyz
  1  'x, y, z'
loop_
 _atom_site_type_symbol
 _atom_site_label
 _atom_site_symmetry_multiplicity
 _atom_site_fract_x
 _atom_site_fract_y
 _atom_site_fract_z
 _atom_site_occupancy
  C  C0  1  0.20566400  0.06275000  0.89973700  1
  C  C1  1  0.93725000  0.79433600  0.60026300  1
  C  C2  1  0.79433600  0.93725000  0.10026300  1
  C  C3  1  0.06275000  0.20566400  0.39973700  1
  C  C4  1  0.54795900  0.79446500  0.62250800  1
  C  C5  1  0.20553500  0.45204100  0.87749200  1
  C  C6  1  0.45204100  0.20553500  0.37749200  1
  C  C7  1  0.79446500  0.54795900  0.12250800  1
  Ni  Ni8  1  0.73046800  0.13344400  0.60935500  1
  Ni  Ni9  1  0.86655600  0.26953200  0.89064500  1
  Ni  Ni10  1  0.26953200  0.86655600  0.39064500  1
  Ni  Ni11  1  0.13344400  0.73046800  0.10935500  1
  Ni  Ni12  1  0.46945200  0.73387900  0.10177800  1
  Ni  Ni13  1  0.26612100  0.53054800  0.39822200  1
  Ni  Ni14  1  0.53054800  0.26612100  0.89822200  1
  Ni  Ni15  1  0.73387900  0.46945200  0.60177800  1
  Cu  Cu16  1  0.45467000  0.54533000  0.25000000  1
  Cu  Cu17  1  0.54533000  0.45467000  0.75000000  1
  Cu  Cu18  1  0.11374700  0.88625300  0.25000000  1
  Cu  Cu19  1  0.88625300  0.11374700  0.75000000  1
  Cu  Cu20  1  0.24556500  0.00934900  0.53073300  1
  Cu  Cu21  1  0.99065100  0.75443500  0.96926700  1
  Cu  Cu22  1  0.75443500  0.99065100  0.46926700  1
  Cu  Cu23  1  0.00934900  0.24556500  0.03073300  1
  Cu  Cu24  1  0.64977300  0.75477200  0.95646500  1
  Cu  Cu25  1  0.24522800  0.35022700  0.54353500  1
  Cu  Cu26  1  0.35022700  0.24522800  0.04353500  1
  Cu  Cu27  1  0.75477200  0.64977300  0.45646500  1
  Cu  Cu28  1  0.67991300  0.24360300  0.04711200  1
  Cu  Cu29  1  0.75639700  0.32008700  0.45288800  1
  Cu  Cu30  1  0.32008700  0.75639700  0.95288800  1
  Cu  Cu31  1  0.24360300  0.67991300  0.54711200  1
  Cu  Cu32  1  0.88745200  0.45842800  0.74441700  1
  Cu  Cu33  1  0.54157200  0.11254800  0.75558300  1
  Cu  Cu34  1  0.11254800  0.54157200  0.25558300  1
  Cu  Cu35  1  0.45842800  0.88745200  0.24441700  1
