# generated using pymatgen
data_Cu4NiC25
_symmetry_space_group_name_H-M   'P 1'
_cell_length_a   8.89928700
_cell_length_b   13.23240000
_cell_length_c   18.16539030
_cell_angle_alpha   50.43948950
_cell_angle_beta   90.00000000
_cell_angle_gamma   90.00000000
_symmetry_Int_Tables_number   1
_chemical_formula_structural   Cu4NiC25
_chemical_formula_sum   'Cu8 Ni2 C50'
_cell_volume   1649.17265094
_cell_formula_units_Z   2
loop_
 _symmetry_equiv_pos_site_id
 _symmetry_equiv_pos_as_xyz
  1  'x, y, z'
loop_
 _atom_site_type_symbol
 _atom_site_label
 _atom_site_symmetry_multiplicity
 _atom_site_fract_x
 _atom_site_fract_y
 _atom_site_fract_z
 _atom_site_occupancy
  C  C0  1  0.99756400  0.38902100  0.72500400  1
  C  C1  1  0.00243600  0.61097900  0.27499600  1
  C  C2  1  0.99756400  0.61097900  0.77499600  1
  C  C3  1  0.00243600  0.38902100  0.22500400  1
  C  C4  1  0.85230700  0.91819100  0.76814400  1
  C  C5  1  0.14769300  0.08180900  0.23185600  1
  C  C6  1  0.85230700  0.08180900  0.73185600  1
  C  C7  1  0.14769300  0.91819100  0.26814400  1
  Ni  Ni8  1  0.78373100  0.00000000  0.75000000  1
  Ni  Ni9  1  0.21626900  0.00000000  0.25000000  1
  Cu  Cu10  1  0.26652500  0.24941000  0.88949900  1
  Cu  Cu11  1  0.73347500  0.75059000  0.11050100  1
  Cu  Cu12  1  0.26652500  0.75059000  0.61050100  1
  Cu  Cu13  1  0.73347500  0.24941000  0.38949900  1
  Cu  Cu14  1  0.16769100  0.33141700  0.58827100  1
  Cu  Cu15  1  0.83230900  0.66858300  0.41172900  1
  Cu  Cu16  1  0.16769100  0.66858300  0.91172900  1
  Cu  Cu17  1  0.83230900  0.33141700  0.08827100  1
  C  C18  1  0.11171100  0.56463000  0.57046900  1
  C  C19  1  0.88828900  0.43537000  0.42953100  1
  C  C20  1  0.11171100  0.43537000  0.92953100  1
  C  C21  1  0.88828900  0.56463000  0.07046900  1
  C  C22  1  0.77090600  0.41171200  0.65993400  1
  C  C23  1  0.22909400  0.58828800  0.34006600  1
  C  C24  1  0.77090600  0.58828800  0.84006600  1
  C  C25  1  0.22909400  0.41171200  0.15993400  1
  C  C26  1  0.94759600  0.19430100  0.87516300  1
  C  C27  1  0.05240400  0.80569900  0.12483700  1
  C  C28  1  0.94759600  0.80569900  0.62483700  1
  C  C29  1  0.05240400  0.19430100  0.37516300  1
  C  C30  1  0.48830700  0.32397200  0.88768500  1
  C  C31  1  0.51169300  0.67602800  0.11231500  1
  C  C32  1  0.48830700  0.67602800  0.61231500  1
  C  C33  1  0.51169300  0.32397200  0.38768500  1
  C  C34  1  0.35017700  0.08136600  0.90224600  1
  C  C35  1  0.64982300  0.91863400  0.09775400  1
  C  C36  1  0.35017700  0.91863400  0.59775400  1
  C  C37  1  0.64982300  0.08136600  0.40224600  1
  C  C38  1  0.40692600  0.32797400  0.62177700  1
  C  C39  1  0.59307400  0.67202600  0.37822300  1
  C  C40  1  0.40692600  0.67202600  0.87822300  1
  C  C41  1  0.59307400  0.32797400  0.12177700  1
  C  C42  1  0.17067900  0.15139100  0.60385300  1
  C  C43  1  0.82932100  0.84860900  0.39614700  1
  C  C44  1  0.17067900  0.84860900  0.89614700  1
  C  C45  1  0.82932100  0.15139100  0.10385300  1
  C  C46  1  0.67152700  0.05630400  0.64940100  1
  C  C47  1  0.32847300  0.94369600  0.35059900  1
  C  C48  1  0.67152700  0.94369600  0.85059900  1
  C  C49  1  0.32847300  0.05630400  0.14940100  1
  C  C50  1  0.96645300  0.50000000  0.75000000  1
  C  C51  1  0.03354700  0.50000000  0.25000000  1
  C  C52  1  0.22255300  0.36205100  0.77353100  1
  C  C53  1  0.77744700  0.63794900  0.22646900  1
  C  C54  1  0.22255300  0.63794900  0.72646900  1
  C  C55  1  0.77744700  0.36205100  0.27353100  1
  C  C56  1  0.07488700  0.27100300  0.68909100  1
  C  C57  1  0.92511300  0.72899700  0.31090900  1
  C  C58  1  0.07488700  0.72899700  0.81090900  1
  C  C59  1  0.92511300  0.27100300  0.18909100  1
