# generated using pymatgen
data_Cu2NiC4
_symmetry_space_group_name_H-M   'P 1'
_cell_length_a   5.59297800
_cell_length_b   6.33404456
_cell_length_c   11.02884404
_cell_angle_alpha   101.97262052
_cell_angle_beta   91.45985728
_cell_angle_gamma   89.78268591
_symmetry_Int_Tables_number   1
_chemical_formula_structural   Cu2NiC4
_chemical_formula_sum   'Cu8 Ni4 C16'
_cell_volume   382.08605131
_cell_formula_units_Z   4
loop_
 _symmetry_equiv_pos_site_id
 _symmetry_equiv_pos_as_xyz
  1  'x, y, z'
loop_
 _atom_site_type_symbol
 _atom_site_label
 _atom_site_symmetry_multiplicity
 _atom_site_fract_x
 _atom_site_fract_y
 _atom_site_fract_z
 _atom_site_occupancy
  Ni  Ni0  1  0.80086500  0.74825100  0.24984900  1
  Ni  Ni1  1  0.19913500  0.25174900  0.75015100  1
  Ni  Ni2  1  0.50841500  0.75229400  0.74965200  1
  Ni  Ni3  1  0.49158500  0.24770600  0.25034800  1
  Cu  Cu4  1  0.54773100  0.27004100  0.53517100  1
  Cu  Cu5  1  0.54513300  0.23205800  0.96861500  1
  Cu  Cu6  1  0.45226900  0.72995900  0.46482900  1
  Cu  Cu7  1  0.45486700  0.76794200  0.03138500  1
  Cu  Cu8  1  0.00000000  0.50000000  0.50000000  1
  Cu  Cu9  1  0.00000000  0.00000000  0.00000000  1
  Cu  Cu10  1  0.00000000  0.00000000  0.50000000  1
  Cu  Cu11  1  0.00000000  0.50000000  0.00000000  1
  C  C12  1  0.90909400  0.29038900  0.61768000  1
  C  C13  1  0.89564100  0.20881100  0.88460600  1
  C  C14  1  0.09090600  0.70961100  0.38232000  1
  C  C15  1  0.10435900  0.79118900  0.11539400  1
  C  C16  1  0.26262400  0.28162500  0.41422000  1
  C  C17  1  0.26581100  0.22229100  0.08755300  1
  C  C18  1  0.73737600  0.71837500  0.58578000  1
  C  C19  1  0.73418900  0.77770900  0.91244700  1
  C  C20  1  0.62522900  0.53605000  0.32684900  1
  C  C21  1  0.63815200  0.96588200  0.16931300  1
  C  C22  1  0.28700600  0.94283000  0.60433200  1
  C  C23  1  0.27756800  0.54690200  0.89500900  1
  C  C24  1  0.37477100  0.46395000  0.67315100  1
  C  C25  1  0.36184800  0.03411800  0.83068700  1
  C  C26  1  0.71299400  0.05717000  0.39566800  1
  C  C27  1  0.72243200  0.45309800  0.10499100  1
