# generated using pymatgen
data_Cu3NiC14
_symmetry_space_group_name_H-M   'P 1'
_cell_length_a   8.12703992
_cell_length_b   8.12703992
_cell_length_c   7.51286800
_cell_angle_alpha   90.00000000
_cell_angle_beta   90.00000000
_cell_angle_gamma   119.99999931
_symmetry_Int_Tables_number   1
_chemical_formula_structural   Cu3NiC14
_chemical_formula_sum   'Cu6 Ni2 C28'
_cell_volume   429.73544744
_cell_formula_units_Z   2
loop_
 _symmetry_equiv_pos_site_id
 _symmetry_equiv_pos_as_xyz
  1  'x, y, z'
loop_
 _atom_site_type_symbol
 _atom_site_label
 _atom_site_symmetry_multiplicity
 _atom_site_fract_x
 _atom_site_fract_y
 _atom_site_fract_z
 _atom_site_occupancy
  C  C0  1  0.66666700  0.33333300  0.45162500  1
  C  C1  1  0.33333300  0.66666700  0.95162500  1
  C  C2  1  0.33333300  0.66666700  0.54837500  1
  C  C3  1  0.66666700  0.33333300  0.04837500  1
  Ni  Ni4  1  0.00000000  0.00000000  0.75000000  1
  Ni  Ni5  1  0.00000000  0.00000000  0.25000000  1
  Cu  Cu6  1  0.68481300  0.63980100  0.75000000  1
  Cu  Cu7  1  0.36019900  0.04501300  0.75000000  1
  Cu  Cu8  1  0.95498700  0.31518700  0.75000000  1
  Cu  Cu9  1  0.31518700  0.36019900  0.25000000  1
  Cu  Cu10  1  0.63980100  0.95498700  0.25000000  1
  Cu  Cu11  1  0.04501300  0.68481300  0.25000000  1
  C  C12  1  0.81055700  0.86662500  0.75000000  1
  C  C13  1  0.13337500  0.94393200  0.75000000  1
  C  C14  1  0.05606800  0.18944300  0.75000000  1
  C  C15  1  0.18944300  0.13337500  0.25000000  1
  C  C16  1  0.86662500  0.05606800  0.25000000  1
  C  C17  1  0.94393200  0.81055700  0.25000000  1
  C  C18  1  0.72791700  0.56586100  0.58010600  1
  C  C19  1  0.43413900  0.16205600  0.58010600  1
  C  C20  1  0.83794400  0.27208300  0.58010600  1
  C  C21  1  0.27208300  0.43413900  0.08010600  1
  C  C22  1  0.56586100  0.83794400  0.08010600  1
  C  C23  1  0.16205600  0.72791700  0.08010600  1
  C  C24  1  0.27208300  0.43413900  0.41989400  1
  C  C25  1  0.56586100  0.83794400  0.41989400  1
  C  C26  1  0.16205600  0.72791700  0.41989400  1
  C  C27  1  0.72791700  0.56586100  0.91989400  1
  C  C28  1  0.43413900  0.16205600  0.91989400  1
  C  C29  1  0.83794400  0.27208300  0.91989400  1
  C  C30  1  0.47897800  0.60524700  0.75000000  1
  C  C31  1  0.39475300  0.87373100  0.75000000  1
  C  C32  1  0.12626900  0.52102200  0.75000000  1
  C  C33  1  0.52102200  0.39475300  0.25000000  1
  C  C34  1  0.60524700  0.12626900  0.25000000  1
  C  C35  1  0.87373100  0.47897800  0.25000000  1
