# generated using pymatgen
data_CuNiC15
_symmetry_space_group_name_H-M   'P 1'
_cell_length_a   8.94924640
_cell_length_b   8.94924640
_cell_length_c   8.94924567
_cell_angle_alpha   58.41166844
_cell_angle_beta   58.41166844
_cell_angle_gamma   58.41167223
_symmetry_Int_Tables_number   1
_chemical_formula_structural   CuNiC15
_chemical_formula_sum   'Cu2 Ni2 C30'
_cell_volume   488.38534133
_cell_formula_units_Z   2
loop_
 _symmetry_equiv_pos_site_id
 _symmetry_equiv_pos_as_xyz
  1  'x, y, z'
loop_
 _atom_site_type_symbol
 _atom_site_label
 _atom_site_symmetry_multiplicity
 _atom_site_fract_x
 _atom_site_fract_y
 _atom_site_fract_z
 _atom_site_occupancy
  Ni  Ni0  1  0.35863700  0.35863700  0.35863700  1
  Ni  Ni1  1  0.85863700  0.85863700  0.85863700  1
  Cu  Cu2  1  0.63997500  0.63997500  0.63997500  1
  Cu  Cu3  1  0.13997500  0.13997500  0.13997500  1
  C  C4  1  0.97194500  0.53634700  0.24392800  1
  C  C5  1  0.24392800  0.97194500  0.53634700  1
  C  C6  1  0.53634700  0.24392800  0.97194500  1
  C  C7  1  0.74392800  0.03634700  0.47194500  1
  C  C8  1  0.47194500  0.74392800  0.03634700  1
  C  C9  1  0.03634700  0.47194500  0.74392800  1
  C  C10  1  0.13906000  0.50341300  0.27719000  1
  C  C11  1  0.27719000  0.13906000  0.50341300  1
  C  C12  1  0.50341300  0.27719000  0.13906000  1
  C  C13  1  0.77719000  0.00341300  0.63906000  1
  C  C14  1  0.63906000  0.77719000  0.00341300  1
  C  C15  1  0.00341300  0.63906000  0.77719000  1
  C  C16  1  0.86363100  0.49719800  0.72072100  1
  C  C17  1  0.72072100  0.86363100  0.49719800  1
  C  C18  1  0.49719800  0.72072100  0.86363100  1
  C  C19  1  0.22072100  0.99719800  0.36363100  1
  C  C20  1  0.36363100  0.22072100  0.99719800  1
  C  C21  1  0.99719800  0.36363100  0.22072100  1
  C  C22  1  0.21119400  0.43795800  0.57437900  1
  C  C23  1  0.57437900  0.21119400  0.43795800  1
  C  C24  1  0.43795800  0.57437900  0.21119400  1
  C  C25  1  0.07437900  0.93795800  0.71119400  1
  C  C26  1  0.71119400  0.07437900  0.93795800  1
  C  C27  1  0.93795800  0.71119400  0.07437900  1
  C  C28  1  0.79246400  0.56300200  0.41896000  1
  C  C29  1  0.41896000  0.79246400  0.56300200  1
  C  C30  1  0.56300200  0.41896000  0.79246400  1
  C  C31  1  0.91896000  0.06300200  0.29246400  1
  C  C32  1  0.29246400  0.91896000  0.06300200  1
  C  C33  1  0.06300200  0.29246400  0.91896000  1
