# generated using pymatgen
data_Cu3NiC5
_symmetry_space_group_name_H-M   'P 1'
_cell_length_a   8.46265200
_cell_length_b   9.37264500
_cell_length_c   17.96927622
_cell_angle_alpha   58.93825799
_cell_angle_beta   90.00000000
_cell_angle_gamma   90.00000000
_symmetry_Int_Tables_number   1
_chemical_formula_structural   Cu3NiC5
_chemical_formula_sum   'Cu12 Ni4 C20'
_cell_volume   1220.90897433
_cell_formula_units_Z   4
loop_
 _symmetry_equiv_pos_site_id
 _symmetry_equiv_pos_as_xyz
  1  'x, y, z'
loop_
 _atom_site_type_symbol
 _atom_site_label
 _atom_site_symmetry_multiplicity
 _atom_site_fract_x
 _atom_site_fract_y
 _atom_site_fract_z
 _atom_site_occupancy
  C  C0  1  0.16087500  0.83708500  0.74118600  1
  C  C1  1  0.66087500  0.16291500  0.75881400  1
  C  C2  1  0.83912500  0.16291500  0.25881400  1
  C  C3  1  0.33912500  0.83708500  0.24118600  1
  C  C4  1  0.17001200  0.15857400  0.41973700  1
  C  C5  1  0.67001200  0.84142600  0.08026300  1
  C  C6  1  0.82998800  0.84142600  0.58026300  1
  C  C7  1  0.32998800  0.15857400  0.91973700  1
  C  C8  1  0.00760200  0.10604400  0.08639400  1
  C  C9  1  0.50760200  0.89395600  0.41360600  1
  C  C10  1  0.99239800  0.89395600  0.91360600  1
  C  C11  1  0.49239800  0.10604400  0.58639400  1
  C  C12  1  0.51937100  0.26637400  0.07628900  1
  C  C13  1  0.01937100  0.73362600  0.42371100  1
  C  C14  1  0.48062900  0.73362600  0.92371100  1
  C  C15  1  0.98062900  0.26637400  0.57628900  1
  C  C16  1  0.98536100  0.55356800  0.25567600  1
  C  C17  1  0.48536100  0.44643200  0.24432400  1
  C  C18  1  0.01463900  0.44643200  0.74432400  1
  C  C19  1  0.51463900  0.55356800  0.75567600  1
  Ni  Ni20  1  0.35943500  0.48817000  0.58551500  1
  Ni  Ni21  1  0.85943500  0.51183000  0.91448500  1
  Ni  Ni22  1  0.64056500  0.51183000  0.41448500  1
  Ni  Ni23  1  0.14056500  0.48817000  0.08551500  1
  Cu  Cu24  1  0.31575000  0.48472200  0.43465000  1
  Cu  Cu25  1  0.81575000  0.51527800  0.06535000  1
  Cu  Cu26  1  0.68425000  0.51527800  0.56535000  1
  Cu  Cu27  1  0.18425000  0.48472200  0.93465000  1
  Cu  Cu28  1  0.22755100  0.19855200  0.22379000  1
  Cu  Cu29  1  0.72755100  0.80144800  0.27621000  1
  Cu  Cu30  1  0.77244900  0.80144800  0.77621000  1
  Cu  Cu31  1  0.27244900  0.19855200  0.72379000  1
  Cu  Cu32  1  0.25958800  0.75912700  0.07979100  1
  Cu  Cu33  1  0.75958800  0.24087300  0.42020900  1
  Cu  Cu34  1  0.74041200  0.24087300  0.92020900  1
  Cu  Cu35  1  0.24041200  0.75912700  0.57979100  1
