# generated using pymatgen
data_CuNiC7
_symmetry_space_group_name_H-M   'P 1'
_cell_length_a   6.12902900
_cell_length_b   4.49819100
_cell_length_c   9.94661337
_cell_angle_alpha   81.60448006
_cell_angle_beta   90.00000000
_cell_angle_gamma   90.00000000
_symmetry_Int_Tables_number   1
_chemical_formula_structural   CuNiC7
_chemical_formula_sum   'Cu2 Ni2 C14'
_cell_volume   271.28493807
_cell_formula_units_Z   2
loop_
 _symmetry_equiv_pos_site_id
 _symmetry_equiv_pos_as_xyz
  1  'x, y, z'
loop_
 _atom_site_type_symbol
 _atom_site_label
 _atom_site_symmetry_multiplicity
 _atom_site_fract_x
 _atom_site_fract_y
 _atom_site_fract_z
 _atom_site_occupancy
  C  C0  1  0.50000000  0.50000000  0.50000000  1
  C  C1  1  0.00000000  0.50000000  0.50000000  1
  Ni  Ni2  1  0.25000000  0.14833300  0.85133800  1
  Ni  Ni3  1  0.75000000  0.85166700  0.14866200  1
  Cu  Cu4  1  0.25000000  0.01743900  0.18793400  1
  Cu  Cu5  1  0.75000000  0.98256100  0.81206600  1
  C  C6  1  0.25000000  0.83441300  0.07107600  1
  C  C7  1  0.75000000  0.16558700  0.92892400  1
  C  C8  1  0.25000000  0.81429100  0.31745200  1
  C  C9  1  0.75000000  0.18570900  0.68254800  1
  C  C10  1  0.45111200  0.20999100  0.17252900  1
  C  C11  1  0.95111200  0.79000900  0.82747100  1
  C  C12  1  0.54888800  0.79000900  0.82747100  1
  C  C13  1  0.04888800  0.20999100  0.17252900  1
  C  C14  1  0.25000000  0.57973200  0.60720100  1
  C  C15  1  0.75000000  0.42026800  0.39279900  1
  C  C16  1  0.25000000  0.26406300  0.56985300  1
  C  C17  1  0.75000000  0.73593700  0.43014700  1
