# generated using pymatgen
data_Cu4Ni2C11
_symmetry_space_group_name_H-M   'P 1'
_cell_length_a   5.74691423
_cell_length_b   5.99805600
_cell_length_c   8.40599335
_cell_angle_alpha   90.00000000
_cell_angle_beta   92.79717396
_cell_angle_gamma   90.00000000
_symmetry_Int_Tables_number   1
_chemical_formula_structural   Cu4Ni2C11
_chemical_formula_sum   'Cu8 Ni4 C22'
_cell_volume   289.41199267
_cell_formula_units_Z   2
loop_
 _symmetry_equiv_pos_site_id
 _symmetry_equiv_pos_as_xyz
  1  'x, y, z'
loop_
 _atom_site_type_symbol
 _atom_site_label
 _atom_site_symmetry_multiplicity
 _atom_site_fract_x
 _atom_site_fract_y
 _atom_site_fract_z
 _atom_site_occupancy
  C  C0  1  0.00000000  0.00000000  0.00000000  1
  C  C1  1  0.50000000  0.50000000  0.00000000  1
  C  C2  1  0.46476800  0.16999600  0.74046500  1
  C  C3  1  0.03523200  0.66999600  0.25953500  1
  C  C4  1  0.53523200  0.83000400  0.25953500  1
  C  C5  1  0.96476800  0.33000400  0.74046500  1
  C  C6  1  0.44229200  0.90927400  0.82698700  1
  C  C7  1  0.05770800  0.40927400  0.17301300  1
  C  C8  1  0.55770800  0.09072600  0.17301300  1
  C  C9  1  0.94229200  0.59072600  0.82698700  1
  C  C10  1  0.63477500  0.95996100  0.68020100  1
  C  C11  1  0.86522500  0.45996100  0.31979900  1
  C  C12  1  0.36522500  0.04003900  0.31979900  1
  C  C13  1  0.13477500  0.54003900  0.68020100  1
  C  C14  1  0.15250100  0.97244300  0.65367400  1
  C  C15  1  0.34749900  0.47244300  0.34632600  1
  C  C16  1  0.84749900  0.02755700  0.34632600  1
  C  C17  1  0.65250100  0.52755700  0.65367400  1
  C  C18  1  0.47300900  0.99599500  0.72124600  1
  C  C19  1  0.02699100  0.49599500  0.27875400  1
  C  C20  1  0.52699100  0.00400500  0.27875400  1
  C  C21  1  0.97300900  0.50400500  0.72124600  1
  Ni  Ni22  1  0.30323800  0.92914800  0.60240500  1
  Ni  Ni23  1  0.19676200  0.42914800  0.39759500  1
  Ni  Ni24  1  0.69676200  0.07085200  0.39759500  1
  Ni  Ni25  1  0.80323800  0.57085200  0.60240500  1
  Cu  Cu26  1  0.21762000  0.28221400  0.03241200  1
  Cu  Cu27  1  0.28238000  0.78221400  0.96758800  1
  Cu  Cu28  1  0.78238000  0.71778600  0.96758800  1
  Cu  Cu29  1  0.71762000  0.21778600  0.03241200  1
  Cu  Cu30  1  0.96583400  0.05719600  0.75935500  1
  Cu  Cu31  1  0.53416600  0.55719600  0.24064500  1
  Cu  Cu32  1  0.03416600  0.94280400  0.24064500  1
  Cu  Cu33  1  0.46583400  0.44280400  0.75935500  1
