# generated using pymatgen
data_Cu2(NiC2)7
_symmetry_space_group_name_H-M   'P 1'
_cell_length_a   7.88769007
_cell_length_b   7.88769007
_cell_length_c   9.80091000
_cell_angle_alpha   90.00000000
_cell_angle_beta   90.00000000
_cell_angle_gamma   120.00000060
_symmetry_Int_Tables_number   1
_chemical_formula_structural   Cu2(NiC2)7
_chemical_formula_sum   'Cu4 Ni14 C28'
_cell_volume   528.07633497
_cell_formula_units_Z   2
loop_
 _symmetry_equiv_pos_site_id
 _symmetry_equiv_pos_as_xyz
  1  'x, y, z'
loop_
 _atom_site_type_symbol
 _atom_site_label
 _atom_site_symmetry_multiplicity
 _atom_site_fract_x
 _atom_site_fract_y
 _atom_site_fract_z
 _atom_site_occupancy
  Ni  Ni0  1  0.07762600  0.46310400  0.11689000  1
  Ni  Ni1  1  0.53689600  0.61452200  0.11689000  1
  Ni  Ni2  1  0.38547800  0.92237400  0.11689000  1
  Ni  Ni3  1  0.92237400  0.53689600  0.61689000  1
  Ni  Ni4  1  0.46310400  0.38547800  0.61689000  1
  Ni  Ni5  1  0.61452200  0.07762600  0.61689000  1
  Ni  Ni6  1  0.02485700  0.24123300  0.38760200  1
  Ni  Ni7  1  0.75876700  0.78362400  0.38760200  1
  Ni  Ni8  1  0.21637600  0.97514300  0.38760200  1
  Ni  Ni9  1  0.97514300  0.75876700  0.88760200  1
  Ni  Ni10  1  0.24123300  0.21637600  0.88760200  1
  Ni  Ni11  1  0.78362400  0.02485700  0.88760200  1
  Ni  Ni12  1  0.33333300  0.66666700  0.41315700  1
  Ni  Ni13  1  0.66666700  0.33333300  0.91315700  1
  Cu  Cu14  1  0.66666700  0.33333300  0.32983000  1
  Cu  Cu15  1  0.33333300  0.66666700  0.82983000  1
  Cu  Cu16  1  0.00000000  0.00000000  0.10058300  1
  Cu  Cu17  1  0.00000000  0.00000000  0.60058300  1
  C  C18  1  0.82461300  0.02605200  0.52666800  1
  C  C19  1  0.97394800  0.79856000  0.52666800  1
  C  C20  1  0.20144000  0.17538700  0.52666800  1
  C  C21  1  0.17538700  0.97394800  0.02666800  1
  C  C22  1  0.02605200  0.20144000  0.02666800  1
  C  C23  1  0.79856000  0.82461300  0.02666800  1
  C  C24  1  0.61251000  0.08535900  0.00035600  1
  C  C25  1  0.91464100  0.52715000  0.00035600  1
  C  C26  1  0.47285000  0.38749000  0.00035600  1
  C  C27  1  0.38749000  0.91464100  0.50035600  1
  C  C28  1  0.08535900  0.47285000  0.50035600  1
  C  C29  1  0.52715000  0.61251000  0.50035600  1
  C  C30  1  0.86113900  0.32379800  0.27438000  1
  C  C31  1  0.67620200  0.53734100  0.27438000  1
  C  C32  1  0.46265900  0.13886100  0.27438000  1
  C  C33  1  0.13886100  0.67620200  0.77438000  1
  C  C34  1  0.32379800  0.46265900  0.77438000  1
  C  C35  1  0.53734100  0.86113900  0.77438000  1
  C  C36  1  0.28216900  0.47111500  0.25576800  1
  C  C37  1  0.52888500  0.81105400  0.25576800  1
  C  C38  1  0.18894600  0.71783100  0.25576800  1
  C  C39  1  0.71783100  0.52888500  0.75576800  1
  C  C40  1  0.47111500  0.18894600  0.75576800  1
  C  C41  1  0.81105400  0.28216900  0.75576800  1
  C  C42  1  0.66666700  0.33333300  0.49946600  1
  C  C43  1  0.33333300  0.66666700  0.99946600  1
  C  C44  1  0.00000000  0.00000000  0.26899000  1
  C  C45  1  0.00000000  0.00000000  0.76899000  1
