# generated using pymatgen
data_Cu3(NiC7)2
_symmetry_space_group_name_H-M   'P 1'
_cell_length_a   10.42428800
_cell_length_b   10.42428800
_cell_length_c   10.42428800
_cell_angle_alpha   90.00000000
_cell_angle_beta   90.00000000
_cell_angle_gamma   90.00000000
_symmetry_Int_Tables_number   1
_chemical_formula_structural   Cu3(NiC7)2
_chemical_formula_sum   'Cu12 Ni8 C56'
_cell_volume   1132.76338966
_cell_formula_units_Z   4
loop_
 _symmetry_equiv_pos_site_id
 _symmetry_equiv_pos_as_xyz
  1  'x, y, z'
loop_
 _atom_site_type_symbol
 _atom_site_label
 _atom_site_symmetry_multiplicity
 _atom_site_fract_x
 _atom_site_fract_y
 _atom_site_fract_z
 _atom_site_occupancy
  C  C0  1  0.04879400  0.04879400  0.04879400  1
  C  C1  1  0.45120600  0.95120600  0.54879400  1
  C  C2  1  0.95120600  0.54879400  0.45120600  1
  C  C3  1  0.54879400  0.45120600  0.95120600  1
  C  C4  1  0.81601500  0.81601500  0.81601500  1
  C  C5  1  0.68398500  0.18398500  0.31601500  1
  C  C6  1  0.18398500  0.31601500  0.68398500  1
  C  C7  1  0.31601500  0.68398500  0.18398500  1
  Ni  Ni8  1  0.33445800  0.33445800  0.33445800  1
  Ni  Ni9  1  0.16554200  0.66554200  0.83445800  1
  Ni  Ni10  1  0.66554200  0.83445800  0.16554200  1
  Ni  Ni11  1  0.83445800  0.16554200  0.66554200  1
  Ni  Ni12  1  0.59772100  0.59772100  0.59772100  1
  Ni  Ni13  1  0.90227900  0.40227900  0.09772100  1
  Ni  Ni14  1  0.40227900  0.09772100  0.90227900  1
  Ni  Ni15  1  0.09772100  0.90227900  0.40227900  1
  Cu  Cu16  1  0.01903900  0.21532100  0.37570300  1
  Cu  Cu17  1  0.48096100  0.78467900  0.87570300  1
  Cu  Cu18  1  0.98096100  0.71532100  0.12429700  1
  Cu  Cu19  1  0.37570300  0.01903900  0.21532100  1
  Cu  Cu20  1  0.51903900  0.28467900  0.62429700  1
  Cu  Cu21  1  0.87570300  0.48096100  0.78467900  1
  Cu  Cu22  1  0.12429700  0.98096100  0.71532100  1
  Cu  Cu23  1  0.62429700  0.51903900  0.28467900  1
  Cu  Cu24  1  0.21532100  0.37570300  0.01903900  1
  Cu  Cu25  1  0.71532100  0.12429700  0.98096100  1
  Cu  Cu26  1  0.28467900  0.62429700  0.51903900  1
  Cu  Cu27  1  0.78467900  0.87570300  0.48096100  1
  C  C28  1  0.01122200  0.07291400  0.32919900  1
  C  C29  1  0.48877800  0.92708600  0.82919900  1
  C  C30  1  0.98877800  0.57291400  0.17080100  1
  C  C31  1  0.32919900  0.01122200  0.07291400  1
  C  C32  1  0.51122200  0.42708600  0.67080100  1
  C  C33  1  0.82919900  0.48877800  0.92708600  1
  C  C34  1  0.17080100  0.98877800  0.57291400  1
  C  C35  1  0.67080100  0.51122200  0.42708600  1
  C  C36  1  0.07291400  0.32919900  0.01122200  1
  C  C37  1  0.57291400  0.17080100  0.98877800  1
  C  C38  1  0.42708600  0.67080100  0.51122200  1
  C  C39  1  0.92708600  0.82919900  0.48877800  1
  C  C40  1  0.26566200  0.49817400  0.43929400  1
  C  C41  1  0.23433800  0.50182600  0.93929400  1
  C  C42  1  0.73433800  0.99817400  0.06070600  1
  C  C43  1  0.43929400  0.26566200  0.49817400  1
  C  C44  1  0.76566200  0.00182600  0.56070600  1
  C  C45  1  0.93929400  0.23433800  0.50182600  1
  C  C46  1  0.06070600  0.73433800  0.99817400  1
  C  C47  1  0.56070600  0.76566200  0.00182600  1
  C  C48  1  0.49817400  0.43929400  0.26566200  1
  C  C49  1  0.99817400  0.06070600  0.73433800  1
  C  C50  1  0.00182600  0.56070600  0.76566200  1
  C  C51  1  0.50182600  0.93929400  0.23433800  1
  C  C52  1  0.04447200  0.80482900  0.22766500  1
  C  C53  1  0.45552800  0.19517100  0.72766500  1
  C  C54  1  0.95552800  0.30482900  0.27233500  1
  C  C55  1  0.22766500  0.04447200  0.80482900  1
  C  C56  1  0.54447200  0.69517100  0.77233500  1
  C  C57  1  0.72766500  0.45552800  0.19517100  1
  C  C58  1  0.27233500  0.95552800  0.30482900  1
  C  C59  1  0.77233500  0.54447200  0.69517100  1
  C  C60  1  0.80482900  0.22766500  0.04447200  1
  C  C61  1  0.30482900  0.27233500  0.95552800  1
  C  C62  1  0.69517100  0.77233500  0.54447200  1
  C  C63  1  0.19517100  0.72766500  0.45552800  1
  C  C64  1  0.15994400  0.25524700  0.40263500  1
  C  C65  1  0.34005600  0.74475300  0.90263500  1
  C  C66  1  0.84005600  0.75524700  0.09736500  1
  C  C67  1  0.40263500  0.15994400  0.25524700  1
  C  C68  1  0.65994400  0.24475300  0.59736500  1
  C  C69  1  0.90263500  0.34005600  0.74475300  1
  C  C70  1  0.09736500  0.84005600  0.75524700  1
  C  C71  1  0.59736500  0.65994400  0.24475300  1
  C  C72  1  0.25524700  0.40263500  0.15994400  1
  C  C73  1  0.75524700  0.09736500  0.84005600  1
  C  C74  1  0.24475300  0.59736500  0.65994400  1
  C  C75  1  0.74475300  0.90263500  0.34005600  1
