# generated using pymatgen
data_Cu2Ni4C7
_symmetry_space_group_name_H-M   'P 1'
_cell_length_a   3.43667624
_cell_length_b   3.43667624
_cell_length_c   33.59703200
_cell_angle_alpha   90.00000000
_cell_angle_beta   90.00000000
_cell_angle_gamma   120.00000466
_symmetry_Int_Tables_number   1
_chemical_formula_structural   Cu2Ni4C7
_chemical_formula_sum   'Cu4 Ni8 C14'
_cell_volume   343.64399998
_cell_formula_units_Z   2
loop_
 _symmetry_equiv_pos_site_id
 _symmetry_equiv_pos_as_xyz
  1  'x, y, z'
loop_
 _atom_site_type_symbol
 _atom_site_label
 _atom_site_symmetry_multiplicity
 _atom_site_fract_x
 _atom_site_fract_y
 _atom_site_fract_z
 _atom_site_occupancy
  Ni  Ni0  1  0.33333300  0.66666700  0.40949900  1
  Ni  Ni1  1  0.66666700  0.33333300  0.59050100  1
  Ni  Ni2  1  0.66666700  0.33333300  0.90949900  1
  Ni  Ni3  1  0.33333300  0.66666700  0.09050100  1
  Ni  Ni4  1  0.00000000  0.00000000  0.33340800  1
  Ni  Ni5  1  0.00000000  0.00000000  0.66659200  1
  Ni  Ni6  1  0.00000000  0.00000000  0.83340800  1
  Ni  Ni7  1  0.00000000  0.00000000  0.16659200  1
  Cu  Cu8  1  0.00000000  0.00000000  0.50000000  1
  Cu  Cu9  1  0.00000000  0.00000000  0.00000000  1
  Cu  Cu10  1  0.33333300  0.66666700  0.25000000  1
  Cu  Cu11  1  0.66666700  0.33333300  0.75000000  1
  C  C12  1  0.00000000  0.00000000  0.39274000  1
  C  C13  1  0.00000000  0.00000000  0.60726000  1
  C  C14  1  0.00000000  0.00000000  0.89274000  1
  C  C15  1  0.00000000  0.00000000  0.10726000  1
  C  C16  1  0.33333300  0.66666700  0.46864100  1
  C  C17  1  0.66666700  0.33333300  0.53135900  1
  C  C18  1  0.66666700  0.33333300  0.96864100  1
  C  C19  1  0.33333300  0.66666700  0.03135900  1
  C  C20  1  0.33333300  0.66666700  0.31612600  1
  C  C21  1  0.66666700  0.33333300  0.68387400  1
  C  C22  1  0.66666700  0.33333300  0.81612600  1
  C  C23  1  0.33333300  0.66666700  0.18387400  1
  C  C24  1  0.00000000  0.00000000  0.25000000  1
  C  C25  1  0.00000000  0.00000000  0.75000000  1
