# generated using pymatgen
data_Cu8NiC5
_symmetry_space_group_name_H-M   'P 1'
_cell_length_a   5.58028000
_cell_length_b   11.17438000
_cell_length_c   14.76924200
_cell_angle_alpha   90.00000000
_cell_angle_beta   90.00000000
_cell_angle_gamma   90.00000000
_symmetry_Int_Tables_number   1
_chemical_formula_structural   Cu8NiC5
_chemical_formula_sum   'Cu32 Ni4 C20'
_cell_volume   920.95335350
_cell_formula_units_Z   4
loop_
 _symmetry_equiv_pos_site_id
 _symmetry_equiv_pos_as_xyz
  1  'x, y, z'
loop_
 _atom_site_type_symbol
 _atom_site_label
 _atom_site_symmetry_multiplicity
 _atom_site_fract_x
 _atom_site_fract_y
 _atom_site_fract_z
 _atom_site_occupancy
  C  C0  1  0.56194900  0.14753000  0.75000000  1
  C  C1  1  0.06194900  0.35247000  0.75000000  1
  C  C2  1  0.43805100  0.85247000  0.25000000  1
  C  C3  1  0.93805100  0.64753000  0.25000000  1
  C  C4  1  0.57530200  0.35650000  0.56722200  1
  C  C5  1  0.07530200  0.14350000  0.93277800  1
  C  C6  1  0.42469800  0.64350000  0.06722200  1
  C  C7  1  0.92469800  0.85650000  0.43277800  1
  C  C8  1  0.42469800  0.64350000  0.43277800  1
  C  C9  1  0.92469800  0.85650000  0.06722200  1
  C  C10  1  0.57530200  0.35650000  0.93277800  1
  C  C11  1  0.07530200  0.14350000  0.56722200  1
  C  C12  1  0.59275700  0.12286900  0.10852300  1
  C  C13  1  0.09275700  0.37713100  0.39147700  1
  C  C14  1  0.40724300  0.87713100  0.60852300  1
  C  C15  1  0.90724300  0.62286900  0.89147700  1
  C  C16  1  0.40724300  0.87713100  0.89147700  1
  C  C17  1  0.90724300  0.62286900  0.60852300  1
  C  C18  1  0.59275700  0.12286900  0.39147700  1
  C  C19  1  0.09275700  0.37713100  0.10852300  1
  Ni  Ni20  1  0.57018800  0.47596300  0.75000000  1
  Ni  Ni21  1  0.07018800  0.02403700  0.75000000  1
  Ni  Ni22  1  0.42981200  0.52403700  0.25000000  1
  Ni  Ni23  1  0.92981200  0.97596300  0.25000000  1
  Cu  Cu24  1  0.56988900  0.99990500  0.63612100  1
  Cu  Cu25  1  0.06988900  0.50009500  0.86387900  1
  Cu  Cu26  1  0.43011100  0.00009500  0.13612100  1
  Cu  Cu27  1  0.93011100  0.49990500  0.36387900  1
  Cu  Cu28  1  0.43011100  0.00009500  0.36387900  1
  Cu  Cu29  1  0.93011100  0.49990500  0.13612100  1
  Cu  Cu30  1  0.56988900  0.99990500  0.86387900  1
  Cu  Cu31  1  0.06988900  0.50009500  0.63612100  1
  Cu  Cu32  1  0.92231500  0.31006100  0.02270300  1
  Cu  Cu33  1  0.42231500  0.18993900  0.47729700  1
  Cu  Cu34  1  0.07768500  0.68993900  0.52270300  1
  Cu  Cu35  1  0.57768500  0.81006100  0.97729700  1
  Cu  Cu36  1  0.07768500  0.68993900  0.97729700  1
  Cu  Cu37  1  0.57768500  0.81006100  0.52270300  1
  Cu  Cu38  1  0.92231500  0.31006100  0.47729700  1
  Cu  Cu39  1  0.42231500  0.18993900  0.02270300  1
  Cu  Cu40  1  0.82519300  0.05753100  0.04545400  1
  Cu  Cu41  1  0.32519300  0.44246900  0.45454600  1
  Cu  Cu42  1  0.17480700  0.94246900  0.54545400  1
  Cu  Cu43  1  0.67480700  0.55753100  0.95454600  1
  Cu  Cu44  1  0.17480700  0.94246900  0.95454600  1
  Cu  Cu45  1  0.67480700  0.55753100  0.54545400  1
  Cu  Cu46  1  0.82519300  0.05753100  0.45454600  1
  Cu  Cu47  1  0.32519300  0.44246900  0.04545400  1
  Cu  Cu48  1  0.81461200  0.24425000  0.65246000  1
  Cu  Cu49  1  0.31461200  0.25575000  0.84754000  1
  Cu  Cu50  1  0.18538800  0.75575000  0.15246000  1
  Cu  Cu51  1  0.68538800  0.74425000  0.34754000  1
  Cu  Cu52  1  0.18538800  0.75575000  0.34754000  1
  Cu  Cu53  1  0.68538800  0.74425000  0.15246000  1
  Cu  Cu54  1  0.81461200  0.24425000  0.84754000  1
  Cu  Cu55  1  0.31461200  0.25575000  0.65246000  1
