# generated using pymatgen
data_CuNi3C8
_symmetry_space_group_name_H-M   'P 1'
_cell_length_a   3.25406479
_cell_length_b   3.25406479
_cell_length_c   36.83873200
_cell_angle_alpha   90.00000000
_cell_angle_beta   90.00000000
_cell_angle_gamma   120.00001603
_symmetry_Int_Tables_number   1
_chemical_formula_structural   CuNi3C8
_chemical_formula_sum   'Cu1 Ni3 C8'
_cell_volume   337.82176433
_cell_formula_units_Z   1
loop_
 _symmetry_equiv_pos_site_id
 _symmetry_equiv_pos_as_xyz
  1  'x, y, z'
loop_
 _atom_site_type_symbol
 _atom_site_label
 _atom_site_symmetry_multiplicity
 _atom_site_fract_x
 _atom_site_fract_y
 _atom_site_fract_z
 _atom_site_occupancy
  Ni  Ni0  1  0.33333300  0.66666700  0.09391400  1
  Ni  Ni1  1  0.33333300  0.66666700  0.46967200  1
  Ni  Ni2  1  0.66666700  0.33333300  0.65756600  1
  Cu  Cu3  1  0.66666700  0.33333300  0.28179400  1
  C  C4  1  0.33333300  0.66666700  0.70362400  1
  C  C5  1  0.66666700  0.33333300  0.42358400  1
  C  C6  1  0.66666700  0.33333300  0.51571900  1
  C  C7  1  0.33333300  0.66666700  0.61149500  1
  C  C8  1  0.33333300  0.66666700  0.32381600  1
  C  C9  1  0.66666700  0.33333300  0.05201800  1
  C  C10  1  0.66666700  0.33333300  0.13580200  1
  C  C11  1  0.33333300  0.66666700  0.23974400  1
