# generated using pymatgen
data_Cu(NiC6)2
_symmetry_space_group_name_H-M   'P 1'
_cell_length_a   22.77102300
_cell_length_b   5.20747200
_cell_length_c   5.61375709
_cell_angle_alpha   89.98996719
_cell_angle_beta   90.00000000
_cell_angle_gamma   90.00000000
_symmetry_Int_Tables_number   1
_chemical_formula_structural   Cu(NiC6)2
_chemical_formula_sum   'Cu4 Ni8 C48'
_cell_volume   665.67629993
_cell_formula_units_Z   4
loop_
 _symmetry_equiv_pos_site_id
 _symmetry_equiv_pos_as_xyz
  1  'x, y, z'
loop_
 _atom_site_type_symbol
 _atom_site_label
 _atom_site_symmetry_multiplicity
 _atom_site_fract_x
 _atom_site_fract_y
 _atom_site_fract_z
 _atom_site_occupancy
  Ni  Ni0  1  0.66656600  0.02161100  0.92914200  1
  Ni  Ni1  1  0.33343400  0.02161100  0.92914200  1
  Ni  Ni2  1  0.83323500  0.52399300  0.57087700  1
  Ni  Ni3  1  0.50000000  0.52326100  0.57120000  1
  Ni  Ni4  1  0.16676500  0.52399300  0.57087700  1
  Ni  Ni5  1  0.83352800  0.97628100  0.07142400  1
  Ni  Ni6  1  0.50000000  0.97599500  0.07264800  1
  Ni  Ni7  1  0.16647200  0.97628100  0.07142400  1
  Cu  Cu8  1  0.00000000  0.48144000  0.43656300  1
  Cu  Cu9  1  0.66654700  0.48043800  0.43286400  1
  Cu  Cu10  1  0.33345300  0.48043800  0.43286400  1
  Cu  Cu11  1  0.00000000  0.01820200  0.93638300  1
  C  C12  1  0.08174300  0.50092300  0.99935400  1
  C  C13  1  0.74939500  0.50052900  0.00161600  1
  C  C14  1  0.41601500  0.50038500  0.00160800  1
  C  C15  1  0.91821400  0.99875300  0.49975300  1
  C  C16  1  0.58398300  0.99960200  0.49861400  1
  C  C17  1  0.25060700  0.00019100  0.49802300  1
  C  C18  1  0.91825700  0.50092300  0.99935400  1
  C  C19  1  0.58398500  0.50038500  0.00160800  1
  C  C20  1  0.25060500  0.50052900  0.00161600  1
  C  C21  1  0.08178600  0.99875300  0.49975300  1
  C  C22  1  0.74939300  0.00019100  0.49802300  1
  C  C23  1  0.41601700  0.99960200  0.49861400  1
  C  C24  1  0.00000000  0.64370000  0.06540800  1
  C  C25  1  0.66663900  0.62979900  0.06723500  1
  C  C26  1  0.33336100  0.62979900  0.06723500  1
  C  C27  1  0.00000000  0.85583200  0.56586300  1
  C  C28  1  0.66661100  0.85599900  0.55407700  1
  C  C29  1  0.33338900  0.85599900  0.55407700  1
  C  C30  1  0.83376000  0.37003400  0.94392900  1
  C  C31  1  0.50000000  0.36934800  0.94373900  1
  C  C32  1  0.16624000  0.37003400  0.94392900  1
  C  C33  1  0.83378500  0.13014800  0.44512700  1
  C  C34  1  0.50000000  0.12955000  0.44676000  1
  C  C35  1  0.16621500  0.13014800  0.44512700  1
  C  C36  1  0.05922000  0.18463800  0.17825300  1
  C  C37  1  0.72787600  0.18941300  0.18533400  1
  C  C38  1  0.39459200  0.18953000  0.18595200  1
  C  C39  1  0.94080600  0.31511400  0.67809700  1
  C  C40  1  0.60706900  0.31464900  0.67919300  1
  C  C41  1  0.27383300  0.31454000  0.67909000  1
  C  C42  1  0.89485200  0.81022300  0.81316200  1
  C  C43  1  0.56202700  0.81132500  0.81470200  1
  C  C44  1  0.22882300  0.81151800  0.81444500  1
  C  C45  1  0.77227200  0.69128700  0.31266000  1
  C  C46  1  0.43901300  0.69081000  0.31293700  1
  C  C47  1  0.10517700  0.68960300  0.31325000  1
  C  C48  1  0.77117700  0.81151800  0.81444500  1
  C  C49  1  0.43797300  0.81132500  0.81470200  1
  C  C50  1  0.10514800  0.81022300  0.81316200  1
  C  C51  1  0.89482300  0.68960300  0.31325000  1
  C  C52  1  0.56098700  0.69081000  0.31293700  1
  C  C53  1  0.22772800  0.69128700  0.31266000  1
  C  C54  1  0.94078000  0.18463800  0.17825300  1
  C  C55  1  0.60540800  0.18953000  0.18595200  1
  C  C56  1  0.27212400  0.18941300  0.18533400  1
  C  C57  1  0.05919400  0.31511400  0.67809700  1
  C  C58  1  0.72616700  0.31454000  0.67909000  1
  C  C59  1  0.39293100  0.31464900  0.67919300  1
