# generated using pymatgen
data_CuNiC4
_symmetry_space_group_name_H-M   'P 1'
_cell_length_a   6.16609700
_cell_length_b   7.14809300
_cell_length_c   8.22882000
_cell_angle_alpha   90.00000000
_cell_angle_beta   90.00000000
_cell_angle_gamma   90.00000000
_symmetry_Int_Tables_number   1
_chemical_formula_structural   CuNiC4
_chemical_formula_sum   'Cu4 Ni4 C16'
_cell_volume   362.69211094
_cell_formula_units_Z   4
loop_
 _symmetry_equiv_pos_site_id
 _symmetry_equiv_pos_as_xyz
  1  'x, y, z'
loop_
 _atom_site_type_symbol
 _atom_site_label
 _atom_site_symmetry_multiplicity
 _atom_site_fract_x
 _atom_site_fract_y
 _atom_site_fract_z
 _atom_site_occupancy
  Ni  Ni0  1  0.75000000  0.15631600  0.52624000  1
  Ni  Ni1  1  0.25000000  0.65631600  0.97376000  1
  Ni  Ni2  1  0.25000000  0.84368400  0.47376000  1
  Ni  Ni3  1  0.75000000  0.34368400  0.02624000  1
  Cu  Cu4  1  0.75000000  0.82767800  0.19976900  1
  Cu  Cu5  1  0.25000000  0.32767800  0.30023100  1
  Cu  Cu6  1  0.25000000  0.17232200  0.80023100  1
  Cu  Cu7  1  0.75000000  0.67232200  0.69976900  1
  C  C8  1  0.75000000  0.97287400  0.64443600  1
  C  C9  1  0.25000000  0.47287400  0.85556400  1
  C  C10  1  0.25000000  0.02712600  0.35556400  1
  C  C11  1  0.75000000  0.52712600  0.14443600  1
  C  C12  1  0.75000000  0.08642000  0.33699600  1
  C  C13  1  0.25000000  0.58642000  0.16300400  1
  C  C14  1  0.25000000  0.91358000  0.66300400  1
  C  C15  1  0.75000000  0.41358000  0.83699600  1
  C  C16  1  0.53315300  0.28016600  0.55857800  1
  C  C17  1  0.03315300  0.78016600  0.94142200  1
  C  C18  1  0.46684700  0.71983400  0.44142200  1
  C  C19  1  0.96684700  0.21983400  0.05857800  1
  C  C20  1  0.96684700  0.28016600  0.55857800  1
  C  C21  1  0.46684700  0.78016600  0.94142200  1
  C  C22  1  0.03315300  0.71983400  0.44142200  1
  C  C23  1  0.53315300  0.21983400  0.05857800  1
