# generated using pymatgen
data_Cu5NiC2
_symmetry_space_group_name_H-M   'P 1'
_cell_length_a   5.10665400
_cell_length_b   5.85074400
_cell_length_c   7.03399800
_cell_angle_alpha   90.00000000
_cell_angle_beta   90.00000000
_cell_angle_gamma   90.00000000
_symmetry_Int_Tables_number   1
_chemical_formula_structural   Cu5NiC2
_chemical_formula_sum   'Cu10 Ni2 C4'
_cell_volume   210.15985966
_cell_formula_units_Z   2
loop_
 _symmetry_equiv_pos_site_id
 _symmetry_equiv_pos_as_xyz
  1  'x, y, z'
loop_
 _atom_site_type_symbol
 _atom_site_label
 _atom_site_symmetry_multiplicity
 _atom_site_fract_x
 _atom_site_fract_y
 _atom_site_fract_z
 _atom_site_occupancy
  C  C0  1  0.60406000  0.00000000  0.98297500  1
  C  C1  1  0.10406000  0.50000000  0.01702500  1
  C  C2  1  0.56319500  0.50000000  0.79306700  1
  C  C3  1  0.06319500  0.00000000  0.20693300  1
  Ni  Ni4  1  0.79223500  0.00000000  0.54155000  1
  Ni  Ni5  1  0.29223500  0.50000000  0.45845000  1
  Cu  Cu6  1  0.85724000  0.50000000  0.80117100  1
  Cu  Cu7  1  0.35724000  0.00000000  0.19882900  1
  Cu  Cu8  1  0.53490600  0.50000000  0.55465600  1
  Cu  Cu9  1  0.03490600  0.00000000  0.44534400  1
  Cu  Cu10  1  0.42119000  0.70952800  0.87606500  1
  Cu  Cu11  1  0.42119000  0.29047200  0.87606500  1
  Cu  Cu12  1  0.92119000  0.79047200  0.12393500  1
  Cu  Cu13  1  0.92119000  0.20952800  0.12393500  1
  Cu  Cu14  1  0.83798400  0.00000000  0.70981300  1
  Cu  Cu15  1  0.33798400  0.50000000  0.29018700  1
