# generated using pymatgen
data_Cu10Ni5C26
_symmetry_space_group_name_H-M   'P 1'
_cell_length_a   7.45294786
_cell_length_b   9.39069067
_cell_length_c   18.54401000
_cell_angle_alpha   90.00000000
_cell_angle_beta   90.00000000
_cell_angle_gamma   91.09947223
_symmetry_Int_Tables_number   1
_chemical_formula_structural   Cu10Ni5C26
_chemical_formula_sum   'Cu20 Ni10 C52'
_cell_volume   1297.62530156
_cell_formula_units_Z   2
loop_
 _symmetry_equiv_pos_site_id
 _symmetry_equiv_pos_as_xyz
  1  'x, y, z'
loop_
 _atom_site_type_symbol
 _atom_site_label
 _atom_site_symmetry_multiplicity
 _atom_site_fract_x
 _atom_site_fract_y
 _atom_site_fract_z
 _atom_site_occupancy
  C  C0  1  0.33469900  0.99137100  0.23179800  1
  C  C1  1  0.83663400  0.48839300  0.27178800  1
  C  C2  1  0.66336600  0.01160700  0.77178800  1
  C  C3  1  0.16530100  0.50862900  0.73179800  1
  C  C4  1  0.34985900  0.75240700  0.01488400  1
  C  C5  1  0.86308800  0.26921500  0.49061900  1
  C  C6  1  0.63691200  0.23078500  0.99061900  1
  C  C7  1  0.15014100  0.74759300  0.51488400  1
  C  C8  1  0.68485000  0.99145400  0.28989900  1
  C  C9  1  0.18717600  0.49174700  0.21146800  1
  C  C10  1  0.31282400  0.00825300  0.71146800  1
  C  C11  1  0.81515000  0.50854600  0.78989900  1
  C  C12  1  0.09262000  0.80760300  0.34076400  1
  C  C13  1  0.59116700  0.30504000  0.15749900  1
  C  C14  1  0.90883300  0.19496000  0.65749900  1
  C  C15  1  0.40738000  0.69239700  0.84076400  1
  C  C16  1  0.04643200  0.19209100  0.34198400  1
  C  C17  1  0.55079100  0.68994000  0.15966800  1
  C  C18  1  0.94920900  0.81006000  0.65966800  1
  C  C19  1  0.45356800  0.30790900  0.84198400  1
  C  C20  1  0.42736400  0.29156100  0.33908900  1
  C  C21  1  0.92822200  0.79390700  0.16359500  1
  C  C22  1  0.57177800  0.70609300  0.66359500  1
  C  C23  1  0.07263600  0.20843900  0.83908900  1
  C  C24  1  0.48097700  0.73303500  0.33205800  1
  C  C25  1  0.97937900  0.23474700  0.17074500  1
  C  C26  1  0.52062100  0.26525300  0.67074500  1
  C  C27  1  0.01902300  0.76696500  0.83205800  1
  C  C28  1  0.11804600  0.95657600  0.05420400  1
  C  C29  1  0.62392100  0.46348700  0.44558600  1
  C  C30  1  0.87607900  0.03651300  0.94558600  1
  C  C31  1  0.38195400  0.54342400  0.55420400  1
  C  C32  1  0.00120300  0.85056200  0.00440500  1
  C  C33  1  0.51614200  0.35461900  0.49661100  1
  C  C34  1  0.98385800  0.14538100  0.99661100  1
  C  C35  1  0.49879700  0.64943800  0.50440500  1
  C  C36  1  0.70237100  0.76160000  0.96002900  1
  C  C37  1  0.22034600  0.26839400  0.54381600  1
  C  C38  1  0.27965400  0.23160600  0.04381600  1
  C  C39  1  0.79762900  0.73840000  0.46002900  1
  C  C40  1  0.63582600  0.59451100  0.94576300  1
  C  C41  1  0.14441000  0.10215900  0.55312700  1
  C  C42  1  0.35559000  0.39784100  0.05312700  1
  C  C43  1  0.86417400  0.90548900  0.44576300  1
  C  C44  1  0.36231500  0.98097100  0.39778000  1
  C  C45  1  0.86035700  0.48815700  0.10752700  1
  C  C46  1  0.63964300  0.01184300  0.60752700  1
  C  C47  1  0.13768500  0.51902900  0.89778000  1
  C  C48  1  0.62595000  0.97759000  0.13354400  1
  C  C49  1  0.12743300  0.47340600  0.37141300  1
  C  C50  1  0.37256700  0.02659400  0.87141300  1
  C  C51  1  0.87405000  0.52241000  0.63354400  1
  Ni  Ni52  1  0.61687400  0.68400100  0.97591700  1
  Ni  Ni53  1  0.12472700  0.19726400  0.52916200  1
  Ni  Ni54  1  0.37527300  0.30273600  0.02916200  1
  Ni  Ni55  1  0.88312600  0.81599900  0.47591700  1
  Ni  Ni56  1  0.08862700  0.85155700  0.04742500  1
  Ni  Ni57  1  0.60307200  0.35770500  0.45394500  1
  Ni  Ni58  1  0.89692800  0.14229500  0.95394500  1
  Ni  Ni59  1  0.41137300  0.64844300  0.54742500  1
  Ni  Ni60  1  0.45213100  0.96480800  0.00170100  1
  Ni  Ni61  1  0.04786900  0.53519200  0.50170100  1
  Cu  Cu62  1  0.98421600  0.96887600  0.76189000  1
  Cu  Cu63  1  0.48192700  0.47087200  0.73991800  1
  Cu  Cu64  1  0.01807300  0.02912800  0.23991800  1
  Cu  Cu65  1  0.51578400  0.53112400  0.26189000  1
  Cu  Cu66  1  0.68187800  0.75291100  0.79315200  1
  Cu  Cu67  1  0.18407500  0.24901900  0.70837900  1
  Cu  Cu68  1  0.31592500  0.25098100  0.20837900  1
  Cu  Cu69  1  0.81812200  0.74708900  0.29315200  1
  Cu  Cu70  1  0.87651200  0.86906100  0.94017700  1
  Cu  Cu71  1  0.39248200  0.37001000  0.56201100  1
  Cu  Cu72  1  0.10751800  0.12999000  0.06201100  1
  Cu  Cu73  1  0.62348800  0.63093900  0.44017700  1
  Cu  Cu74  1  0.21990100  0.74689700  0.21303000  1
  Cu  Cu75  1  0.71191500  0.24904200  0.28579800  1
  Cu  Cu76  1  0.78808500  0.25095800  0.78579800  1
  Cu  Cu77  1  0.28009900  0.75310300  0.71303000  1
  Cu  Cu78  1  0.33897100  0.54375500  0.09230500  1
  Cu  Cu79  1  0.84520600  0.03797800  0.40092800  1
  Cu  Cu80  1  0.65479400  0.46202200  0.90092800  1
  Cu  Cu81  1  0.16102900  0.95624500  0.59230500  1
