# generated using pymatgen
data_Cu12Ni16C
_symmetry_space_group_name_H-M   'P 1'
_cell_length_a   9.16939466
_cell_length_b   9.16939466
_cell_length_c   9.16939396
_cell_angle_alpha   109.98992023
_cell_angle_beta   109.98992023
_cell_angle_gamma   109.98992619
_symmetry_Int_Tables_number   1
_chemical_formula_structural   Cu12Ni16C
_chemical_formula_sum   'Cu12 Ni16 C1'
_cell_volume   581.79560388
_cell_formula_units_Z   1
loop_
 _symmetry_equiv_pos_site_id
 _symmetry_equiv_pos_as_xyz
  1  'x, y, z'
loop_
 _atom_site_type_symbol
 _atom_site_label
 _atom_site_symmetry_multiplicity
 _atom_site_fract_x
 _atom_site_fract_y
 _atom_site_fract_z
 _atom_site_occupancy
  Ni  Ni0  1  0.39511700  0.72026400  0.39511700  1
  Ni  Ni1  1  0.99800900  0.99800900  0.99800900  1
  Ni  Ni2  1  0.68476000  0.28227000  0.68476000  1
  Ni  Ni3  1  0.00394000  0.34392300  0.00394000  1
  Ni  Ni4  1  0.31177700  0.99901100  0.60502400  1
  Ni  Ni5  1  0.99901100  0.60502400  0.31177700  1
  Ni  Ni6  1  0.39511700  0.39511700  0.72026400  1
  Ni  Ni7  1  0.00394000  0.00394000  0.34392300  1
  Ni  Ni8  1  0.60502400  0.31177700  0.99901100  1
  Ni  Ni9  1  0.28227000  0.68476000  0.68476000  1
  Ni  Ni10  1  0.68476000  0.68476000  0.28227000  1
  Ni  Ni11  1  0.99901100  0.31177700  0.60502400  1
  Ni  Ni12  1  0.34392300  0.00394000  0.00394000  1
  Ni  Ni13  1  0.72026400  0.39511700  0.39511700  1
  Ni  Ni14  1  0.31177700  0.60502400  0.99901100  1
  Ni  Ni15  1  0.60502400  0.99901100  0.31177700  1
  C  C16  1  0.62871500  0.62871500  0.62871500  1
  Cu  Cu17  1  0.18980500  0.82543800  0.18980500  1
  Cu  Cu18  1  0.37334900  0.19101600  0.37334900  1
  Cu  Cu19  1  0.63459900  0.99526000  0.81254000  1
  Cu  Cu20  1  0.81254000  0.63459900  0.99526000  1
  Cu  Cu21  1  0.19101600  0.37334900  0.37334900  1
  Cu  Cu22  1  0.63459900  0.81254000  0.99526000  1
  Cu  Cu23  1  0.82543800  0.18980500  0.18980500  1
  Cu  Cu24  1  0.18980500  0.18980500  0.82543800  1
  Cu  Cu25  1  0.99526000  0.81254000  0.63459900  1
  Cu  Cu26  1  0.37334900  0.37334900  0.19101600  1
  Cu  Cu27  1  0.99526000  0.63459900  0.81254000  1
  Cu  Cu28  1  0.81254000  0.99526000  0.63459900  1
