# generated using pymatgen
data_Cu2Ni2C15
_symmetry_space_group_name_H-M   'P 1'
_cell_length_a   10.38167400
_cell_length_b   10.90330100
_cell_length_c   14.73619400
_cell_angle_alpha   90.00000000
_cell_angle_beta   90.00000000
_cell_angle_gamma   90.00000000
_symmetry_Int_Tables_number   1
_chemical_formula_structural   Cu2Ni2C15
_chemical_formula_sum   'Cu8 Ni8 C60'
_cell_volume   1668.05635497
_cell_formula_units_Z   4
loop_
 _symmetry_equiv_pos_site_id
 _symmetry_equiv_pos_as_xyz
  1  'x, y, z'
loop_
 _atom_site_type_symbol
 _atom_site_label
 _atom_site_symmetry_multiplicity
 _atom_site_fract_x
 _atom_site_fract_y
 _atom_site_fract_z
 _atom_site_occupancy
  C  C0  1  0.51856300  0.75000000  0.46280300  1
  C  C1  1  0.98143700  0.75000000  0.96280300  1
  C  C2  1  0.48143700  0.25000000  0.53719700  1
  C  C3  1  0.01856300  0.25000000  0.03719700  1
  C  C4  1  0.03372900  0.75000000  0.31406400  1
  C  C5  1  0.46627100  0.75000000  0.81406400  1
  C  C6  1  0.96627100  0.25000000  0.68593600  1
  C  C7  1  0.53372900  0.25000000  0.18593600  1
  C  C8  1  0.60534500  0.75000000  0.12042400  1
  C  C9  1  0.89465500  0.75000000  0.62042400  1
  C  C10  1  0.39465500  0.25000000  0.87957600  1
  C  C11  1  0.10534500  0.25000000  0.37957600  1
  Ni  Ni12  1  0.31554900  0.58517000  0.09973500  1
  Ni  Ni13  1  0.18445100  0.91483000  0.59973500  1
  Ni  Ni14  1  0.68445100  0.08517000  0.90026500  1
  Ni  Ni15  1  0.81554900  0.41483000  0.40026500  1
  Ni  Ni16  1  0.68445100  0.41483000  0.90026500  1
  Ni  Ni17  1  0.81554900  0.08517000  0.40026500  1
  Ni  Ni18  1  0.31554900  0.91483000  0.09973500  1
  Ni  Ni19  1  0.18445100  0.58517000  0.59973500  1
  Cu  Cu20  1  0.17020300  0.53640800  0.11378600  1
  Cu  Cu21  1  0.32979700  0.96359200  0.61378600  1
  Cu  Cu22  1  0.82979700  0.03640800  0.88621400  1
  Cu  Cu23  1  0.67020300  0.46359200  0.38621400  1
  Cu  Cu24  1  0.82979700  0.46359200  0.88621400  1
  Cu  Cu25  1  0.67020300  0.03640800  0.38621400  1
  Cu  Cu26  1  0.17020300  0.96359200  0.11378600  1
  Cu  Cu27  1  0.32979700  0.53640800  0.61378600  1
  C  C28  1  0.42247300  0.62317000  0.09094300  1
  C  C29  1  0.07752700  0.87683000  0.59094300  1
  C  C30  1  0.57752700  0.12317000  0.90905700  1
  C  C31  1  0.92247300  0.37683000  0.40905700  1
  C  C32  1  0.57752700  0.37683000  0.90905700  1
  C  C33  1  0.92247300  0.12317000  0.40905700  1
  C  C34  1  0.42247300  0.87683000  0.09094300  1
  C  C35  1  0.07752700  0.62317000  0.59094300  1
  C  C36  1  0.77098800  0.52304300  0.14585400  1
  C  C37  1  0.72901200  0.97695700  0.64585400  1
  C  C38  1  0.22901200  0.02304300  0.85414600  1
  C  C39  1  0.27098800  0.47695700  0.35414600  1
  C  C40  1  0.22901200  0.47695700  0.85414600  1
  C  C41  1  0.27098800  0.02304300  0.35414600  1
  C  C42  1  0.77098800  0.97695700  0.14585400  1
  C  C43  1  0.72901200  0.52304300  0.64585400  1
  C  C44  1  0.64814800  0.75000000  0.00064700  1
  C  C45  1  0.85185200  0.75000000  0.50064700  1
  C  C46  1  0.35185200  0.25000000  0.99935300  1
  C  C47  1  0.14814800  0.25000000  0.49935300  1
  C  C48  1  0.57482500  0.75000000  0.24106800  1
  C  C49  1  0.92517500  0.75000000  0.74106800  1
  C  C50  1  0.42517500  0.25000000  0.75893200  1
  C  C51  1  0.07482500  0.25000000  0.25893200  1
  C  C52  1  0.64999000  0.51852500  0.12916600  1
  C  C53  1  0.85001000  0.98147500  0.62916600  1
  C  C54  1  0.35001000  0.01852500  0.87083400  1
  C  C55  1  0.14999000  0.48147500  0.37083400  1
  C  C56  1  0.35001000  0.48147500  0.87083400  1
  C  C57  1  0.14999000  0.01852500  0.37083400  1
  C  C58  1  0.64999000  0.98147500  0.12916600  1
  C  C59  1  0.85001000  0.51852500  0.62916600  1
  C  C60  1  0.81909100  0.63196600  0.15135700  1
  C  C61  1  0.68090900  0.86803400  0.65135700  1
  C  C62  1  0.18090900  0.13196600  0.84864300  1
  C  C63  1  0.31909100  0.36803400  0.34864300  1
  C  C64  1  0.18090900  0.36803400  0.84864300  1
  C  C65  1  0.31909100  0.13196600  0.34864300  1
  C  C66  1  0.81909100  0.86803400  0.15135700  1
  C  C67  1  0.68090900  0.63196600  0.65135700  1
  C  C68  1  0.83686400  0.42988300  0.15604000  1
  C  C69  1  0.66313600  0.07011700  0.65604000  1
  C  C70  1  0.16313600  0.92988300  0.84396000  1
  C  C71  1  0.33686400  0.57011700  0.34396000  1
  C  C72  1  0.16313600  0.57011700  0.84396000  1
  C  C73  1  0.33686400  0.92988300  0.34396000  1
  C  C74  1  0.83686400  0.07011700  0.15604000  1
  C  C75  1  0.66313600  0.42988300  0.65604000  1
