# generated using pymatgen
data_CuNi6C
_symmetry_space_group_name_H-M   'P 1'
_cell_length_a   5.16689200
_cell_length_b   6.46718300
_cell_length_c   11.39265700
_cell_angle_alpha   90.00000000
_cell_angle_beta   90.00000000
_cell_angle_gamma   90.00000000
_symmetry_Int_Tables_number   1
_chemical_formula_structural   CuNi6C
_chemical_formula_sum   'Cu2 Ni12 C2'
_cell_volume   380.68832352
_cell_formula_units_Z   2
loop_
 _symmetry_equiv_pos_site_id
 _symmetry_equiv_pos_as_xyz
  1  'x, y, z'
loop_
 _atom_site_type_symbol
 _atom_site_label
 _atom_site_symmetry_multiplicity
 _atom_site_fract_x
 _atom_site_fract_y
 _atom_site_fract_z
 _atom_site_occupancy
  C  C0  1  0.50000000  0.50000000  0.16699200  1
  C  C1  1  0.50000000  0.00000000  0.66699200  1
  Ni  Ni2  1  0.50000000  0.25160300  0.41634900  1
  Ni  Ni3  1  0.50000000  0.74839700  0.41634900  1
  Ni  Ni4  1  0.00000000  0.74908800  0.08181200  1
  Ni  Ni5  1  0.00000000  0.25091200  0.08181200  1
  Ni  Ni6  1  0.00000000  0.00000000  0.33575100  1
  Ni  Ni7  1  0.00000000  0.50000000  0.33516500  1
  Ni  Ni8  1  0.50000000  0.75160300  0.91634900  1
  Ni  Ni9  1  0.50000000  0.24839700  0.91634900  1
  Ni  Ni10  1  0.00000000  0.24908800  0.58181200  1
  Ni  Ni11  1  0.00000000  0.75091200  0.58181200  1
  Ni  Ni12  1  0.00000000  0.50000000  0.83575100  1
  Ni  Ni13  1  0.00000000  0.00000000  0.83516500  1
  Cu  Cu14  1  0.50000000  0.00000000  0.16576700  1
  Cu  Cu15  1  0.50000000  0.50000000  0.66576700  1
