# generated using pymatgen
data_Cu6Ni6C7
_symmetry_space_group_name_H-M   'P 1'
_cell_length_a   6.92435806
_cell_length_b   6.92435806
_cell_length_c   17.66434400
_cell_angle_alpha   90.00000000
_cell_angle_beta   90.00000000
_cell_angle_gamma   120.00000056
_symmetry_Int_Tables_number   1
_chemical_formula_structural   Cu6Ni6C7
_chemical_formula_sum   'Cu12 Ni12 C14'
_cell_volume   733.47814372
_cell_formula_units_Z   2
loop_
 _symmetry_equiv_pos_site_id
 _symmetry_equiv_pos_as_xyz
  1  'x, y, z'
loop_
 _atom_site_type_symbol
 _atom_site_label
 _atom_site_symmetry_multiplicity
 _atom_site_fract_x
 _atom_site_fract_y
 _atom_site_fract_z
 _atom_site_occupancy
  C  C0  1  0.00000000  0.00000000  0.25000000  1
  C  C1  1  0.00000000  0.00000000  0.75000000  1
  C  C2  1  0.50000000  0.50000000  0.50000000  1
  C  C3  1  0.50000000  0.00000000  0.50000000  1
  C  C4  1  0.00000000  0.50000000  0.50000000  1
  C  C5  1  0.50000000  0.50000000  0.00000000  1
  C  C6  1  0.50000000  0.00000000  0.00000000  1
  C  C7  1  0.00000000  0.50000000  0.00000000  1
  Ni  Ni8  1  0.34980900  0.34980900  0.40356900  1
  Ni  Ni9  1  0.65019100  0.00000000  0.40356900  1
  Ni  Ni10  1  0.00000000  0.65019100  0.40356900  1
  Ni  Ni11  1  0.65019100  0.65019100  0.59643100  1
  Ni  Ni12  1  0.34980900  0.00000000  0.59643100  1
  Ni  Ni13  1  0.00000000  0.34980900  0.59643100  1
  Ni  Ni14  1  0.65019100  0.65019100  0.90356900  1
  Ni  Ni15  1  0.34980900  0.00000000  0.90356900  1
  Ni  Ni16  1  0.00000000  0.34980900  0.90356900  1
  Ni  Ni17  1  0.34980900  0.34980900  0.09643100  1
  Ni  Ni18  1  0.65019100  0.00000000  0.09643100  1
  Ni  Ni19  1  0.00000000  0.65019100  0.09643100  1
  Cu  Cu20  1  0.25410700  0.25410700  0.34899900  1
  Cu  Cu21  1  0.74589300  0.00000000  0.34899900  1
  Cu  Cu22  1  0.00000000  0.74589300  0.34899900  1
  Cu  Cu23  1  0.74589300  0.74589300  0.65100100  1
  Cu  Cu24  1  0.25410700  0.00000000  0.65100100  1
  Cu  Cu25  1  0.00000000  0.25410700  0.65100100  1
  Cu  Cu26  1  0.74589300  0.74589300  0.84899900  1
  Cu  Cu27  1  0.25410700  0.00000000  0.84899900  1
  Cu  Cu28  1  0.00000000  0.25410700  0.84899900  1
  Cu  Cu29  1  0.25410700  0.25410700  0.15100100  1
  Cu  Cu30  1  0.74589300  0.00000000  0.15100100  1
  Cu  Cu31  1  0.00000000  0.74589300  0.15100100  1
  C  C32  1  0.64989600  0.64989600  0.25000000  1
  C  C33  1  0.35010400  0.00000000  0.25000000  1
  C  C34  1  0.00000000  0.35010400  0.25000000  1
  C  C35  1  0.35010400  0.35010400  0.75000000  1
  C  C36  1  0.64989600  0.00000000  0.75000000  1
  C  C37  1  0.00000000  0.64989600  0.75000000  1
