# generated using pymatgen
data_Cu5NiC
_symmetry_space_group_name_H-M   'P 1'
_cell_length_a   6.69575700
_cell_length_b   7.92609800
_cell_length_c   7.70638900
_cell_angle_alpha   90.00000000
_cell_angle_beta   90.00000000
_cell_angle_gamma   90.00000000
_symmetry_Int_Tables_number   1
_chemical_formula_structural   Cu5NiC
_chemical_formula_sum   'Cu20 Ni4 C4'
_cell_volume   408.98751354
_cell_formula_units_Z   4
loop_
 _symmetry_equiv_pos_site_id
 _symmetry_equiv_pos_as_xyz
  1  'x, y, z'
loop_
 _atom_site_type_symbol
 _atom_site_label
 _atom_site_symmetry_multiplicity
 _atom_site_fract_x
 _atom_site_fract_y
 _atom_site_fract_z
 _atom_site_occupancy
  C  C0  1  0.75000000  0.63932200  0.26023500  1
  C  C1  1  0.25000000  0.36067800  0.73976500  1
  C  C2  1  0.25000000  0.86067800  0.76023500  1
  C  C3  1  0.75000000  0.13932200  0.23976500  1
  Ni  Ni4  1  0.75000000  0.87727800  0.87161400  1
  Ni  Ni5  1  0.25000000  0.12272200  0.12838600  1
  Ni  Ni6  1  0.25000000  0.62272200  0.37161400  1
  Ni  Ni7  1  0.75000000  0.37727800  0.62838600  1
  Cu  Cu8  1  0.92653700  0.87225600  0.75339100  1
  Cu  Cu9  1  0.07346300  0.12774400  0.24660900  1
  Cu  Cu10  1  0.07346300  0.62774400  0.25339100  1
  Cu  Cu11  1  0.42653700  0.12774400  0.24660900  1
  Cu  Cu12  1  0.92653700  0.37225600  0.74660900  1
  Cu  Cu13  1  0.57346300  0.87225600  0.75339100  1
  Cu  Cu14  1  0.57346300  0.37225600  0.74660900  1
  Cu  Cu15  1  0.42653700  0.62774400  0.25339100  1
  Cu  Cu16  1  0.75000000  0.89241900  0.34902600  1
  Cu  Cu17  1  0.25000000  0.10758100  0.65097400  1
  Cu  Cu18  1  0.25000000  0.60758100  0.84902600  1
  Cu  Cu19  1  0.75000000  0.39241900  0.15097400  1
  Cu  Cu20  1  0.75000000  0.72718800  0.98529700  1
  Cu  Cu21  1  0.25000000  0.27281200  0.01470300  1
  Cu  Cu22  1  0.25000000  0.77281200  0.48529700  1
  Cu  Cu23  1  0.75000000  0.22718800  0.51470300  1
  Cu  Cu24  1  0.75000000  0.53755300  0.52937500  1
  Cu  Cu25  1  0.25000000  0.46244700  0.47062500  1
  Cu  Cu26  1  0.25000000  0.96244700  0.02937500  1
  Cu  Cu27  1  0.75000000  0.03755300  0.97062500  1
