# generated using pymatgen
data_Cu6Ni8C
_symmetry_space_group_name_H-M   'P 1'
_cell_length_a   5.39262200
_cell_length_b   7.49185500
_cell_length_c   10.65165600
_cell_angle_alpha   90.00000000
_cell_angle_beta   90.00000000
_cell_angle_gamma   90.00000000
_symmetry_Int_Tables_number   1
_chemical_formula_structural   Cu6Ni8C
_chemical_formula_sum   'Cu12 Ni16 C2'
_cell_volume   430.33480693
_cell_formula_units_Z   2
loop_
 _symmetry_equiv_pos_site_id
 _symmetry_equiv_pos_as_xyz
  1  'x, y, z'
loop_
 _atom_site_type_symbol
 _atom_site_label
 _atom_site_symmetry_multiplicity
 _atom_site_fract_x
 _atom_site_fract_y
 _atom_site_fract_z
 _atom_site_occupancy
  C  C0  1  0.00000000  0.50000000  0.50000000  1
  C  C1  1  0.00000000  0.00000000  0.00000000  1
  Ni  Ni2  1  0.39303200  0.00000000  0.74821700  1
  Ni  Ni3  1  0.39303200  0.50000000  0.75178300  1
  Ni  Ni4  1  0.60696800  0.00000000  0.25178300  1
  Ni  Ni5  1  0.60696800  0.50000000  0.24821700  1
  Ni  Ni6  1  0.58559500  0.00000000  0.65893200  1
  Ni  Ni7  1  0.58559500  0.50000000  0.84106800  1
  Ni  Ni8  1  0.41440500  0.00000000  0.34106800  1
  Ni  Ni9  1  0.41440500  0.50000000  0.15893200  1
  Ni  Ni10  1  0.69143000  0.15946000  0.61570900  1
  Ni  Ni11  1  0.69143000  0.34054000  0.88429100  1
  Ni  Ni12  1  0.30857000  0.15946000  0.38429100  1
  Ni  Ni13  1  0.69143000  0.65946000  0.88429100  1
  Ni  Ni14  1  0.30857000  0.84054000  0.38429100  1
  Ni  Ni15  1  0.30857000  0.65946000  0.11570900  1
  Ni  Ni16  1  0.69143000  0.84054000  0.61570900  1
  Ni  Ni17  1  0.30857000  0.34054000  0.11570900  1
  Cu  Cu18  1  0.78317100  0.28998100  0.57735100  1
  Cu  Cu19  1  0.78317100  0.21001900  0.92264900  1
  Cu  Cu20  1  0.21682900  0.28998100  0.42264900  1
  Cu  Cu21  1  0.78317100  0.78998100  0.92264900  1
  Cu  Cu22  1  0.21682900  0.71001900  0.42264900  1
  Cu  Cu23  1  0.21682900  0.78998100  0.07735100  1
  Cu  Cu24  1  0.78317100  0.71001900  0.57735100  1
  Cu  Cu25  1  0.21682900  0.21001900  0.07735100  1
  Cu  Cu26  1  0.23456500  0.00000000  0.82343400  1
  Cu  Cu27  1  0.23456500  0.50000000  0.67656600  1
  Cu  Cu28  1  0.76543500  0.00000000  0.17656600  1
  Cu  Cu29  1  0.76543500  0.50000000  0.32343400  1
