# generated using pymatgen
data_CuNiC7
_symmetry_space_group_name_H-M   'P 1'
_cell_length_a   14.61879100
_cell_length_b   5.17694800
_cell_length_c   5.58139691
_cell_angle_alpha   89.78061566
_cell_angle_beta   90.00000000
_cell_angle_gamma   90.00000000
_symmetry_Int_Tables_number   1
_chemical_formula_structural   CuNiC7
_chemical_formula_sum   'Cu4 Ni4 C28'
_cell_volume   422.40104529
_cell_formula_units_Z   4
loop_
 _symmetry_equiv_pos_site_id
 _symmetry_equiv_pos_as_xyz
  1  'x, y, z'
loop_
 _atom_site_type_symbol
 _atom_site_label
 _atom_site_symmetry_multiplicity
 _atom_site_fract_x
 _atom_site_fract_y
 _atom_site_fract_z
 _atom_site_occupancy
  C  C0  1  0.00036200  0.74616800  0.77385000  1
  C  C1  1  0.50036200  0.25383200  0.72615000  1
  C  C2  1  0.99963800  0.25383200  0.22615000  1
  C  C3  1  0.49963800  0.74616800  0.27385000  1
  Ni  Ni4  1  0.33267100  0.81979200  0.82179600  1
  Ni  Ni5  1  0.83267100  0.18020800  0.67820400  1
  Ni  Ni6  1  0.66732900  0.18020800  0.17820400  1
  Ni  Ni7  1  0.16732900  0.81979200  0.32179600  1
  Cu  Cu8  1  0.16383100  0.31499800  0.68722800  1
  Cu  Cu9  1  0.66383100  0.68500200  0.81277200  1
  Cu  Cu10  1  0.83616900  0.68500200  0.31277200  1
  Cu  Cu11  1  0.33616900  0.31499800  0.18722800  1
  C  C12  1  0.08425900  0.42167200  0.90867800  1
  C  C13  1  0.41713400  0.92211000  0.58908500  1
  C  C14  1  0.58425900  0.57832800  0.59132200  1
  C  C15  1  0.91713400  0.07789000  0.91091500  1
  C  C16  1  0.91574100  0.57832800  0.09132200  1
  C  C17  1  0.58286600  0.07789000  0.41091500  1
  C  C18  1  0.41574100  0.42167200  0.40867800  1
  C  C19  1  0.08286600  0.92211000  0.08908500  1
  C  C20  1  0.25877900  0.14476700  0.86294100  1
  C  C21  1  0.23917000  0.64844900  0.63220500  1
  C  C22  1  0.75877900  0.85523300  0.63705900  1
  C  C23  1  0.73917000  0.35155100  0.86779500  1
  C  C24  1  0.74122100  0.85523300  0.13705900  1
  C  C25  1  0.76083000  0.35155100  0.36779500  1
  C  C26  1  0.24122100  0.14476700  0.36294100  1
  C  C27  1  0.26083000  0.64844900  0.13220500  1
  C  C28  1  0.90840800  0.97425400  0.42793100  1
  C  C29  1  0.59118900  0.47515300  0.06783600  1
  C  C30  1  0.40840800  0.02574600  0.07206900  1
  C  C31  1  0.09118900  0.52484700  0.43216400  1
  C  C32  1  0.09159200  0.02574600  0.57206900  1
  C  C33  1  0.40881100  0.52484700  0.93216400  1
  C  C34  1  0.59159200  0.97425400  0.92793100  1
  C  C35  1  0.90881100  0.47515300  0.56783600  1
