# generated using pymatgen
data_CuNiC8
_symmetry_space_group_name_H-M   'P 1'
_cell_length_a   5.95047294
_cell_length_b   5.95047294
_cell_length_c   11.68921400
_cell_angle_alpha   90.00000000
_cell_angle_beta   90.00000000
_cell_angle_gamma   120.00001043
_symmetry_Int_Tables_number   1
_chemical_formula_structural   CuNiC8
_chemical_formula_sum   'Cu3 Ni3 C24'
_cell_volume   358.44197736
_cell_formula_units_Z   3
loop_
 _symmetry_equiv_pos_site_id
 _symmetry_equiv_pos_as_xyz
  1  'x, y, z'
loop_
 _atom_site_type_symbol
 _atom_site_label
 _atom_site_symmetry_multiplicity
 _atom_site_fract_x
 _atom_site_fract_y
 _atom_site_fract_z
 _atom_site_occupancy
  Ni  Ni0  1  0.33333300  0.66666700  0.73319900  1
  Ni  Ni1  1  0.00000000  0.00000000  0.73312600  1
  Ni  Ni2  1  0.00000000  0.00000000  0.23345500  1
  Cu  Cu3  1  0.33333300  0.66666700  0.23405000  1
  Cu  Cu4  1  0.66666700  0.33333300  0.77336600  1
  Cu  Cu5  1  0.66666700  0.33333300  0.27298900  1
  C  C6  1  0.66543300  0.66434800  0.49886000  1
  C  C7  1  0.33565200  0.00108500  0.49886000  1
  C  C8  1  0.99891500  0.33456700  0.49886000  1
  C  C9  1  0.66505400  0.00082100  0.00088600  1
  C  C10  1  0.99917900  0.66423300  0.00088600  1
  C  C11  1  0.33576700  0.33494600  0.00088600  1
  C  C12  1  0.33333300  0.66666700  0.52241000  1
  C  C13  1  0.00000000  0.00000000  0.51909400  1
  C  C14  1  0.00000000  0.00000000  0.02351400  1
  C  C15  1  0.33333300  0.66666700  0.01922200  1
  C  C16  1  0.66715600  0.63244400  0.66702700  1
  C  C17  1  0.36755600  0.03471200  0.66702700  1
  C  C18  1  0.96528800  0.33284400  0.66702700  1
  C  C19  1  0.65644500  0.02365600  0.16935100  1
  C  C20  1  0.97634400  0.63278900  0.16935100  1
  C  C21  1  0.36721100  0.34355500  0.16935100  1
  C  C22  1  0.66666700  0.33333300  0.97456600  1
  C  C23  1  0.66666700  0.33333300  0.47037400  1
  C  C24  1  0.66724300  0.98175200  0.83425000  1
  C  C25  1  0.01824800  0.68549000  0.83425000  1
  C  C26  1  0.31451000  0.33275700  0.83425000  1
  C  C27  1  0.65971000  0.68539100  0.33246600  1
  C  C28  1  0.31460900  0.97431900  0.33246600  1
  C  C29  1  0.02568100  0.34029000  0.33246600  1
