# generated using pymatgen
data_Cu(NiC)5
_symmetry_space_group_name_H-M   'P 1'
_cell_length_a   15.55216500
_cell_length_b   8.05902900
_cell_length_c   10.00968200
_cell_angle_alpha   90.00000000
_cell_angle_beta   90.00000000
_cell_angle_gamma   90.00000000
_symmetry_Int_Tables_number   1
_chemical_formula_structural   Cu(NiC)5
_chemical_formula_sum   'Cu4 Ni20 C20'
_cell_volume   1254.56698432
_cell_formula_units_Z   4
loop_
 _symmetry_equiv_pos_site_id
 _symmetry_equiv_pos_as_xyz
  1  'x, y, z'
loop_
 _atom_site_type_symbol
 _atom_site_label
 _atom_site_symmetry_multiplicity
 _atom_site_fract_x
 _atom_site_fract_y
 _atom_site_fract_z
 _atom_site_occupancy
  C  C0  1  0.34785000  0.75000000  0.59737500  1
  C  C1  1  0.84785000  0.75000000  0.90262500  1
  C  C2  1  0.65215000  0.25000000  0.40262500  1
  C  C3  1  0.15215000  0.25000000  0.09737500  1
  C  C4  1  0.43041400  0.75000000  0.26430900  1
  C  C5  1  0.93041400  0.75000000  0.23569100  1
  C  C6  1  0.56958600  0.25000000  0.73569100  1
  C  C7  1  0.06958600  0.25000000  0.76430900  1
  C  C8  1  0.97505700  0.75000000  0.39154100  1
  C  C9  1  0.47505700  0.75000000  0.10845900  1
  C  C10  1  0.02494300  0.25000000  0.60845900  1
  C  C11  1  0.52494300  0.25000000  0.89154100  1
  C  C12  1  0.38049900  0.83792100  0.11386700  1
  C  C13  1  0.88049900  0.66207900  0.38613300  1
  C  C14  1  0.61950100  0.33792100  0.88613300  1
  C  C15  1  0.11950100  0.16207900  0.61386700  1
  C  C16  1  0.61950100  0.16207900  0.88613300  1
  C  C17  1  0.11950100  0.33792100  0.61386700  1
  C  C18  1  0.38049900  0.66207900  0.11386700  1
  C  C19  1  0.88049900  0.83792100  0.38613300  1
  Ni  Ni20  1  0.24365700  0.75000000  0.42117600  1
  Ni  Ni21  1  0.74365700  0.75000000  0.07882400  1
  Ni  Ni22  1  0.75634300  0.25000000  0.57882400  1
  Ni  Ni23  1  0.25634300  0.25000000  0.92117600  1
  Ni  Ni24  1  0.48098000  0.75000000  0.71445300  1
  Ni  Ni25  1  0.98098000  0.75000000  0.78554700  1
  Ni  Ni26  1  0.51902000  0.25000000  0.28554700  1
  Ni  Ni27  1  0.01902000  0.25000000  0.21445300  1
  Ni  Ni28  1  0.25745000  0.75000000  0.78329000  1
  Ni  Ni29  1  0.75745000  0.75000000  0.71671000  1
  Ni  Ni30  1  0.74255000  0.25000000  0.21671000  1
  Ni  Ni31  1  0.24255000  0.25000000  0.28329000  1
  Ni  Ni32  1  0.35663300  0.04298000  0.57517600  1
  Ni  Ni33  1  0.85663300  0.45702000  0.92482400  1
  Ni  Ni34  1  0.64336700  0.54298000  0.42482400  1
  Ni  Ni35  1  0.14336700  0.95702000  0.07517600  1
  Ni  Ni36  1  0.64336700  0.95702000  0.42482400  1
  Ni  Ni37  1  0.14336700  0.54298000  0.07517600  1
  Ni  Ni38  1  0.35663300  0.45702000  0.57517600  1
  Ni  Ni39  1  0.85663300  0.04298000  0.92482400  1
  Cu  Cu40  1  0.44529000  0.75000000  0.41215300  1
  Cu  Cu41  1  0.94529000  0.75000000  0.08784700  1
  Cu  Cu42  1  0.55471000  0.25000000  0.58784700  1
  Cu  Cu43  1  0.05471000  0.25000000  0.91215300  1
