# generated using pymatgen
data_CuNiC8
_symmetry_space_group_name_H-M   'P 1'
_cell_length_a   7.97256400
_cell_length_b   5.36858400
_cell_length_c   5.50149137
_cell_angle_alpha   89.76223422
_cell_angle_beta   90.00000000
_cell_angle_gamma   90.00000000
_symmetry_Int_Tables_number   1
_chemical_formula_structural   CuNiC8
_chemical_formula_sum   'Cu2 Ni2 C16'
_cell_volume   235.46939260
_cell_formula_units_Z   2
loop_
 _symmetry_equiv_pos_site_id
 _symmetry_equiv_pos_as_xyz
  1  'x, y, z'
loop_
 _atom_site_type_symbol
 _atom_site_label
 _atom_site_symmetry_multiplicity
 _atom_site_fract_x
 _atom_site_fract_y
 _atom_site_fract_z
 _atom_site_occupancy
  C  C0  1  0.75000000  0.49870400  0.54705100  1
  C  C1  1  0.25000000  0.50129600  0.45294900  1
  C  C2  1  0.75000000  0.99947500  0.03936700  1
  C  C3  1  0.25000000  0.00052500  0.96063300  1
  Ni  Ni4  1  0.50000000  0.50000000  0.00000000  1
  Ni  Ni5  1  0.00000000  0.50000000  0.00000000  1
  Cu  Cu6  1  0.50000000  0.00000000  0.50000000  1
  Cu  Cu7  1  0.00000000  0.00000000  0.50000000  1
  C  C8  1  0.42492000  0.66750100  0.67739000  1
  C  C9  1  0.07508500  0.82537000  0.17538100  1
  C  C10  1  0.92492000  0.33249900  0.32261000  1
  C  C11  1  0.57508500  0.17463000  0.82461900  1
  C  C12  1  0.42491500  0.82537000  0.17538100  1
  C  C13  1  0.92491500  0.17463000  0.82461900  1
  C  C14  1  0.25000000  0.12879300  0.58445200  1
  C  C15  1  0.07508000  0.66750100  0.67739000  1
  C  C16  1  0.75000000  0.63915000  0.90991900  1
  C  C17  1  0.57508000  0.33249900  0.32261000  1
  C  C18  1  0.75000000  0.87120700  0.41554800  1
  C  C19  1  0.25000000  0.36085000  0.09008100  1
