# generated using pymatgen
data_Cu3Ni3C14
_symmetry_space_group_name_H-M   'P 1'
_cell_length_a   7.47564900
_cell_length_b   8.01682100
_cell_length_c   16.01805507
_cell_angle_alpha   60.67884979
_cell_angle_beta   90.00000000
_cell_angle_gamma   90.00000000
_symmetry_Int_Tables_number   1
_chemical_formula_structural   Cu3Ni3C14
_chemical_formula_sum   'Cu12 Ni12 C56'
_cell_volume   836.99304936
_cell_formula_units_Z   4
loop_
 _symmetry_equiv_pos_site_id
 _symmetry_equiv_pos_as_xyz
  1  'x, y, z'
loop_
 _atom_site_type_symbol
 _atom_site_label
 _atom_site_symmetry_multiplicity
 _atom_site_fract_x
 _atom_site_fract_y
 _atom_site_fract_z
 _atom_site_occupancy
  C  C0  1  0.46117600  0.16083600  0.09062800  1
  C  C1  1  0.03882400  0.16083600  0.59062800  1
  C  C2  1  0.53882400  0.83916400  0.90937200  1
  C  C3  1  0.96117600  0.83916400  0.40937200  1
  C  C4  1  0.55394400  0.81409500  0.43195700  1
  C  C5  1  0.05394400  0.18590500  0.06804300  1
  C  C6  1  0.44605600  0.18590500  0.56804300  1
  C  C7  1  0.94605600  0.81409500  0.93195700  1
  Ni  Ni8  1  0.83913900  0.80487200  0.76679600  1
  Ni  Ni9  1  0.66044100  0.16213200  0.40251400  1
  Ni  Ni10  1  0.16044100  0.83786800  0.09748600  1
  Ni  Ni11  1  0.33955900  0.83786800  0.59748600  1
  Ni  Ni12  1  0.83955900  0.16213200  0.90251400  1
  Ni  Ni13  1  0.16179400  0.47464300  0.41766800  1
  Ni  Ni14  1  0.66179400  0.52535700  0.08233200  1
  Ni  Ni15  1  0.83820600  0.52535700  0.58233200  1
  Ni  Ni16  1  0.33820600  0.47464300  0.91766800  1
  Ni  Ni17  1  0.66086100  0.80487200  0.26679600  1
  Ni  Ni18  1  0.16086100  0.19512800  0.23320400  1
  Ni  Ni19  1  0.33913900  0.19512800  0.73320400  1
  Cu  Cu20  1  0.22397200  0.81028000  0.76655200  1
  Cu  Cu21  1  0.72397200  0.18972000  0.73344800  1
  Cu  Cu22  1  0.77602800  0.18972000  0.23344800  1
  Cu  Cu23  1  0.27602800  0.81028000  0.26655200  1
  Cu  Cu24  1  0.73371500  0.46579300  0.91951400  1
  Cu  Cu25  1  0.23371500  0.53420700  0.58048600  1
  Cu  Cu26  1  0.26628500  0.53420700  0.08048600  1
  Cu  Cu27  1  0.76628500  0.46579300  0.41951400  1
  Cu  Cu28  1  0.23440500  0.16082700  0.90214800  1
  Cu  Cu29  1  0.73440500  0.83917300  0.59785200  1
  Cu  Cu30  1  0.76559500  0.83917300  0.09785200  1
  Cu  Cu31  1  0.26559500  0.16082700  0.40214800  1
  C  C32  1  0.13101500  0.71881000  0.04064500  1
  C  C33  1  0.03152000  0.77476100  0.82325100  1
  C  C34  1  0.53152000  0.22523900  0.67674900  1
  C  C35  1  0.96848000  0.22523900  0.17674900  1
  C  C36  1  0.46848000  0.77476100  0.32325100  1
  C  C37  1  0.53322300  0.36650000  0.96136100  1
  C  C38  1  0.03322300  0.63350000  0.53863900  1
  C  C39  1  0.46677700  0.63350000  0.03863900  1
  C  C40  1  0.96677700  0.36650000  0.46136100  1
  C  C41  1  0.03462900  0.07223600  0.89431200  1
  C  C42  1  0.53462900  0.92776400  0.60568800  1
  C  C43  1  0.96537100  0.92776400  0.10568800  1
  C  C44  1  0.12827500  0.08098500  0.35035500  1
  C  C45  1  0.62827500  0.91901500  0.14964500  1
  C  C46  1  0.87172500  0.91901500  0.64964500  1
  C  C47  1  0.37172500  0.08098500  0.85035500  1
  C  C48  1  0.63101500  0.28119000  0.45935500  1
  C  C49  1  0.46537100  0.07223600  0.39431200  1
  C  C50  1  0.36898500  0.71881000  0.54064500  1
  C  C51  1  0.86898500  0.28119000  0.95935500  1
  C  C52  1  0.77013500  0.94144100  0.47623500  1
  C  C53  1  0.62598100  0.28506200  0.14459200  1
  C  C54  1  0.87401900  0.28506200  0.64459200  1
  C  C55  1  0.37401900  0.71493800  0.85540800  1
  C  C56  1  0.73864100  0.26674400  0.80750100  1
  C  C57  1  0.23864100  0.73325600  0.69249900  1
  C  C58  1  0.26135900  0.73325600  0.19249900  1
  C  C59  1  0.76135900  0.26674400  0.30750100  1
  C  C60  1  0.73097500  0.61680600  0.80920500  1
  C  C61  1  0.23097500  0.38319400  0.69079500  1
  C  C62  1  0.26902500  0.38319400  0.19079500  1
  C  C63  1  0.76902500  0.61680600  0.30920500  1
  C  C64  1  0.23430800  0.38300500  0.86733200  1
  C  C65  1  0.73430800  0.61699500  0.63266800  1
  C  C66  1  0.76569200  0.61699500  0.13266800  1
  C  C67  1  0.26569200  0.38300500  0.36733200  1
  C  C68  1  0.73571600  0.94964100  0.80202400  1
  C  C69  1  0.23571600  0.05035900  0.69797600  1
  C  C70  1  0.26428400  0.05035900  0.19797600  1
  C  C71  1  0.76428400  0.94964100  0.30202400  1
  C  C72  1  0.78040900  0.58846800  0.97817200  1
  C  C73  1  0.28040900  0.41153200  0.52182800  1
  C  C74  1  0.21959100  0.41153200  0.02182800  1
  C  C75  1  0.71959100  0.58846800  0.47817200  1
  C  C76  1  0.72986500  0.94144100  0.97623500  1
  C  C77  1  0.22986500  0.05855900  0.52376500  1
  C  C78  1  0.27013500  0.05855900  0.02376500  1
  C  C79  1  0.12598100  0.71493800  0.35540800  1
