# generated using pymatgen
data_Cu2Ni12C17
_symmetry_space_group_name_H-M   'P 1'
_cell_length_a   6.42597943
_cell_length_b   9.31666674
_cell_length_c   12.66903100
_cell_angle_alpha   90.00000000
_cell_angle_beta   90.00000000
_cell_angle_gamma   103.81333740
_symmetry_Int_Tables_number   1
_chemical_formula_structural   Cu2Ni12C17
_chemical_formula_sum   'Cu4 Ni24 C34'
_cell_volume   736.54236387
_cell_formula_units_Z   2
loop_
 _symmetry_equiv_pos_site_id
 _symmetry_equiv_pos_as_xyz
  1  'x, y, z'
loop_
 _atom_site_type_symbol
 _atom_site_label
 _atom_site_symmetry_multiplicity
 _atom_site_fract_x
 _atom_site_fract_y
 _atom_site_fract_z
 _atom_site_occupancy
  C  C0  1  0.34678300  0.62930900  0.15014900  1
  C  C1  1  0.65321700  0.87069100  0.65014900  1
  C  C2  1  0.65321700  0.37069100  0.84985100  1
  C  C3  1  0.34678300  0.12930900  0.34985100  1
  C  C4  1  0.00000000  0.50000000  0.50000000  1
  C  C5  1  0.00000000  0.00000000  0.00000000  1
  Ni  Ni6  1  0.31480900  0.71073100  0.41279400  1
  Ni  Ni7  1  0.68519100  0.78926900  0.91279400  1
  Ni  Ni8  1  0.68519100  0.28926900  0.58720600  1
  Ni  Ni9  1  0.31480900  0.21073100  0.08720600  1
  Ni  Ni10  1  0.09501000  0.74362700  0.37207600  1
  Ni  Ni11  1  0.90499000  0.75637300  0.87207600  1
  Ni  Ni12  1  0.90499000  0.25637300  0.62792400  1
  Ni  Ni13  1  0.09501000  0.24362700  0.12792400  1
  Ni  Ni14  1  0.92560700  0.23435300  0.39884100  1
  Ni  Ni15  1  0.07439300  0.26564700  0.89884100  1
  Ni  Ni16  1  0.07439300  0.76564700  0.60115900  1
  Ni  Ni17  1  0.92560700  0.73435300  0.10115900  1
  Ni  Ni18  1  0.00189500  0.36212800  0.31453500  1
  Ni  Ni19  1  0.99810500  0.13787200  0.81453500  1
  Ni  Ni20  1  0.99810500  0.63787200  0.68546500  1
  Ni  Ni21  1  0.00189500  0.86212800  0.18546500  1
  Ni  Ni22  1  0.32161500  0.38851600  0.56074000  1
  Ni  Ni23  1  0.67838500  0.11148400  0.06074000  1
  Ni  Ni24  1  0.67838500  0.61148400  0.43926000  1
  Ni  Ni25  1  0.32161500  0.88851600  0.93926000  1
  Ni  Ni26  1  0.32857900  0.52585500  0.63771700  1
  Ni  Ni27  1  0.67142100  0.97414500  0.13771700  1
  Ni  Ni28  1  0.67142100  0.47414500  0.36228300  1
  Ni  Ni29  1  0.32857900  0.02585500  0.86228300  1
  Cu  Cu30  1  0.73081100  0.91039900  0.35839200  1
  Cu  Cu31  1  0.26918900  0.58960100  0.85839200  1
  Cu  Cu32  1  0.26918900  0.08960100  0.64160800  1
  Cu  Cu33  1  0.73081100  0.41039900  0.14160800  1
  C  C34  1  0.56974100  0.90362100  0.25329600  1
  C  C35  1  0.43025900  0.59637900  0.75329600  1
  C  C36  1  0.43025900  0.09637900  0.74670400  1
  C  C37  1  0.56974100  0.40362100  0.24670400  1
  C  C38  1  0.75402000  0.07115100  0.42129500  1
  C  C39  1  0.24598000  0.42884900  0.92129500  1
  C  C40  1  0.24598000  0.92884900  0.57870500  1
  C  C41  1  0.75402000  0.57115100  0.07870500  1
  C  C42  1  0.61190200  0.77496100  0.44159500  1
  C  C43  1  0.38809800  0.72503900  0.94159500  1
  C  C44  1  0.38809800  0.22503900  0.55840500  1
  C  C45  1  0.61190200  0.27496100  0.05840500  1
  C  C46  1  0.97271000  0.88832000  0.32062900  1
  C  C47  1  0.02729000  0.61168000  0.82062900  1
  C  C48  1  0.02729000  0.11168000  0.67937100  1
  C  C49  1  0.97271000  0.38832000  0.17937100  1
  C  C50  1  0.16881900  0.66363400  0.38799400  1
  C  C51  1  0.83118100  0.83636600  0.88799400  1
  C  C52  1  0.83118100  0.33636600  0.61200600  1
  C  C53  1  0.16881900  0.16363400  0.11200600  1
  C  C54  1  0.02713000  0.33275700  0.38817200  1
  C  C55  1  0.97287000  0.16724300  0.88817200  1
  C  C56  1  0.97287000  0.66724300  0.61182800  1
  C  C57  1  0.02713000  0.83275700  0.11182800  1
  C  C58  1  0.28351000  0.48591600  0.56604100  1
  C  C59  1  0.71649000  0.01408400  0.06604100  1
  C  C60  1  0.71649000  0.51408400  0.43395900  1
  C  C61  1  0.28351000  0.98591600  0.93395900  1
