# generated using pymatgen
data_Cu4Ni2C3
_symmetry_space_group_name_H-M   'P 1'
_cell_length_a   10.08926046
_cell_length_b   10.08926046
_cell_length_c   7.83271010
_cell_angle_alpha   74.99037575
_cell_angle_beta   74.99037575
_cell_angle_gamma   122.66814940
_symmetry_Int_Tables_number   1
_chemical_formula_structural   Cu4Ni2C3
_chemical_formula_sum   'Cu8 Ni4 C6'
_cell_volume   564.96866455
_cell_formula_units_Z   2
loop_
 _symmetry_equiv_pos_site_id
 _symmetry_equiv_pos_as_xyz
  1  'x, y, z'
loop_
 _atom_site_type_symbol
 _atom_site_label
 _atom_site_symmetry_multiplicity
 _atom_site_fract_x
 _atom_site_fract_y
 _atom_site_fract_z
 _atom_site_occupancy
  C  C0  1  0.94220000  0.05780000  0.75000000  1
  C  C1  1  0.05780000  0.94220000  0.25000000  1
  C  C2  1  0.56458400  0.43541600  0.25000000  1
  C  C3  1  0.43541600  0.56458400  0.75000000  1
  C  C4  1  0.81031000  0.18969000  0.25000000  1
  C  C5  1  0.18969000  0.81031000  0.75000000  1
  Ni  Ni6  1  0.46601600  0.82956800  0.15657100  1
  Ni  Ni7  1  0.17043200  0.53398400  0.34342900  1
  Ni  Ni8  1  0.53398400  0.17043200  0.84342900  1
  Ni  Ni9  1  0.82956800  0.46601600  0.65657100  1
  Cu  Cu10  1  0.44552100  0.04908000  0.20349000  1
  Cu  Cu11  1  0.95092000  0.55447900  0.29651000  1
  Cu  Cu12  1  0.18845500  0.33378400  0.25422300  1
  Cu  Cu13  1  0.66621600  0.81154500  0.24577700  1
  Cu  Cu14  1  0.81154500  0.66621600  0.74577700  1
  Cu  Cu15  1  0.33378400  0.18845500  0.75422300  1
  Cu  Cu16  1  0.04908000  0.44552100  0.70349000  1
  Cu  Cu17  1  0.55447900  0.95092000  0.79651000  1
