# generated using pymatgen
data_Cu6NiC
_symmetry_space_group_name_H-M   'P 1'
_cell_length_a   4.06539694
_cell_length_b   6.11538206
_cell_length_c   10.62730318
_cell_angle_alpha   102.35314965
_cell_angle_beta   75.48330376
_cell_angle_gamma   93.45875236
_symmetry_Int_Tables_number   1
_chemical_formula_structural   Cu6NiC
_chemical_formula_sum   'Cu12 Ni2 C2'
_cell_volume   249.84711388
_cell_formula_units_Z   2
loop_
 _symmetry_equiv_pos_site_id
 _symmetry_equiv_pos_as_xyz
  1  'x, y, z'
loop_
 _atom_site_type_symbol
 _atom_site_label
 _atom_site_symmetry_multiplicity
 _atom_site_fract_x
 _atom_site_fract_y
 _atom_site_fract_z
 _atom_site_occupancy
  C  C0  1  0.20636100  0.77853900  0.58602500  1
  C  C1  1  0.79363900  0.22146100  0.41397500  1
  Ni  Ni2  1  0.65493800  0.18973700  0.82989000  1
  Ni  Ni3  1  0.34506200  0.81026300  0.17011000  1
  Cu  Cu4  1  0.06070900  0.69218700  0.82282300  1
  Cu  Cu5  1  0.93929100  0.30781300  0.17717700  1
  Cu  Cu6  1  0.61022700  0.00463100  0.75058900  1
  Cu  Cu7  1  0.38977300  0.99536900  0.24941100  1
  Cu  Cu8  1  0.68274400  0.55703400  0.59494100  1
  Cu  Cu9  1  0.31725600  0.44296600  0.40505900  1
  Cu  Cu10  1  0.80628900  0.84751600  0.46070700  1
  Cu  Cu11  1  0.19371100  0.15248400  0.53929300  1
  Cu  Cu12  1  0.82386300  0.18653500  0.91236600  1
  Cu  Cu13  1  0.17613700  0.81346500  0.08763400  1
  Cu  Cu14  1  0.53105700  0.36516400  0.82046900  1
  Cu  Cu15  1  0.46894300  0.63483600  0.17953100  1
