# generated using pymatgen
data_Cu4Ni3C8
_symmetry_space_group_name_H-M   'P 1'
_cell_length_a   6.46965100
_cell_length_b   7.32647500
_cell_length_c   43.60641906
_cell_angle_alpha   84.57270031
_cell_angle_beta   90.00000000
_cell_angle_gamma   90.00000000
_symmetry_Int_Tables_number   1
_chemical_formula_structural   Cu4Ni3C8
_chemical_formula_sum   'Cu16 Ni12 C32'
_cell_volume   2057.66672978
_cell_formula_units_Z   4
loop_
 _symmetry_equiv_pos_site_id
 _symmetry_equiv_pos_as_xyz
  1  'x, y, z'
loop_
 _atom_site_type_symbol
 _atom_site_label
 _atom_site_symmetry_multiplicity
 _atom_site_fract_x
 _atom_site_fract_y
 _atom_site_fract_z
 _atom_site_occupancy
  C  C0  1  0.87482000  0.36204900  0.72089100  1
  C  C1  1  0.29840900  0.80225200  0.69379300  1
  C  C2  1  0.58789300  0.25920200  0.88404600  1
  C  C3  1  0.01386800  0.11353800  0.66849200  1
  C  C4  1  0.37482000  0.63795100  0.77910900  1
  C  C5  1  0.92479100  0.99312000  0.15126200  1
  C  C6  1  0.27046000  0.30031800  0.62285500  1
  C  C7  1  0.91210700  0.25920200  0.38404600  1
  C  C8  1  0.07520900  0.00688000  0.84873800  1
  C  C9  1  0.41210700  0.74079800  0.11595400  1
  C  C10  1  0.72954000  0.69968200  0.37714500  1
  C  C11  1  0.48613200  0.11353800  0.16849200  1
  C  C12  1  0.51386800  0.88646200  0.83150800  1
  C  C13  1  0.42479100  0.00688000  0.34873800  1
  C  C14  1  0.68989100  0.04227000  0.99122500  1
  C  C15  1  0.81010900  0.04227000  0.49122500  1
  C  C16  1  0.23087600  0.10933100  0.26588400  1
  C  C17  1  0.76912400  0.89066900  0.73411600  1
  C  C18  1  0.31010900  0.95773000  0.00877500  1
  C  C19  1  0.79840900  0.19774800  0.80620700  1
  C  C20  1  0.57520900  0.99312000  0.65126200  1
  C  C21  1  0.08789300  0.74079800  0.61595400  1
  C  C22  1  0.62518000  0.36204900  0.22089100  1
  C  C23  1  0.70159100  0.19774800  0.30620700  1
  C  C24  1  0.26912400  0.10933100  0.76588400  1
  C  C25  1  0.73087600  0.89066900  0.23411600  1
  C  C26  1  0.98613200  0.88646200  0.33150800  1
  C  C27  1  0.18989100  0.95773000  0.50877500  1
  C  C28  1  0.77046000  0.69968200  0.87714500  1
  C  C29  1  0.20159100  0.80225200  0.19379300  1
  C  C30  1  0.22954000  0.30031800  0.12285500  1
  C  C31  1  0.12518000  0.63795100  0.27910900  1
  Ni  Ni32  1  0.26835900  0.80193100  0.40982500  1
  Ni  Ni33  1  0.49378100  0.17964100  0.46304000  1
  Ni  Ni34  1  0.62697700  0.58959800  0.28031400  1
  Ni  Ni35  1  0.00621900  0.17964100  0.96304000  1
  Ni  Ni36  1  0.23164100  0.80193100  0.90982500  1
  Ni  Ni37  1  0.50621900  0.82035900  0.53696000  1
  Ni  Ni38  1  0.73164100  0.19806900  0.59017500  1
  Ni  Ni39  1  0.12697700  0.41040200  0.21968600  1
  Ni  Ni40  1  0.37302300  0.41040200  0.71968600  1
  Ni  Ni41  1  0.99378100  0.82035900  0.03696000  1
  Ni  Ni42  1  0.76835900  0.19806900  0.09017500  1
  Ni  Ni43  1  0.87302300  0.58959800  0.78031400  1
  Cu  Cu44  1  0.08347400  0.86349000  0.24572000  1
  Cu  Cu45  1  0.01075000  0.65470800  0.91561700  1
  Cu  Cu46  1  0.83084700  0.58172700  0.68646800  1
  Cu  Cu47  1  0.16915300  0.41827300  0.31353200  1
  Cu  Cu48  1  0.07841400  0.25614100  0.30521300  1
  Cu  Cu49  1  0.91652600  0.13651000  0.75428000  1
  Cu  Cu50  1  0.51075000  0.34529200  0.58438300  1
  Cu  Cu51  1  0.66915300  0.58172700  0.18646800  1
  Cu  Cu52  1  0.33084700  0.41827300  0.81353200  1
  Cu  Cu53  1  0.92158600  0.74385900  0.69478700  1
  Cu  Cu54  1  0.98925000  0.34529200  0.08438300  1
  Cu  Cu55  1  0.57841400  0.74385900  0.19478700  1
  Cu  Cu56  1  0.58347400  0.13651000  0.25428000  1
  Cu  Cu57  1  0.41652600  0.86349000  0.74572000  1
  Cu  Cu58  1  0.42158600  0.25614100  0.80521300  1
  Cu  Cu59  1  0.48925000  0.65470800  0.41561700  1
