# generated using pymatgen
data_Cu5(NiC8)2
_symmetry_space_group_name_H-M   'P 1'
_cell_length_a   11.08495800
_cell_length_b   11.08495800
_cell_length_c   7.79002800
_cell_angle_alpha   90.00000000
_cell_angle_beta   90.00000000
_cell_angle_gamma   90.00000000
_symmetry_Int_Tables_number   1
_chemical_formula_structural   Cu5(NiC8)2
_chemical_formula_sum   'Cu20 Ni8 C64'
_cell_volume   957.20976972
_cell_formula_units_Z   4
loop_
 _symmetry_equiv_pos_site_id
 _symmetry_equiv_pos_as_xyz
  1  'x, y, z'
loop_
 _atom_site_type_symbol
 _atom_site_label
 _atom_site_symmetry_multiplicity
 _atom_site_fract_x
 _atom_site_fract_y
 _atom_site_fract_z
 _atom_site_occupancy
  C  C0  1  0.25000000  0.75000000  0.00000000  1
  C  C1  1  0.25000000  0.25000000  0.00000000  1
  C  C2  1  0.75000000  0.75000000  0.00000000  1
  C  C3  1  0.75000000  0.25000000  0.00000000  1
  C  C4  1  0.00000000  0.00000000  0.50000000  1
  C  C5  1  0.50000000  0.50000000  0.50000000  1
  C  C6  1  0.33868400  0.67407500  0.33574100  1
  C  C7  1  0.27098900  0.00000000  0.52710100  1
  C  C8  1  0.50000000  0.77098900  0.52710100  1
  C  C9  1  0.50000000  0.22901100  0.52710100  1
  C  C10  1  0.83480100  0.50000000  0.96967400  1
  C  C11  1  0.00000000  0.66519900  0.96967400  1
  C  C12  1  0.00000000  0.33480100  0.96967400  1
  C  C13  1  0.16519900  0.50000000  0.96967400  1
  C  C14  1  0.66519900  0.00000000  0.03032600  1
  C  C15  1  0.33480100  0.00000000  0.03032600  1
  C  C16  1  0.50000000  0.83480100  0.03032600  1
  C  C17  1  0.50000000  0.16519900  0.03032600  1
  C  C18  1  0.88326400  0.38326400  0.24659500  1
  C  C19  1  0.88326400  0.61673600  0.24659500  1
  C  C20  1  0.11673600  0.38326400  0.24659500  1
  C  C21  1  0.11673600  0.61673600  0.24659500  1
  C  C22  1  0.61673600  0.88326400  0.75340500  1
  C  C23  1  0.38326400  0.11673600  0.75340500  1
  C  C24  1  0.38326400  0.88326400  0.75340500  1
  C  C25  1  0.61673600  0.11673600  0.75340500  1
  C  C26  1  0.88975100  0.38975100  0.69821000  1
  C  C27  1  0.88975100  0.61024900  0.69821000  1
  C  C28  1  0.11024900  0.38975100  0.69821000  1
  C  C29  1  0.11024900  0.61024900  0.69821000  1
  C  C30  1  0.61024900  0.88975100  0.30179000  1
  C  C31  1  0.38975100  0.11024900  0.30179000  1
  C  C32  1  0.38975100  0.88975100  0.30179000  1
  C  C33  1  0.61024900  0.11024900  0.30179000  1
  C  C34  1  0.33868400  0.32592500  0.33574100  1
  C  C35  1  0.82592500  0.16131600  0.33574100  1
  C  C36  1  0.17407500  0.83868400  0.33574100  1
  C  C37  1  0.66131600  0.67407500  0.33574100  1
  C  C38  1  0.16131600  0.82592500  0.66425900  1
  C  C39  1  0.83868400  0.17407500  0.66425900  1
  C  C40  1  0.32592500  0.33868400  0.66425900  1
  C  C41  1  0.61013400  0.50000000  0.88841700  1
  C  C42  1  0.16131600  0.17407500  0.66425900  1
  C  C43  1  0.67407500  0.33868400  0.66425900  1
  C  C44  1  0.32592500  0.66131600  0.66425900  1
  C  C45  1  0.83868400  0.82592500  0.66425900  1
  C  C46  1  0.72901100  0.00000000  0.52710100  1
  C  C47  1  0.00000000  0.88986600  0.88841700  1
  C  C48  1  0.17407500  0.16131600  0.33574100  1
  C  C49  1  0.82592500  0.83868400  0.33574100  1
  C  C50  1  0.00000000  0.11013400  0.88841700  1
  C  C51  1  0.38986600  0.50000000  0.88841700  1
  C  C52  1  0.50000000  0.00000000  0.53585200  1
  C  C53  1  0.00000000  0.50000000  0.46414800  1
  C  C54  1  0.11013400  0.00000000  0.11158300  1
  C  C55  1  0.22901100  0.50000000  0.47289900  1
  C  C56  1  0.00000000  0.27098900  0.47289900  1
  C  C57  1  0.00000000  0.72901100  0.47289900  1
  C  C58  1  0.77098900  0.50000000  0.47289900  1
  C  C59  1  0.50000000  0.61013400  0.11158300  1
  C  C60  1  0.50000000  0.38986600  0.11158300  1
  C  C61  1  0.88986600  0.00000000  0.11158300  1
  C  C62  1  0.67407500  0.66131600  0.66425900  1
  C  C63  1  0.66131600  0.32592500  0.33574100  1
  Ni  Ni64  1  0.50000000  0.68274300  0.82513900  1
  Ni  Ni65  1  0.31725700  0.50000000  0.17486100  1
  Ni  Ni66  1  0.00000000  0.18274300  0.17486100  1
  Ni  Ni67  1  0.00000000  0.81725700  0.17486100  1
  Ni  Ni68  1  0.68274300  0.50000000  0.17486100  1
  Ni  Ni69  1  0.18274300  0.00000000  0.82513900  1
  Ni  Ni70  1  0.81725700  0.00000000  0.82513900  1
  Ni  Ni71  1  0.50000000  0.31725700  0.82513900  1
  Cu  Cu72  1  0.68580600  0.18580600  0.51882000  1
  Cu  Cu73  1  0.31419400  0.81419400  0.51882000  1
  Cu  Cu74  1  0.31419400  0.18580600  0.51882000  1
  Cu  Cu75  1  0.68580600  0.81419400  0.51882000  1
  Cu  Cu76  1  0.18580600  0.68580600  0.48118000  1
  Cu  Cu77  1  0.18580600  0.31419400  0.48118000  1
  Cu  Cu78  1  0.50000000  0.25607600  0.26448300  1
  Cu  Cu79  1  0.50000000  0.74392400  0.26448300  1
  Cu  Cu80  1  0.24392400  0.00000000  0.26448300  1
  Cu  Cu81  1  0.75607600  0.00000000  0.26448300  1
  Cu  Cu82  1  0.25607600  0.50000000  0.73551700  1
  Cu  Cu83  1  0.00000000  0.24392400  0.73551700  1
  Cu  Cu84  1  0.00000000  0.75607600  0.73551700  1
  Cu  Cu85  1  0.74392400  0.50000000  0.73551700  1
  Cu  Cu86  1  0.50000000  0.00000000  0.14936000  1
  Cu  Cu87  1  0.00000000  0.50000000  0.85064000  1
  Cu  Cu88  1  0.50000000  0.00000000  0.89271200  1
  Cu  Cu89  1  0.00000000  0.50000000  0.10728800  1
  Cu  Cu90  1  0.81419400  0.68580600  0.48118000  1
  Cu  Cu91  1  0.81419400  0.31419400  0.48118000  1
