# generated using pymatgen
data_Cu9(Ni2C)10
_symmetry_space_group_name_H-M   'P 1'
_cell_length_a   13.33731900
_cell_length_b   13.33731900
_cell_length_c   9.11062500
_cell_angle_alpha   90.00000000
_cell_angle_beta   90.00000000
_cell_angle_gamma   90.00000000
_symmetry_Int_Tables_number   1
_chemical_formula_structural   Cu9(Ni2C)10
_chemical_formula_sum   'Cu18 Ni40 C20'
_cell_volume   1620.63512911
_cell_formula_units_Z   2
loop_
 _symmetry_equiv_pos_site_id
 _symmetry_equiv_pos_as_xyz
  1  'x, y, z'
loop_
 _atom_site_type_symbol
 _atom_site_label
 _atom_site_symmetry_multiplicity
 _atom_site_fract_x
 _atom_site_fract_y
 _atom_site_fract_z
 _atom_site_occupancy
  C  C0  1  0.50000000  0.00000000  0.36034900  1
  C  C1  1  0.00000000  0.50000000  0.63965100  1
  C  C2  1  0.50000000  0.00000000  0.83380600  1
  C  C3  1  0.00000000  0.50000000  0.16619400  1
  C  C4  1  0.50000000  0.27730300  0.76714700  1
  C  C5  1  0.50000000  0.72269700  0.76714700  1
  C  C6  1  0.77730300  0.00000000  0.76714700  1
  C  C7  1  0.22269700  0.00000000  0.76714700  1
  C  C8  1  0.00000000  0.22269700  0.23285300  1
  C  C9  1  0.00000000  0.77730300  0.23285300  1
  C  C10  1  0.72269700  0.50000000  0.23285300  1
  C  C11  1  0.27730300  0.50000000  0.23285300  1
  C  C12  1  0.70364000  0.20364000  0.26715900  1
  C  C13  1  0.70364000  0.79636000  0.26715900  1
  C  C14  1  0.29636000  0.20364000  0.26715900  1
  C  C15  1  0.29636000  0.79636000  0.26715900  1
  C  C16  1  0.79636000  0.29636000  0.73284100  1
  C  C17  1  0.79636000  0.70364000  0.73284100  1
  C  C18  1  0.20364000  0.29636000  0.73284100  1
  C  C19  1  0.20364000  0.70364000  0.73284100  1
  Ni  Ni20  1  0.34622400  0.65377600  0.00000000  1
  Ni  Ni21  1  0.34622400  0.34622400  0.00000000  1
  Ni  Ni22  1  0.65377600  0.65377600  0.00000000  1
  Ni  Ni23  1  0.65377600  0.34622400  0.00000000  1
  Ni  Ni24  1  0.15377600  0.84622400  0.00000000  1
  Ni  Ni25  1  0.15377600  0.15377600  0.00000000  1
  Ni  Ni26  1  0.84622400  0.84622400  0.00000000  1
  Ni  Ni27  1  0.84622400  0.15377600  0.00000000  1
  Ni  Ni28  1  0.86945700  0.13054300  0.50000000  1
  Ni  Ni29  1  0.86945700  0.86945700  0.50000000  1
  Ni  Ni30  1  0.13054300  0.13054300  0.50000000  1
  Ni  Ni31  1  0.13054300  0.86945700  0.50000000  1
  Ni  Ni32  1  0.63054300  0.36945700  0.50000000  1
  Ni  Ni33  1  0.63054300  0.63054300  0.50000000  1
  Ni  Ni34  1  0.36945700  0.36945700  0.50000000  1
  Ni  Ni35  1  0.36945700  0.63054300  0.50000000  1
  Ni  Ni36  1  0.50000000  0.83323900  0.09257000  1
  Ni  Ni37  1  0.50000000  0.16676100  0.09257000  1
  Ni  Ni38  1  0.33323900  0.00000000  0.09257000  1
  Ni  Ni39  1  0.66676100  0.00000000  0.09257000  1
  Ni  Ni40  1  0.00000000  0.66676100  0.90743000  1
  Ni  Ni41  1  0.00000000  0.33323900  0.90743000  1
  Ni  Ni42  1  0.16676100  0.50000000  0.90743000  1
  Ni  Ni43  1  0.83323900  0.50000000  0.90743000  1
  Ni  Ni44  1  0.63184800  0.13184800  0.58974700  1
  Ni  Ni45  1  0.63184800  0.86815200  0.58974700  1
  Ni  Ni46  1  0.36815200  0.13184800  0.58974700  1
  Ni  Ni47  1  0.36815200  0.86815200  0.58974700  1
  Ni  Ni48  1  0.86815200  0.36815200  0.41025300  1
  Ni  Ni49  1  0.86815200  0.63184800  0.41025300  1
  Ni  Ni50  1  0.13184800  0.36815200  0.41025300  1
  Ni  Ni51  1  0.13184800  0.63184800  0.41025300  1
  Ni  Ni52  1  0.50000000  0.61575600  0.23551500  1
  Ni  Ni53  1  0.50000000  0.38424400  0.23551500  1
  Ni  Ni54  1  0.11575600  0.00000000  0.23551500  1
  Ni  Ni55  1  0.88424400  0.00000000  0.23551500  1
  Ni  Ni56  1  0.00000000  0.88424400  0.76448500  1
  Ni  Ni57  1  0.00000000  0.11575600  0.76448500  1
  Ni  Ni58  1  0.38424400  0.50000000  0.76448500  1
  Ni  Ni59  1  0.61575600  0.50000000  0.76448500  1
  Cu  Cu60  1  0.50000000  0.50000000  0.00000000  1
  Cu  Cu61  1  0.00000000  0.00000000  0.00000000  1
  Cu  Cu62  1  0.50000000  0.77759100  0.40782600  1
  Cu  Cu63  1  0.50000000  0.22240900  0.40782600  1
  Cu  Cu64  1  0.27759100  0.00000000  0.40782600  1
  Cu  Cu65  1  0.72240900  0.00000000  0.40782600  1
  Cu  Cu66  1  0.00000000  0.72240900  0.59217400  1
  Cu  Cu67  1  0.00000000  0.27759100  0.59217400  1
  Cu  Cu68  1  0.22240900  0.50000000  0.59217400  1
  Cu  Cu69  1  0.77759100  0.50000000  0.59217400  1
  Cu  Cu70  1  0.84397800  0.34397800  0.10488100  1
  Cu  Cu71  1  0.84397800  0.65602200  0.10488100  1
  Cu  Cu72  1  0.15602200  0.34397800  0.10488100  1
  Cu  Cu73  1  0.15602200  0.65602200  0.10488100  1
  Cu  Cu74  1  0.65602200  0.15602200  0.89511900  1
  Cu  Cu75  1  0.65602200  0.84397800  0.89511900  1
  Cu  Cu76  1  0.34397800  0.15602200  0.89511900  1
  Cu  Cu77  1  0.34397800  0.84397800  0.89511900  1
