# generated using pymatgen
data_Cu2NiC12
_symmetry_space_group_name_H-M   'P 1'
_cell_length_a   6.85251200
_cell_length_b   7.05979154
_cell_length_c   9.60117674
_cell_angle_alpha   87.07978587
_cell_angle_beta   109.37566431
_cell_angle_gamma   104.55547062
_symmetry_Int_Tables_number   1
_chemical_formula_structural   Cu2NiC12
_chemical_formula_sum   'Cu4 Ni2 C24'
_cell_volume   423.84181265
_cell_formula_units_Z   2
loop_
 _symmetry_equiv_pos_site_id
 _symmetry_equiv_pos_as_xyz
  1  'x, y, z'
loop_
 _atom_site_type_symbol
 _atom_site_label
 _atom_site_symmetry_multiplicity
 _atom_site_fract_x
 _atom_site_fract_y
 _atom_site_fract_z
 _atom_site_occupancy
  Ni  Ni0  1  0.85079500  0.96132300  0.16691300  1
  Ni  Ni1  1  0.14920500  0.03867700  0.83308700  1
  Cu  Cu2  1  0.28321000  0.28912300  0.50975400  1
  Cu  Cu3  1  0.76770400  0.42050800  0.83109300  1
  Cu  Cu4  1  0.23229600  0.57949200  0.16890700  1
  Cu  Cu5  1  0.71679000  0.71087700  0.49024600  1
  C  C6  1  0.28993100  0.54410500  0.80391100  1
  C  C7  1  0.75874600  0.24469200  0.47330800  1
  C  C8  1  0.62261900  0.88123400  0.78284700  1
  C  C9  1  0.37738100  0.11876600  0.21715300  1
  C  C10  1  0.71006900  0.45589500  0.19608900  1
  C  C11  1  0.24125400  0.75530800  0.52669200  1
  C  C12  1  0.38785300  0.39267100  0.76856900  1
  C  C13  1  0.61214700  0.60732900  0.23143100  1
  C  C14  1  0.47555200  0.74506600  0.87305100  1
  C  C15  1  0.52444800  0.25493400  0.12694900  1
  C  C16  1  0.15114200  0.62692800  0.64996500  1
  C  C17  1  0.84885800  0.37307200  0.35003500  1
  C  C18  1  0.43439500  0.92642200  0.63703200  1
  C  C19  1  0.56560500  0.07357800  0.36296800  1
  C  C20  1  0.15319500  0.49645700  0.90025900  1
  C  C21  1  0.84680500  0.50354300  0.09974100  1
  C  C22  1  0.75073700  0.76397600  0.74072300  1
  C  C23  1  0.24926300  0.23602400  0.25927700  1
  C  C24  1  0.66577400  0.36398200  0.54727400  1
  C  C25  1  0.33422600  0.63601800  0.45272600  1
  C  C26  1  0.92964000  0.14875900  0.56030100  1
  C  C27  1  0.07036000  0.85124100  0.43969900  1
  C  C28  1  0.26481500  0.93163400  0.12808500  1
  C  C29  1  0.73518500  0.06836600  0.87191500  1
