# generated using pymatgen
data_Cu12Ni2C5
_symmetry_space_group_name_H-M   'P 1'
_cell_length_a   20.02764501
_cell_length_b   20.02764501
_cell_length_c   20.02764578
_cell_angle_alpha   29.41711101
_cell_angle_beta   29.41711101
_cell_angle_gamma   29.41711307
_symmetry_Int_Tables_number   1
_chemical_formula_structural   Cu12Ni2C5
_chemical_formula_sum   'Cu72 Ni12 C30'
_cell_volume   1715.13211521
_cell_formula_units_Z   6
loop_
 _symmetry_equiv_pos_site_id
 _symmetry_equiv_pos_as_xyz
  1  'x, y, z'
loop_
 _atom_site_type_symbol
 _atom_site_label
 _atom_site_symmetry_multiplicity
 _atom_site_fract_x
 _atom_site_fract_y
 _atom_site_fract_z
 _atom_site_occupancy
  C  C0  1  0.31044900  0.98009800  0.65279300  1
  C  C1  1  0.65279300  0.31044900  0.98009800  1
  C  C2  1  0.98009800  0.65279300  0.31044900  1
  C  C3  1  0.15279300  0.48009800  0.81044900  1
  C  C4  1  0.81044900  0.15279300  0.48009800  1
  C  C5  1  0.48009800  0.81044900  0.15279300  1
  C  C6  1  0.68955100  0.01990200  0.34720700  1
  C  C7  1  0.34720700  0.68955100  0.01990200  1
  C  C8  1  0.01990200  0.34720700  0.68955100  1
  C  C9  1  0.84720700  0.51990200  0.18955100  1
  C  C10  1  0.18955100  0.84720700  0.51990200  1
  C  C11  1  0.51990200  0.18955100  0.84720700  1
  C  C12  1  0.10303900  0.76756300  0.48076800  1
  C  C13  1  0.48076800  0.10303900  0.76756300  1
  C  C14  1  0.76756300  0.48076800  0.10303900  1
  C  C15  1  0.98076800  0.26756300  0.60303900  1
  C  C16  1  0.60303900  0.98076800  0.26756300  1
  C  C17  1  0.26756300  0.60303900  0.98076800  1
  C  C18  1  0.89696100  0.23243700  0.51923200  1
  C  C19  1  0.51923200  0.89696100  0.23243700  1
  C  C20  1  0.23243700  0.51923200  0.89696100  1
  C  C21  1  0.01923200  0.73243700  0.39696100  1
  C  C22  1  0.39696100  0.01923200  0.73243700  1
  C  C23  1  0.73243700  0.39696100  0.01923200  1
  C  C24  1  0.39591100  0.39591100  0.39591100  1
  C  C25  1  0.89591100  0.89591100  0.89591100  1
  C  C26  1  0.60408900  0.60408900  0.60408900  1
  C  C27  1  0.10408900  0.10408900  0.10408900  1
  C  C28  1  0.25000000  0.25000000  0.25000000  1
  C  C29  1  0.75000000  0.75000000  0.75000000  1
  Ni  Ni30  1  0.92321200  0.57678800  0.25000000  1
  Ni  Ni31  1  0.25000000  0.92321200  0.57678800  1
  Ni  Ni32  1  0.57678800  0.25000000  0.92321200  1
  Ni  Ni33  1  0.75000000  0.07678800  0.42321200  1
  Ni  Ni34  1  0.42321200  0.75000000  0.07678800  1
  Ni  Ni35  1  0.07678800  0.42321200  0.75000000  1
  Ni  Ni36  1  0.33701900  0.33701900  0.33701900  1
  Ni  Ni37  1  0.83701900  0.83701900  0.83701900  1
  Ni  Ni38  1  0.66298100  0.66298100  0.66298100  1
  Ni  Ni39  1  0.16298100  0.16298100  0.16298100  1
  Ni  Ni40  1  0.50000000  0.50000000  0.50000000  1
  Ni  Ni41  1  0.00000000  0.00000000  0.00000000  1
  Cu  Cu42  1  0.27263700  0.07885300  0.47219800  1
  Cu  Cu43  1  0.47219800  0.27263700  0.07885300  1
  Cu  Cu44  1  0.07885300  0.47219800  0.27263700  1
  Cu  Cu45  1  0.97219800  0.57885300  0.77263700  1
  Cu  Cu46  1  0.77263700  0.97219800  0.57885300  1
  Cu  Cu47  1  0.57885300  0.77263700  0.97219800  1
  Cu  Cu48  1  0.72736300  0.92114700  0.52780200  1
  Cu  Cu49  1  0.52780200  0.72736300  0.92114700  1
  Cu  Cu50  1  0.92114700  0.52780200  0.72736300  1
  Cu  Cu51  1  0.02780200  0.42114700  0.22736300  1
  Cu  Cu52  1  0.22736300  0.02780200  0.42114700  1
  Cu  Cu53  1  0.42114700  0.22736300  0.02780200  1
  Cu  Cu54  1  0.50244200  0.31503100  0.62772700  1
  Cu  Cu55  1  0.62772700  0.50244200  0.31503100  1
  Cu  Cu56  1  0.31503100  0.62772700  0.50244200  1
  Cu  Cu57  1  0.12772700  0.81503100  0.00244200  1
  Cu  Cu58  1  0.00244200  0.12772700  0.81503100  1
  Cu  Cu59  1  0.81503100  0.00244200  0.12772700  1
  Cu  Cu60  1  0.49755800  0.68496900  0.37227300  1
  Cu  Cu61  1  0.37227300  0.49755800  0.68496900  1
  Cu  Cu62  1  0.68496900  0.37227300  0.49755800  1
  Cu  Cu63  1  0.87227300  0.18496900  0.99755800  1
  Cu  Cu64  1  0.99755800  0.87227300  0.18496900  1
  Cu  Cu65  1  0.18496900  0.99755800  0.87227300  1
  Cu  Cu66  1  0.17881900  0.28934100  0.49023900  1
  Cu  Cu67  1  0.49023900  0.17881900  0.28934100  1
  Cu  Cu68  1  0.28934100  0.49023900  0.17881900  1
  Cu  Cu69  1  0.99023900  0.78934100  0.67881900  1
  Cu  Cu70  1  0.67881900  0.99023900  0.78934100  1
  Cu  Cu71  1  0.78934100  0.67881900  0.99023900  1
  Cu  Cu72  1  0.82118100  0.71065900  0.50976100  1
  Cu  Cu73  1  0.50976100  0.82118100  0.71065900  1
  Cu  Cu74  1  0.71065900  0.50976100  0.82118100  1
  Cu  Cu75  1  0.00976100  0.21065900  0.32118100  1
  Cu  Cu76  1  0.32118100  0.00976100  0.21065900  1
  Cu  Cu77  1  0.21065900  0.32118100  0.00976100  1
  Cu  Cu78  1  0.18846200  0.49046100  0.39106200  1
  Cu  Cu79  1  0.39106200  0.18846200  0.49046100  1
  Cu  Cu80  1  0.49046100  0.39106200  0.18846200  1
  Cu  Cu81  1  0.89106200  0.99046100  0.68846200  1
  Cu  Cu82  1  0.68846200  0.89106200  0.99046100  1
  Cu  Cu83  1  0.99046100  0.68846200  0.89106200  1
  Cu  Cu84  1  0.81153800  0.50953900  0.60893800  1
  Cu  Cu85  1  0.60893800  0.81153800  0.50953900  1
  Cu  Cu86  1  0.50953900  0.60893800  0.81153800  1
  Cu  Cu87  1  0.10893800  0.00953900  0.31153800  1
  Cu  Cu88  1  0.31153800  0.10893800  0.00953900  1
  Cu  Cu89  1  0.00953900  0.31153800  0.10893800  1
  Cu  Cu90  1  0.18832700  0.27978000  0.71071600  1
  Cu  Cu91  1  0.71071600  0.18832700  0.27978000  1
  Cu  Cu92  1  0.27978000  0.71071600  0.18832700  1
  Cu  Cu93  1  0.21071600  0.77978000  0.68832700  1
  Cu  Cu94  1  0.68832700  0.21071600  0.77978000  1
  Cu  Cu95  1  0.77978000  0.68832700  0.21071600  1
  Cu  Cu96  1  0.81167300  0.72022000  0.28928400  1
  Cu  Cu97  1  0.28928400  0.81167300  0.72022000  1
  Cu  Cu98  1  0.72022000  0.28928400  0.81167300  1
  Cu  Cu99  1  0.78928400  0.22022000  0.31167300  1
  Cu  Cu100  1  0.31167300  0.78928400  0.22022000  1
  Cu  Cu101  1  0.22022000  0.31167300  0.78928400  1
  Cu  Cu102  1  0.16809700  0.54892500  0.53355600  1
  Cu  Cu103  1  0.53355600  0.16809700  0.54892500  1
  Cu  Cu104  1  0.54892500  0.53355600  0.16809700  1
  Cu  Cu105  1  0.03355600  0.04892500  0.66809700  1
  Cu  Cu106  1  0.66809700  0.03355600  0.04892500  1
  Cu  Cu107  1  0.04892500  0.66809700  0.03355600  1
  Cu  Cu108  1  0.83190300  0.45107500  0.46644400  1
  Cu  Cu109  1  0.46644400  0.83190300  0.45107500  1
  Cu  Cu110  1  0.45107500  0.46644400  0.83190300  1
  Cu  Cu111  1  0.96644400  0.95107500  0.33190300  1
  Cu  Cu112  1  0.33190300  0.96644400  0.95107500  1
  Cu  Cu113  1  0.95107500  0.33190300  0.96644400  1
