# generated using pymatgen
data_Cu11NiC
_symmetry_space_group_name_H-M   'P 1'
_cell_length_a   4.71998100
_cell_length_b   6.43946032
_cell_length_c   6.43946032
_cell_angle_alpha   97.39503869
_cell_angle_beta   111.49923394
_cell_angle_gamma   68.50076606
_symmetry_Int_Tables_number   1
_chemical_formula_structural   Cu11NiC
_chemical_formula_sum   'Cu11 Ni1 C1'
_cell_volume   169.43006239
_cell_formula_units_Z   1
loop_
 _symmetry_equiv_pos_site_id
 _symmetry_equiv_pos_as_xyz
  1  'x, y, z'
loop_
 _atom_site_type_symbol
 _atom_site_label
 _atom_site_symmetry_multiplicity
 _atom_site_fract_x
 _atom_site_fract_y
 _atom_site_fract_z
 _atom_site_occupancy
  C  C0  1  0.00615700  0.99384300  0.00615700  1
  Ni  Ni1  1  0.63188700  0.36811300  0.63188700  1
  Cu  Cu2  1  0.72864700  0.77135300  0.22864700  1
  Cu  Cu3  1  0.27575700  0.22424300  0.77575700  1
  Cu  Cu4  1  0.49919500  0.77891100  0.77730000  1
  Cu  Cu5  1  0.49919500  0.22270000  0.22108900  1
  Cu  Cu6  1  0.50021900  0.99791500  0.50013100  1
  Cu  Cu7  1  0.00199600  0.99791500  0.50013100  1
  Cu  Cu8  1  0.50021900  0.49986900  0.00208500  1
  Cu  Cu9  1  0.00199600  0.49986900  0.00208500  1
  Cu  Cu10  1  0.35431500  0.64568500  0.35431500  1
  Cu  Cu11  1  0.00020800  0.35652600  0.35694100  1
  Cu  Cu12  1  0.00020800  0.64305900  0.64347400  1
