# generated using pymatgen
data_Cu4Ni9C
_symmetry_space_group_name_H-M   'P 1'
_cell_length_a   12.24868666
_cell_length_b   12.24868666
_cell_length_c   15.00140900
_cell_angle_alpha   90.00000000
_cell_angle_beta   90.00000000
_cell_angle_gamma   120.00000356
_symmetry_Int_Tables_number   1
_chemical_formula_structural   Cu4Ni9C
_chemical_formula_sum   'Cu24 Ni54 C6'
_cell_volume   1949.13409171
_cell_formula_units_Z   6
loop_
 _symmetry_equiv_pos_site_id
 _symmetry_equiv_pos_as_xyz
  1  'x, y, z'
loop_
 _atom_site_type_symbol
 _atom_site_label
 _atom_site_symmetry_multiplicity
 _atom_site_fract_x
 _atom_site_fract_y
 _atom_site_fract_z
 _atom_site_occupancy
  Ni  Ni0  1  0.54643500  0.69906300  0.65046800  1
  Ni  Ni1  1  0.21310200  0.03239700  0.98380200  1
  Ni  Ni2  1  0.87976800  0.36573000  0.31713500  1
  Ni  Ni3  1  0.68286500  0.56263300  0.51403800  1
  Ni  Ni4  1  0.34953200  0.89596700  0.84737200  1
  Ni  Ni5  1  0.01619800  0.22930000  0.18070500  1
  Ni  Ni6  1  0.81929500  0.83549300  0.78689800  1
  Ni  Ni7  1  0.48596200  0.16882600  0.12023200  1
  Ni  Ni8  1  0.15262800  0.50216000  0.45356500  1
  Ni  Ni9  1  0.45356500  0.30093700  0.34953200  1
  Ni  Ni10  1  0.12023200  0.63427000  0.68286500  1
  Ni  Ni11  1  0.78689800  0.96760300  0.01619800  1
  Ni  Ni12  1  0.31713500  0.43736700  0.48596200  1
  Ni  Ni13  1  0.98380200  0.77070000  0.81929500  1
  Ni  Ni14  1  0.65046800  0.10403300  0.15262800  1
  Ni  Ni15  1  0.18070500  0.16450700  0.21310200  1
  Ni  Ni16  1  0.84737200  0.49784000  0.54643500  1
  Ni  Ni17  1  0.51403800  0.83117400  0.87976800  1
  Ni  Ni18  1  0.31929500  0.03239700  0.48380200  1
  Ni  Ni19  1  0.98596200  0.36573000  0.81713500  1
  Ni  Ni20  1  0.65262800  0.69906300  0.15046800  1
  Ni  Ni21  1  0.18286500  0.16882600  0.62023200  1
  Ni  Ni22  1  0.84953200  0.50216000  0.95356500  1
  Ni  Ni23  1  0.51619800  0.83549300  0.28689800  1
  Ni  Ni24  1  0.04643500  0.89596700  0.34737200  1
  Ni  Ni25  1  0.71310200  0.22930000  0.68070500  1
  Ni  Ni26  1  0.37976800  0.56263300  0.01403800  1
  Ni  Ni27  1  0.68070500  0.96760300  0.51619800  1
  Ni  Ni28  1  0.34737200  0.30093700  0.84953200  1
  Ni  Ni29  1  0.01403800  0.63427000  0.18286500  1
  Ni  Ni30  1  0.81713500  0.83117400  0.37976800  1
  Ni  Ni31  1  0.48380200  0.16450700  0.71310200  1
  Ni  Ni32  1  0.15046800  0.49784000  0.04643500  1
  Ni  Ni33  1  0.95356500  0.10403300  0.65262800  1
  Ni  Ni34  1  0.62023200  0.43736700  0.98596200  1
  Ni  Ni35  1  0.28689800  0.77070000  0.31929500  1
  Ni  Ni36  1  0.95591500  0.83333300  0.58333300  1
  Ni  Ni37  1  0.62258100  0.16666700  0.91666700  1
  Ni  Ni38  1  0.28924800  0.50000000  0.25000000  1
  Ni  Ni39  1  0.08333300  0.70591500  0.45591500  1
  Ni  Ni40  1  0.75000000  0.03924800  0.78924800  1
  Ni  Ni41  1  0.41666700  0.37258100  0.12258100  1
  Ni  Ni42  1  0.21075200  0.96075200  0.71075200  1
  Ni  Ni43  1  0.87741900  0.29408500  0.04408500  1
  Ni  Ni44  1  0.54408500  0.62741900  0.37741900  1
  Ni  Ni45  1  0.04408500  0.16666700  0.41666700  1
  Ni  Ni46  1  0.71075200  0.50000000  0.75000000  1
  Ni  Ni47  1  0.37741900  0.83333300  0.08333300  1
  Ni  Ni48  1  0.91666700  0.29408500  0.54408500  1
  Ni  Ni49  1  0.58333300  0.62741900  0.87741900  1
  Ni  Ni50  1  0.25000000  0.96075200  0.21075200  1
  Ni  Ni51  1  0.78924800  0.03924800  0.28924800  1
  Ni  Ni52  1  0.45591500  0.37258100  0.62258100  1
  Ni  Ni53  1  0.12258100  0.70591500  0.95591500  1
  C  C54  1  0.75000000  0.83333300  0.58333300  1
  C  C55  1  0.41666700  0.16666700  0.91666700  1
  C  C56  1  0.08333300  0.50000000  0.25000000  1
  C  C57  1  0.25000000  0.16666700  0.41666700  1
  C  C58  1  0.91666700  0.50000000  0.75000000  1
  C  C59  1  0.58333300  0.83333300  0.08333300  1
  Cu  Cu60  1  0.30612200  0.83333300  0.58333300  1
  Cu  Cu61  1  0.97278900  0.16666700  0.91666700  1
  Cu  Cu62  1  0.63945500  0.50000000  0.25000000  1
  Cu  Cu63  1  0.08333300  0.05612200  0.80612200  1
  Cu  Cu64  1  0.75000000  0.38945500  0.13945500  1
  Cu  Cu65  1  0.41666700  0.72278900  0.47278900  1
  Cu  Cu66  1  0.86054500  0.61054500  0.36054500  1
  Cu  Cu67  1  0.52721100  0.94387800  0.69387800  1
  Cu  Cu68  1  0.19387800  0.27721100  0.02721100  1
  Cu  Cu69  1  0.69387800  0.16666700  0.41666700  1
  Cu  Cu70  1  0.36054500  0.50000000  0.75000000  1
  Cu  Cu71  1  0.02721100  0.83333300  0.08333300  1
  Cu  Cu72  1  0.91666700  0.94387800  0.19387800  1
  Cu  Cu73  1  0.58333300  0.27721100  0.52721100  1
  Cu  Cu74  1  0.25000000  0.61054500  0.86054500  1
  Cu  Cu75  1  0.13945500  0.38945500  0.63945500  1
  Cu  Cu76  1  0.80612200  0.72278900  0.97278900  1
  Cu  Cu77  1  0.47278900  0.05612200  0.30612200  1
  Cu  Cu78  1  0.00000000  0.00000000  0.00000000  1
  Cu  Cu79  1  0.66666700  0.33333300  0.33333300  1
  Cu  Cu80  1  0.33333300  0.66666700  0.66666700  1
  Cu  Cu81  1  0.83333300  0.66666700  0.16666700  1
  Cu  Cu82  1  0.50000000  0.00000000  0.50000000  1
  Cu  Cu83  1  0.16666700  0.33333300  0.83333300  1
