# generated using pymatgen
data_Cu2NiC
_symmetry_space_group_name_H-M   'P 1'
_cell_length_a   6.18359400
_cell_length_b   7.77566500
_cell_length_c   7.16386700
_cell_angle_alpha   90.00000000
_cell_angle_beta   90.00000000
_cell_angle_gamma   90.00000000
_symmetry_Int_Tables_number   1
_chemical_formula_structural   Cu2NiC
_chemical_formula_sum   'Cu8 Ni4 C4'
_cell_volume   344.44986833
_cell_formula_units_Z   4
loop_
 _symmetry_equiv_pos_site_id
 _symmetry_equiv_pos_as_xyz
  1  'x, y, z'
loop_
 _atom_site_type_symbol
 _atom_site_label
 _atom_site_symmetry_multiplicity
 _atom_site_fract_x
 _atom_site_fract_y
 _atom_site_fract_z
 _atom_site_occupancy
  C  C0  1  0.75000000  0.86774100  0.35592100  1
  C  C1  1  0.25000000  0.13225900  0.64407900  1
  C  C2  1  0.25000000  0.63225900  0.85592100  1
  C  C3  1  0.75000000  0.36774100  0.14407900  1
  Ni  Ni4  1  0.75000000  0.88447700  0.85361600  1
  Ni  Ni5  1  0.25000000  0.11552300  0.14638400  1
  Ni  Ni6  1  0.25000000  0.61552300  0.35361600  1
  Ni  Ni7  1  0.75000000  0.38447700  0.64638400  1
  Cu  Cu8  1  0.95382300  0.88456500  0.73401100  1
  Cu  Cu9  1  0.04617700  0.11543500  0.26598900  1
  Cu  Cu10  1  0.04617700  0.61543500  0.23401100  1
  Cu  Cu11  1  0.45382300  0.11543500  0.26598900  1
  Cu  Cu12  1  0.95382300  0.38456500  0.76598900  1
  Cu  Cu13  1  0.54617700  0.88456500  0.73401100  1
  Cu  Cu14  1  0.54617700  0.38456500  0.76598900  1
  Cu  Cu15  1  0.45382300  0.61543500  0.23401100  1
