# generated using pymatgen
data_Cu3NiC17
_symmetry_space_group_name_H-M   'P 1'
_cell_length_a   7.70499000
_cell_length_b   11.27990610
_cell_length_c   11.40388795
_cell_angle_alpha   69.35669013
_cell_angle_beta   75.04289424
_cell_angle_gamma   84.42689110
_symmetry_Int_Tables_number   1
_chemical_formula_structural   Cu3NiC17
_chemical_formula_sum   'Cu12 Ni4 C68'
_cell_volume   896.04793694
_cell_formula_units_Z   4
loop_
 _symmetry_equiv_pos_site_id
 _symmetry_equiv_pos_as_xyz
  1  'x, y, z'
loop_
 _atom_site_type_symbol
 _atom_site_label
 _atom_site_symmetry_multiplicity
 _atom_site_fract_x
 _atom_site_fract_y
 _atom_site_fract_z
 _atom_site_occupancy
  C  C0  1  0.33349800  0.33335400  0.49953700  1
  C  C1  1  0.66680000  0.66691500  0.49925100  1
  C  C2  1  0.99934800  0.00019100  0.49965200  1
  C  C3  1  0.00034600  0.49983300  0.00043400  1
  C  C4  1  0.33388100  0.83335400  0.00004900  1
  C  C5  1  0.66700800  0.16647200  0.00044800  1
  C  C6  1  0.00027400  0.49984400  0.49944500  1
  C  C7  1  0.33378600  0.83319300  0.49951500  1
  C  C8  1  0.66668900  0.16682700  0.49948900  1
  C  C9  1  0.33295300  0.33350200  0.00044200  1
  C  C10  1  0.66632300  0.66680500  0.00049000  1
  C  C11  1  0.99986400  0.00042900  0.99995700  1
  Ni  Ni12  1  0.58646500  0.33647000  0.21887500  1
  Ni  Ni13  1  0.25268600  0.00278900  0.21900300  1
  Ni  Ni14  1  0.91950200  0.66960600  0.21890200  1
  Ni  Ni15  1  0.26783500  0.01788200  0.71880200  1
  C  C16  1  0.93476600  0.68519400  0.72042800  1
  C  C17  1  0.60217600  0.35171800  0.72040100  1
  C  C18  1  0.74855700  0.99865800  0.77978100  1
  C  C19  1  0.41522800  0.66563900  0.77987000  1
  C  C20  1  0.08213100  0.33159600  0.77994100  1
  C  C21  1  0.06498700  0.31481700  0.27930500  1
  C  C22  1  0.73135700  0.98163200  0.27925800  1
  C  C23  1  0.39825600  0.64817600  0.27908900  1
  Cu  Cu24  1  0.00362300  0.75346200  0.40640600  1
  Cu  Cu25  1  0.33682700  0.08681400  0.40714100  1
  Cu  Cu26  1  0.67017100  0.42017100  0.40641700  1
  Cu  Cu27  1  0.72475700  0.47453500  0.90846200  1
  Cu  Cu28  1  0.05814900  0.80827600  0.90797200  1
  Cu  Cu29  1  0.39110900  0.14122400  0.90783400  1
  Cu  Cu30  1  0.99822300  0.24596800  0.59285200  1
  Cu  Cu31  1  0.33022000  0.58029700  0.59240900  1
  Cu  Cu32  1  0.66201600  0.91409200  0.59284600  1
  Cu  Cu33  1  0.27470500  0.52464500  0.09338000  1
  Cu  Cu34  1  0.60783800  0.85796000  0.09337500  1
  Cu  Cu35  1  0.94107100  0.19126400  0.09343900  1
  C  C36  1  0.84756000  0.80059200  0.33476500  1
  C  C37  1  0.18038200  0.13354600  0.33584500  1
  C  C38  1  0.51403300  0.46729500  0.33485800  1
  C  C39  1  0.92880500  0.47480600  0.83709600  1
  C  C40  1  0.26211700  0.80912600  0.83589400  1
  C  C41  1  0.59542400  0.14221500  0.83671000  1
  C  C42  1  0.88248800  0.33426300  0.66459400  1
  C  C43  1  0.21426200  0.66840400  0.66408500  1
  C  C44  1  0.54645200  0.00252300  0.66465600  1
  C  C45  1  0.34330700  0.38829700  0.16457200  1
  C  C46  1  0.67594200  0.72162900  0.16494000  1
  C  C47  1  0.00909400  0.05492600  0.16501400  1
  C  C48  1  0.15482000  0.19826700  0.66445800  1
  C  C49  1  0.48614500  0.53263100  0.66442300  1
  C  C50  1  0.81846200  0.86620200  0.66432500  1
  C  C51  1  0.07011400  0.52449100  0.16497500  1
  C  C52  1  0.40328800  0.85836700  0.16455300  1
  C  C53  1  0.73650000  0.19171000  0.16462600  1
  C  C54  1  0.11878500  0.66507100  0.33498300  1
  C  C55  1  0.45131300  0.99809000  0.33590500  1
  C  C56  1  0.78515400  0.33175800  0.33489500  1
  C  C57  1  0.65774100  0.61077100  0.83674800  1
  C  C58  1  0.99115500  0.94443900  0.83598100  1
  C  C59  1  0.32381400  0.27762600  0.83692600  1
  C  C60  1  0.77897700  0.52887000  0.40352500  1
  C  C61  1  0.11224000  0.86229700  0.40359800  1
  C  C62  1  0.44575900  0.19572600  0.40359100  1
  C  C63  1  0.61775800  0.36791100  0.90610300  1
  C  C64  1  0.95132800  0.70128700  0.90594600  1
  C  C65  1  0.28502800  0.03494700  0.90388900  1
  C  C66  1  0.22209500  0.47196200  0.59434300  1
  C  C67  1  0.55459100  0.80560500  0.59447800  1
  C  C68  1  0.88917400  0.13836000  0.59446200  1
  C  C69  1  0.38166500  0.63188600  0.09414400  1
  C  C70  1  0.71516800  0.96519500  0.09427600  1
  C  C71  1  0.04869300  0.29835400  0.09433900  1
  C  C72  1  0.05381500  0.80385600  0.04682500  1
  C  C73  1  0.38631500  0.13642900  0.04698400  1
  C  C74  1  0.72035900  0.47042500  0.04721400  1
  C  C75  1  0.91526800  0.66514200  0.54511200  1
  C  C76  1  0.24876100  0.99874400  0.54650700  1
  C  C77  1  0.58185600  0.33194800  0.54516100  1
  C  C78  1  0.94475200  0.19466400  0.95515000  1
  C  C79  1  0.27798500  0.52827300  0.95496300  1
  C  C80  1  0.61179300  0.86135900  0.95503400  1
  C  C81  1  0.08611000  0.33491500  0.45464000  1
  C  C82  1  0.41884200  0.66879700  0.45437800  1
  C  C83  1  0.75108700  0.00239900  0.45461400  1
