# generated using pymatgen
data_Cu15(NiC)2
_symmetry_space_group_name_H-M   'P 1'
_cell_length_a   8.32194408
_cell_length_b   8.32194408
_cell_length_c   8.37400700
_cell_angle_alpha   90.00000000
_cell_angle_beta   90.00000000
_cell_angle_gamma   120.00000060
_symmetry_Int_Tables_number   1
_chemical_formula_structural   Cu15(NiC)2
_chemical_formula_sum   'Cu30 Ni4 C4'
_cell_volume   502.24258607
_cell_formula_units_Z   2
loop_
 _symmetry_equiv_pos_site_id
 _symmetry_equiv_pos_as_xyz
  1  'x, y, z'
loop_
 _atom_site_type_symbol
 _atom_site_label
 _atom_site_symmetry_multiplicity
 _atom_site_fract_x
 _atom_site_fract_y
 _atom_site_fract_z
 _atom_site_occupancy
  C  C0  1  0.00000000  0.00000000  0.25000000  1
  C  C1  1  0.00000000  0.00000000  0.75000000  1
  C  C2  1  0.33333300  0.66666700  0.75000000  1
  C  C3  1  0.66666700  0.33333300  0.25000000  1
  Ni  Ni4  1  0.33333300  0.66666700  0.39977800  1
  Ni  Ni5  1  0.66666700  0.33333300  0.60022200  1
  Ni  Ni6  1  0.66666700  0.33333300  0.89977800  1
  Ni  Ni7  1  0.33333300  0.66666700  0.10022200  1
  Cu  Cu8  1  0.50000000  0.50000000  0.50000000  1
  Cu  Cu9  1  0.50000000  0.00000000  0.50000000  1
  Cu  Cu10  1  0.00000000  0.50000000  0.50000000  1
  Cu  Cu11  1  0.50000000  0.50000000  0.00000000  1
  Cu  Cu12  1  0.50000000  0.00000000  0.00000000  1
  Cu  Cu13  1  0.00000000  0.50000000  0.00000000  1
  Cu  Cu14  1  0.33057200  0.36183700  0.25000000  1
  Cu  Cu15  1  0.63816300  0.96873500  0.25000000  1
  Cu  Cu16  1  0.03126500  0.66942800  0.25000000  1
  Cu  Cu17  1  0.63816300  0.66942800  0.25000000  1
  Cu  Cu18  1  0.03126500  0.36183700  0.25000000  1
  Cu  Cu19  1  0.33057200  0.96873500  0.25000000  1
  Cu  Cu20  1  0.66942800  0.63816300  0.75000000  1
  Cu  Cu21  1  0.36183700  0.03126500  0.75000000  1
  Cu  Cu22  1  0.96873500  0.33057200  0.75000000  1
  Cu  Cu23  1  0.36183700  0.33057200  0.75000000  1
  Cu  Cu24  1  0.96873500  0.63816300  0.75000000  1
  Cu  Cu25  1  0.66942800  0.03126500  0.75000000  1
  Cu  Cu26  1  0.16538700  0.83461300  0.51208100  1
  Cu  Cu27  1  0.16538700  0.33077400  0.51208100  1
  Cu  Cu28  1  0.66922600  0.83461300  0.51208100  1
  Cu  Cu29  1  0.83461300  0.16538700  0.48791900  1
  Cu  Cu30  1  0.83461300  0.66922600  0.48791900  1
  Cu  Cu31  1  0.33077400  0.16538700  0.48791900  1
  Cu  Cu32  1  0.83461300  0.16538700  0.01208100  1
  Cu  Cu33  1  0.83461300  0.66922600  0.01208100  1
  Cu  Cu34  1  0.33077400  0.16538700  0.01208100  1
  Cu  Cu35  1  0.16538700  0.83461300  0.98791900  1
  Cu  Cu36  1  0.16538700  0.33077400  0.98791900  1
  Cu  Cu37  1  0.66922600  0.83461300  0.98791900  1
