# generated using pymatgen
data_Cu(NiC12)3
_symmetry_space_group_name_H-M   'P 1'
_cell_length_a   8.45784200
_cell_length_b   8.52375480
_cell_length_c   8.53728993
_cell_angle_alpha   63.64909055
_cell_angle_beta   64.15979281
_cell_angle_gamma   64.18455288
_symmetry_Int_Tables_number   1
_chemical_formula_structural   Cu(NiC12)3
_chemical_formula_sum   'Cu1 Ni3 C36'
_cell_volume   473.50244672
_cell_formula_units_Z   1
loop_
 _symmetry_equiv_pos_site_id
 _symmetry_equiv_pos_as_xyz
  1  'x, y, z'
loop_
 _atom_site_type_symbol
 _atom_site_label
 _atom_site_symmetry_multiplicity
 _atom_site_fract_x
 _atom_site_fract_y
 _atom_site_fract_z
 _atom_site_occupancy
  C  C0  1  0.75268200  0.14474900  0.35246900  1
  C  C1  1  0.26538700  0.85815000  0.65187200  1
  C  C2  1  0.64570700  0.26331000  0.86333700  1
  C  C3  1  0.86500400  0.64532400  0.26527800  1
  Ni  Ni4  1  0.34801500  0.34828700  0.34486900  1
  Ni  Ni5  1  0.15145000  0.15292400  0.15057300  1
  Ni  Ni6  1  0.65589000  0.65825600  0.66051200  1
  C  C7  1  0.00921000  0.00276500  0.99948800  1
  C  C8  1  0.49207600  0.50230400  0.50074700  1
  Cu  Cu9  1  0.85337000  0.84952700  0.85306600  1
  C  C10  1  0.05913300  0.74603700  0.44665000  1
  C  C11  1  0.44272500  0.05834500  0.75016000  1
  C  C12  1  0.74718200  0.44387200  0.05811800  1
  C  C13  1  0.24442800  0.55753900  0.93966100  1
  C  C14  1  0.56813700  0.94196100  0.24800600  1
  C  C15  1  0.92887800  0.24249000  0.55359900  1
  C  C16  1  0.46470500  0.91354800  0.67442500  1
  C  C17  1  0.67232900  0.46522000  0.91303300  1
  C  C18  1  0.91616100  0.66354300  0.47300400  1
  C  C19  1  0.06564500  0.90256100  0.26160200  1
  C  C20  1  0.00903500  0.81006000  0.61074300  1
  C  C21  1  0.25736900  0.60154700  0.43668700  1
  C  C22  1  0.25403000  0.08054600  0.89709900  1
  C  C23  1  0.45039000  0.24870100  0.59285100  1
  C  C24  1  0.17019700  0.40929000  0.97679000  1
  C  C25  1  0.60422800  0.42879000  0.25698900  1
  C  C26  1  0.09649700  0.75854800  0.91110200  1
  C  C27  1  0.40555300  0.00175300  0.18345200  1
  C  C28  1  0.60778700  0.00402500  0.81808800  1
  C  C29  1  0.89299600  0.25047500  0.08286900  1
  C  C30  1  0.39446900  0.58029700  0.74184500  1
  C  C31  1  0.81161300  0.60792000  0.00926200  1
  C  C32  1  0.57905400  0.74347000  0.39662700  1
  C  C33  1  0.76339300  0.90800500  0.09480400  1
  C  C34  1  0.73390400  0.39695100  0.58204300  1
  C  C35  1  0.94080000  0.17553200  0.41023300  1
  C  C36  1  0.91152200  0.09496300  0.75383400  1
  C  C37  1  0.09446500  0.30060400  0.50403000  1
  C  C38  1  0.30969300  0.52862200  0.09243800  1
  C  C39  1  0.56488900  0.08618900  0.31074900  1
