# generated using pymatgen
data_Cu6NiC2
_symmetry_space_group_name_H-M   'P 1'
_cell_length_a   7.40038800
_cell_length_b   7.01750300
_cell_length_c   11.81772735
_cell_angle_alpha   60.20608289
_cell_angle_beta   90.00000000
_cell_angle_gamma   90.00000000
_symmetry_Int_Tables_number   1
_chemical_formula_structural   Cu6NiC2
_chemical_formula_sum   'Cu24 Ni4 C8'
_cell_volume   532.59835709
_cell_formula_units_Z   4
loop_
 _symmetry_equiv_pos_site_id
 _symmetry_equiv_pos_as_xyz
  1  'x, y, z'
loop_
 _atom_site_type_symbol
 _atom_site_label
 _atom_site_symmetry_multiplicity
 _atom_site_fract_x
 _atom_site_fract_y
 _atom_site_fract_z
 _atom_site_occupancy
  C  C0  1  0.02776200  0.15483600  0.82392500  1
  C  C1  1  0.47223800  0.15483600  0.32392500  1
  C  C2  1  0.97223800  0.84516400  0.17607500  1
  C  C3  1  0.52776200  0.84516400  0.67607500  1
  C  C4  1  0.16506200  0.31694200  0.49582200  1
  C  C5  1  0.33493800  0.31694200  0.99582200  1
  C  C6  1  0.83493800  0.68305800  0.50417800  1
  C  C7  1  0.66506200  0.68305800  0.00417800  1
  Ni  Ni8  1  0.50309400  0.69316000  0.27972100  1
  Ni  Ni9  1  0.99690600  0.69316000  0.77972100  1
  Ni  Ni10  1  0.49690600  0.30684000  0.72027900  1
  Ni  Ni11  1  0.00309400  0.30684000  0.22027900  1
  Cu  Cu12  1  0.43980000  0.46082700  0.36265100  1
  Cu  Cu13  1  0.06020000  0.46082700  0.86265100  1
  Cu  Cu14  1  0.56020000  0.53917300  0.63734900  1
  Cu  Cu15  1  0.93980000  0.53917300  0.13734900  1
  Cu  Cu16  1  0.48357600  0.76266200  0.13958200  1
  Cu  Cu17  1  0.01642400  0.76266200  0.63958200  1
  Cu  Cu18  1  0.51642400  0.23733800  0.86041800  1
  Cu  Cu19  1  0.98357600  0.23733800  0.36041800  1
  Cu  Cu20  1  0.69859500  0.70613400  0.31014100  1
  Cu  Cu21  1  0.80140500  0.70613400  0.81014100  1
  Cu  Cu22  1  0.30140500  0.29386600  0.68985900  1
  Cu  Cu23  1  0.19859500  0.29386600  0.18985900  1
  Cu  Cu24  1  0.39246200  0.83671800  0.31215800  1
  Cu  Cu25  1  0.10753800  0.83671800  0.81215800  1
  Cu  Cu26  1  0.60753800  0.16328200  0.68784200  1
  Cu  Cu27  1  0.89246200  0.16328200  0.18784200  1
  Cu  Cu28  1  0.17215600  0.03470500  0.01802400  1
  Cu  Cu29  1  0.32784400  0.03470500  0.51802400  1
  Cu  Cu30  1  0.82784400  0.96529500  0.98197600  1
  Cu  Cu31  1  0.67215600  0.96529500  0.48197600  1
  Cu  Cu32  1  0.93705500  0.33584100  0.61876200  1
  Cu  Cu33  1  0.56294500  0.33584100  0.11876200  1
  Cu  Cu34  1  0.06294500  0.66415900  0.38123800  1
  Cu  Cu35  1  0.43705500  0.66415900  0.88123800  1
