# generated using pymatgen
data_CuNiC5
_symmetry_space_group_name_H-M   'P 1'
_cell_length_a   10.57056000
_cell_length_b   5.24093900
_cell_length_c   9.06618441
_cell_angle_alpha   55.11533262
_cell_angle_beta   90.00000000
_cell_angle_gamma   90.00000000
_symmetry_Int_Tables_number   1
_chemical_formula_structural   CuNiC5
_chemical_formula_sum   'Cu4 Ni4 C20'
_cell_volume   412.00926697
_cell_formula_units_Z   4
loop_
 _symmetry_equiv_pos_site_id
 _symmetry_equiv_pos_as_xyz
  1  'x, y, z'
loop_
 _atom_site_type_symbol
 _atom_site_label
 _atom_site_symmetry_multiplicity
 _atom_site_fract_x
 _atom_site_fract_y
 _atom_site_fract_z
 _atom_site_occupancy
  Ni  Ni0  1  0.34080500  0.33472300  0.97464900  1
  Ni  Ni1  1  0.15919500  0.33472300  0.47464900  1
  Ni  Ni2  1  0.65919500  0.66527700  0.02535100  1
  Ni  Ni3  1  0.84080500  0.66527700  0.52535100  1
  Cu  Cu4  1  0.39205100  0.81937800  0.47874800  1
  Cu  Cu5  1  0.10794900  0.81937800  0.97874800  1
  Cu  Cu6  1  0.60794900  0.18062200  0.52125200  1
  Cu  Cu7  1  0.89205100  0.18062200  0.02125200  1
  C  C8  1  0.39524800  0.60089500  0.20862300  1
  C  C9  1  0.10475200  0.60089500  0.70862300  1
  C  C10  1  0.60475200  0.39910500  0.79137700  1
  C  C11  1  0.89524800  0.39910500  0.29137700  1
  C  C12  1  0.37818400  0.91442200  0.18895100  1
  C  C13  1  0.12181600  0.91442200  0.68895100  1
  C  C14  1  0.62181600  0.08557800  0.81104900  1
  C  C15  1  0.87818400  0.08557800  0.31104900  1
  C  C16  1  0.53835400  0.51275000  0.22564300  1
  C  C17  1  0.96164600  0.51275000  0.72564300  1
  C  C18  1  0.46164600  0.48725000  0.77435700  1
  C  C19  1  0.03835400  0.48725000  0.27435700  1
  C  C20  1  0.33592900  0.63116500  0.04329900  1
  C  C21  1  0.16407100  0.63116500  0.54329900  1
  C  C22  1  0.66407100  0.36883500  0.95670100  1
  C  C23  1  0.83592900  0.36883500  0.45670100  1
  C  C24  1  0.33207400  0.33806900  0.38896600  1
  C  C25  1  0.16792600  0.33806900  0.88896600  1
  C  C26  1  0.66792600  0.66193100  0.61103400  1
  C  C27  1  0.83207400  0.66193100  0.11103400  1
