# generated using pymatgen
data_CuNiC5
_symmetry_space_group_name_H-M   'P 1'
_cell_length_a   3.55770400
_cell_length_b   11.16354700
_cell_length_c   12.80744600
_cell_angle_alpha   90.00000000
_cell_angle_beta   90.00000000
_cell_angle_gamma   90.00000000
_symmetry_Int_Tables_number   1
_chemical_formula_structural   CuNiC5
_chemical_formula_sum   'Cu4 Ni4 C20'
_cell_volume   508.66815622
_cell_formula_units_Z   4
loop_
 _symmetry_equiv_pos_site_id
 _symmetry_equiv_pos_as_xyz
  1  'x, y, z'
loop_
 _atom_site_type_symbol
 _atom_site_label
 _atom_site_symmetry_multiplicity
 _atom_site_fract_x
 _atom_site_fract_y
 _atom_site_fract_z
 _atom_site_occupancy
  C  C0  1  0.50000000  0.94034200  0.86732000  1
  C  C1  1  0.50000000  0.44034200  0.13268000  1
  C  C2  1  0.50000000  0.91064100  0.33871000  1
  C  C3  1  0.50000000  0.41064100  0.66129000  1
  Ni  Ni4  1  0.00000000  0.05601300  0.63693900  1
  Ni  Ni5  1  0.00000000  0.55601300  0.36306100  1
  Ni  Ni6  1  0.00000000  0.08622600  0.15749200  1
  Ni  Ni7  1  0.00000000  0.58622600  0.84250800  1
  Cu  Cu8  1  0.50000000  0.75365100  0.09205500  1
  Cu  Cu9  1  0.00000000  0.24780400  0.40491100  1
  Cu  Cu10  1  0.00000000  0.74780400  0.59508900  1
  Cu  Cu11  1  0.50000000  0.25365100  0.90794500  1
  C  C12  1  0.00000000  0.96973300  0.46624700  1
  C  C13  1  0.50000000  0.04163100  0.04257300  1
  C  C14  1  0.50000000  0.54163100  0.95742700  1
  C  C15  1  0.00000000  0.46973300  0.53375300  1
  C  C16  1  0.50000000  0.90816800  0.66950000  1
  C  C17  1  0.00000000  0.09937700  0.81939600  1
  C  C18  1  0.00000000  0.59937700  0.18060400  1
  C  C19  1  0.50000000  0.40816800  0.33050000  1
  C  C20  1  0.00000000  0.87505700  0.19616700  1
  C  C21  1  0.50000000  0.13268400  0.28143200  1
  C  C22  1  0.50000000  0.63268400  0.71856800  1
  C  C23  1  0.00000000  0.37505700  0.80383300  1
  C  C24  1  0.00000000  0.78533300  0.92651500  1
  C  C25  1  0.50000000  0.19334100  0.58543600  1
  C  C26  1  0.50000000  0.69334100  0.41456400  1
  C  C27  1  0.00000000  0.28533300  0.07348500  1
