# generated using pymatgen
data_Cu(Ni7C5)2
_symmetry_space_group_name_H-M   'P 1'
_cell_length_a   13.23880976
_cell_length_b   13.23880976
_cell_length_c   9.64891877
_cell_angle_alpha   71.06116451
_cell_angle_beta   71.06116451
_cell_angle_gamma   75.68213883
_symmetry_Int_Tables_number   1
_chemical_formula_structural   Cu(Ni7C5)2
_chemical_formula_sum   'Cu2 Ni28 C20'
_cell_volume   1493.81877747
_cell_formula_units_Z   2
loop_
 _symmetry_equiv_pos_site_id
 _symmetry_equiv_pos_as_xyz
  1  'x, y, z'
loop_
 _atom_site_type_symbol
 _atom_site_label
 _atom_site_symmetry_multiplicity
 _atom_site_fract_x
 _atom_site_fract_y
 _atom_site_fract_z
 _atom_site_occupancy
  C  C0  1  0.55677200  0.44401800  0.25180500  1
  C  C1  1  0.44401800  0.55677200  0.75180500  1
  C  C2  1  0.94893900  0.04880900  0.03664300  1
  C  C3  1  0.04880900  0.94893900  0.53664300  1
  C  C4  1  0.93843800  0.69668700  0.43104200  1
  C  C5  1  0.69668700  0.93843800  0.93104200  1
  C  C6  1  0.05246200  0.32240000  0.56512500  1
  C  C7  1  0.32240000  0.05246200  0.06512500  1
  C  C8  1  0.83481100  0.48328000  0.68800200  1
  C  C9  1  0.48328000  0.83481100  0.18800200  1
  C  C10  1  0.17122000  0.53103000  0.28815100  1
  C  C11  1  0.53103000  0.17122000  0.78815100  1
  C  C12  1  0.09574500  0.52548700  0.66572200  1
  C  C13  1  0.52548700  0.09574500  0.16572200  1
  C  C14  1  0.91041400  0.49268000  0.31609800  1
  C  C15  1  0.49268000  0.91041400  0.81609800  1
  C  C16  1  0.17315600  0.75528400  0.78136700  1
  C  C17  1  0.75528400  0.17315600  0.28136700  1
  C  C18  1  0.25794400  0.83297500  0.71575300  1
  C  C19  1  0.83297500  0.25794400  0.21575300  1
  Ni  Ni20  1  0.00835400  0.68497900  0.16161000  1
  Ni  Ni21  1  0.68497900  0.00835400  0.66161000  1
  Ni  Ni22  1  0.98087500  0.36625100  0.82700600  1
  Ni  Ni23  1  0.36625100  0.98087500  0.32700600  1
  Ni  Ni24  1  0.86025900  0.65472600  0.72046400  1
  Ni  Ni25  1  0.65472600  0.86025900  0.22046400  1
  Ni  Ni26  1  0.09647700  0.36269500  0.27531200  1
  Ni  Ni27  1  0.36269500  0.09647700  0.77531200  1
  Ni  Ni28  1  0.74319900  0.58545300  0.48248400  1
  Ni  Ni29  1  0.58545300  0.74319900  0.98248400  1
  Ni  Ni30  1  0.23489300  0.34830100  0.54160400  1
  Ni  Ni31  1  0.34830100  0.23489300  0.04160400  1
  Ni  Ni32  1  0.18100800  0.66134500  0.43026500  1
  Ni  Ni33  1  0.66134500  0.18100800  0.93026500  1
  Ni  Ni34  1  0.85559900  0.31241800  0.61132600  1
  Ni  Ni35  1  0.31241800  0.85559900  0.11132600  1
  Ni  Ni36  1  0.90418700  0.89507400  0.37051900  1
  Ni  Ni37  1  0.89507400  0.90418700  0.87051900  1
  Ni  Ni38  1  0.09276200  0.12685600  0.65598300  1
  Ni  Ni39  1  0.12685600  0.09276200  0.15598300  1
  Ni  Ni40  1  0.66598100  0.46300700  0.88420700  1
  Ni  Ni41  1  0.46300700  0.66598100  0.38420700  1
  Ni  Ni42  1  0.35464800  0.53390200  0.11074800  1
  Ni  Ni43  1  0.53390200  0.35464800  0.61074800  1
  Ni  Ni44  1  0.81666100  0.44677000  0.16795200  1
  Ni  Ni45  1  0.44677000  0.81666100  0.66795200  1
  Ni  Ni46  1  0.18202600  0.55436200  0.83725500  1
  Ni  Ni47  1  0.55436200  0.18202600  0.33725500  1
  Cu  Cu48  1  0.18211300  0.83026800  0.72655700  1
  Cu  Cu49  1  0.83026800  0.18211300  0.22655700  1
