# generated using pymatgen
data_Cu2NiC2
_symmetry_space_group_name_H-M   'P 1'
_cell_length_a   7.09801900
_cell_length_b   8.27911500
_cell_length_c   8.27911500
_cell_angle_alpha   90.00000000
_cell_angle_beta   90.00000000
_cell_angle_gamma   90.00000000
_symmetry_Int_Tables_number   1
_chemical_formula_structural   Cu2NiC2
_chemical_formula_sum   'Cu8 Ni4 C8'
_cell_volume   486.52480564
_cell_formula_units_Z   4
loop_
 _symmetry_equiv_pos_site_id
 _symmetry_equiv_pos_as_xyz
  1  'x, y, z'
loop_
 _atom_site_type_symbol
 _atom_site_label
 _atom_site_symmetry_multiplicity
 _atom_site_fract_x
 _atom_site_fract_y
 _atom_site_fract_z
 _atom_site_occupancy
  C  C0  1  0.24991800  0.34488100  0.34488100  1
  C  C1  1  0.75008200  0.65511900  0.65511900  1
  C  C2  1  0.24991800  0.65511900  0.65511900  1
  C  C3  1  0.74991800  0.15511900  0.84488100  1
  C  C4  1  0.25008200  0.15511900  0.84488100  1
  C  C5  1  0.75008200  0.34488100  0.34488100  1
  C  C6  1  0.25008200  0.84488100  0.15511900  1
  C  C7  1  0.74991800  0.84488100  0.15511900  1
  Ni  Ni8  1  0.25000000  0.00000000  0.50000000  1
  Ni  Ni9  1  0.75000000  0.00000000  0.50000000  1
  Ni  Ni10  1  0.25000000  0.50000000  0.00000000  1
  Ni  Ni11  1  0.75000000  0.50000000  0.00000000  1
  Cu  Cu12  1  0.00000000  0.13581800  0.13581800  1
  Cu  Cu13  1  0.00000000  0.86418200  0.86418200  1
  Cu  Cu14  1  0.50000000  0.36418200  0.63581800  1
  Cu  Cu15  1  0.50000000  0.63581800  0.36418200  1
  Cu  Cu16  1  0.00000000  0.36320400  0.63679600  1
  Cu  Cu17  1  0.00000000  0.63679600  0.36320400  1
  Cu  Cu18  1  0.50000000  0.86320400  0.86320400  1
  Cu  Cu19  1  0.50000000  0.13679600  0.13679600  1
