# generated using pymatgen
data_Cu5Ni2C25
_symmetry_space_group_name_H-M   'P 1'
_cell_length_a   5.06835900
_cell_length_b   5.83318700
_cell_length_c   9.83343432
_cell_angle_alpha   98.37548907
_cell_angle_beta   95.60907445
_cell_angle_gamma   89.30430302
_symmetry_Int_Tables_number   1
_chemical_formula_structural   Cu5Ni2C25
_chemical_formula_sum   'Cu5 Ni2 C25'
_cell_volume   286.24396463
_cell_formula_units_Z   1
loop_
 _symmetry_equiv_pos_site_id
 _symmetry_equiv_pos_as_xyz
  1  'x, y, z'
loop_
 _atom_site_type_symbol
 _atom_site_label
 _atom_site_symmetry_multiplicity
 _atom_site_fract_x
 _atom_site_fract_y
 _atom_site_fract_z
 _atom_site_occupancy
  C  C0  1  0.12236400  0.18792000  0.75220600  1
  C  C1  1  0.37216100  0.05643500  0.24567500  1
  C  C2  1  0.62753200  0.93605800  0.75492800  1
  C  C3  1  0.62029700  0.44373600  0.75884100  1
  C  C4  1  0.88498300  0.31171500  0.24619700  1
  C  C5  1  0.12768000  0.68946700  0.75344400  1
  C  C6  1  0.37439600  0.56657800  0.24314700  1
  C  C7  1  0.86527900  0.80880600  0.24471000  1
  C  C8  1  0.49950000  0.75053500  0.00041400  1
  Ni  Ni9  1  0.00118100  0.99864200  0.99891400  1
  Ni  Ni10  1  0.24910700  0.37374600  0.50124400  1
  Cu  Cu11  1  0.26226600  0.86794500  0.49673400  1
  Cu  Cu12  1  0.74313800  0.62957000  0.49916800  1
  Cu  Cu13  1  0.99698600  0.50782400  0.00062900  1
  Cu  Cu14  1  0.50065100  0.24956100  0.00062500  1
  Cu  Cu15  1  0.75738100  0.12226400  0.50196900  1
  C  C16  1  0.81661700  0.21224900  0.88339600  1
  C  C17  1  0.07176100  0.10915500  0.38661900  1
  C  C18  1  0.30281400  0.98666800  0.89085700  1
  C  C19  1  0.31028400  0.45207400  0.89303000  1
  C  C20  1  0.55240700  0.33776000  0.39094700  1
  C  C21  1  0.83611500  0.73361800  0.88276200  1
  C  C22  1  0.07847200  0.58305200  0.38387400  1
  C  C23  1  0.55808100  0.84929800  0.37796700  1
  C  C24  1  0.43121800  0.16169500  0.61508300  1
  C  C25  1  0.69611500  0.04449300  0.10799000  1
  C  C26  1  0.93208000  0.91431900  0.61359500  1
  C  C27  1  0.95531100  0.40440700  0.61379500  1
  C  C28  1  0.18139800  0.26622500  0.11452300  1
  C  C29  1  0.41994800  0.64391500  0.61880900  1
  C  C30  1  0.69108200  0.50957300  0.11097800  1
  C  C31  1  0.16139300  0.79069700  0.11693100  1
