# generated using pymatgen
data_Cu2NiC11
_symmetry_space_group_name_H-M   'P 1'
_cell_length_a   2.98375410
_cell_length_b   2.98375410
_cell_length_c   34.26570132
_cell_angle_alpha   86.71075525
_cell_angle_beta   86.71075525
_cell_angle_gamma   57.53648356
_symmetry_Int_Tables_number   1
_chemical_formula_structural   Cu2NiC11
_chemical_formula_sum   'Cu4 Ni2 C22'
_cell_volume   256.83758415
_cell_formula_units_Z   2
loop_
 _symmetry_equiv_pos_site_id
 _symmetry_equiv_pos_as_xyz
  1  'x, y, z'
loop_
 _atom_site_type_symbol
 _atom_site_label
 _atom_site_symmetry_multiplicity
 _atom_site_fract_x
 _atom_site_fract_y
 _atom_site_fract_z
 _atom_site_occupancy
  C  C0  1  0.72957200  0.72957200  0.92252600  1
  C  C1  1  0.13451400  0.13451400  0.78665500  1
  C  C2  1  0.56729400  0.56729400  0.64482800  1
  C  C3  1  0.00377300  0.00377300  0.49839400  1
  C  C4  1  0.42812100  0.42812100  0.35689400  1
  C  C5  1  0.85751700  0.85751700  0.21542300  1
  C  C6  1  0.28187800  0.28187800  0.07309000  1
  C  C7  1  0.42378600  0.42378600  0.85882200  1
  Ni  Ni8  1  0.00184600  0.00184600  0.00081400  1
  Ni  Ni9  1  0.28431800  0.28431800  0.57110100  1
  Cu  Cu10  1  0.85649500  0.85649500  0.71403600  1
  Cu  Cu11  1  0.71472400  0.71472400  0.42780100  1
  Cu  Cu12  1  0.14399800  0.14399800  0.28580600  1
  Cu  Cu13  1  0.57123400  0.57123400  0.14376800  1
  C  C14  1  0.36861500  0.36861500  0.97020600  1
  C  C15  1  0.78616200  0.78616200  0.82045300  1
  C  C16  1  0.21360500  0.21360500  0.68094400  1
  C  C17  1  0.66715200  0.66715200  0.53743200  1
  C  C18  1  0.09115600  0.09115600  0.39618700  1
  C  C19  1  0.52167000  0.52167000  0.25408400  1
  C  C20  1  0.90828000  0.90828000  0.11118100  1
  C  C21  1  0.07134600  0.07134600  0.89368300  1
  C  C22  1  0.50184600  0.50184600  0.74495700  1
  C  C23  1  0.90418700  0.90418700  0.60397500  1
  C  C24  1  0.33842200  0.33842200  0.45944500  1
  C  C25  1  0.76666000  0.76666000  0.31742000  1
  C  C26  1  0.23630700  0.23630700  0.17595400  1
  C  C27  1  0.62552200  0.62552200  0.03412200  1
