# generated using pymatgen
data_CuNi3C8
_symmetry_space_group_name_H-M   'P 1'
_cell_length_a   6.42107762
_cell_length_b   6.42107762
_cell_length_c   6.42107762
_cell_angle_alpha   133.20469476
_cell_angle_beta   133.20469476
_cell_angle_gamma   68.33286960
_symmetry_Int_Tables_number   1
_chemical_formula_structural   CuNi3C8
_chemical_formula_sum   'Cu1 Ni3 C8'
_cell_volume   138.17410153
_cell_formula_units_Z   1
loop_
 _symmetry_equiv_pos_site_id
 _symmetry_equiv_pos_as_xyz
  1  'x, y, z'
loop_
 _atom_site_type_symbol
 _atom_site_label
 _atom_site_symmetry_multiplicity
 _atom_site_fract_x
 _atom_site_fract_y
 _atom_site_fract_z
 _atom_site_occupancy
  Ni  Ni0  1  0.25000000  0.75000000  0.50000000  1
  Ni  Ni1  1  0.75000000  0.25000000  0.50000000  1
  Ni  Ni2  1  0.50000000  0.50000000  0.00000000  1
  Cu  Cu3  1  0.00000000  0.00000000  0.00000000  1
  C  C4  1  0.55025900  0.13411300  0.00000000  1
  C  C5  1  0.13411300  0.55025800  0.00000000  1
  C  C6  1  0.86588700  0.86588700  0.41614600  1
  C  C7  1  0.44974200  0.44974200  0.58385400  1
  C  C8  1  0.31284900  0.86716600  0.00000000  1
  C  C9  1  0.86716600  0.31284900  0.00000000  1
  C  C10  1  0.13283400  0.13283400  0.44568300  1
  C  C11  1  0.68715100  0.68715100  0.55431700  1
