# generated using pymatgen
data_CuNiC8
_symmetry_space_group_name_H-M   'P 1'
_cell_length_a   8.36450251
_cell_length_b   8.36963948
_cell_length_c   8.38169128
_cell_angle_alpha   90.00000000
_cell_angle_beta   90.00000000
_cell_angle_gamma   90.00000000
_symmetry_Int_Tables_number   1
_chemical_formula_structural   CuNiC8
_chemical_formula_sum   'Cu4 Ni4 C32'
_cell_volume   586.78435718
_cell_formula_units_Z   4
loop_
 _symmetry_equiv_pos_site_id
 _symmetry_equiv_pos_as_xyz
  1  'x, y, z'
loop_
 _atom_site_type_symbol
 _atom_site_label
 _atom_site_symmetry_multiplicity
 _atom_site_fract_x
 _atom_site_fract_y
 _atom_site_fract_z
 _atom_site_occupancy
  Ni  Ni0  1  -0.00000000  0.50000000  0.50000000  1
  Ni  Ni1  1  0.50000000  0.50000000  -0.00000000  1
  Ni  Ni2  1  0.50000000  -0.00000000  -0.00000000  1
  Ni  Ni3  1  -0.00000000  -0.00000000  0.50000000  1
  Cu  Cu4  1  0.50000000  -0.00000000  0.50000000  1
  Cu  Cu5  1  -0.00000000  0.50000000  -0.00000000  1
  Cu  Cu6  1  -0.00000000  -0.00000000  -0.00000000  1
  Cu  Cu7  1  0.50000000  0.50000000  0.50000000  1
  C  C8  1  0.75000000  0.75000000  0.75000000  1
  C  C9  1  0.25000000  0.25000000  0.75000000  1
  C  C10  1  0.25000000  0.75000000  0.25000000  1
  C  C11  1  0.75000000  0.25000000  0.25000000  1
  C  C12  1  0.25000000  0.25000000  0.25000000  1
  C  C13  1  0.75000000  0.75000000  0.25000000  1
  C  C14  1  0.75000000  0.25000000  0.75000000  1
  C  C15  1  0.25000000  0.75000000  0.75000000  1
  C  C16  1  0.01378460  0.21264466  0.27986677  1
  C  C17  1  0.98621540  0.78735534  0.27986677  1
  C  C18  1  0.98621540  0.21264466  0.72013323  1
  C  C19  1  0.01378460  0.78735534  0.72013323  1
  C  C20  1  0.27977263  0.01381562  0.21274274  1
  C  C21  1  0.27977263  0.98618438  0.78725726  1
  C  C22  1  0.72022737  0.98618438  0.21274274  1
  C  C23  1  0.72022737  0.01381562  0.78725726  1
  C  C24  1  0.20980509  0.28179212  0.01429837  1
  C  C25  1  0.79019491  0.28179212  0.98570163  1
  C  C26  1  0.20980509  0.71820788  0.98570163  1
  C  C27  1  0.79019491  0.71820788  0.01429837  1
  C  C28  1  0.48621540  0.28735534  0.22013323  1
  C  C29  1  0.51378460  0.71264466  0.22013323  1
  C  C30  1  0.51378460  0.28735534  0.77986677  1
  C  C31  1  0.48621540  0.71264466  0.77986677  1
  C  C32  1  0.22022737  0.48618438  0.28725726  1
  C  C33  1  0.22022737  0.51381562  0.71274274  1
  C  C34  1  0.77977263  0.51381562  0.28725726  1
  C  C35  1  0.77977263  0.48618438  0.71274274  1
  C  C36  1  0.29019491  0.21820788  0.48570163  1
  C  C37  1  0.70980509  0.21820788  0.51429837  1
  C  C38  1  0.29019491  0.78179212  0.51429837  1
  C  C39  1  0.70980509  0.78179212  0.48570163  1
