# generated using pymatgen
data_CuNi2C9
_symmetry_space_group_name_H-M   'P 1'
_cell_length_a   8.52051774
_cell_length_b   8.52051774
_cell_length_c   8.34004967
_cell_angle_alpha   64.79591403
_cell_angle_beta   64.79591403
_cell_angle_gamma   39.87132263
_symmetry_Int_Tables_number   1
_chemical_formula_structural   CuNi2C9
_chemical_formula_sum   'Cu2 Ni4 C18'
_cell_volume   346.04480764
_cell_formula_units_Z   2
loop_
 _symmetry_equiv_pos_site_id
 _symmetry_equiv_pos_as_xyz
  1  'x, y, z'
loop_
 _atom_site_type_symbol
 _atom_site_label
 _atom_site_symmetry_multiplicity
 _atom_site_fract_x
 _atom_site_fract_y
 _atom_site_fract_z
 _atom_site_occupancy
  C  C0  1  0.62461500  0.90649700  0.79373300  1
  C  C1  1  0.09350300  0.37538500  0.70626700  1
  C  C2  1  0.37538500  0.09350300  0.20626700  1
  C  C3  1  0.90649700  0.62461500  0.29373300  1
  Ni  Ni4  1  0.24157200  0.55671500  0.84210100  1
  Ni  Ni5  1  0.44328500  0.75842800  0.65789900  1
  Ni  Ni6  1  0.75842800  0.44328500  0.15789900  1
  Ni  Ni7  1  0.55671500  0.24157200  0.34210100  1
  Cu  Cu8  1  0.00000000  0.00000000  0.00000000  1
  Cu  Cu9  1  0.00000000  0.00000000  0.50000000  1
  C  C10  1  0.69881200  0.65859800  0.59528100  1
  C  C11  1  0.34140200  0.30118800  0.90471900  1
  C  C12  1  0.30118800  0.34140200  0.40471900  1
  C  C13  1  0.65859800  0.69881200  0.09528100  1
  C  C14  1  0.47381400  0.52618600  0.75000000  1
  C  C15  1  0.52618600  0.47381400  0.25000000  1
  C  C16  1  0.29215300  0.91914500  0.80500100  1
  C  C17  1  0.08085500  0.70784700  0.69499900  1
  C  C18  1  0.70784700  0.08085500  0.19499900  1
  C  C19  1  0.91914500  0.29215300  0.30500100  1
  C  C20  1  0.68896800  0.10328100  0.50502200  1
  C  C21  1  0.89671900  0.31103200  0.99497800  1
  C  C22  1  0.31103200  0.89671900  0.49497800  1
  C  C23  1  0.10328100  0.68896800  0.00502200  1
