# generated using pymatgen
data_Cu4NiC7
_symmetry_space_group_name_H-M   'P 1'
_cell_length_a   9.01892800
_cell_length_b   10.07174600
_cell_length_c   10.49616100
_cell_angle_alpha   90.00000000
_cell_angle_beta   90.00000000
_cell_angle_gamma   90.00000000
_symmetry_Int_Tables_number   1
_chemical_formula_structural   Cu4NiC7
_chemical_formula_sum   'Cu32 Ni8 C56'
_cell_volume   953.43297533
_cell_formula_units_Z   8
loop_
 _symmetry_equiv_pos_site_id
 _symmetry_equiv_pos_as_xyz
  1  'x, y, z'
loop_
 _atom_site_type_symbol
 _atom_site_label
 _atom_site_symmetry_multiplicity
 _atom_site_fract_x
 _atom_site_fract_y
 _atom_site_fract_z
 _atom_site_occupancy
  C  C0  1  0.84688100  0.81949200  0.86955600  1
  C  C1  1  0.34688100  0.68050800  0.13044400  1
  C  C2  1  0.15311900  0.31949200  0.63044400  1
  C  C3  1  0.65311900  0.18050800  0.36955600  1
  C  C4  1  0.15311900  0.18050800  0.13044400  1
  C  C5  1  0.65311900  0.31949200  0.86955600  1
  C  C6  1  0.84688100  0.68050800  0.36955600  1
  C  C7  1  0.34688100  0.81949200  0.63044400  1
  Ni  Ni8  1  0.52739000  0.63763100  0.85188400  1
  Ni  Ni9  1  0.02739000  0.86236900  0.14811600  1
  Ni  Ni10  1  0.47261000  0.13763100  0.64811600  1
  Ni  Ni11  1  0.97261000  0.36236900  0.35188400  1
  Ni  Ni12  1  0.47261000  0.36236900  0.14811600  1
  Ni  Ni13  1  0.97261000  0.13763100  0.85188400  1
  Ni  Ni14  1  0.52739000  0.86236900  0.35188400  1
  Ni  Ni15  1  0.02739000  0.63763100  0.64811600  1
  Cu  Cu16  1  0.66568900  0.90938500  0.68214600  1
  Cu  Cu17  1  0.16568900  0.59061500  0.31785400  1
  Cu  Cu18  1  0.33431100  0.40938500  0.81785400  1
  Cu  Cu19  1  0.83431100  0.09061500  0.18214600  1
  Cu  Cu20  1  0.33431100  0.09061500  0.31785400  1
  Cu  Cu21  1  0.83431100  0.40938500  0.68214600  1
  Cu  Cu22  1  0.66568900  0.59061500  0.18214600  1
  Cu  Cu23  1  0.16568900  0.90938500  0.81785400  1
  Cu  Cu24  1  0.80672500  0.82211600  0.62912700  1
  Cu  Cu25  1  0.30672500  0.67788400  0.37087300  1
  Cu  Cu26  1  0.19327500  0.32211600  0.87087300  1
  Cu  Cu27  1  0.69327500  0.17788400  0.12912700  1
  Cu  Cu28  1  0.19327500  0.17788400  0.37087300  1
  Cu  Cu29  1  0.69327500  0.32211600  0.62912700  1
  Cu  Cu30  1  0.80672500  0.67788400  0.12912700  1
  Cu  Cu31  1  0.30672500  0.82211600  0.87087300  1
  Cu  Cu32  1  0.70539400  0.03340200  0.92076700  1
  Cu  Cu33  1  0.20539400  0.46659800  0.07923300  1
  Cu  Cu34  1  0.29460600  0.53340200  0.57923300  1
  Cu  Cu35  1  0.79460600  0.96659800  0.42076700  1
  Cu  Cu36  1  0.29460600  0.96659800  0.07923300  1
  Cu  Cu37  1  0.79460600  0.53340200  0.92076700  1
  Cu  Cu38  1  0.70539400  0.46659800  0.42076700  1
  Cu  Cu39  1  0.20539400  0.03340200  0.57923300  1
  Cu  Cu40  1  0.58227200  0.91326200  0.92628800  1
  Cu  Cu41  1  0.08227200  0.58673800  0.07371200  1
  Cu  Cu42  1  0.41772800  0.41326200  0.57371200  1
  Cu  Cu43  1  0.91772800  0.08673800  0.42628800  1
  Cu  Cu44  1  0.41772800  0.08673800  0.07371200  1
  Cu  Cu45  1  0.91772800  0.41326200  0.92628800  1
  Cu  Cu46  1  0.58227200  0.58673800  0.42628800  1
  Cu  Cu47  1  0.08227200  0.91326200  0.57371200  1
  C  C48  1  0.49314600  0.69923600  0.70334300  1
  C  C49  1  0.99314600  0.80076400  0.29665700  1
  C  C50  1  0.50685400  0.19923600  0.79665700  1
  C  C51  1  0.00685400  0.30076400  0.20334300  1
  C  C52  1  0.50685400  0.30076400  0.29665700  1
  C  C53  1  0.00685400  0.19923600  0.70334300  1
  C  C54  1  0.49314600  0.80076400  0.20334300  1
  C  C55  1  0.99314600  0.69923600  0.79665700  1
  C  C56  1  0.49917000  0.46830700  0.86010800  1
  C  C57  1  0.99917000  0.03169300  0.13989200  1
  C  C58  1  0.50083000  0.96830700  0.63989200  1
  C  C59  1  0.00083000  0.53169300  0.36010800  1
  C  C60  1  0.50083000  0.53169300  0.13989200  1
  C  C61  1  0.00083000  0.96830700  0.86010800  1
  C  C62  1  0.49917000  0.03169300  0.36010800  1
  C  C63  1  0.99917000  0.46830700  0.63989200  1
  C  C64  1  0.41666900  0.72634900  0.95702200  1
  C  C65  1  0.91666900  0.77365100  0.04297800  1
  C  C66  1  0.58333100  0.22634900  0.54297800  1
  C  C67  1  0.08333100  0.27365100  0.45702200  1
  C  C68  1  0.58333100  0.27365100  0.04297800  1
  C  C69  1  0.08333100  0.22634900  0.95702200  1
  C  C70  1  0.41666900  0.77365100  0.45702200  1
  C  C71  1  0.91666900  0.72634900  0.54297800  1
  C  C72  1  0.71153800  0.66410500  0.88812200  1
  C  C73  1  0.21153800  0.83589500  0.11187800  1
  C  C74  1  0.28846200  0.16410500  0.61187800  1
  C  C75  1  0.78846200  0.33589500  0.38812200  1
  C  C76  1  0.28846200  0.33589500  0.11187800  1
  C  C77  1  0.78846200  0.16410500  0.88812200  1
  C  C78  1  0.71153800  0.83589500  0.38812200  1
  C  C79  1  0.21153800  0.66410500  0.61187800  1
  C  C80  1  0.77054900  0.88104300  0.69985200  1
  C  C81  1  0.27054900  0.61895700  0.30014800  1
  C  C82  1  0.22945100  0.38104300  0.80014800  1
  C  C83  1  0.72945100  0.11895700  0.19985200  1
  C  C84  1  0.22945100  0.11895700  0.30014800  1
  C  C85  1  0.72945100  0.38104300  0.69985200  1
  C  C86  1  0.77054900  0.61895700  0.19985200  1
  C  C87  1  0.27054900  0.88104300  0.80014800  1
  C  C88  1  0.68420900  0.93735200  0.94652600  1
  C  C89  1  0.18420900  0.56264800  0.05347400  1
  C  C90  1  0.31579100  0.43735200  0.55347400  1
  C  C91  1  0.81579100  0.06264800  0.44652600  1
  C  C92  1  0.31579100  0.06264800  0.05347400  1
  C  C93  1  0.81579100  0.43735200  0.94652600  1
  C  C94  1  0.68420900  0.56264800  0.44652600  1
  C  C95  1  0.18420900  0.93735200  0.55347400  1
