# generated using pymatgen
data_CuNiC3
_symmetry_space_group_name_H-M   'P 1'
_cell_length_a   4.87401400
_cell_length_b   4.95994200
_cell_length_c   8.30327800
_cell_angle_alpha   90.00000000
_cell_angle_beta   90.00000000
_cell_angle_gamma   90.00000000
_symmetry_Int_Tables_number   1
_chemical_formula_structural   CuNiC3
_chemical_formula_sum   'Cu4 Ni4 C12'
_cell_volume   200.73030708
_cell_formula_units_Z   4
loop_
 _symmetry_equiv_pos_site_id
 _symmetry_equiv_pos_as_xyz
  1  'x, y, z'
loop_
 _atom_site_type_symbol
 _atom_site_label
 _atom_site_symmetry_multiplicity
 _atom_site_fract_x
 _atom_site_fract_y
 _atom_site_fract_z
 _atom_site_occupancy
  Ni  Ni0  1  0.50000000  0.50000000  0.00000000  1
  Ni  Ni1  1  0.00000000  0.00000000  0.00000000  1
  Ni  Ni2  1  0.00000000  0.00000000  0.50000000  1
  Ni  Ni3  1  0.50000000  0.50000000  0.50000000  1
  Cu  Cu4  1  0.48359500  0.00801400  0.25000000  1
  Cu  Cu5  1  0.98359500  0.49198600  0.75000000  1
  Cu  Cu6  1  0.01640500  0.50801400  0.25000000  1
  Cu  Cu7  1  0.51640500  0.99198600  0.75000000  1
  C  C8  1  0.16070100  0.32662200  0.91488600  1
  C  C9  1  0.66070100  0.17337800  0.08511400  1
  C  C10  1  0.33929900  0.82662200  0.58511400  1
  C  C11  1  0.83929900  0.67337800  0.41488600  1
  C  C12  1  0.83929900  0.67337800  0.08511400  1
  C  C13  1  0.33929900  0.82662200  0.91488600  1
  C  C14  1  0.66070100  0.17337800  0.41488600  1
  C  C15  1  0.16070100  0.32662200  0.58511400  1
  C  C16  1  0.64943900  0.33278600  0.75000000  1
  C  C17  1  0.14943900  0.16721400  0.25000000  1
  C  C18  1  0.85056100  0.83278600  0.75000000  1
  C  C19  1  0.35056100  0.66721400  0.25000000  1
