# generated using pymatgen
data_Cu4NiC4
_symmetry_space_group_name_H-M   'P 1'
_cell_length_a   12.96823700
_cell_length_b   3.64929100
_cell_length_c   13.47036500
_cell_angle_alpha   90.00000000
_cell_angle_beta   90.00000000
_cell_angle_gamma   90.00000000
_symmetry_Int_Tables_number   1
_chemical_formula_structural   Cu4NiC4
_chemical_formula_sum   'Cu16 Ni4 C16'
_cell_volume   637.48328016
_cell_formula_units_Z   4
loop_
 _symmetry_equiv_pos_site_id
 _symmetry_equiv_pos_as_xyz
  1  'x, y, z'
loop_
 _atom_site_type_symbol
 _atom_site_label
 _atom_site_symmetry_multiplicity
 _atom_site_fract_x
 _atom_site_fract_y
 _atom_site_fract_z
 _atom_site_occupancy
  C  C0  1  0.00787400  0.25000000  0.11561700  1
  C  C1  1  0.50787400  0.25000000  0.38438300  1
  C  C2  1  0.99212600  0.75000000  0.88438300  1
  C  C3  1  0.49212600  0.75000000  0.61561700  1
  C  C4  1  0.76661000  0.25000000  0.03150100  1
  C  C5  1  0.26661000  0.25000000  0.46849900  1
  C  C6  1  0.23339000  0.75000000  0.96849900  1
  C  C7  1  0.73339000  0.75000000  0.53150100  1
  C  C8  1  0.45977400  0.25000000  0.86815700  1
  C  C9  1  0.95977400  0.25000000  0.63184300  1
  C  C10  1  0.54022600  0.75000000  0.13184300  1
  C  C11  1  0.04022600  0.75000000  0.36815700  1
  C  C12  1  0.24067200  0.25000000  0.74144300  1
  C  C13  1  0.74067200  0.25000000  0.75855700  1
  C  C14  1  0.75932800  0.75000000  0.25855700  1
  C  C15  1  0.25932800  0.75000000  0.24144300  1
  Ni  Ni16  1  0.36570200  0.25000000  0.08765600  1
  Ni  Ni17  1  0.86570200  0.25000000  0.41234400  1
  Ni  Ni18  1  0.63429800  0.75000000  0.91234400  1
  Ni  Ni19  1  0.13429800  0.75000000  0.58765600  1
  Cu  Cu20  1  0.66729600  0.25000000  0.16578900  1
  Cu  Cu21  1  0.16729600  0.25000000  0.33421100  1
  Cu  Cu22  1  0.33270400  0.75000000  0.83421100  1
  Cu  Cu23  1  0.83270400  0.75000000  0.66578900  1
  Cu  Cu24  1  0.13211600  0.25000000  0.87740600  1
  Cu  Cu25  1  0.63211600  0.25000000  0.62259400  1
  Cu  Cu26  1  0.86788400  0.75000000  0.12259400  1
  Cu  Cu27  1  0.36788400  0.75000000  0.37740600  1
  Cu  Cu28  1  0.09339900  0.25000000  0.96755400  1
  Cu  Cu29  1  0.59339900  0.25000000  0.53244600  1
  Cu  Cu30  1  0.90660100  0.75000000  0.03244600  1
  Cu  Cu31  1  0.40660100  0.75000000  0.46755400  1
  Cu  Cu32  1  0.61033900  0.25000000  0.24923200  1
  Cu  Cu33  1  0.11033900  0.25000000  0.25076800  1
  Cu  Cu34  1  0.38966100  0.75000000  0.75076800  1
  Cu  Cu35  1  0.88966100  0.75000000  0.74923200  1
