# generated using pymatgen
data_CuNiC7
_symmetry_space_group_name_H-M   'P 1'
_cell_length_a   7.62414516
_cell_length_b   7.62414516
_cell_length_c   7.62414516
_cell_angle_alpha   120.97851123
_cell_angle_beta   119.89506986
_cell_angle_gamma   89.24770186
_symmetry_Int_Tables_number   1
_chemical_formula_structural   CuNiC7
_chemical_formula_sum   'Cu2 Ni2 C14'
_cell_volume   311.23741664
_cell_formula_units_Z   2
loop_
 _symmetry_equiv_pos_site_id
 _symmetry_equiv_pos_as_xyz
  1  'x, y, z'
loop_
 _atom_site_type_symbol
 _atom_site_label
 _atom_site_symmetry_multiplicity
 _atom_site_fract_x
 _atom_site_fract_y
 _atom_site_fract_z
 _atom_site_occupancy
  C  C0  1  0.62141600  0.37141600  0.25000000  1
  C  C1  1  0.37858400  0.62858400  0.75000000  1
  Ni  Ni2  1  0.50000000  0.00000000  0.50000000  1
  Ni  Ni3  1  0.00000000  0.00000000  0.00000000  1
  Cu  Cu4  1  0.00000000  0.00000000  0.50000000  1
  Cu  Cu5  1  0.00000000  0.50000000  0.00000000  1
  C  C6  1  0.05708700  0.30708700  0.75000000  1
  C  C7  1  0.67052600  0.92052600  0.75000000  1
  C  C8  1  0.06194900  0.33447200  0.13838100  1
  C  C9  1  0.69609100  0.92356800  0.36161900  1
  C  C10  1  0.69609100  0.33447200  0.77252300  1
  C  C11  1  0.06194900  0.92356800  0.72747700  1
  C  C12  1  0.94291300  0.69291300  0.25000000  1
  C  C13  1  0.32947400  0.07947400  0.25000000  1
  C  C14  1  0.93805100  0.66552800  0.86161900  1
  C  C15  1  0.30390900  0.07643200  0.63838100  1
  C  C16  1  0.30390900  0.66552800  0.22747700  1
  C  C17  1  0.93805100  0.07643200  0.27252300  1
