# generated using pymatgen
data_Cu9(NiC6)2
_symmetry_space_group_name_H-M   'P 1'
_cell_length_a   6.57840312
_cell_length_b   6.57840312
_cell_length_c   19.03299004
_cell_angle_alpha   82.89026505
_cell_angle_beta   82.89026505
_cell_angle_gamma   80.16671267
_symmetry_Int_Tables_number   1
_chemical_formula_structural   Cu9(NiC6)2
_chemical_formula_sum   'Cu18 Ni4 C24'
_cell_volume   800.87030400
_cell_formula_units_Z   2
loop_
 _symmetry_equiv_pos_site_id
 _symmetry_equiv_pos_as_xyz
  1  'x, y, z'
loop_
 _atom_site_type_symbol
 _atom_site_label
 _atom_site_symmetry_multiplicity
 _atom_site_fract_x
 _atom_site_fract_y
 _atom_site_fract_z
 _atom_site_occupancy
  C  C0  1  0.19355600  0.22251400  0.71495700  1
  C  C1  1  0.77748600  0.80644400  0.78504300  1
  C  C2  1  0.80644400  0.77748600  0.28504300  1
  C  C3  1  0.22251400  0.19355600  0.21495700  1
  C  C4  1  0.13032900  0.73829800  0.56038600  1
  C  C5  1  0.26170200  0.86967100  0.93961400  1
  C  C6  1  0.86967100  0.26170200  0.43961400  1
  C  C7  1  0.73829800  0.13032900  0.06038600  1
  C  C8  1  0.69215500  0.45914600  0.62101700  1
  C  C9  1  0.54085400  0.30784500  0.87898300  1
  C  C10  1  0.30784500  0.54085400  0.37898300  1
  C  C11  1  0.45914600  0.69215500  0.12101700  1
  C  C12  1  0.79916600  0.70689800  0.96601500  1
  C  C13  1  0.29310200  0.20083400  0.53398500  1
  C  C14  1  0.20083400  0.29310200  0.03398500  1
  C  C15  1  0.70689800  0.79916600  0.46601500  1
  C  C16  1  0.93553600  0.53774100  0.92287800  1
  C  C17  1  0.46225900  0.06446400  0.57712200  1
  C  C18  1  0.06446400  0.46225900  0.07712200  1
  C  C19  1  0.53774100  0.93553600  0.42287800  1
  C  C20  1  0.28897300  0.72604100  0.78950100  1
  C  C21  1  0.27395900  0.71102700  0.71049900  1
  C  C22  1  0.71102700  0.27395900  0.21049900  1
  C  C23  1  0.72604100  0.28897300  0.28950100  1
  Ni  Ni24  1  0.11029600  0.76448700  0.12430400  1
  Ni  Ni25  1  0.23551300  0.88970400  0.37569600  1
  Ni  Ni26  1  0.88970400  0.23551300  0.87569600  1
  Ni  Ni27  1  0.76448700  0.11029600  0.62430400  1
  Cu  Cu28  1  0.85696300  0.54302600  0.67535700  1
  Cu  Cu29  1  0.45697400  0.14303700  0.82464300  1
  Cu  Cu30  1  0.14303700  0.45697400  0.32464300  1
  Cu  Cu31  1  0.54302600  0.85696300  0.17535600  1
  Cu  Cu32  1  0.75048000  0.57127500  0.53187700  1
  Cu  Cu33  1  0.42872500  0.24952000  0.96812300  1
  Cu  Cu34  1  0.24952000  0.42872500  0.46812300  1
  Cu  Cu35  1  0.57127500  0.75048000  0.03187700  1
  Cu  Cu36  1  0.42273700  0.53767500  0.64996100  1
  Cu  Cu37  1  0.46232500  0.57726300  0.85003900  1
  Cu  Cu38  1  0.57726300  0.46232500  0.35003900  1
  Cu  Cu39  1  0.53767500  0.42273700  0.14996100  1
  Cu  Cu40  1  0.92038300  0.68567100  0.92971300  1
  Cu  Cu41  1  0.31432900  0.07961700  0.57028700  1
  Cu  Cu42  1  0.07961700  0.31432900  0.07028700  1
  Cu  Cu43  1  0.68567100  0.92038300  0.42971300  1
  Cu  Cu44  1  0.20748800  0.79251200  0.75000000  1
  Cu  Cu45  1  0.79251200  0.20748800  0.25000000  1
