# generated using pymatgen
data_CuNiC8
_symmetry_space_group_name_H-M   'P 1'
_cell_length_a   10.21183300
_cell_length_b   5.47424500
_cell_length_c   10.50980966
_cell_angle_alpha   76.31888033
_cell_angle_beta   90.00000000
_cell_angle_gamma   90.00000000
_symmetry_Int_Tables_number   1
_chemical_formula_structural   CuNiC8
_chemical_formula_sum   'Cu4 Ni4 C32'
_cell_volume   570.85053107
_cell_formula_units_Z   4
loop_
 _symmetry_equiv_pos_site_id
 _symmetry_equiv_pos_as_xyz
  1  'x, y, z'
loop_
 _atom_site_type_symbol
 _atom_site_label
 _atom_site_symmetry_multiplicity
 _atom_site_fract_x
 _atom_site_fract_y
 _atom_site_fract_z
 _atom_site_occupancy
  Ni  Ni0  1  0.52584200  0.22364300  0.22490700  1
  Ni  Ni1  1  0.02584200  0.27635700  0.77509300  1
  Ni  Ni2  1  0.47415800  0.77635700  0.77509300  1
  Ni  Ni3  1  0.97415800  0.72364300  0.22490700  1
  Cu  Cu4  1  0.37534200  0.71079100  0.26195100  1
  Cu  Cu5  1  0.87534200  0.78920900  0.73804900  1
  Cu  Cu6  1  0.62465800  0.28920900  0.73804900  1
  Cu  Cu7  1  0.12465800  0.21079100  0.26195100  1
  C  C8  1  0.65920700  0.77722900  0.05455900  1
  C  C9  1  0.15920700  0.72277100  0.94544100  1
  C  C10  1  0.34079300  0.22277100  0.94544100  1
  C  C11  1  0.84079300  0.27722900  0.05455900  1
  C  C12  1  0.65117100  0.75684900  0.46858200  1
  C  C13  1  0.15117100  0.74315100  0.53141800  1
  C  C14  1  0.34882900  0.24315100  0.53141800  1
  C  C15  1  0.84882900  0.25684900  0.46858200  1
  C  C16  1  0.78937500  0.96214900  0.44407100  1
  C  C17  1  0.28937500  0.53785100  0.55592900  1
  C  C18  1  0.21062500  0.03785100  0.55592900  1
  C  C19  1  0.71062500  0.46214900  0.44407100  1
  C  C20  1  0.69316900  0.07918100  0.09921600  1
  C  C21  1  0.19316900  0.42081900  0.90078400  1
  C  C22  1  0.30683100  0.92081900  0.90078400  1
  C  C23  1  0.80683100  0.57918100  0.09921600  1
  C  C24  1  0.95963700  0.38083300  0.34288200  1
  C  C25  1  0.45963700  0.11916700  0.65711800  1
  C  C26  1  0.04036300  0.61916700  0.65711800  1
  C  C27  1  0.54036300  0.88083300  0.34288200  1
  C  C28  1  0.96154600  0.09444200  0.15191900  1
  C  C29  1  0.46154600  0.40555800  0.84808100  1
  C  C30  1  0.03845400  0.90555800  0.84808100  1
  C  C31  1  0.53845400  0.59444200  0.15191900  1
  C  C32  1  0.61640600  0.85227200  0.89070900  1
  C  C33  1  0.11640600  0.64772800  0.10929100  1
  C  C34  1  0.38359400  0.14772800  0.10929100  1
  C  C35  1  0.88359400  0.35227200  0.89070900  1
  C  C36  1  0.58046900  0.68007500  0.62499700  1
  C  C37  1  0.08046900  0.81992500  0.37500300  1
  C  C38  1  0.41953100  0.31992500  0.37500300  1
  C  C39  1  0.91953100  0.18007500  0.62499700  1
