# generated using pymatgen
data_Cu2NiC18
_symmetry_space_group_name_H-M   'P 1'
_cell_length_a   5.06187997
_cell_length_b   6.95690219
_cell_length_c   8.90781305
_cell_angle_alpha   112.69996113
_cell_angle_beta   94.94759707
_cell_angle_gamma   106.27177773
_symmetry_Int_Tables_number   1
_chemical_formula_structural   Cu2NiC18
_chemical_formula_sum   'Cu2 Ni1 C18'
_cell_volume   271.02397800
_cell_formula_units_Z   1
loop_
 _symmetry_equiv_pos_site_id
 _symmetry_equiv_pos_as_xyz
  1  'x, y, z'
loop_
 _atom_site_type_symbol
 _atom_site_label
 _atom_site_symmetry_multiplicity
 _atom_site_fract_x
 _atom_site_fract_y
 _atom_site_fract_z
 _atom_site_occupancy
  Ni  Ni0  1  0.36067100  0.23455300  0.75338400  1
  Cu  Cu1  1  0.10284700  0.60916100  0.34924800  1
  Cu  Cu2  1  0.90420400  0.40167900  0.62629200  1
  C  C3  1  0.23399700  0.13254500  0.37610000  1
  C  C4  1  0.58698700  0.68778500  0.87313400  1
  C  C5  1  0.43047000  0.31628300  0.13442600  1
  C  C6  1  0.75813800  0.84417400  0.61224000  1
  C  C7  1  0.07398200  0.89686000  0.33644500  1
  C  C8  1  0.06319900  0.29566600  0.42570100  1
  C  C9  1  0.28134600  0.52113800  0.77528100  1
  C  C10  1  0.22117700  0.44410600  0.15969300  1
  C  C11  1  0.39792500  0.18042800  0.95040000  1
  C  C12  1  0.48065300  0.76843400  0.49208100  1
  C  C13  1  0.68674900  0.85082200  0.78548100  1
  C  C14  1  0.34021300  0.14197300  0.21658800  1
  C  C15  1  0.49333300  0.22227600  0.52636800  1
  C  C16  1  0.62615400  0.81842400  0.05310600  1
  C  C17  1  0.75879700  0.52080900  0.82644500  1
  C  C18  1  0.72643700  0.46735400  0.22872400  1
  C  C19  1  0.93322500  0.68593100  0.56248300  1
  C  C20  1  0.93949600  0.08460200  0.65860200  1
