# generated using pymatgen
data_Cu2(NiC6)3
_symmetry_space_group_name_H-M   'P 1'
_cell_length_a   7.97977900
_cell_length_b   5.29546600
_cell_length_c   15.53204783
_cell_angle_alpha   89.67764229
_cell_angle_beta   90.00000000
_cell_angle_gamma   90.00000000
_symmetry_Int_Tables_number   1
_chemical_formula_structural   Cu2(NiC6)3
_chemical_formula_sum   'Cu4 Ni6 C36'
_cell_volume   656.32189585
_cell_formula_units_Z   2
loop_
 _symmetry_equiv_pos_site_id
 _symmetry_equiv_pos_as_xyz
  1  'x, y, z'
loop_
 _atom_site_type_symbol
 _atom_site_label
 _atom_site_symmetry_multiplicity
 _atom_site_fract_x
 _atom_site_fract_y
 _atom_site_fract_z
 _atom_site_occupancy
  C  C0  1  0.44834400  0.49882800  0.20301400  1
  C  C1  1  0.94834400  0.50117200  0.29698600  1
  C  C2  1  0.55165600  0.50117200  0.79698600  1
  C  C3  1  0.05165600  0.49882800  0.70301400  1
  Ni  Ni4  1  0.10763600  0.00847200  0.11716100  1
  Ni  Ni5  1  0.60763600  0.99152800  0.38283900  1
  Ni  Ni6  1  0.89236400  0.99152800  0.88283900  1
  Ni  Ni7  1  0.39236400  0.00847200  0.61716100  1
  Ni  Ni8  1  0.50000000  0.00000000  0.00000000  1
  Ni  Ni9  1  0.00000000  0.00000000  0.50000000  1
  Cu  Cu10  1  0.22817400  0.48572400  0.99229900  1
  Cu  Cu11  1  0.72817400  0.51427600  0.50770100  1
  Cu  Cu12  1  0.77182600  0.51427600  0.00770100  1
  Cu  Cu13  1  0.27182600  0.48572400  0.49229900  1
  C  C14  1  0.23507300  0.04642900  0.30726400  1
  C  C15  1  0.73507300  0.95357100  0.19273600  1
  C  C16  1  0.76492700  0.95357100  0.69273600  1
  C  C17  1  0.26492700  0.04642900  0.80726400  1
  C  C18  1  0.18281100  0.19957600  0.22378300  1
  C  C19  1  0.68281100  0.80042400  0.27621700  1
  C  C20  1  0.81718900  0.80042400  0.77621700  1
  C  C21  1  0.31718900  0.19957600  0.72378300  1
  C  C22  1  0.26032800  0.74718900  0.07529100  1
  C  C23  1  0.76032800  0.25281100  0.42470900  1
  C  C24  1  0.73967200  0.25281100  0.92470900  1
  C  C25  1  0.23967200  0.74718900  0.57529100  1
  C  C26  1  0.39820200  0.29475400  0.05372500  1
  C  C27  1  0.89820200  0.70524600  0.44627500  1
  C  C28  1  0.60179800  0.70524600  0.94627500  1
  C  C29  1  0.10179800  0.29475400  0.55372500  1
  C  C30  1  0.41019000  0.15777800  0.33053800  1
  C  C31  1  0.91019000  0.84222200  0.16946200  1
  C  C32  1  0.58981000  0.84222200  0.66946200  1
  C  C33  1  0.08981000  0.15777800  0.83053800  1
  C  C34  1  0.10673000  0.11790700  0.37783100  1
  C  C35  1  0.60673000  0.88209300  0.12216900  1
  C  C36  1  0.89327000  0.88209300  0.62216900  1
  C  C37  1  0.39327000  0.11790700  0.87783100  1
  C  C38  1  0.23816400  0.76010800  0.28996000  1
  C  C39  1  0.73816400  0.23989200  0.21004000  1
  C  C40  1  0.76183600  0.23989200  0.71004000  1
  C  C41  1  0.26183600  0.76010800  0.78996000  1
  C  C42  1  0.04888600  0.28849200  0.03987900  1
  C  C43  1  0.54888600  0.71150800  0.46012100  1
  C  C44  1  0.95111400  0.71150800  0.96012100  1
  C  C45  1  0.45111400  0.28849200  0.53987900  1
