# generated using pymatgen
data_CuNiC8
_symmetry_space_group_name_H-M   'P 1'
_cell_length_a   9.45096600
_cell_length_b   5.43508500
_cell_length_c   9.62162397
_cell_angle_alpha   80.60363358
_cell_angle_beta   90.00000000
_cell_angle_gamma   90.00000000
_symmetry_Int_Tables_number   1
_chemical_formula_structural   CuNiC8
_chemical_formula_sum   'Cu4 Ni4 C32'
_cell_volume   487.60071816
_cell_formula_units_Z   4
loop_
 _symmetry_equiv_pos_site_id
 _symmetry_equiv_pos_as_xyz
  1  'x, y, z'
loop_
 _atom_site_type_symbol
 _atom_site_label
 _atom_site_symmetry_multiplicity
 _atom_site_fract_x
 _atom_site_fract_y
 _atom_site_fract_z
 _atom_site_occupancy
  Ni  Ni0  1  0.50488000  0.54834700  0.24956900  1
  Ni  Ni1  1  0.00488000  0.95165300  0.75043100  1
  Ni  Ni2  1  0.49512000  0.45165300  0.75043100  1
  Ni  Ni3  1  0.99512000  0.04834700  0.24956900  1
  Cu  Cu4  1  0.64977200  0.04032000  0.24209900  1
  Cu  Cu5  1  0.14977200  0.45968000  0.75790100  1
  Cu  Cu6  1  0.35022800  0.95968000  0.75790100  1
  Cu  Cu7  1  0.85022800  0.54032000  0.24209900  1
  C  C8  1  0.33934900  0.17320500  0.06014000  1
  C  C9  1  0.83934900  0.32679500  0.93986000  1
  C  C10  1  0.66065100  0.82679500  0.93986000  1
  C  C11  1  0.16065100  0.67320500  0.06014000  1
  C  C12  1  0.34042700  0.76442600  0.46120500  1
  C  C13  1  0.84042700  0.73557400  0.53879500  1
  C  C14  1  0.65957300  0.23557400  0.53879500  1
  C  C15  1  0.15957300  0.26442600  0.46120500  1
  C  C16  1  0.27382200  0.50815100  0.38641300  1
  C  C17  1  0.77382200  0.99184900  0.61358700  1
  C  C18  1  0.72617800  0.49184900  0.61358700  1
  C  C19  1  0.22617800  0.00815100  0.38641300  1
  C  C20  1  0.31141900  0.84271700  0.11044300  1
  C  C21  1  0.81141900  0.65728300  0.88955700  1
  C  C22  1  0.68858100  0.15728300  0.88955700  1
  C  C23  1  0.18858100  0.34271700  0.11044300  1
  C  C24  1  0.99063200  0.28599200  0.38623800  1
  C  C25  1  0.49063200  0.21400800  0.61376200  1
  C  C26  1  0.00936800  0.71400800  0.61376200  1
  C  C27  1  0.50936800  0.78599200  0.38623800  1
  C  C28  1  0.01129100  0.76802100  0.14466100  1
  C  C29  1  0.51129100  0.73197900  0.85533900  1
  C  C30  1  0.98870900  0.23197900  0.85533900  1
  C  C31  1  0.48870900  0.26802100  0.14466100  1
  C  C32  1  0.35003800  0.22629500  0.87274700  1
  C  C33  1  0.85003800  0.27370500  0.12725300  1
  C  C34  1  0.64996200  0.77370500  0.12725300  1
  C  C35  1  0.14996200  0.72629500  0.87274700  1
  C  C36  1  0.33016900  0.68995400  0.64871300  1
  C  C37  1  0.83016900  0.81004600  0.35128700  1
  C  C38  1  0.66983100  0.31004600  0.35128700  1
  C  C39  1  0.16983100  0.18995400  0.64871300  1
