# generated using pymatgen
data_Cu9Ni4C13
_symmetry_space_group_name_H-M   'P 1'
_cell_length_a   7.36702600
_cell_length_b   9.62911934
_cell_length_c   17.08662394
_cell_angle_alpha   94.63560531
_cell_angle_beta   90.00000000
_cell_angle_gamma   90.00000000
_symmetry_Int_Tables_number   1
_chemical_formula_structural   Cu9Ni4C13
_chemical_formula_sum   'Cu36 Ni16 C52'
_cell_volume   1208.12552779
_cell_formula_units_Z   4
loop_
 _symmetry_equiv_pos_site_id
 _symmetry_equiv_pos_as_xyz
  1  'x, y, z'
loop_
 _atom_site_type_symbol
 _atom_site_label
 _atom_site_symmetry_multiplicity
 _atom_site_fract_x
 _atom_site_fract_y
 _atom_site_fract_z
 _atom_site_occupancy
  C  C0  1  0.71728300  0.41320700  0.97396800  1
  C  C1  1  0.21728300  0.58679300  0.02603200  1
  C  C2  1  0.38067100  0.81394500  0.72813400  1
  C  C3  1  0.88067100  0.18605500  0.27186600  1
  C  C4  1  0.97431400  0.69392700  0.64430300  1
  C  C5  1  0.47431400  0.30607300  0.35569700  1
  C  C6  1  0.57283600  0.40795500  0.28693600  1
  C  C7  1  0.07283600  0.59204500  0.71306400  1
  C  C8  1  0.58889800  0.85217300  0.77541500  1
  C  C9  1  0.08889800  0.14782700  0.22458500  1
  C  C10  1  0.83357700  0.56566500  0.95208500  1
  C  C11  1  0.33357700  0.43433500  0.04791500  1
  C  C12  1  0.93166400  0.41371000  0.47212000  1
  C  C13  1  0.43166400  0.58629000  0.52788000  1
  C  C14  1  0.56073900  0.14542300  0.72517100  1
  C  C15  1  0.06073900  0.85457700  0.27482900  1
  C  C16  1  0.71704400  0.70632200  0.85957900  1
  C  C17  1  0.21704400  0.29367800  0.14042100  1
  C  C18  1  0.68809000  0.70641400  0.15232600  1
  C  C19  1  0.18809000  0.29358600  0.84767400  1
  C  C20  1  0.81744800  0.56886700  0.45284100  1
  C  C21  1  0.31744800  0.43113300  0.54715900  1
  C  C22  1  0.76792600  0.18489900  0.77306400  1
  C  C23  1  0.26792600  0.81510100  0.22693600  1
  C  C24  1  0.58818800  0.60382200  0.22019000  1
  C  C25  1  0.08818800  0.39617800  0.77981000  1
  C  C26  1  0.94166800  0.71626700  0.36490400  1
  C  C27  1  0.44166800  0.28373300  0.63509600  1
  Ni  Ni28  1  0.55321100  0.94274800  0.40551100  1
  Ni  Ni29  1  0.05321100  0.05725200  0.59448900  1
  Ni  Ni30  1  0.68401700  0.32471800  0.69684000  1
  Ni  Ni31  1  0.18401700  0.67528200  0.30316000  1
  Ni  Ni32  1  0.09299400  0.93356400  0.90192000  1
  Ni  Ni33  1  0.59299400  0.06643600  0.09808000  1
  Ni  Ni34  1  0.82831600  0.52184700  0.66554700  1
  Ni  Ni35  1  0.32831600  0.47815300  0.33445300  1
  Ni  Ni36  1  0.59276600  0.52544700  0.89391500  1
  Ni  Ni37  1  0.09276600  0.47455300  0.10608500  1
  Ni  Ni38  1  0.55958300  0.46981000  0.60459500  1
  Ni  Ni39  1  0.05958300  0.53019000  0.39540500  1
  Ni  Ni40  1  0.32754300  0.47086300  0.83080900  1
  Ni  Ni41  1  0.82754300  0.52913700  0.16919100  1
  Ni  Ni42  1  0.46943700  0.66979400  0.80098000  1
  Ni  Ni43  1  0.96943700  0.33020600  0.19902000  1
  Cu  Cu44  1  0.48302800  0.78609800  0.76406600  1
  Cu  Cu45  1  0.98302800  0.21390200  0.23593400  1
  Cu  Cu46  1  0.60698300  0.64125400  0.85192200  1
  Cu  Cu47  1  0.10698300  0.35874600  0.14807800  1
  Cu  Cu48  1  0.66667900  0.21151300  0.73630400  1
  Cu  Cu49  1  0.16667900  0.78848700  0.26369600  1
  Cu  Cu50  1  0.54389100  0.80868700  0.43126000  1
  Cu  Cu51  1  0.04389100  0.19131300  0.56874000  1
  Cu  Cu52  1  0.91308200  0.95749800  0.56793500  1
  Cu  Cu53  1  0.41308200  0.04250200  0.43206500  1
  Cu  Cu54  1  0.96694300  0.98098400  0.85078200  1
  Cu  Cu55  1  0.46694300  0.01901600  0.14921800  1
  Cu  Cu56  1  0.96983500  0.60831300  0.67512500  1
  Cu  Cu57  1  0.46983500  0.39168700  0.32487500  1
  Cu  Cu58  1  0.10729500  0.80059000  0.92613900  1
  Cu  Cu59  1  0.60729500  0.19941000  0.07386100  1
  Cu  Cu60  1  0.72511300  0.96350300  0.06449700  1
  Cu  Cu61  1  0.22511300  0.03649700  0.93550300  1
  Cu  Cu62  1  0.82561200  0.40933300  0.70895100  1
  Cu  Cu63  1  0.32561200  0.59066700  0.29104900  1
  Cu  Cu64  1  0.92470000  0.50296500  0.44377000  1
  Cu  Cu65  1  0.42470000  0.49703600  0.55623000  1
  Cu  Cu66  1  0.54874500  0.35126700  0.64444100  1
  Cu  Cu67  1  0.04874500  0.64873300  0.35555900  1
  Cu  Cu68  1  0.69982500  0.55557400  0.61382100  1
  Cu  Cu69  1  0.19982500  0.44442500  0.38617900  1
  Cu  Cu70  1  0.69049700  0.61920200  0.18170600  1
  Cu  Cu71  1  0.19049700  0.38079800  0.81829400  1
  Cu  Cu72  1  0.72449400  0.50120000  0.94452100  1
  Cu  Cu73  1  0.22449400  0.49880000  0.05547900  1
  Cu  Cu74  1  0.68887100  0.98882600  0.35715900  1
  Cu  Cu75  1  0.18887100  0.01117400  0.64284100  1
  Cu  Cu76  1  0.45216100  0.44005000  0.88494300  1
  Cu  Cu77  1  0.95216100  0.55995000  0.11505700  1
  Cu  Cu78  1  0.32911700  0.58416400  0.78813700  1
  Cu  Cu79  1  0.82911700  0.41583600  0.21186300  1
  C  C80  1  0.84836400  0.90156000  0.81887900  1
  C  C81  1  0.34836400  0.09844000  0.18112100  1
  C  C82  1  0.69494100  0.91196100  0.99709400  1
  C  C83  1  0.19494100  0.08803900  0.00290600  1
  C  C84  1  0.97859800  0.10882600  0.83783900  1
  C  C85  1  0.47859800  0.89117400  0.16216100  1
  C  C86  1  0.99584500  0.70680800  0.90356600  1
  C  C87  1  0.49584500  0.29319200  0.09643400  1
  C  C88  1  0.85522100  0.93536300  0.10617800  1
  C  C89  1  0.35522100  0.06463700  0.89382200  1
  C  C90  1  0.82844000  0.91669700  0.34173900  1
  C  C91  1  0.32844000  0.08330300  0.65826100  1
  C  C92  1  0.16408100  0.89528600  0.67103300  1
  C  C93  1  0.66408100  0.10471400  0.32896700  1
  C  C94  1  0.23963900  0.77902600  0.97073200  1
  C  C95  1  0.73963900  0.22097400  0.02926800  1
  C  C96  1  0.75273000  0.99289200  0.57848400  1
  C  C97  1  0.25273000  0.00710800  0.42151600  1
  C  C98  1  0.65314900  0.71620600  0.40463300  1
  C  C99  1  0.15314900  0.28379400  0.59536700  1
  C  C100  1  0.42311100  0.78573400  0.48043900  1
  C  C101  1  0.92311100  0.21426600  0.51956100  1
  C  C102  1  0.96379600  0.84348500  0.53630000  1
  C  C103  1  0.46379600  0.15651500  0.46370000  1
