# generated using pymatgen
data_CuNiC5
_symmetry_space_group_name_H-M   'P 1'
_cell_length_a   7.37583839
_cell_length_b   7.85375000
_cell_length_c   22.20262076
_cell_angle_alpha   90.00000000
_cell_angle_beta   96.09026356
_cell_angle_gamma   90.00000000
_symmetry_Int_Tables_number   1
_chemical_formula_structural   CuNiC5
_chemical_formula_sum   'Cu12 Ni12 C60'
_cell_volume   1278.89414610
_cell_formula_units_Z   12
loop_
 _symmetry_equiv_pos_site_id
 _symmetry_equiv_pos_as_xyz
  1  'x, y, z'
loop_
 _atom_site_type_symbol
 _atom_site_label
 _atom_site_symmetry_multiplicity
 _atom_site_fract_x
 _atom_site_fract_y
 _atom_site_fract_z
 _atom_site_occupancy
  C  C0  1  0.84647300  0.82627700  0.00252900  1
  C  C1  1  0.15352700  0.32627700  0.99747100  1
  C  C2  1  0.56041400  0.50383800  0.16834200  1
  C  C3  1  0.43958600  0.00383800  0.83165800  1
  C  C4  1  0.26116400  0.03224500  0.17759300  1
  C  C5  1  0.73883600  0.53224500  0.82240700  1
  C  C6  1  0.99995100  0.32148000  0.31348200  1
  C  C7  1  0.00004900  0.82148000  0.68651800  1
  C  C8  1  0.72394500  0.83028100  0.33042200  1
  C  C9  1  0.27605500  0.33028100  0.66957800  1
  C  C10  1  0.64415200  0.23503400  0.48191300  1
  C  C11  1  0.35584800  0.73503400  0.51808700  1
  Ni  Ni12  1  0.33234400  0.84335100  0.00686600  1
  Ni  Ni13  1  0.66765600  0.34335100  0.99313400  1
  Ni  Ni14  1  0.04819400  0.49604500  0.14521100  1
  Ni  Ni15  1  0.95180600  0.99604500  0.85478900  1
  Ni  Ni16  1  0.75860500  0.01274100  0.18742400  1
  Ni  Ni17  1  0.24139500  0.51274100  0.81257600  1
  Ni  Ni18  1  0.51389500  0.33053200  0.32211500  1
  Ni  Ni19  1  0.48610500  0.83053200  0.67788500  1
  Ni  Ni20  1  0.23014300  0.80273100  0.33707900  1
  Ni  Ni21  1  0.76985700  0.30273100  0.66292100  1
  Ni  Ni22  1  0.15716300  0.24473200  0.49775400  1
  Ni  Ni23  1  0.84283700  0.74473200  0.50224600  1
  Cu  Cu24  1  0.50119700  0.61059100  0.04682400  1
  Cu  Cu25  1  0.49880300  0.11059100  0.95317600  1
  Cu  Cu26  1  0.14271500  0.66618800  0.22662300  1
  Cu  Cu27  1  0.85728500  0.16618800  0.77337700  1
  Cu  Cu28  1  0.84229500  0.09922200  0.09265700  1
  Cu  Cu29  1  0.15770500  0.59922200  0.90734300  1
  Cu  Cu30  1  0.39048300  0.52513100  0.38928700  1
  Cu  Cu31  1  0.60951700  0.02513100  0.61071300  1
  Cu  Cu32  1  0.17874800  0.01155700  0.40856500  1
  Cu  Cu33  1  0.82125200  0.51155700  0.59143500  1
  Cu  Cu34  1  0.02191100  0.03149700  0.55327600  1
  Cu  Cu35  1  0.97808900  0.53149700  0.44672400  1
  C  C36  1  0.22554900  0.99043200  0.04682300  1
  C  C37  1  0.77445100  0.49043200  0.95317700  1
  C  C38  1  0.81706800  0.19320600  0.02523700  1
  C  C39  1  0.18293200  0.69320600  0.97476300  1
  C  C40  1  0.52163700  0.42366100  0.04123000  1
  C  C41  1  0.47836300  0.92366100  0.95877000  1
  C  C42  1  0.48817100  0.73602800  0.06151100  1
  C  C43  1  0.51182900  0.23602800  0.93848900  1
  C  C44  1  0.92359900  0.57780400  0.08361100  1
  C  C45  1  0.07640100  0.07780400  0.91638900  1
  C  C46  1  0.91878200  0.41721400  0.19727900  1
  C  C47  1  0.08121800  0.91721400  0.80272100  1
  C  C48  1  0.21216900  0.35981300  0.12439800  1
  C  C49  1  0.78783100  0.85981300  0.87560200  1
  C  C50  1  0.18208200  0.66523400  0.18471400  1
  C  C51  1  0.81791800  0.16523400  0.81528600  1
  C  C52  1  0.59717500  0.16656600  0.17437000  1
  C  C53  1  0.40282500  0.66656600  0.82563000  1
  C  C54  1  0.65409900  0.82523400  0.20099300  1
  C  C55  1  0.34590100  0.32523400  0.79900700  1
  C  C56  1  0.92879800  0.04266400  0.24508300  1
  C  C57  1  0.07120200  0.54266400  0.75491700  1
  C  C58  1  0.88037800  0.00166200  0.12133500  1
  C  C59  1  0.11962200  0.50166200  0.87866500  1
  C  C60  1  0.33605400  0.29097500  0.26866800  1
  C  C61  1  0.66394600  0.79097500  0.73133200  1
  C  C62  1  0.65380400  0.17021800  0.35074200  1
  C  C63  1  0.34619600  0.67021800  0.64925800  1
  C  C64  1  0.64843100  0.49343100  0.30056300  1
  C  C65  1  0.35156900  0.99343100  0.69943700  1
  C  C66  1  0.41108400  0.39339600  0.38895700  1
  C  C67  1  0.58891600  0.89339600  0.61104300  1
  C  C68  1  0.36476600  0.88131000  0.28643000  1
  C  C69  1  0.63523400  0.38131000  0.71357000  1
  C  C70  1  0.06405100  0.67098900  0.30465800  1
  C  C71  1  0.93594900  0.17098900  0.69534200  1
  C  C72  1  0.36762500  0.71287600  0.39626000  1
  C  C73  1  0.63237500  0.21287600  0.60374000  1
  C  C74  1  0.10907500  0.97475700  0.36861500  1
  C  C75  1  0.89092500  0.47475700  0.63138500  1
  C  C76  1  0.70596400  0.89746100  0.46789500  1
  C  C77  1  0.29403600  0.39746100  0.53210500  1
  C  C78  1  0.00720100  0.82428000  0.55561400  1
  C  C79  1  0.99279900  0.32428000  0.44438600  1
  C  C80  1  0.28164800  0.07791200  0.47337800  1
  C  C81  1  0.71835200  0.57791200  0.52662200  1
  C  C82  1  0.03072200  0.16130100  0.55582800  1
  C  C83  1  0.96927800  0.66130100  0.44417200  1
