# generated using pymatgen
data_CuNiC16
_symmetry_space_group_name_H-M   'P 1'
_cell_length_a   5.41839492
_cell_length_b   5.41839492
_cell_length_c   7.42934765
_cell_angle_alpha   90.00000000
_cell_angle_beta   90.00000000
_cell_angle_gamma   87.55111616
_symmetry_Int_Tables_number   1
_chemical_formula_structural   CuNiC16
_chemical_formula_sum   'Cu1 Ni1 C16'
_cell_volume   217.91904507
_cell_formula_units_Z   1
loop_
 _symmetry_equiv_pos_site_id
 _symmetry_equiv_pos_as_xyz
  1  'x, y, z'
loop_
 _atom_site_type_symbol
 _atom_site_label
 _atom_site_symmetry_multiplicity
 _atom_site_fract_x
 _atom_site_fract_y
 _atom_site_fract_z
 _atom_site_occupancy
  Ni  Ni0  1  0.00108948  0.00108948  0.00000000  1
  Cu  Cu1  1  0.48467970  0.48467970  0.50000000  1
  C  C2  1  0.48422033  0.98446562  0.74996924  1
  C  C3  1  0.48422033  0.98446562  0.25003076  1
  C  C4  1  0.98446562  0.48422033  0.25003076  1
  C  C5  1  0.98446562  0.48422033  0.74996924  1
  C  C6  1  0.77489152  0.24274945  0.74159197  1
  C  C7  1  0.24274945  0.77489152  0.74159197  1
  C  C8  1  0.24274945  0.77489152  0.25840803  1
  C  C9  1  0.77489152  0.24274945  0.25840803  1
  C  C10  1  0.72781182  0.72781182  0.71761283  1
  C  C11  1  0.27854941  0.27854941  0.77276528  1
  C  C12  1  0.27854941  0.27854941  0.22723472  1
  C  C13  1  0.72781182  0.72781182  0.28238717  1
  C  C14  1  0.52895814  0.97753404  0.00000000  1
  C  C15  1  0.48276361  0.04159873  0.50000000  1
  C  C16  1  0.97753404  0.52895814  0.00000000  1
  C  C17  1  0.04159873  0.48276361  0.50000000  1
