# generated using pymatgen
data_Cu2NiC19
_symmetry_space_group_name_H-M   'P 1'
_cell_length_a   5.01290304
_cell_length_b   6.76010545
_cell_length_c   8.68856367
_cell_angle_alpha   92.06008419
_cell_angle_beta   93.62338655
_cell_angle_gamma   104.28195907
_symmetry_Int_Tables_number   1
_chemical_formula_structural   Cu2NiC19
_chemical_formula_sum   'Cu2 Ni1 C19'
_cell_volume   284.36092063
_cell_formula_units_Z   1
loop_
 _symmetry_equiv_pos_site_id
 _symmetry_equiv_pos_as_xyz
  1  'x, y, z'
loop_
 _atom_site_type_symbol
 _atom_site_label
 _atom_site_symmetry_multiplicity
 _atom_site_fract_x
 _atom_site_fract_y
 _atom_site_fract_z
 _atom_site_occupancy
  C  C0  1  0.06013300  0.12874100  0.36426900  1
  Ni  Ni1  1  0.97173000  0.82369600  0.61929600  1
  C  C2  1  0.40217100  0.75607400  0.80893300  1
  C  C3  1  0.59778500  0.28257200  0.16891700  1
  C  C4  1  0.98964600  0.66350500  0.27109500  1
  C  C5  1  0.01410800  0.36284900  0.72381100  1
  Cu  Cu6  1  0.50005700  0.51001200  0.49542800  1
  Cu  Cu7  1  0.99904900  0.01653100  0.98664400  1
  C  C8  1  0.12568700  0.85140600  0.18566200  1
  C  C9  1  0.87209800  0.18717500  0.81725900  1
  C  C10  1  0.48863600  0.75986200  0.64054600  1
  C  C11  1  0.53560700  0.26186800  0.34303100  1
  C  C12  1  0.23103900  0.52780200  0.84013700  1
  C  C13  1  0.75791700  0.51869300  0.15238100  1
  C  C14  1  0.19262300  0.89491500  0.81535500  1
  C  C15  1  0.80043700  0.14841800  0.14698000  1
  C  C16  1  0.17234000  0.53000900  0.33281600  1
  C  C17  1  0.81445600  0.47840700  0.65403200  1
  C  C18  1  0.63425300  0.80388600  0.93448600  1
  C  C19  1  0.34937800  0.24451000  0.05545600  1
  C  C20  1  0.19131500  0.29244100  0.60136100  1
  C  C21  1  0.82731200  0.74366500  0.40147900  1
