# generated using pymatgen
data_Cu9(NiC)2
_symmetry_space_group_name_H-M   'P 1'
_cell_length_a   5.20859300
_cell_length_b   8.10572900
_cell_length_c   9.24787327
_cell_angle_alpha   77.14617690
_cell_angle_beta   90.00000000
_cell_angle_gamma   90.00000000
_symmetry_Int_Tables_number   1
_chemical_formula_structural   Cu9(NiC)2
_chemical_formula_sum   'Cu18 Ni4 C4'
_cell_volume   380.65594737
_cell_formula_units_Z   2
loop_
 _symmetry_equiv_pos_site_id
 _symmetry_equiv_pos_as_xyz
  1  'x, y, z'
loop_
 _atom_site_type_symbol
 _atom_site_label
 _atom_site_symmetry_multiplicity
 _atom_site_fract_x
 _atom_site_fract_y
 _atom_site_fract_z
 _atom_site_occupancy
  C  C0  1  0.25000000  0.42419600  0.21729100  1
  C  C1  1  0.75000000  0.57580400  0.78270900  1
  C  C2  1  0.25000000  0.91165400  0.22592800  1
  C  C3  1  0.75000000  0.08834600  0.77407200  1
  Ni  Ni4  1  0.25000000  0.33221900  0.65433400  1
  Ni  Ni5  1  0.75000000  0.66778100  0.34566600  1
  Ni  Ni6  1  0.25000000  0.84603300  0.88217700  1
  Ni  Ni7  1  0.75000000  0.15396700  0.11782300  1
  Cu  Cu8  1  0.25000000  0.26086800  0.52020800  1
  Cu  Cu9  1  0.75000000  0.73913200  0.47979200  1
  Cu  Cu10  1  0.25000000  0.51652900  0.62375000  1
  Cu  Cu11  1  0.75000000  0.48347100  0.37625000  1
  Cu  Cu12  1  0.01734300  0.26993900  0.74921900  1
  Cu  Cu13  1  0.51734300  0.73006100  0.25078100  1
  Cu  Cu14  1  0.98265700  0.73006100  0.25078100  1
  Cu  Cu15  1  0.48265700  0.26993900  0.74921900  1
  Cu  Cu16  1  0.25000000  0.93737500  0.00513400  1
  Cu  Cu17  1  0.75000000  0.06262500  0.99486600  1
  Cu  Cu18  1  0.25000000  0.66247000  0.93382400  1
  Cu  Cu19  1  0.75000000  0.33753000  0.06617600  1
  Cu  Cu20  1  0.01631400  0.89988500  0.78793900  1
  Cu  Cu21  1  0.51631400  0.10011500  0.21206100  1
  Cu  Cu22  1  0.98368600  0.10011500  0.21206100  1
  Cu  Cu23  1  0.48368600  0.89988500  0.78793900  1
  Cu  Cu24  1  0.25000000  0.89327100  0.45424200  1
  Cu  Cu25  1  0.75000000  0.10672900  0.54575800  1
