# generated using pymatgen
data_Cu3Ni3C14
_symmetry_space_group_name_H-M   'P 1'
_cell_length_a   7.13093900
_cell_length_b   8.47222500
_cell_length_c   11.11193413
_cell_angle_alpha   79.99474906
_cell_angle_beta   90.00000000
_cell_angle_gamma   90.00000000
_symmetry_Int_Tables_number   1
_chemical_formula_structural   Cu3Ni3C14
_chemical_formula_sum   'Cu6 Ni6 C28'
_cell_volume   661.11696188
_cell_formula_units_Z   2
loop_
 _symmetry_equiv_pos_site_id
 _symmetry_equiv_pos_as_xyz
  1  'x, y, z'
loop_
 _atom_site_type_symbol
 _atom_site_label
 _atom_site_symmetry_multiplicity
 _atom_site_fract_x
 _atom_site_fract_y
 _atom_site_fract_z
 _atom_site_occupancy
  C  C0  1  0.75000000  0.38166500  0.18228000  1
  C  C1  1  0.25000000  0.61833500  0.81772000  1
  Ni  Ni2  1  0.25000000  0.64276200  0.22241700  1
  Ni  Ni3  1  0.75000000  0.35723800  0.77758300  1
  Ni  Ni4  1  0.25000000  0.20266100  0.44035500  1
  Ni  Ni5  1  0.50000000  0.00000000  0.00000000  1
  Ni  Ni6  1  0.75000000  0.79733900  0.55964500  1
  Ni  Ni7  1  0.00000000  0.00000000  0.00000000  1
  Cu  Cu8  1  0.25000000  0.77639300  0.51477900  1
  Cu  Cu9  1  0.75000000  0.22360700  0.48522100  1
  Cu  Cu10  1  0.25000000  0.27208800  0.76576200  1
  Cu  Cu11  1  0.75000000  0.72791200  0.23423800  1
  Cu  Cu12  1  0.75000000  0.67774500  0.89090900  1
  Cu  Cu13  1  0.25000000  0.32225500  0.10909100  1
  C  C14  1  0.75000000  0.65035500  0.75371900  1
  C  C15  1  0.57757800  0.24484300  0.39699700  1
  C  C16  1  0.25000000  0.21818300  0.64172600  1
  C  C17  1  0.56460200  0.76862900  0.90780900  1
  C  C18  1  0.75000000  0.34939600  0.57048500  1
  C  C19  1  0.75000000  0.12596700  0.89706300  1
  C  C20  1  0.25000000  0.65060400  0.42951500  1
  C  C21  1  0.06460200  0.23137100  0.09219100  1
  C  C22  1  0.25000000  0.94542900  0.43034600  1
  C  C23  1  0.75000000  0.05457100  0.56965400  1
  C  C24  1  0.08065100  0.38093900  0.78476000  1
  C  C25  1  0.25000000  0.87403300  0.10293700  1
  C  C26  1  0.58065100  0.61906100  0.21524000  1
  C  C27  1  0.75000000  0.50583700  0.96745000  1
  C  C28  1  0.75000000  0.78181700  0.35827400  1
  C  C29  1  0.43539800  0.23137100  0.09219100  1
  C  C30  1  0.92242200  0.24484300  0.39699700  1
  C  C31  1  0.42242200  0.75515700  0.60300300  1
  C  C32  1  0.41934900  0.38093900  0.78476000  1
  C  C33  1  0.25000000  0.34964500  0.24628100  1
  C  C34  1  0.75000000  0.88526400  0.13519800  1
  C  C35  1  0.25000000  0.11473600  0.86480200  1
  C  C36  1  0.91934900  0.61906100  0.21524000  1
  C  C37  1  0.93539800  0.76862900  0.90780900  1
  C  C38  1  0.07757800  0.75515700  0.60300300  1
  C  C39  1  0.25000000  0.49416300  0.03255000  1
