# generated using pymatgen
data_Cu20Ni3C8
_symmetry_space_group_name_H-M   'P 1'
_cell_length_a   12.09968647
_cell_length_b   12.09968647
_cell_length_c   8.02794800
_cell_angle_alpha   90.00000000
_cell_angle_beta   90.00000000
_cell_angle_gamma   120.00000259
_symmetry_Int_Tables_number   1
_chemical_formula_structural   Cu20Ni3C8
_chemical_formula_sum   'Cu40 Ni6 C16'
_cell_volume   1017.84911923
_cell_formula_units_Z   2
loop_
 _symmetry_equiv_pos_site_id
 _symmetry_equiv_pos_as_xyz
  1  'x, y, z'
loop_
 _atom_site_type_symbol
 _atom_site_label
 _atom_site_symmetry_multiplicity
 _atom_site_fract_x
 _atom_site_fract_y
 _atom_site_fract_z
 _atom_site_occupancy
  C  C0  1  0.08689200  0.44606100  0.75000000  1
  C  C1  1  0.55393900  0.64083200  0.75000000  1
  C  C2  1  0.35916800  0.91310800  0.75000000  1
  C  C3  1  0.91310800  0.55393900  0.25000000  1
  C  C4  1  0.44606100  0.35916800  0.25000000  1
  C  C5  1  0.64083200  0.08689200  0.25000000  1
  C  C6  1  0.66666700  0.33333300  0.75000000  1
  C  C7  1  0.33333300  0.66666700  0.25000000  1
  C  C8  1  0.00000000  0.00000000  0.50000000  1
  C  C9  1  0.00000000  0.00000000  0.00000000  1
  C  C10  1  0.95425000  0.67112100  0.75000000  1
  C  C11  1  0.32887900  0.28312900  0.75000000  1
  C  C12  1  0.71687100  0.04575000  0.75000000  1
  C  C13  1  0.04575000  0.32887900  0.25000000  1
  C  C14  1  0.67112100  0.71687100  0.25000000  1
  C  C15  1  0.28312900  0.95425000  0.25000000  1
  Ni  Ni16  1  0.58663200  0.88594800  0.75000000  1
  Ni  Ni17  1  0.11405200  0.70068400  0.75000000  1
  Ni  Ni18  1  0.29931600  0.41336800  0.75000000  1
  Ni  Ni19  1  0.41336800  0.11405200  0.25000000  1
  Ni  Ni20  1  0.88594800  0.29931600  0.25000000  1
  Ni  Ni21  1  0.70068400  0.58663200  0.25000000  1
  Cu  Cu22  1  0.41038900  0.16184600  0.75000000  1
  Cu  Cu23  1  0.83815400  0.24854300  0.75000000  1
  Cu  Cu24  1  0.75145700  0.58961100  0.75000000  1
  Cu  Cu25  1  0.58961100  0.83815400  0.25000000  1
  Cu  Cu26  1  0.16184600  0.75145700  0.25000000  1
  Cu  Cu27  1  0.24854300  0.41038900  0.25000000  1
  Cu  Cu28  1  0.89993400  0.50761800  0.59835500  1
  Cu  Cu29  1  0.49238200  0.39231500  0.59835500  1
  Cu  Cu30  1  0.60768500  0.10006600  0.59835500  1
  Cu  Cu31  1  0.10006600  0.49238200  0.09835500  1
  Cu  Cu32  1  0.50761800  0.60768500  0.09835500  1
  Cu  Cu33  1  0.39231500  0.89993400  0.09835500  1
  Cu  Cu34  1  0.10006600  0.49238200  0.40164500  1
  Cu  Cu35  1  0.50761800  0.60768500  0.40164500  1
  Cu  Cu36  1  0.39231500  0.89993400  0.40164500  1
  Cu  Cu37  1  0.89993400  0.50761800  0.90164500  1
  Cu  Cu38  1  0.49238200  0.39231500  0.90164500  1
  Cu  Cu39  1  0.60768500  0.10006600  0.90164500  1
  Cu  Cu40  1  0.66666700  0.33333300  0.37391900  1
  Cu  Cu41  1  0.33333300  0.66666700  0.87391900  1
  Cu  Cu42  1  0.33333300  0.66666700  0.62608100  1
  Cu  Cu43  1  0.66666700  0.33333300  0.12608100  1
  Cu  Cu44  1  0.94755600  0.72181900  0.98990700  1
  Cu  Cu45  1  0.27818100  0.22573800  0.98990700  1
  Cu  Cu46  1  0.77426200  0.05244400  0.98990700  1
  Cu  Cu47  1  0.05244400  0.27818100  0.48990700  1
  Cu  Cu48  1  0.72181900  0.77426200  0.48990700  1
  Cu  Cu49  1  0.22573800  0.94755600  0.48990700  1
  Cu  Cu50  1  0.05244400  0.27818100  0.01009300  1
  Cu  Cu51  1  0.72181900  0.77426200  0.01009300  1
  Cu  Cu52  1  0.22573800  0.94755600  0.01009300  1
  Cu  Cu53  1  0.94755600  0.72181900  0.51009300  1
  Cu  Cu54  1  0.27818100  0.22573800  0.51009300  1
  Cu  Cu55  1  0.77426200  0.05244400  0.51009300  1
  Cu  Cu56  1  0.99915400  0.85822000  0.75000000  1
  Cu  Cu57  1  0.14178000  0.14093500  0.75000000  1
  Cu  Cu58  1  0.85906500  0.00084600  0.75000000  1
  Cu  Cu59  1  0.00084600  0.14178000  0.25000000  1
  Cu  Cu60  1  0.85822000  0.85906500  0.25000000  1
  Cu  Cu61  1  0.14093500  0.99915400  0.25000000  1
