# generated using pymatgen
data_Cu5Ni2C25
_symmetry_space_group_name_H-M   'P 1'
_cell_length_a   4.98938300
_cell_length_b   5.84950814
_cell_length_c   9.80962431
_cell_angle_alpha   99.42451067
_cell_angle_beta   94.34700514
_cell_angle_gamma   91.11929388
_symmetry_Int_Tables_number   1
_chemical_formula_structural   Cu5Ni2C25
_chemical_formula_sum   'Cu5 Ni2 C25'
_cell_volume   281.47273811
_cell_formula_units_Z   1
loop_
 _symmetry_equiv_pos_site_id
 _symmetry_equiv_pos_as_xyz
  1  'x, y, z'
loop_
 _atom_site_type_symbol
 _atom_site_label
 _atom_site_symmetry_multiplicity
 _atom_site_fract_x
 _atom_site_fract_y
 _atom_site_fract_z
 _atom_site_occupancy
  C  C0  1  0.89143500  0.81424200  0.27011600  1
  C  C1  1  0.12699400  0.69398800  0.73207700  1
  C  C2  1  0.38099400  0.57180900  0.26442700  1
  C  C3  1  0.87246800  0.31181800  0.26398000  1
  C  C4  1  0.12689000  0.18467100  0.73062100  1
  C  C5  1  0.38378200  0.05395500  0.26467200  1
  C  C6  1  0.60557500  0.93381400  0.73434300  1
  C  C7  1  0.62479100  0.43635700  0.73866700  1
  C  C8  1  0.25224100  0.87243900  0.49908500  1
  Ni  Ni9  1  0.99893400  0.00022400  0.00016300  1
  Ni  Ni10  1  0.99992600  0.50008300  0.00032100  1
  Cu  Cu11  1  0.49986100  0.74868900  0.00166900  1
  Cu  Cu12  1  0.75372000  0.62901100  0.49956000  1
  Cu  Cu13  1  0.24556900  0.37367900  0.49819800  1
  Cu  Cu14  1  0.49878400  0.25146900  0.99771600  1
  Cu  Cu15  1  0.73885000  0.11927200  0.50373200  1
  C  C16  1  0.67246200  0.03470000  0.10530400  1
  C  C17  1  0.91509400  0.89032400  0.61519700  1
  C  C18  1  0.19912500  0.75798200  0.11633600  1
  C  C19  1  0.68237500  0.52867400  0.10444000  1
  C  C20  1  0.93254800  0.42100000  0.61484900  1
  C  C21  1  0.17972200  0.28090400  0.10565700  1
  C  C22  1  0.44746000  0.15927100  0.61913300  1
  C  C23  1  0.45051300  0.63957500  0.61097500  1
  C  C24  1  0.03887300  0.59016100  0.38701400  1
  C  C25  1  0.31565700  0.47115500  0.89447000  1
  C  C26  1  0.57230400  0.35842100  0.38532800  1
  C  C27  1  0.06281900  0.10969100  0.38332300  1
  C  C28  1  0.32336200  0.96504000  0.89310800  1
  C  C29  1  0.58497000  0.83386000  0.38487200  1
  C  C30  1  0.81945900  0.71956600  0.89521400  1
  C  C31  1  0.80244300  0.24415300  0.88543300  1
