# generated using pymatgen
data_Cu15Ni3C
_symmetry_space_group_name_H-M   'P 1'
_cell_length_a   6.90936084
_cell_length_b   9.41828243
_cell_length_c   11.63444481
_cell_angle_alpha   68.38592548
_cell_angle_beta   89.91803227
_cell_angle_gamma   65.70259708
_symmetry_Int_Tables_number   1
_chemical_formula_structural   Cu15Ni3C
_chemical_formula_sum   'Cu30 Ni6 C2'
_cell_volume   631.37059490
_cell_formula_units_Z   2
loop_
 _symmetry_equiv_pos_site_id
 _symmetry_equiv_pos_as_xyz
  1  'x, y, z'
loop_
 _atom_site_type_symbol
 _atom_site_label
 _atom_site_symmetry_multiplicity
 _atom_site_fract_x
 _atom_site_fract_y
 _atom_site_fract_z
 _atom_site_occupancy
  C  C0  1  0.14328100  0.36705900  0.78419300  1
  C  C1  1  0.85671900  0.63294100  0.21580700  1
  Ni  Ni2  1  0.06318500  0.16008300  0.01907000  1
  Ni  Ni3  1  0.93681500  0.83991700  0.98093000  1
  Ni  Ni4  1  0.15249600  0.26798100  0.31226500  1
  Ni  Ni5  1  0.84750400  0.73201900  0.68773500  1
  Ni  Ni6  1  0.09389400  0.15886500  0.65858200  1
  Ni  Ni7  1  0.90610600  0.84113500  0.34141800  1
  Cu  Cu8  1  0.29359100  0.12238300  0.34815700  1
  Cu  Cu9  1  0.70640900  0.87761700  0.65184300  1
  Cu  Cu10  1  0.62163100  0.25737800  0.42762500  1
  Cu  Cu11  1  0.37836900  0.74262200  0.57237500  1
  Cu  Cu12  1  0.10383000  0.35115700  0.38407200  1
  Cu  Cu13  1  0.89617000  0.64884300  0.61592800  1
  Cu  Cu14  1  0.56444800  0.27471800  0.11796900  1
  Cu  Cu15  1  0.43555200  0.72528200  0.88203100  1
  Cu  Cu16  1  0.62906900  0.36752200  0.33234800  1
  Cu  Cu17  1  0.37093100  0.63247800  0.66765200  1
  Cu  Cu18  1  0.05464500  0.06950900  0.61745500  1
  Cu  Cu19  1  0.94535500  0.93049100  0.38254500  1
  Cu  Cu20  1  0.01154800  0.07037200  0.10689300  1
  Cu  Cu21  1  0.98845200  0.92962800  0.89310700  1
  Cu  Cu22  1  0.25641200  0.11319800  0.99611100  1
  Cu  Cu23  1  0.74358800  0.88680200  0.00388900  1
  Cu  Cu24  1  0.49605800  0.71292000  0.17949300  1
  Cu  Cu25  1  0.50394200  0.28708000  0.82050700  1
  Cu  Cu26  1  0.49705100  0.43764500  0.54066300  1
  Cu  Cu27  1  0.50294900  0.56235500  0.45933700  1
  Cu  Cu28  1  0.07730200  0.68956900  0.05856900  1
  Cu  Cu29  1  0.92269800  0.31043100  0.94143100  1
  Cu  Cu30  1  0.57007700  0.64451700  0.97755000  1
  Cu  Cu31  1  0.42992300  0.35548300  0.02245000  1
  Cu  Cu32  1  0.04185500  0.35261200  0.19876900  1
  Cu  Cu33  1  0.95814500  0.64738800  0.80123100  1
  Cu  Cu34  1  0.27837000  0.11139100  0.72046000  1
  Cu  Cu35  1  0.72163000  0.88860900  0.27953900  1
  Cu  Cu36  1  0.05134500  0.69083700  0.35762300  1
  Cu  Cu37  1  0.94865500  0.30916300  0.64237700  1
