# generated using pymatgen
data_CuNi3C7
_symmetry_space_group_name_H-M   'P 1'
_cell_length_a   6.86380976
_cell_length_b   6.86380976
_cell_length_c   6.86381026
_cell_angle_alpha   92.05698322
_cell_angle_beta   92.05698322
_cell_angle_gamma   92.05698496
_symmetry_Int_Tables_number   1
_chemical_formula_structural   CuNi3C7
_chemical_formula_sum   'Cu2 Ni6 C14'
_cell_volume   322.72653871
_cell_formula_units_Z   2
loop_
 _symmetry_equiv_pos_site_id
 _symmetry_equiv_pos_as_xyz
  1  'x, y, z'
loop_
 _atom_site_type_symbol
 _atom_site_label
 _atom_site_symmetry_multiplicity
 _atom_site_fract_x
 _atom_site_fract_y
 _atom_site_fract_z
 _atom_site_occupancy
  Ni  Ni0  1  0.25000000  0.88126400  0.61873600  1
  Ni  Ni1  1  0.88126400  0.61873600  0.25000000  1
  Ni  Ni2  1  0.75000000  0.11873600  0.38126400  1
  Ni  Ni3  1  0.38126400  0.75000000  0.11873600  1
  Ni  Ni4  1  0.11873600  0.38126400  0.75000000  1
  Ni  Ni5  1  0.61873600  0.25000000  0.88126400  1
  Cu  Cu6  1  0.75000000  0.75000000  0.75000000  1
  Cu  Cu7  1  0.25000000  0.25000000  0.25000000  1
  C  C8  1  0.50000000  0.50000000  0.50000000  1
  C  C9  1  0.00000000  0.00000000  0.00000000  1
  C  C10  1  0.59028700  0.79196600  0.45594100  1
  C  C11  1  0.45594100  0.59028700  0.79196600  1
  C  C12  1  0.79196600  0.45594100  0.59028700  1
  C  C13  1  0.90971300  0.04405900  0.70803400  1
  C  C14  1  0.70803400  0.90971300  0.04405900  1
  C  C15  1  0.04405900  0.70803400  0.90971300  1
  C  C16  1  0.40971300  0.20803400  0.54405900  1
  C  C17  1  0.54405900  0.40971300  0.20803400  1
  C  C18  1  0.20803400  0.54405900  0.40971300  1
  C  C19  1  0.09028700  0.95594100  0.29196600  1
  C  C20  1  0.95594100  0.29196600  0.09028700  1
  C  C21  1  0.29196600  0.09028700  0.95594100  1
