# generated using pymatgen
data_Cu30Ni7C4
_symmetry_space_group_name_H-M   'P 1'
_cell_length_a   12.85528400
_cell_length_b   12.85528400
_cell_length_c   7.15580600
_cell_angle_alpha   90.00000000
_cell_angle_beta   90.00000000
_cell_angle_gamma   90.00000000
_symmetry_Int_Tables_number   1
_chemical_formula_structural   Cu30Ni7C4
_chemical_formula_sum   'Cu60 Ni14 C8'
_cell_volume   1182.55652590
_cell_formula_units_Z   2
loop_
 _symmetry_equiv_pos_site_id
 _symmetry_equiv_pos_as_xyz
  1  'x, y, z'
loop_
 _atom_site_type_symbol
 _atom_site_label
 _atom_site_symmetry_multiplicity
 _atom_site_fract_x
 _atom_site_fract_y
 _atom_site_fract_z
 _atom_site_occupancy
  C  C0  1  0.19877500  0.30122500  0.40750200  1
  C  C1  1  0.30122500  0.80122500  0.59249800  1
  C  C2  1  0.80122500  0.69877500  0.40750200  1
  C  C3  1  0.69877500  0.19877500  0.59249800  1
  C  C4  1  0.36112400  0.13887600  0.01903200  1
  C  C5  1  0.13887600  0.63887600  0.98096800  1
  C  C6  1  0.63887600  0.86112400  0.01903200  1
  C  C7  1  0.86112400  0.36112400  0.98096800  1
  Ni  Ni8  1  0.50000000  0.00000000  0.65384900  1
  Ni  Ni9  1  0.00000000  0.50000000  0.34615100  1
  Ni  Ni10  1  0.62366600  0.12366600  0.10558500  1
  Ni  Ni11  1  0.87633400  0.62366600  0.89441500  1
  Ni  Ni12  1  0.37633400  0.87633400  0.10558500  1
  Ni  Ni13  1  0.12366600  0.37633400  0.89441500  1
  Ni  Ni14  1  0.43574400  0.32357800  0.70086400  1
  Ni  Ni15  1  0.06425600  0.82357800  0.29913600  1
  Ni  Ni16  1  0.56425600  0.67642200  0.70086400  1
  Ni  Ni17  1  0.93574400  0.17642200  0.29913600  1
  Ni  Ni18  1  0.32357800  0.56425600  0.29913600  1
  Ni  Ni19  1  0.17642200  0.06425600  0.70086400  1
  Ni  Ni20  1  0.67642200  0.43574400  0.29913600  1
  Ni  Ni21  1  0.82357800  0.93574400  0.70086400  1
  Cu  Cu22  1  0.29801800  0.20198200  0.20900000  1
  Cu  Cu23  1  0.20198200  0.70198200  0.79100000  1
  Cu  Cu24  1  0.70198200  0.79801800  0.20900000  1
  Cu  Cu25  1  0.79801800  0.29801800  0.79100000  1
  Cu  Cu26  1  0.43247800  0.93247800  0.53995000  1
  Cu  Cu27  1  0.06752200  0.43247800  0.46005000  1
  Cu  Cu28  1  0.56752200  0.06752200  0.53995000  1
  Cu  Cu29  1  0.93247800  0.56752200  0.46005000  1
  Cu  Cu30  1  0.43359800  0.06640200  0.77558600  1
  Cu  Cu31  1  0.06640200  0.56640200  0.22441400  1
  Cu  Cu32  1  0.56640200  0.93359800  0.77558600  1
  Cu  Cu33  1  0.93359800  0.43359800  0.22441400  1
  Cu  Cu34  1  0.65654700  0.15654700  0.92091700  1
  Cu  Cu35  1  0.84345300  0.65654700  0.07908300  1
  Cu  Cu36  1  0.34345300  0.84345300  0.92091700  1
  Cu  Cu37  1  0.15654700  0.34345300  0.07908300  1
  Cu  Cu38  1  0.67629300  0.17629300  0.25954900  1
  Cu  Cu39  1  0.82370700  0.67629300  0.74045100  1
  Cu  Cu40  1  0.32370700  0.82370700  0.25954900  1
  Cu  Cu41  1  0.17629300  0.32370700  0.74045100  1
  Cu  Cu42  1  0.50855800  0.14214900  0.12958200  1
  Cu  Cu43  1  0.99144200  0.64214900  0.87041800  1
  Cu  Cu44  1  0.49144200  0.85785100  0.12958200  1
  Cu  Cu45  1  0.00855800  0.35785100  0.87041800  1
  Cu  Cu46  1  0.14214900  0.49144200  0.87041800  1
  Cu  Cu47  1  0.35785100  0.99144200  0.12958200  1
  Cu  Cu48  1  0.85785100  0.50855800  0.87041800  1
  Cu  Cu49  1  0.64214900  0.00855800  0.12958200  1
  Cu  Cu50  1  0.36870300  0.28943000  0.54561700  1
  Cu  Cu51  1  0.13129700  0.78943000  0.45438300  1
  Cu  Cu52  1  0.63129700  0.71057000  0.54561700  1
  Cu  Cu53  1  0.86870300  0.21057000  0.45438300  1
  Cu  Cu54  1  0.28943000  0.63129700  0.45438300  1
  Cu  Cu55  1  0.21057000  0.13129700  0.54561700  1
  Cu  Cu56  1  0.71057000  0.36870300  0.45438300  1
  Cu  Cu57  1  0.78943000  0.86870300  0.54561700  1
  Cu  Cu58  1  0.54383600  0.29048400  0.67374900  1
  Cu  Cu59  1  0.95616400  0.79048400  0.32625100  1
  Cu  Cu60  1  0.45616400  0.70951600  0.67374900  1
  Cu  Cu61  1  0.04383600  0.20951600  0.32625100  1
  Cu  Cu62  1  0.29048400  0.45616400  0.32625100  1
  Cu  Cu63  1  0.20951600  0.95616400  0.67374900  1
  Cu  Cu64  1  0.70951600  0.54383600  0.32625100  1
  Cu  Cu65  1  0.79048400  0.04383600  0.67374900  1
  Cu  Cu66  1  0.42521200  0.43573900  0.73066000  1
  Cu  Cu67  1  0.07478800  0.93573900  0.26934000  1
  Cu  Cu68  1  0.57478800  0.56426100  0.73066000  1
  Cu  Cu69  1  0.92521200  0.06426100  0.26934000  1
  Cu  Cu70  1  0.43573900  0.57478800  0.26934000  1
  Cu  Cu71  1  0.06426100  0.07478800  0.73066000  1
  Cu  Cu72  1  0.56426100  0.42521200  0.26934000  1
  Cu  Cu73  1  0.93573900  0.92521200  0.73066000  1
  Cu  Cu74  1  0.39463900  0.26996100  0.87919800  1
  Cu  Cu75  1  0.10536100  0.76996100  0.12080200  1
  Cu  Cu76  1  0.60536100  0.73003900  0.87919800  1
  Cu  Cu77  1  0.89463900  0.23003900  0.12080200  1
  Cu  Cu78  1  0.26996100  0.60536100  0.12080200  1
  Cu  Cu79  1  0.23003900  0.10536100  0.87919800  1
  Cu  Cu80  1  0.73003900  0.39463900  0.12080200  1
  Cu  Cu81  1  0.76996100  0.89463900  0.87919800  1
