# generated using pymatgen
data_Cu3NiC4
_symmetry_space_group_name_H-M   'P 1'
_cell_length_a   10.47471191
_cell_length_b   10.47471191
_cell_length_c   10.47471191
_cell_angle_alpha   114.15626600
_cell_angle_beta   114.15626600
_cell_angle_gamma   100.45985888
_symmetry_Int_Tables_number   1
_chemical_formula_structural   Cu3NiC4
_chemical_formula_sum   'Cu12 Ni4 C16'
_cell_volume   868.67855181
_cell_formula_units_Z   4
loop_
 _symmetry_equiv_pos_site_id
 _symmetry_equiv_pos_as_xyz
  1  'x, y, z'
loop_
 _atom_site_type_symbol
 _atom_site_label
 _atom_site_symmetry_multiplicity
 _atom_site_fract_x
 _atom_site_fract_y
 _atom_site_fract_z
 _atom_site_occupancy
  C  C0  1  0.75000000  0.25000000  0.50000000  1
  C  C1  1  0.00000000  0.00000000  0.00000000  1
  Ni  Ni2  1  0.37500000  0.12500000  0.75000000  1
  Ni  Ni3  1  0.37500000  0.62500000  0.25000000  1
  Ni  Ni4  1  0.87500000  0.62500000  0.25000000  1
  Ni  Ni5  1  0.37500000  0.62500000  0.75000000  1
  Cu  Cu6  1  0.07153800  0.57153800  0.50000000  1
  Cu  Cu7  1  0.67846200  0.67846200  0.00000000  1
  Cu  Cu8  1  0.42846200  0.92846200  0.50000000  1
  Cu  Cu9  1  0.32153800  0.32153800  0.00000000  1
  Cu  Cu10  1  0.54759100  0.45240900  0.50000000  1
  Cu  Cu11  1  0.95240900  0.04759100  0.50000000  1
  Cu  Cu12  1  0.79759100  0.20240900  0.00000000  1
  Cu  Cu13  1  0.20240900  0.79759100  0.00000000  1
  Cu  Cu14  1  0.54759100  0.04759100  0.09518200  1
  Cu  Cu15  1  0.95240900  0.45240900  0.90481800  1
  Cu  Cu16  1  0.79759100  0.79759100  0.59518200  1
  Cu  Cu17  1  0.20240900  0.20240900  0.40481800  1
  C  C18  1  0.93079000  0.43079000  0.50000000  1
  C  C19  1  0.81921000  0.81921000  0.00000000  1
  C  C20  1  0.56921000  0.06921000  0.50000000  1
  C  C21  1  0.18079000  0.18079000  0.00000000  1
  C  C22  1  0.53893600  0.25537600  0.28356000  1
  C  C23  1  0.97181600  0.25537600  0.71644000  1
  C  C24  1  0.77818400  0.99462400  0.78356000  1
  C  C25  1  0.21106400  0.99462400  0.21644000  1
  C  C26  1  0.74462400  0.46106400  0.71644000  1
  C  C27  1  0.74462400  0.02818400  0.28356000  1
  C  C28  1  0.00537600  0.22181600  0.21644000  1
  C  C29  1  0.00537600  0.78893600  0.78356000  1
  C  C30  1  0.25000000  0.75000000  0.50000000  1
  C  C31  1  0.50000000  0.50000000  0.00000000  1
