# generated using pymatgen
data_Cu12NiC8
_symmetry_space_group_name_H-M   'P 1'
_cell_length_a   10.21306634
_cell_length_b   10.21306634
_cell_length_c   6.78206700
_cell_angle_alpha   90.00000000
_cell_angle_beta   90.00000000
_cell_angle_gamma   120.00000221
_symmetry_Int_Tables_number   1
_chemical_formula_structural   Cu12NiC8
_chemical_formula_sum   'Cu24 Ni2 C16'
_cell_volume   612.63951303
_cell_formula_units_Z   2
loop_
 _symmetry_equiv_pos_site_id
 _symmetry_equiv_pos_as_xyz
  1  'x, y, z'
loop_
 _atom_site_type_symbol
 _atom_site_label
 _atom_site_symmetry_multiplicity
 _atom_site_fract_x
 _atom_site_fract_y
 _atom_site_fract_z
 _atom_site_occupancy
  C  C0  1  0.66666700  0.33333300  0.50265000  1
  C  C1  1  0.33333300  0.66666700  0.00265000  1
  C  C2  1  0.33333300  0.66666700  0.49735000  1
  C  C3  1  0.66666700  0.33333300  0.99735000  1
  C  C4  1  0.03005300  0.26652400  0.75000000  1
  C  C5  1  0.73347600  0.76352800  0.75000000  1
  C  C6  1  0.23647200  0.96994700  0.75000000  1
  C  C7  1  0.96994700  0.73347600  0.25000000  1
  C  C8  1  0.26652400  0.23647200  0.25000000  1
  C  C9  1  0.76352800  0.03005300  0.25000000  1
  C  C10  1  0.38296000  0.41240600  0.75000000  1
  C  C11  1  0.58759400  0.97055400  0.75000000  1
  C  C12  1  0.02944600  0.61704000  0.75000000  1
  C  C13  1  0.61704000  0.58759400  0.25000000  1
  C  C14  1  0.41240600  0.02944600  0.25000000  1
  C  C15  1  0.97055400  0.38296000  0.25000000  1
  Ni  Ni16  1  0.00000000  0.00000000  0.50000000  1
  Ni  Ni17  1  0.00000000  0.00000000  0.00000000  1
  Cu  Cu18  1  0.50304400  0.34185300  0.75000000  1
  Cu  Cu19  1  0.65814700  0.16119100  0.75000000  1
  Cu  Cu20  1  0.83880900  0.49695600  0.75000000  1
  Cu  Cu21  1  0.49695600  0.65814700  0.25000000  1
  Cu  Cu22  1  0.34185300  0.83880900  0.25000000  1
  Cu  Cu23  1  0.16119100  0.50304400  0.25000000  1
  Cu  Cu24  1  0.46627100  0.60867300  0.75000000  1
  Cu  Cu25  1  0.39132700  0.85759900  0.75000000  1
  Cu  Cu26  1  0.14240100  0.53372900  0.75000000  1
  Cu  Cu27  1  0.53372900  0.39132700  0.25000000  1
  Cu  Cu28  1  0.60867300  0.14240100  0.25000000  1
  Cu  Cu29  1  0.85759900  0.46627100  0.25000000  1
  Cu  Cu30  1  0.26217200  0.34961500  0.54969600  1
  Cu  Cu31  1  0.65038500  0.91255800  0.54969600  1
  Cu  Cu32  1  0.08744200  0.73782800  0.54969600  1
  Cu  Cu33  1  0.73782800  0.65038500  0.04969600  1
  Cu  Cu34  1  0.34961500  0.08744200  0.04969600  1
  Cu  Cu35  1  0.91255800  0.26217200  0.04969600  1
  Cu  Cu36  1  0.73782800  0.65038500  0.45030400  1
  Cu  Cu37  1  0.34961500  0.08744200  0.45030400  1
  Cu  Cu38  1  0.91255800  0.26217200  0.45030400  1
  Cu  Cu39  1  0.26217200  0.34961500  0.95030400  1
  Cu  Cu40  1  0.65038500  0.91255800  0.95030400  1
  Cu  Cu41  1  0.08744200  0.73782800  0.95030400  1
