# generated using pymatgen
data_Cu30Ni8C5
_symmetry_space_group_name_H-M   'P 1'
_cell_length_a   6.90437473
_cell_length_b   7.26627570
_cell_length_c   14.73592343
_cell_angle_alpha   91.45159130
_cell_angle_beta   92.22321060
_cell_angle_gamma   114.09683740
_symmetry_Int_Tables_number   1
_chemical_formula_structural   Cu30Ni8C5
_chemical_formula_sum   'Cu30 Ni8 C5'
_cell_volume   673.66868673
_cell_formula_units_Z   1
loop_
 _symmetry_equiv_pos_site_id
 _symmetry_equiv_pos_as_xyz
  1  'x, y, z'
loop_
 _atom_site_type_symbol
 _atom_site_label
 _atom_site_symmetry_multiplicity
 _atom_site_fract_x
 _atom_site_fract_y
 _atom_site_fract_z
 _atom_site_occupancy
  C  C0  1  0.11770822  0.44605855  0.42660706  1
  C  C1  1  0.86580299  0.54710817  0.96203378  1
  C  C2  1  0.95966466  0.34794812  0.65184837  1
  C  C3  1  0.60043093  0.78772735  0.27331967  1
  C  C4  1  0.39196663  0.20318785  0.76932267  1
  Ni  Ni5  1  0.47946504  0.74660677  0.03826933  1
  Ni  Ni6  1  0.51115971  0.25806046  0.52795287  1
  Ni  Ni7  1  0.73560866  0.28618348  0.19423048  1
  Ni  Ni8  1  0.30413620  0.73376743  0.67612801  1
  Ni  Ni9  1  0.15931201  0.94854054  0.31774198  1
  Ni  Ni10  1  0.83056580  0.03773653  0.82512630  1
  Ni  Ni11  1  0.79140611  0.88377830  0.54244888  1
  Ni  Ni12  1  0.19790915  0.12254939  0.05731088  1
  Cu  Cu13  1  0.37461162  0.69689122  0.15231165  1
  Cu  Cu14  1  0.64563753  0.29854755  0.64753035  1
  Cu  Cu15  1  0.23183887  0.63591887  0.96865619  1
  Cu  Cu16  1  0.74861263  0.36320571  0.46494141  1
  Cu  Cu17  1  0.54915714  0.52601911  0.02605837  1
  Cu  Cu18  1  0.44734923  0.47988833  0.52783320  1
  Cu  Cu19  1  0.74582108  0.03395716  0.18041436  1
  Cu  Cu20  1  0.25443636  0.96594749  0.66523681  1
  Cu  Cu21  1  0.89338627  0.39498558  0.09725402  1
  Cu  Cu22  1  0.12001940  0.59006602  0.57793201  1
  Cu  Cu23  1  0.94011682  0.38409528  0.28562820  1
  Cu  Cu24  1  0.09391383  0.59785874  0.75270601  1
  Cu  Cu25  1  0.43874567  0.99064919  0.29678788  1
  Cu  Cu26  1  0.54336724  0.99562254  0.79116924  1
  Cu  Cu27  1  0.24344923  0.18507460  0.38756904  1
  Cu  Cu28  1  0.75370217  0.79932111  0.87830681  1
  Cu  Cu29  1  0.11718121  0.77331085  0.41001935  1
  Cu  Cu30  1  0.87216762  0.21540061  0.92097346  1
  Cu  Cu31  1  0.53731306  0.90720743  0.53006860  1
  Cu  Cu32  1  0.44075862  0.08092733  0.04248511  1
  Cu  Cu33  1  0.78438260  0.84474766  0.66400930  1
  Cu  Cu34  1  0.22615174  0.17412345  0.17904234  1
  Cu  Cu35  1  0.97306688  0.15777003  0.54893667  1
  Cu  Cu36  1  0.99473185  0.86175672  0.04626487  1
  Cu  Cu37  1  0.80168087  0.93388891  0.36156410  1
  Cu  Cu38  1  0.20192771  0.08363387  0.85187330  1
  Cu  Cu39  1  0.40525343  0.60486910  0.33663774  1
  Cu  Cu40  1  0.60768406  0.39195360  0.83270277  1
  Cu  Cu41  1  0.73855291  0.65644842  0.22337826  1
  Cu  Cu42  1  0.24651322  0.32295657  0.70886831  1
