# generated using pymatgen
data_Cu14NiC16
_symmetry_space_group_name_H-M   'P 1'
_cell_length_a   8.61197428
_cell_length_b   8.61969870
_cell_length_c   4.27867090
_cell_angle_alpha   90.00000000
_cell_angle_beta   90.00000000
_cell_angle_gamma   90.00000000
_symmetry_Int_Tables_number   1
_chemical_formula_structural   Cu14NiC16
_chemical_formula_sum   'Cu14 Ni1 C16'
_cell_volume   317.61696602
_cell_formula_units_Z   1
loop_
 _symmetry_equiv_pos_site_id
 _symmetry_equiv_pos_as_xyz
  1  'x, y, z'
loop_
 _atom_site_type_symbol
 _atom_site_label
 _atom_site_symmetry_multiplicity
 _atom_site_fract_x
 _atom_site_fract_y
 _atom_site_fract_z
 _atom_site_occupancy
  C  C0  1  0.99243475  0.00000000  0.00000000  1
  Ni  Ni1  1  0.99991228  0.50000000  0.00000000  1
  Cu  Cu2  1  0.50093531  0.00000000  0.00000000  1
  Cu  Cu3  1  0.50074951  0.50000000  0.00000000  1
  Cu  Cu4  1  0.00067656  0.23349793  0.50000000  1
  Cu  Cu5  1  0.00067656  0.76650207  0.50000000  1
  Cu  Cu6  1  0.50022626  0.24730375  0.50000000  1
  Cu  Cu7  1  0.50022626  0.75269625  0.50000000  1
  Cu  Cu8  1  0.24632796  0.00000000  0.50000000  1
  Cu  Cu9  1  0.25709945  0.50000000  0.50000000  1
  Cu  Cu10  1  0.75470276  0.00000000  0.50000000  1
  Cu  Cu11  1  0.74333455  0.50000000  0.50000000  1
  Cu  Cu12  1  0.25413412  0.24247511  0.00000000  1
  Cu  Cu13  1  0.25413412  0.75752489  0.00000000  1
  Cu  Cu14  1  0.74730768  0.24076597  0.00000000  1
  Cu  Cu15  1  0.74730768  0.75923403  0.00000000  1
  C  C16  1  0.25489516  0.50000000  0.00000000  1
  C  C17  1  0.74337602  0.00000000  0.00000000  1
  C  C18  1  0.74572625  0.50000000  0.00000000  1
  C  C19  1  0.24889625  0.25346655  0.50000000  1
  C  C20  1  0.24889625  0.74653345  0.50000000  1
  C  C21  1  0.75170945  0.25122114  0.50000000  1
  C  C22  1  0.75170945  0.74877886  0.50000000  1
  C  C23  1  0.99990488  0.00000000  0.50000000  1
  C  C24  1  0.99974617  0.50000000  0.50000000  1
  C  C25  1  0.50283192  0.00000000  0.50000000  1
  C  C26  1  0.50036866  0.50000000  0.50000000  1
  C  C27  1  0.99918102  0.25636817  -0.00000000  1
  C  C28  1  0.99918102  0.74363183  -0.00000000  1
  C  C29  1  0.50169584  0.25295560  0.00000000  1
  C  C30  1  0.50169584  0.74704440  0.00000000  1
