# generated using pymatgen
data_CuNiC
_symmetry_space_group_name_H-M   'P 1'
_cell_length_a   9.87353900
_cell_length_b   4.33628400
_cell_length_c   6.51354400
_cell_angle_alpha   90.00000000
_cell_angle_beta   90.00000000
_cell_angle_gamma   90.00000000
_symmetry_Int_Tables_number   1
_chemical_formula_structural   CuNiC
_chemical_formula_sum   'Cu4 Ni4 C4'
_cell_volume   278.87392890
_cell_formula_units_Z   4
loop_
 _symmetry_equiv_pos_site_id
 _symmetry_equiv_pos_as_xyz
  1  'x, y, z'
loop_
 _atom_site_type_symbol
 _atom_site_label
 _atom_site_symmetry_multiplicity
 _atom_site_fract_x
 _atom_site_fract_y
 _atom_site_fract_z
 _atom_site_occupancy
  Ni  Ni0  1  0.65338900  0.25000000  0.46859800  1
  Ni  Ni1  1  0.15338900  0.25000000  0.03140200  1
  Ni  Ni2  1  0.34661100  0.75000000  0.53140200  1
  Ni  Ni3  1  0.84661100  0.75000000  0.96859800  1
  Cu  Cu4  1  0.56235100  0.25000000  0.93053700  1
  Cu  Cu5  1  0.06235100  0.25000000  0.56946300  1
  Cu  Cu6  1  0.43764900  0.75000000  0.06946300  1
  Cu  Cu7  1  0.93764900  0.75000000  0.43053700  1
  C  C8  1  0.89833400  0.25000000  0.24107400  1
  C  C9  1  0.39833400  0.25000000  0.25892600  1
  C  C10  1  0.10166600  0.75000000  0.75892600  1
  C  C11  1  0.60166600  0.75000000  0.74107400  1
