# generated using pymatgen
data_CuNi5C2
_symmetry_space_group_name_H-M   'P 1'
_cell_length_a   8.63995760
_cell_length_b   8.63995786
_cell_length_c   9.14684700
_cell_angle_alpha   90.00000000
_cell_angle_beta   90.00000000
_cell_angle_gamma   149.79665418
_symmetry_Int_Tables_number   1
_chemical_formula_structural   CuNi5C2
_chemical_formula_sum   'Cu2 Ni10 C4'
_cell_volume   343.49737968
_cell_formula_units_Z   2
loop_
 _symmetry_equiv_pos_site_id
 _symmetry_equiv_pos_as_xyz
  1  'x, y, z'
loop_
 _atom_site_type_symbol
 _atom_site_label
 _atom_site_symmetry_multiplicity
 _atom_site_fract_x
 _atom_site_fract_y
 _atom_site_fract_z
 _atom_site_occupancy
  C  C0  1  0.20483400  0.79516600  0.25000000  1
  C  C1  1  0.79516600  0.20483400  0.75000000  1
  C  C2  1  0.00000000  0.00000000  0.50000000  1
  C  C3  1  0.00000000  0.00000000  0.00000000  1
  Ni  Ni4  1  0.81424100  0.18575900  0.39131400  1
  Ni  Ni5  1  0.18575900  0.81424100  0.60868600  1
  Ni  Ni6  1  0.81424100  0.18575900  0.10868600  1
  Ni  Ni7  1  0.18575900  0.81424100  0.89131400  1
  Ni  Ni8  1  0.65805100  0.34194900  0.48522900  1
  Ni  Ni9  1  0.34194900  0.65805100  0.51477100  1
  Ni  Ni10  1  0.65805100  0.34194900  0.01477100  1
  Ni  Ni11  1  0.34194900  0.65805100  0.98522900  1
  Ni  Ni12  1  0.39166800  0.60833200  0.25000000  1
  Ni  Ni13  1  0.60833200  0.39166800  0.75000000  1
  Cu  Cu14  1  0.55380600  0.44619400  0.25000000  1
  Cu  Cu15  1  0.44619400  0.55380600  0.75000000  1
