# generated using pymatgen
data_Cu2NiC7
_symmetry_space_group_name_H-M   'P 1'
_cell_length_a   10.89073525
_cell_length_b   10.89073525
_cell_length_c   10.89073525
_cell_angle_alpha   99.94616970
_cell_angle_beta   99.94616970
_cell_angle_gamma   130.88586197
_symmetry_Int_Tables_number   1
_chemical_formula_structural   Cu2NiC7
_chemical_formula_sum   'Cu10 Ni5 C35'
_cell_volume   888.23428152
_cell_formula_units_Z   5
loop_
 _symmetry_equiv_pos_site_id
 _symmetry_equiv_pos_as_xyz
  1  'x, y, z'
loop_
 _atom_site_type_symbol
 _atom_site_label
 _atom_site_symmetry_multiplicity
 _atom_site_fract_x
 _atom_site_fract_y
 _atom_site_fract_z
 _atom_site_occupancy
  Ni  Ni0  1  0.50000000  0.50000000  0.00000000  1
  Ni  Ni1  1  0.73394000  0.08772000  0.82166000  1
  Ni  Ni2  1  0.91228000  0.73394000  0.64622000  1
  Ni  Ni3  1  0.26606000  0.91228000  0.17834000  1
  Ni  Ni4  1  0.08772000  0.26606000  0.35378000  1
  Cu  Cu5  1  0.25000000  0.75000000  0.50000000  1
  Cu  Cu6  1  0.75000000  0.25000000  0.50000000  1
  Cu  Cu7  1  0.37958000  0.06150100  0.89395300  1
  Cu  Cu8  1  0.48562700  0.37958000  0.31808000  1
  Cu  Cu9  1  0.16754700  0.48562700  0.10604700  1
  Cu  Cu10  1  0.06150100  0.16754700  0.68192000  1
  Cu  Cu11  1  0.62042000  0.93849900  0.10604700  1
  Cu  Cu12  1  0.51437300  0.62042000  0.68192000  1
  Cu  Cu13  1  0.83245300  0.51437300  0.89395300  1
  Cu  Cu14  1  0.93849900  0.83245300  0.31808000  1
  C  C15  1  0.00000000  0.00000000  0.00000000  1
  C  C16  1  0.19692200  0.59483500  0.79175700  1
  C  C17  1  0.40516500  0.19692200  0.60208800  1
  C  C18  1  0.80307800  0.40516500  0.20824300  1
  C  C19  1  0.59483500  0.80307800  0.39791200  1
  C  C20  1  0.06298600  0.87458100  0.93756700  1
  C  C21  1  0.12541900  0.06298600  0.18840600  1
  C  C22  1  0.93701400  0.12541900  0.06243300  1
  C  C23  1  0.87458100  0.93701400  0.81159400  1
  C  C24  1  0.21554600  0.21554600  0.00000000  1
  C  C25  1  0.78445400  0.78445400  0.00000000  1
  C  C26  1  0.32903100  0.55184500  0.88087600  1
  C  C27  1  0.44815500  0.32903100  0.77718600  1
  C  C28  1  0.67096900  0.44815500  0.11912400  1
  C  C29  1  0.55184500  0.67096900  0.22281400  1
  C  C30  1  0.15429200  0.46121200  0.61550400  1
  C  C31  1  0.53878800  0.15429200  0.69308100  1
  C  C32  1  0.84570800  0.53878800  0.38449600  1
  C  C33  1  0.46121200  0.84570800  0.30691900  1
  C  C34  1  0.06562900  0.63757300  0.70320200  1
  C  C35  1  0.36242700  0.06562900  0.42805600  1
  C  C36  1  0.93437100  0.36242700  0.29679800  1
  C  C37  1  0.63757300  0.93437100  0.57194400  1
  C  C38  1  0.24217900  0.72745300  0.96963100  1
  C  C39  1  0.27254700  0.24217900  0.51472600  1
  C  C40  1  0.75782100  0.27254700  0.03036900  1
  C  C41  1  0.72745300  0.75782100  0.48527400  1
  C  C42  1  0.41655600  0.81269600  0.79472400  1
  C  C43  1  0.62183200  0.41655600  0.60386000  1
  C  C44  1  0.01797200  0.62183200  0.20527600  1
  C  C45  1  0.81269600  0.01797200  0.39614000  1
  C  C46  1  0.58344400  0.18730400  0.20527600  1
  C  C47  1  0.37816800  0.58344400  0.39614000  1
  C  C48  1  0.98202800  0.37816800  0.79472400  1
  C  C49  1  0.18730400  0.98202800  0.60386000  1
