# generated using pymatgen
data_Cu2Ni3
_symmetry_space_group_name_H-M   'P 1'
_cell_length_a   8.44019500
_cell_length_b   8.44019500
_cell_length_c   11.92928100
_cell_angle_alpha   90.00000000
_cell_angle_beta   90.00000000
_cell_angle_gamma   90.00000000
_symmetry_Int_Tables_number   1
_chemical_formula_structural   Cu2Ni3
_chemical_formula_sum   'Cu16 Ni24'
_cell_volume   849.80489792
_cell_formula_units_Z   8
loop_
 _symmetry_equiv_pos_site_id
 _symmetry_equiv_pos_as_xyz
  1  'x, y, z'
loop_
 _atom_site_type_symbol
 _atom_site_label
 _atom_site_symmetry_multiplicity
 _atom_site_fract_x
 _atom_site_fract_y
 _atom_site_fract_z
 _atom_site_occupancy
  Ni  Ni0  1  0.50000000  0.72376500  0.61014200  1
  Ni  Ni1  1  0.77623500  0.00000000  0.11014200  1
  Ni  Ni2  1  0.22376500  0.00000000  0.11014200  1
  Ni  Ni3  1  0.00000000  0.77623500  0.88985800  1
  Ni  Ni4  1  0.00000000  0.22376500  0.88985800  1
  Ni  Ni5  1  0.50000000  0.27623500  0.61014200  1
  Ni  Ni6  1  0.72376500  0.50000000  0.38985800  1
  Ni  Ni7  1  0.27623500  0.50000000  0.38985800  1
  Ni  Ni8  1  0.50000000  0.77920400  0.88601000  1
  Ni  Ni9  1  0.72079600  0.00000000  0.38601000  1
  Ni  Ni10  1  0.27920400  0.00000000  0.38601000  1
  Ni  Ni11  1  0.00000000  0.72079600  0.61399000  1
  Ni  Ni12  1  0.00000000  0.27920400  0.61399000  1
  Ni  Ni13  1  0.50000000  0.22079600  0.88601000  1
  Ni  Ni14  1  0.77920400  0.50000000  0.11399000  1
  Ni  Ni15  1  0.22079600  0.50000000  0.11399000  1
  Ni  Ni16  1  0.50000000  0.74607500  0.14644900  1
  Ni  Ni17  1  0.75392500  0.00000000  0.64644900  1
  Ni  Ni18  1  0.24607500  0.00000000  0.64644900  1
  Ni  Ni19  1  0.00000000  0.75392500  0.35355100  1
  Ni  Ni20  1  0.00000000  0.24607500  0.35355100  1
  Ni  Ni21  1  0.50000000  0.25392500  0.14644900  1
  Ni  Ni22  1  0.74607500  0.50000000  0.85355100  1
  Ni  Ni23  1  0.25392500  0.50000000  0.85355100  1
  Cu  Cu24  1  0.50000000  0.50000000  0.74569300  1
  Cu  Cu25  1  0.00000000  0.00000000  0.24569300  1
  Cu  Cu26  1  0.00000000  0.00000000  0.75430700  1
  Cu  Cu27  1  0.50000000  0.50000000  0.25430700  1
  Cu  Cu28  1  0.50000000  0.00000000  0.74625600  1
  Cu  Cu29  1  0.50000000  0.00000000  0.24625600  1
  Cu  Cu30  1  0.00000000  0.50000000  0.75374400  1
  Cu  Cu31  1  0.00000000  0.50000000  0.25374400  1
  Cu  Cu32  1  0.75264800  0.75264800  0.50000000  1
  Cu  Cu33  1  0.74735200  0.25264800  0.00000000  1
  Cu  Cu34  1  0.25264800  0.74735200  0.00000000  1
  Cu  Cu35  1  0.24735200  0.24735200  0.50000000  1
  Cu  Cu36  1  0.74735200  0.74735200  0.00000000  1
  Cu  Cu37  1  0.75264800  0.24735200  0.50000000  1
  Cu  Cu38  1  0.24735200  0.75264800  0.50000000  1
  Cu  Cu39  1  0.25264800  0.25264800  0.00000000  1
