# generated using pymatgen
data_Cu3Ni2C15
_symmetry_space_group_name_H-M   'P 1'
_cell_length_a   5.36031500
_cell_length_b   5.57874576
_cell_length_c   9.52113908
_cell_angle_alpha   106.93148168
_cell_angle_beta   90.15666013
_cell_angle_gamma   118.25265730
_symmetry_Int_Tables_number   1
_chemical_formula_structural   Cu3Ni2C15
_chemical_formula_sum   'Cu3 Ni2 C15'
_cell_volume   236.56580372
_cell_formula_units_Z   1
loop_
 _symmetry_equiv_pos_site_id
 _symmetry_equiv_pos_as_xyz
  1  'x, y, z'
loop_
 _atom_site_type_symbol
 _atom_site_label
 _atom_site_symmetry_multiplicity
 _atom_site_fract_x
 _atom_site_fract_y
 _atom_site_fract_z
 _atom_site_occupancy
  Ni  Ni0  1  0.45978600  0.44452300  0.49280500  1
  Ni  Ni1  1  0.92174400  0.23389000  0.63303800  1
  Cu  Cu2  1  0.42866300  0.68455500  0.15399900  1
  Cu  Cu3  1  0.67237600  0.46688300  0.87455900  1
  Cu  Cu4  1  0.15936900  0.91317100  0.40485800  1
  C  C5  1  0.77511700  0.26415400  0.25706200  1
  C  C6  1  0.27355500  0.78826600  0.75557900  1
  C  C7  1  0.02336500  0.03127700  0.00091100  1
  C  C8  1  0.39395500  0.33288200  0.29102800  1
  C  C9  1  0.90873300  0.90028200  0.77510800  1
  C  C10  1  0.05166600  0.18827800  0.48324000  1
  C  C11  1  0.53241700  0.64286100  0.97841900  1
  C  C12  1  0.02607300  0.59023600  0.05872400  1
  C  C13  1  0.51657600  0.10267100  0.56272700  1
  C  C14  1  0.38371500  0.75401000  0.35670600  1
  C  C15  1  0.89777800  0.34860500  0.80110800  1
  C  C16  1  0.85436100  0.89596900  0.23157500  1
  C  C17  1  0.36878700  0.45066700  0.68671800  1
  C  C18  1  0.49777000  0.10598300  0.02138200  1
  C  C19  1  0.89219300  0.59083800  0.52645300  1
