# generated using pymatgen
data_CuNiC12
_symmetry_space_group_name_H-M   'P 1'
_cell_length_a   7.66624500
_cell_length_b   7.66624500
_cell_length_c   7.43582000
_cell_angle_alpha   90.00000000
_cell_angle_beta   90.00000000
_cell_angle_gamma   90.00000000
_symmetry_Int_Tables_number   1
_chemical_formula_structural   CuNiC12
_chemical_formula_sum   'Cu2 Ni2 C24'
_cell_volume   437.01290017
_cell_formula_units_Z   2
loop_
 _symmetry_equiv_pos_site_id
 _symmetry_equiv_pos_as_xyz
  1  'x, y, z'
loop_
 _atom_site_type_symbol
 _atom_site_label
 _atom_site_symmetry_multiplicity
 _atom_site_fract_x
 _atom_site_fract_y
 _atom_site_fract_z
 _atom_site_occupancy
  Ni  Ni0  1  0.00000000  0.00000000  0.00000000  1
  Ni  Ni1  1  0.50000000  0.50000000  0.50000000  1
  Cu  Cu2  1  0.00000000  0.00000000  0.50000000  1
  Cu  Cu3  1  0.50000000  0.50000000  0.00000000  1
  C  C4  1  0.62725600  0.14720300  0.99073900  1
  C  C5  1  0.37274400  0.85279700  0.99073900  1
  C  C6  1  0.64720300  0.87274400  0.49073900  1
  C  C7  1  0.87274400  0.35279700  0.50926100  1
  C  C8  1  0.35279700  0.12725600  0.49073900  1
  C  C9  1  0.12725600  0.64720300  0.50926100  1
  C  C10  1  0.85279700  0.62725600  0.00926100  1
  C  C11  1  0.14720300  0.37274400  0.00926100  1
  C  C12  1  0.28323700  0.97635000  0.05085800  1
  C  C13  1  0.71676300  0.02365000  0.05085800  1
  C  C14  1  0.47635000  0.21676300  0.55085800  1
  C  C15  1  0.21676300  0.52365000  0.44914200  1
  C  C16  1  0.52365000  0.78323700  0.55085800  1
  C  C17  1  0.78323700  0.47635000  0.44914200  1
  C  C18  1  0.02365000  0.28323700  0.94914200  1
  C  C19  1  0.97635000  0.71676300  0.94914200  1
  C  C20  1  0.17753700  0.08052600  0.66246900  1
  C  C21  1  0.82246300  0.91947400  0.66246900  1
  C  C22  1  0.58052600  0.32246300  0.16246900  1
  C  C23  1  0.32246300  0.41947400  0.83753100  1
  C  C24  1  0.41947400  0.67753700  0.16246900  1
  C  C25  1  0.67753700  0.58052600  0.83753100  1
  C  C26  1  0.91947400  0.17753700  0.33753100  1
  C  C27  1  0.08052600  0.82246300  0.33753100  1
