# generated using pymatgen
data_CuNi5C3
_symmetry_space_group_name_H-M   'P 1'
_cell_length_a   13.51475258
_cell_length_b   13.51475258
_cell_length_c   13.51475267
_cell_angle_alpha   72.53700472
_cell_angle_beta   72.53700472
_cell_angle_gamma   72.53700378
_symmetry_Int_Tables_number   1
_chemical_formula_structural   CuNi5C3
_chemical_formula_sum   'Cu24 Ni120 C72'
_cell_volume   2185.50092752
_cell_formula_units_Z   24
loop_
 _symmetry_equiv_pos_site_id
 _symmetry_equiv_pos_as_xyz
  1  'x, y, z'
loop_
 _atom_site_type_symbol
 _atom_site_label
 _atom_site_symmetry_multiplicity
 _atom_site_fract_x
 _atom_site_fract_y
 _atom_site_fract_z
 _atom_site_occupancy
  C  C0  1  0.42230758  0.07769771  0.75004003  1
  C  C1  1  0.07769771  0.75004003  0.42230758  1
  C  C2  1  0.75004003  0.42230758  0.07769771  1
  C  C3  1  0.92230758  0.25004003  0.57769771  1
  C  C4  1  0.25004003  0.57769771  0.92230758  1
  C  C5  1  0.57769771  0.92230758  0.25004003  1
  Ni  Ni6  1  0.58998923  0.08194311  0.81806580  1
  Ni  Ni7  1  0.08194311  0.81806580  0.58998923  1
  Ni  Ni8  1  0.81806580  0.58998923  0.08194311  1
  Ni  Ni9  1  0.08998923  0.31806580  0.58194311  1
  Ni  Ni10  1  0.31806580  0.58194311  0.08998923  1
  Ni  Ni11  1  0.58194311  0.08998923  0.31806580  1
  Ni  Ni12  1  0.40969467  0.91817653  0.18177449  1
  Ni  Ni13  1  0.91817653  0.18177449  0.40969467  1
  Ni  Ni14  1  0.18177449  0.40969467  0.91817653  1
  Ni  Ni15  1  0.90969467  0.68177449  0.41817653  1
  Ni  Ni16  1  0.68177449  0.41817653  0.90969467  1
  Ni  Ni17  1  0.41817653  0.90969467  0.68177449  1
  Ni  Ni18  1  0.58298632  0.13654067  0.57732597  1
  Ni  Ni19  1  0.13654067  0.57732597  0.58298632  1
  Ni  Ni20  1  0.57732597  0.58298632  0.13654067  1
  Ni  Ni21  1  0.08298632  0.07732597  0.63654067  1
  Ni  Ni22  1  0.07732597  0.63654067  0.08298632  1
  Ni  Ni23  1  0.63654067  0.08298632  0.07732597  1
  Ni  Ni24  1  0.41700222  0.86346438  0.42270927  1
  Ni  Ni25  1  0.86346438  0.42270927  0.41700222  1
  Ni  Ni26  1  0.42270927  0.41700222  0.86346438  1
  Ni  Ni27  1  0.91700222  0.92270927  0.36346438  1
  Ni  Ni28  1  0.92270927  0.36346438  0.91700222  1
  Ni  Ni29  1  0.36346438  0.91700222  0.92270927  1
  Ni  Ni30  1  0.58631470  0.93055772  0.95881074  1
  Ni  Ni31  1  0.93055772  0.95881074  0.58631470  1
  Ni  Ni32  1  0.95881074  0.58631470  0.93055772  1
  Ni  Ni33  1  0.08631470  0.45881074  0.43055772  1
  Ni  Ni34  1  0.45881074  0.43055772  0.08631470  1
  Ni  Ni35  1  0.43055772  0.08631470  0.45881074  1
  Ni  Ni36  1  0.41354024  0.06961761  0.04105289  1
  Ni  Ni37  1  0.06961761  0.04105289  0.41354024  1
  Ni  Ni38  1  0.04105289  0.41354024  0.06961761  1
  Ni  Ni39  1  0.91354024  0.54105289  0.56961761  1
  Ni  Ni40  1  0.54105289  0.56961761  0.91354024  1
  Ni  Ni41  1  0.56961761  0.91354024  0.54105289  1
  Ni  Ni42  1  0.68639850  0.89895727  0.84319463  1
  Ni  Ni43  1  0.89895727  0.84319463  0.68639850  1
  Ni  Ni44  1  0.84319463  0.68639850  0.89895727  1
  Ni  Ni45  1  0.18639850  0.34319463  0.39895727  1
  Ni  Ni46  1  0.34319463  0.39895727  0.18639850  1
  Ni  Ni47  1  0.39895727  0.18639850  0.34319463  1
  Ni  Ni48  1  0.31344377  0.10122354  0.15668557  1
  Ni  Ni49  1  0.10122354  0.15668557  0.31344377  1
  Ni  Ni50  1  0.15668557  0.31344377  0.10122354  1
  Ni  Ni51  1  0.81344377  0.65668557  0.60122354  1
  Ni  Ni52  1  0.65668557  0.60122354  0.81344377  1
  Ni  Ni53  1  0.60122354  0.81344377  0.65668557  1
  Ni  Ni54  1  0.55907205  0.86784929  0.87423614  1
  Ni  Ni55  1  0.86784929  0.87423614  0.55907205  1
  Ni  Ni56  1  0.87423614  0.55907205  0.86784929  1
  Ni  Ni57  1  0.05907205  0.37423614  0.36784929  1
  Ni  Ni58  1  0.37423614  0.36784929  0.05907205  1
  Ni  Ni59  1  0.36784929  0.05907205  0.37423614  1
  Ni  Ni60  1  0.44085490  0.13213926  0.12573964  1
  Ni  Ni61  1  0.13213926  0.12573964  0.44085490  1
  Ni  Ni62  1  0.12573964  0.44085490  0.13213926  1
  Ni  Ni63  1  0.94085490  0.62573964  0.63213926  1
  Ni  Ni64  1  0.62573964  0.63213926  0.94085490  1
  Ni  Ni65  1  0.63213926  0.94085490  0.62573964  1
  Ni  Ni66  1  0.39209050  0.30297083  0.60934580  1
  Ni  Ni67  1  0.30297083  0.60934580  0.39209050  1
  Ni  Ni68  1  0.60934580  0.39209050  0.30297083  1
  Ni  Ni69  1  0.89209050  0.10934580  0.80297083  1
  Ni  Ni70  1  0.10934580  0.80297083  0.89209050  1
  Ni  Ni71  1  0.80297083  0.89209050  0.10934580  1
  Ni  Ni72  1  0.60791043  0.69704002  0.39065367  1
  Ni  Ni73  1  0.69704002  0.39065367  0.60791043  1
  Ni  Ni74  1  0.39065367  0.60791043  0.69704002  1
  Ni  Ni75  1  0.10791043  0.89065367  0.19704002  1
  Ni  Ni76  1  0.89065367  0.19704002  0.10791043  1
  Ni  Ni77  1  0.19704002  0.10791043  0.89065367  1
  Ni  Ni78  1  0.47020662  0.27695254  0.48278423  1
  Ni  Ni79  1  0.27695254  0.48278423  0.47020662  1
  Ni  Ni80  1  0.48278423  0.47020662  0.27695254  1
  Ni  Ni81  1  0.97020662  0.98278423  0.77695254  1
  Ni  Ni82  1  0.98278423  0.77695254  0.97020662  1
  Ni  Ni83  1  0.77695254  0.97020662  0.98278423  1
  Ni  Ni84  1  0.52979467  0.72304671  0.51720773  1
  Ni  Ni85  1  0.72304671  0.51720773  0.52979467  1
  Ni  Ni86  1  0.51720773  0.52979467  0.72304671  1
  Ni  Ni87  1  0.02979467  0.01720773  0.22304671  1
  Ni  Ni88  1  0.01720773  0.22304671  0.02979467  1
  Ni  Ni89  1  0.22304671  0.02979467  0.01720773  1
  Ni  Ni90  1  0.52562376  0.32154225  0.56244622  1
  Ni  Ni91  1  0.32154225  0.56244622  0.52562376  1
  Ni  Ni92  1  0.56244622  0.52562376  0.32154225  1
  Ni  Ni93  1  0.02562376  0.06244622  0.82154225  1
  Ni  Ni94  1  0.06244622  0.82154225  0.02562376  1
  Ni  Ni95  1  0.82154225  0.02562376  0.06244622  1
  Ni  Ni96  1  0.47436981  0.67846032  0.43754446  1
  Ni  Ni97  1  0.67846032  0.43754446  0.47436981  1
  Ni  Ni98  1  0.43754446  0.47436981  0.67846032  1
  Ni  Ni99  1  0.97436981  0.93754446  0.17846032  1
  Ni  Ni100  1  0.93754446  0.17846032  0.97436981  1
  Ni  Ni101  1  0.17846032  0.97436981  0.93754446  1
  Ni  Ni102  1  0.41538835  0.23693938  0.83941314  1
  Ni  Ni103  1  0.23693938  0.83941314  0.41538835  1
  Ni  Ni104  1  0.83941314  0.41538835  0.23693938  1
  Ni  Ni105  1  0.91538835  0.33941314  0.73693938  1
  Ni  Ni106  1  0.33941314  0.73693938  0.91538835  1
  Ni  Ni107  1  0.73693938  0.91538835  0.33941314  1
  Ni  Ni108  1  0.58448506  0.76338514  0.16077275  1
  Ni  Ni109  1  0.76338514  0.16077275  0.58448506  1
  Ni  Ni110  1  0.16077275  0.58448506  0.76338514  1
  Ni  Ni111  1  0.08448506  0.66077275  0.26338514  1
  Ni  Ni112  1  0.66077275  0.26338514  0.08448506  1
  Ni  Ni113  1  0.26338514  0.08448506  0.66077275  1
  Ni  Ni114  1  0.29696650  0.25808628  0.82101512  1
  Ni  Ni115  1  0.25808628  0.82101512  0.29696650  1
  Ni  Ni116  1  0.82101512  0.29696650  0.25808628  1
  Ni  Ni117  1  0.79696650  0.32101512  0.75808628  1
  Ni  Ni118  1  0.32101512  0.75808628  0.79696650  1
  Ni  Ni119  1  0.75808628  0.79696650  0.32101512  1
  Ni  Ni120  1  0.70293206  0.74220912  0.17921181  1
  Ni  Ni121  1  0.74220912  0.17921181  0.70293206  1
  Ni  Ni122  1  0.17921181  0.70293206  0.74220912  1
  Ni  Ni123  1  0.20293206  0.67921181  0.24220912  1
  Ni  Ni124  1  0.67921181  0.24220912  0.20293206  1
  Ni  Ni125  1  0.24220912  0.20293206  0.67921181  1
  Cu  Cu126  1  0.60034632  0.92569763  0.87582985  1
  Cu  Cu127  1  0.92569763  0.87582985  0.60034632  1
  Cu  Cu128  1  0.87582985  0.60034632  0.92569763  1
  Cu  Cu129  1  0.10034632  0.37582985  0.42569763  1
  Cu  Cu130  1  0.37582985  0.42569763  0.10034632  1
  Cu  Cu131  1  0.42569763  0.10034632  0.37582985  1
  Cu  Cu132  1  0.39949667  0.07438907  0.12407765  1
  Cu  Cu133  1  0.07438907  0.12407765  0.39949667  1
  Cu  Cu134  1  0.12407765  0.39949667  0.07438907  1
  Cu  Cu135  1  0.89949667  0.62407765  0.57438907  1
  Cu  Cu136  1  0.62407765  0.57438907  0.89949667  1
  Cu  Cu137  1  0.57438907  0.89949667  0.62407765  1
  Cu  Cu138  1  0.47266647  0.27274694  0.56446373  1
  Cu  Cu139  1  0.27274694  0.56446373  0.47266647  1
  Cu  Cu140  1  0.56446373  0.47266647  0.27274694  1
  Cu  Cu141  1  0.97266647  0.06446373  0.77274694  1
  Cu  Cu142  1  0.06446373  0.77274694  0.97266647  1
  Cu  Cu143  1  0.77274694  0.97266647  0.06446373  1
  Cu  Cu144  1  0.52732503  0.72725369  0.43553332  1
  Cu  Cu145  1  0.72725369  0.43553332  0.52732503  1
  Cu  Cu146  1  0.43553332  0.52732503  0.72725369  1
  Cu  Cu147  1  0.02732503  0.93553332  0.22725369  1
  Cu  Cu148  1  0.93553332  0.22725369  0.02732503  1
  Cu  Cu149  1  0.22725369  0.02732503  0.93553332  1
  C  C150  1  0.10938836  0.39061192  0.74999233  1
  C  C151  1  0.39061192  0.74999233  0.10938836  1
  C  C152  1  0.74999233  0.10938836  0.39061192  1
  C  C153  1  0.60938836  0.24999233  0.89061192  1
  C  C154  1  0.24999233  0.89061192  0.60938836  1
  C  C155  1  0.89061192  0.60938836  0.24999233  1
  C  C156  1  0.55909882  0.02678788  0.81107723  1
  C  C157  1  0.02678788  0.81107723  0.55909882  1
  C  C158  1  0.81107723  0.55909882  0.02678788  1
  C  C159  1  0.05909882  0.31107723  0.52678788  1
  C  C160  1  0.31107723  0.52678788  0.05909882  1
  C  C161  1  0.52678788  0.05909882  0.31107723  1
  C  C162  1  0.44069808  0.97324214  0.18879066  1
  C  C163  1  0.97324214  0.18879066  0.44069808  1
  C  C164  1  0.18879066  0.44069808  0.97324214  1
  C  C165  1  0.94069808  0.68879066  0.47324214  1
  C  C166  1  0.68879066  0.47324214  0.94069808  1
  C  C167  1  0.47324214  0.94069808  0.68879066  1
  C  C168  1  0.50960650  0.16458515  0.61772751  1
  C  C169  1  0.16458515  0.61772751  0.50960650  1
  C  C170  1  0.61772751  0.50960650  0.16458515  1
  C  C171  1  0.00960650  0.11772751  0.66458515  1
  C  C172  1  0.11772751  0.66458515  0.00960650  1
  C  C173  1  0.66458515  0.00960650  0.11772751  1
  C  C174  1  0.49038492  0.83541806  0.38228666  1
  C  C175  1  0.83541806  0.38228666  0.49038492  1
  C  C176  1  0.38228666  0.49038492  0.83541806  1
  C  C177  1  0.99038492  0.88228666  0.33541806  1
  C  C178  1  0.88228666  0.33541806  0.99038492  1
  C  C179  1  0.33541806  0.99038492  0.88228666  1
  C  C180  1  0.16831941  0.34073482  0.83731097  1
  C  C181  1  0.34073482  0.83731097  0.16831941  1
  C  C182  1  0.83731097  0.16831941  0.34073482  1
  C  C183  1  0.66831941  0.33731097  0.84073482  1
  C  C184  1  0.33731097  0.84073482  0.66831941  1
  C  C185  1  0.84073482  0.66831941  0.33731097  1
  C  C186  1  0.83165118  0.65921920  0.16266554  1
  C  C187  1  0.65921920  0.16266554  0.83165118  1
  C  C188  1  0.16266554  0.83165118  0.65921920  1
  C  C189  1  0.33165118  0.66266554  0.15921920  1
  C  C190  1  0.66266554  0.15921920  0.33165118  1
  C  C191  1  0.15921920  0.33165118  0.66266554  1
  C  C192  1  0.11584391  0.50476902  0.70832070  1
  C  C193  1  0.50476902  0.70832070  0.11584391  1
  C  C194  1  0.70832070  0.11584391  0.50476902  1
  C  C195  1  0.61584391  0.20832070  0.00476902  1
  C  C196  1  0.20832070  0.00476902  0.61584391  1
  C  C197  1  0.00476902  0.61584391  0.20832070  1
  C  C198  1  0.88424354  0.49522829  0.29167193  1
  C  C199  1  0.49522829  0.29167193  0.88424354  1
  C  C200  1  0.29167193  0.88424354  0.49522829  1
  C  C201  1  0.38424354  0.79167193  0.99522829  1
  C  C202  1  0.79167193  0.99522829  0.38424354  1
  C  C203  1  0.99522829  0.38424354  0.79167193  1
  C  C204  1  0.36779395  0.20785523  0.81843096  1
  C  C205  1  0.20785523  0.81843096  0.36779395  1
  C  C206  1  0.81843096  0.36779395  0.20785523  1
  C  C207  1  0.86779395  0.31843096  0.70785523  1
  C  C208  1  0.31843096  0.70785523  0.86779395  1
  C  C209  1  0.70785523  0.86779395  0.31843096  1
  C  C210  1  0.63211722  0.79245440  0.18171347  1
  C  C211  1  0.79245440  0.18171347  0.63211722  1
  C  C212  1  0.18171347  0.63211722  0.79245440  1
  C  C213  1  0.13211722  0.68171347  0.29245440  1
  C  C214  1  0.68171347  0.29245440  0.13211722  1
  C  C215  1  0.29245440  0.13211722  0.68171347  1
