# generated using pymatgen
data_CuNi6C
_symmetry_space_group_name_H-M   'P 1'
_cell_length_a   5.07313100
_cell_length_b   6.26764800
_cell_length_c   10.93823200
_cell_angle_alpha   90.00000000
_cell_angle_beta   90.00000000
_cell_angle_gamma   90.00000000
_symmetry_Int_Tables_number   1
_chemical_formula_structural   CuNi6C
_chemical_formula_sum   'Cu2 Ni12 C2'
_cell_volume   347.79858068
_cell_formula_units_Z   2
loop_
 _symmetry_equiv_pos_site_id
 _symmetry_equiv_pos_as_xyz
  1  'x, y, z'
loop_
 _atom_site_type_symbol
 _atom_site_label
 _atom_site_symmetry_multiplicity
 _atom_site_fract_x
 _atom_site_fract_y
 _atom_site_fract_z
 _atom_site_occupancy
  Ni  Ni0  1  0.00000000  0.25032000  0.08379000  1
  Ni  Ni1  1  0.00000000  0.74968000  0.08379000  1
  Ni  Ni2  1  0.00000000  0.00000000  0.33302900  1
  Ni  Ni3  1  0.50000000  0.74736200  0.41510500  1
  Ni  Ni4  1  0.50000000  0.25263800  0.41510500  1
  Ni  Ni5  1  0.50000000  0.00000000  0.16694100  1
  Ni  Ni6  1  0.00000000  0.75032000  0.58379000  1
  Ni  Ni7  1  0.00000000  0.24968000  0.58379000  1
  Ni  Ni8  1  0.00000000  0.50000000  0.83302900  1
  Ni  Ni9  1  0.50000000  0.24736200  0.91510500  1
  Ni  Ni10  1  0.50000000  0.75263800  0.91510500  1
  Ni  Ni11  1  0.50000000  0.50000000  0.66694100  1
  C  C12  1  0.00000000  0.50000000  0.33603900  1
  C  C13  1  0.00000000  0.00000000  0.83603900  1
  Cu  Cu14  1  0.50000000  0.50000000  0.16620200  1
  Cu  Cu15  1  0.50000000  0.00000000  0.66620200  1
