# generated using pymatgen
data_Cu(NiC2)2
_symmetry_space_group_name_H-M   'P 1'
_cell_length_a   5.03588100
_cell_length_b   5.86718100
_cell_length_c   10.57480800
_cell_angle_alpha   90.00000000
_cell_angle_beta   90.00000000
_cell_angle_gamma   90.00000000
_symmetry_Int_Tables_number   1
_chemical_formula_structural   Cu(NiC2)2
_chemical_formula_sum   'Cu4 Ni8 C16'
_cell_volume   312.44777486
_cell_formula_units_Z   4
loop_
 _symmetry_equiv_pos_site_id
 _symmetry_equiv_pos_as_xyz
  1  'x, y, z'
loop_
 _atom_site_type_symbol
 _atom_site_label
 _atom_site_symmetry_multiplicity
 _atom_site_fract_x
 _atom_site_fract_y
 _atom_site_fract_z
 _atom_site_occupancy
  Ni  Ni0  1  0.03017400  0.50000000  0.23871900  1
  Ni  Ni1  1  0.03017400  0.50000000  0.76128100  1
  Ni  Ni2  1  0.96982600  0.00000000  0.26128100  1
  Ni  Ni3  1  0.96982600  0.00000000  0.73871900  1
  Ni  Ni4  1  0.50000000  0.25000000  0.25000000  1
  Ni  Ni5  1  0.50000000  0.75000000  0.75000000  1
  Ni  Ni6  1  0.50000000  0.75000000  0.25000000  1
  Ni  Ni7  1  0.50000000  0.25000000  0.75000000  1
  Cu  Cu8  1  0.34445000  0.00000000  0.50000000  1
  Cu  Cu9  1  0.65555000  0.50000000  0.00000000  1
  Cu  Cu10  1  0.03569000  0.00000000  0.00000000  1
  Cu  Cu11  1  0.96431000  0.50000000  0.50000000  1
  C  C12  1  0.36241400  0.50000000  0.13438700  1
  C  C13  1  0.36241400  0.50000000  0.86561300  1
  C  C14  1  0.63758600  0.00000000  0.36561300  1
  C  C15  1  0.63758600  0.00000000  0.63438700  1
  C  C16  1  0.68527700  0.50000000  0.34969300  1
  C  C17  1  0.68527700  0.50000000  0.65030700  1
  C  C18  1  0.31472300  0.00000000  0.15030700  1
  C  C19  1  0.31472300  0.00000000  0.84969300  1
  C  C20  1  0.16088600  0.24891300  0.36501700  1
  C  C21  1  0.16088600  0.75108700  0.63498300  1
  C  C22  1  0.83911400  0.74891300  0.13498300  1
  C  C23  1  0.83911400  0.25108700  0.86501700  1
  C  C24  1  0.83911400  0.25108700  0.13498300  1
  C  C25  1  0.83911400  0.74891300  0.86501700  1
  C  C26  1  0.16088600  0.75108700  0.36501700  1
  C  C27  1  0.16088600  0.24891300  0.63498300  1
