# generated using pymatgen
data_CuNiC8
_symmetry_space_group_name_H-M   'P 1'
_cell_length_a   8.81692291
_cell_length_b   8.82589385
_cell_length_c   8.81711400
_cell_angle_alpha   90.00000000
_cell_angle_beta   90.00000000
_cell_angle_gamma   90.00000000
_symmetry_Int_Tables_number   1
_chemical_formula_structural   CuNiC8
_chemical_formula_sum   'Cu4 Ni4 C32'
_cell_volume   686.12335005
_cell_formula_units_Z   4
loop_
 _symmetry_equiv_pos_site_id
 _symmetry_equiv_pos_as_xyz
  1  'x, y, z'
loop_
 _atom_site_type_symbol
 _atom_site_label
 _atom_site_symmetry_multiplicity
 _atom_site_fract_x
 _atom_site_fract_y
 _atom_site_fract_z
 _atom_site_occupancy
  Ni  Ni0  1  0.00000000  -0.00000000  0.00000000  1
  Ni  Ni1  1  0.50000000  0.50000000  0.50000000  1
  Ni  Ni2  1  0.50000000  0.50000000  0.00000000  1
  Ni  Ni3  1  0.00000000  0.50000000  0.00000000  1
  Cu  Cu4  1  0.00000000  0.50000000  0.50000000  1
  Cu  Cu5  1  0.50000000  0.00000000  0.50000000  1
  Cu  Cu6  1  0.50000000  0.00000000  0.00000000  1
  Cu  Cu7  1  0.00000000  -0.00000000  0.50000000  1
  C  C8  1  0.25011849  0.24741955  0.25209085  1
  C  C9  1  0.74988151  0.75258045  0.25209085  1
  C  C10  1  0.74988151  0.24741955  0.74790915  1
  C  C11  1  0.25011849  0.75258045  0.74790915  1
  C  C12  1  0.74954787  0.75415539  0.74704309  1
  C  C13  1  0.25045213  0.24584461  0.74704309  1
  C  C14  1  0.25045213  0.75415539  0.25295691  1
  C  C15  1  0.74954787  0.24584461  0.25295691  1
  C  C16  1  0.98642271  0.20335859  0.28981146  1
  C  C17  1  0.01357729  0.79664141  0.28981146  1
  C  C18  1  0.01357729  0.20335859  0.71018854  1
  C  C19  1  0.98642271  0.79664141  0.71018854  1
  C  C20  1  0.28928850  0.98909677  0.20614881  1
  C  C21  1  0.28928850  0.01090323  0.79385119  1
  C  C22  1  0.71071150  0.01090323  0.20614881  1
  C  C23  1  0.71071150  0.98909677  0.79385119  1
  C  C24  1  0.21576798  0.27806571  0.98622298  1
  C  C25  1  0.78423202  0.27806571  0.01377702  1
  C  C26  1  0.21576798  0.72193429  0.01377702  1
  C  C27  1  0.78423202  0.72193429  0.98622298  1
  C  C28  1  0.51153740  0.28715535  0.22445883  1
  C  C29  1  0.48846260  0.71284465  0.22445883  1
  C  C30  1  0.48846260  0.28715535  0.77554117  1
  C  C31  1  0.51153740  0.71284465  0.77554117  1
  C  C32  1  0.21208250  0.51524006  0.29458073  1
  C  C33  1  0.21208250  0.48475994  0.70541927  1
  C  C34  1  0.78791750  0.48475994  0.29458073  1
  C  C35  1  0.78791750  0.51524006  0.70541927  1
  C  C36  1  0.29330368  0.20635548  0.51132605  1
  C  C37  1  0.70669632  0.20635548  0.48867395  1
  C  C38  1  0.29330368  0.79364452  0.48867395  1
  C  C39  1  0.70669632  0.79364452  0.51132605  1
