# generated using pymatgen
data_Cu13NiC10
_symmetry_space_group_name_H-M   'P 1'
_cell_length_a   9.23179383
_cell_length_b   9.76244603
_cell_length_c   17.96013994
_cell_angle_alpha   98.68183272
_cell_angle_beta   90.00000000
_cell_angle_gamma   90.00000000
_symmetry_Int_Tables_number   1
_chemical_formula_structural   Cu13NiC10
_chemical_formula_sum   'Cu52 Ni4 C40'
_cell_volume   1600.10873732
_cell_formula_units_Z   4
loop_
 _symmetry_equiv_pos_site_id
 _symmetry_equiv_pos_as_xyz
  1  'x, y, z'
loop_
 _atom_site_type_symbol
 _atom_site_label
 _atom_site_symmetry_multiplicity
 _atom_site_fract_x
 _atom_site_fract_y
 _atom_site_fract_z
 _atom_site_occupancy
  C  C0  1  0.61097175  0.78523813  0.70058680  1
  C  C1  1  0.88902825  0.28523813  0.20058680  1
  C  C2  1  0.38902825  0.21476187  0.29941320  1
  C  C3  1  0.11097175  0.71476187  0.79941320  1
  C  C4  1  0.41109108  0.95036160  0.60253940  1
  C  C5  1  0.08890892  0.45036160  0.10253940  1
  C  C6  1  0.58890892  0.04963840  0.39746060  1
  C  C7  1  0.91109108  0.54963840  0.89746060  1
  C  C8  1  0.58499448  0.76006501  0.46691169  1
  C  C9  1  0.91500552  0.26006501  0.96691169  1
  C  C10  1  0.41500552  0.23993499  0.53308831  1
  C  C11  1  0.08499448  0.73993499  0.03308831  1
  C  C12  1  0.66976860  0.77297996  0.87629316  1
  C  C13  1  0.83023140  0.27297996  0.37629316  1
  C  C14  1  0.33023140  0.22702004  0.12370684  1
  C  C15  1  0.16976860  0.72702004  0.62370684  1
  C  C16  1  0.83573589  0.69390283  0.56969548  1
  C  C17  1  0.66426411  0.19390283  0.06969548  1
  C  C18  1  0.16426411  0.30609717  0.43030452  1
  C  C19  1  0.33573589  0.80609717  0.93030452  1
  C  C20  1  0.45409818  0.55251813  0.59482993  1
  C  C21  1  0.04590182  0.05251813  0.09482993  1
  C  C22  1  0.54590182  0.44748187  0.40517007  1
  C  C23  1  0.95409818  0.94748187  0.90517007  1
  C  C24  1  0.65314281  0.79266330  0.17259209  1
  C  C25  1  0.84685719  0.29266330  0.67259209  1
  C  C26  1  0.34685719  0.20733670  0.82740791  1
  C  C27  1  0.15314281  0.70733670  0.32740791  1
  C  C28  1  0.49300826  0.77127253  0.16107667  1
  C  C29  1  0.00699174  0.27127253  0.66107667  1
  C  C30  1  0.50699174  0.22872747  0.83892333  1
  C  C31  1  0.99300826  0.72872747  0.33892333  1
  C  C32  1  0.53798392  0.65628171  0.20230331  1
  C  C33  1  0.96201608  0.15628171  0.70230331  1
  C  C34  1  0.46201608  0.34371829  0.79769669  1
  C  C35  1  0.03798392  0.84371829  0.29769669  1
  C  C36  1  0.56196209  0.66817510  0.10287971  1
  C  C37  1  0.93803791  0.16817510  0.60287971  1
  C  C38  1  0.43803791  0.33182490  0.89712029  1
  C  C39  1  0.06196209  0.83182490  0.39712029  1
  Ni  Ni40  1  0.67344677  0.63944628  0.15683595  1
  Ni  Ni41  1  0.82655323  0.13944628  0.65683595  1
  Ni  Ni42  1  0.32655323  0.36055372  0.84316405  1
  Ni  Ni43  1  0.17344677  0.86055372  0.34316405  1
  Cu  Cu44  1  0.56699099  0.93092636  0.65746462  1
  Cu  Cu45  1  0.93300901  0.43092636  0.15746462  1
  Cu  Cu46  1  0.43300901  0.06907364  0.34253538  1
  Cu  Cu47  1  0.06699099  0.56907364  0.84253538  1
  Cu  Cu48  1  0.61937504  0.84831747  0.79691345  1
  Cu  Cu49  1  0.88062496  0.34831747  0.29691345  1
  Cu  Cu50  1  0.38062496  0.15168253  0.20308655  1
  Cu  Cu51  1  0.11937504  0.65168253  0.70308655  1
  Cu  Cu52  1  0.78400887  0.72722908  0.66605538  1
  Cu  Cu53  1  0.71599113  0.22722908  0.16605538  1
  Cu  Cu54  1  0.21599113  0.27277092  0.33394462  1
  Cu  Cu55  1  0.28400887  0.77277092  0.83394462  1
  Cu  Cu56  1  0.47986016  0.65082250  0.68634518  1
  Cu  Cu57  1  0.02013984  0.15082250  0.18634518  1
  Cu  Cu58  1  0.52013984  0.34917750  0.31365482  1
  Cu  Cu59  1  0.97986016  0.84917750  0.81365482  1
  Cu  Cu60  1  0.43267046  0.85303607  0.51152660  1
  Cu  Cu61  1  0.06732954  0.35303607  0.01152660  1
  Cu  Cu62  1  0.56732954  0.14696393  0.48847340  1
  Cu  Cu63  1  0.93267046  0.64696393  0.98847340  1
  Cu  Cu64  1  0.37915305  0.12680477  0.60511096  1
  Cu  Cu65  1  0.12084695  0.62680477  0.10511096  1
  Cu  Cu66  1  0.62084695  0.87319523  0.39488904  1
  Cu  Cu67  1  0.87915305  0.37319523  0.89488904  1
  Cu  Cu68  1  0.25843809  0.88729677  0.64765134  1
  Cu  Cu69  1  0.24156191  0.38729677  0.14765134  1
  Cu  Cu70  1  0.74156191  0.11270323  0.35234866  1
  Cu  Cu71  1  0.75843809  0.61270323  0.85234866  1
  Cu  Cu72  1  0.76736250  0.78973838  0.50178570  1
  Cu  Cu73  1  0.73263750  0.28973838  0.00178570  1
  Cu  Cu74  1  0.23263750  0.21026162  0.49821430  1
  Cu  Cu75  1  0.26736250  0.71026162  0.99821430  1
  Cu  Cu76  1  0.46546055  0.37758759  0.60611695  1
  Cu  Cu77  1  0.03453945  0.87758759  0.10611695  1
  Cu  Cu78  1  0.53453945  0.62241241  0.39388305  1
  Cu  Cu79  1  0.96546055  0.12241241  0.89388305  1
  Cu  Cu80  1  0.59097452  0.61446895  0.53848196  1
  Cu  Cu81  1  0.90902548  0.11446895  0.03848196  1
  Cu  Cu82  1  0.40902548  0.38553105  0.46151804  1
  Cu  Cu83  1  0.09097452  0.88553105  0.96151804  1
  Cu  Cu84  1  0.77604401  0.90119560  0.93228764  1
  Cu  Cu85  1  0.72395599  0.40119560  0.43228764  1
  Cu  Cu86  1  0.22395599  0.09880440  0.06771236  1
  Cu  Cu87  1  0.27604401  0.59880440  0.56771236  1
  Cu  Cu88  1  0.51756325  0.74129425  0.92937284  1
  Cu  Cu89  1  0.98243675  0.24129425  0.42937284  1
  Cu  Cu90  1  0.48243675  0.25870575  0.07062716  1
  Cu  Cu91  1  0.01756325  0.75870575  0.57062716  1
  Cu  Cu92  1  0.88214859  0.50953924  0.54690446  1
  Cu  Cu93  1  0.61785141  0.00953924  0.04690446  1
  Cu  Cu94  1  0.11785141  0.49046076  0.45309554  1
  Cu  Cu95  1  0.38214859  0.99046076  0.95309554  1
