# generated using pymatgen
data_CuNiC
_symmetry_space_group_name_H-M   'P 1'
_cell_length_a   6.70406548
_cell_length_b   6.70406548
_cell_length_c   6.55614121
_cell_angle_alpha   64.04951651
_cell_angle_beta   64.04951651
_cell_angle_gamma   79.38688713
_symmetry_Int_Tables_number   1
_chemical_formula_structural   CuNiC
_chemical_formula_sum   'Cu4 Ni4 C4'
_cell_volume   238.22817506
_cell_formula_units_Z   4
loop_
 _symmetry_equiv_pos_site_id
 _symmetry_equiv_pos_as_xyz
  1  'x, y, z'
loop_
 _atom_site_type_symbol
 _atom_site_label
 _atom_site_symmetry_multiplicity
 _atom_site_fract_x
 _atom_site_fract_y
 _atom_site_fract_z
 _atom_site_occupancy
  C  C0  1  0.57117300  0.42882700  0.75000000  1
  C  C1  1  0.42882700  0.57117300  0.25000000  1
  C  C2  1  0.01132200  0.98867800  0.75000000  1
  C  C3  1  0.98867800  0.01132200  0.25000000  1
  Ni  Ni4  1  0.27555800  0.04124400  0.35209800  1
  Ni  Ni5  1  0.95875600  0.72444200  0.14790200  1
  Ni  Ni6  1  0.72444200  0.95875600  0.64790200  1
  Ni  Ni7  1  0.04124400  0.27555800  0.85209800  1
  Cu  Cu8  1  0.74521000  0.57517200  0.31300800  1
  Cu  Cu9  1  0.42482800  0.25479000  0.18699200  1
  Cu  Cu10  1  0.25479000  0.42482800  0.68699200  1
  Cu  Cu11  1  0.57517200  0.74521000  0.81300800  1
