# generated using pymatgen
data_Cu4NiC
_symmetry_space_group_name_H-M   'P 1'
_cell_length_a   4.88860300
_cell_length_b   6.90836800
_cell_length_c   8.81787700
_cell_angle_alpha   90.00000000
_cell_angle_beta   90.00000000
_cell_angle_gamma   90.00000000
_symmetry_Int_Tables_number   1
_chemical_formula_structural   Cu4NiC
_chemical_formula_sum   'Cu16 Ni4 C4'
_cell_volume   297.79970991
_cell_formula_units_Z   4
loop_
 _symmetry_equiv_pos_site_id
 _symmetry_equiv_pos_as_xyz
  1  'x, y, z'
loop_
 _atom_site_type_symbol
 _atom_site_label
 _atom_site_symmetry_multiplicity
 _atom_site_fract_x
 _atom_site_fract_y
 _atom_site_fract_z
 _atom_site_occupancy
  C  C0  1  0.50000000  0.50000000  0.50000000  1
  C  C1  1  0.00000000  0.50000000  0.00000000  1
  C  C2  1  0.50000000  0.00000000  0.50000000  1
  C  C3  1  0.00000000  0.00000000  0.00000000  1
  Ni  Ni4  1  0.52567200  0.75000000  0.17682100  1
  Ni  Ni5  1  0.02567200  0.25000000  0.32317900  1
  Ni  Ni6  1  0.47432800  0.25000000  0.82317900  1
  Ni  Ni7  1  0.97432800  0.75000000  0.67682100  1
  Cu  Cu8  1  0.23776800  0.75000000  0.11976500  1
  Cu  Cu9  1  0.73776800  0.25000000  0.38023500  1
  Cu  Cu10  1  0.76223200  0.25000000  0.88023500  1
  Cu  Cu11  1  0.26223200  0.75000000  0.61976500  1
  Cu  Cu12  1  0.53089100  0.75000000  0.34817100  1
  Cu  Cu13  1  0.03089100  0.25000000  0.15182900  1
  Cu  Cu14  1  0.46910900  0.25000000  0.65182900  1
  Cu  Cu15  1  0.96910900  0.75000000  0.84817100  1
  Cu  Cu16  1  0.83561400  0.92817000  0.62556800  1
  Cu  Cu17  1  0.33561400  0.07183000  0.87443200  1
  Cu  Cu18  1  0.16438600  0.42817000  0.37443200  1
  Cu  Cu19  1  0.66438600  0.57183000  0.12556800  1
  Cu  Cu20  1  0.16438600  0.07183000  0.37443200  1
  Cu  Cu21  1  0.66438600  0.92817000  0.12556800  1
  Cu  Cu22  1  0.83561400  0.57183000  0.62556800  1
  Cu  Cu23  1  0.33561400  0.42817000  0.87443200  1
