# generated using pymatgen
data_Cu(NiC5)4
_symmetry_space_group_name_H-M   'P 1'
_cell_length_a   7.80891612
_cell_length_b   9.55685757
_cell_length_c   8.71594902
_cell_angle_alpha   89.97091585
_cell_angle_beta   90.01904968
_cell_angle_gamma   65.87878135
_symmetry_Int_Tables_number   1
_chemical_formula_structural   Cu(NiC5)4
_chemical_formula_sum   'Cu2 Ni8 C40'
_cell_volume   593.66347831
_cell_formula_units_Z   2
loop_
 _symmetry_equiv_pos_site_id
 _symmetry_equiv_pos_as_xyz
  1  'x, y, z'
loop_
 _atom_site_type_symbol
 _atom_site_label
 _atom_site_symmetry_multiplicity
 _atom_site_fract_x
 _atom_site_fract_y
 _atom_site_fract_z
 _atom_site_occupancy
  Ni  Ni0  1  0.40021600  0.19973500  0.39934200  1
  Ni  Ni1  1  0.90005100  0.19974200  0.39936100  1
  Ni  Ni2  1  0.30047400  0.39913700  0.80042900  1
  Ni  Ni3  1  0.80034100  0.39922200  0.80042000  1
  Ni  Ni4  1  0.19985600  0.60034300  0.19966900  1
  Ni  Ni5  1  0.69976900  0.60042000  0.19963600  1
  Ni  Ni6  1  0.09982200  0.80044600  0.60066800  1
  Ni  Ni7  1  0.59974000  0.80046800  0.60071800  1
  Cu  Cu8  1  0.49992000  0.00023700  0.99983100  1
  Cu  Cu9  1  0.99985900  0.00023800  0.99985100  1
  C  C10  1  0.99996300  0.49997900  0.50001800  1
  C  C11  1  0.49996900  0.50006100  0.50008800  1
  C  C12  1  0.89922400  0.70165900  0.90057800  1
  C  C13  1  0.39905500  0.70159400  0.90074900  1
  C  C14  1  0.79976500  0.90050900  0.29833400  1
  C  C15  1  0.29976400  0.90064500  0.29841400  1
  C  C16  1  0.20032000  0.09936200  0.70154500  1
  C  C17  1  0.70023000  0.09937600  0.70164200  1
  C  C18  1  0.10073700  0.29843500  0.09940600  1
  C  C19  1  0.60085400  0.29841800  0.09936700  1
  C  C20  1  0.24992200  0.50005400  0.50001700  1
  C  C21  1  0.75000500  0.50006900  0.50007500  1
  C  C22  1  0.24999100  0.00004100  0.49996200  1
  C  C23  1  0.75002800  0.99994100  0.49998600  1
  C  C24  1  0.00001500  0.49999000  0.99999100  1
  C  C25  1  0.50000400  0.49997800  0.99999400  1
  C  C26  1  0.14769900  0.70465200  0.90181900  1
  C  C27  1  0.64766000  0.70466600  0.90175800  1
  C  C28  1  0.04915500  0.90173200  0.29524200  1
  C  C29  1  0.54916600  0.90172200  0.29522500  1
  C  C30  1  0.45087100  0.09822100  0.70466900  1
  C  C31  1  0.95088700  0.09820700  0.70465000  1
  C  C32  1  0.35235200  0.29532300  0.09829800  1
  C  C33  1  0.85231400  0.29533400  0.09823400  1
  C  C34  1  0.05083400  0.39828600  0.29928800  1
  C  C35  1  0.55086400  0.39836400  0.29930300  1
  C  C36  1  0.94916500  0.60172500  0.70076200  1
  C  C37  1  0.44909100  0.60171500  0.70075600  1
  C  C38  1  0.89969600  0.70061100  0.39827700  1
  C  C39  1  0.39963500  0.70070800  0.39830300  1
  C  C40  1  0.10030800  0.29937800  0.60172000  1
  C  C41  1  0.60034400  0.29934500  0.60169600  1
  C  C42  1  0.84821500  0.80358100  0.09777600  1
  C  C43  1  0.34818800  0.80361900  0.09783400  1
  C  C44  1  0.15181800  0.19637300  0.90215300  1
  C  C45  1  0.65182300  0.19635600  0.90217000  1
  C  C46  1  0.79900800  0.90208300  0.80368300  1
  C  C47  1  0.29894600  0.90208600  0.80364400  1
  C  C48  1  0.20101600  0.09789800  0.19630500  1
  C  C49  1  0.70105200  0.09791800  0.19634200  1
