# generated using pymatgen
data_Cu7Ni3C14
_symmetry_space_group_name_H-M   'P 1'
_cell_length_a   8.65055203
_cell_length_b   8.65055203
_cell_length_c   8.65055203
_cell_angle_alpha   60.00000000
_cell_angle_beta   60.00000000
_cell_angle_gamma   60.00000000
_symmetry_Int_Tables_number   1
_chemical_formula_structural   Cu7Ni3C14
_chemical_formula_sum   'Cu14 Ni6 C28'
_cell_volume   457.73747507
_cell_formula_units_Z   2
loop_
 _symmetry_equiv_pos_site_id
 _symmetry_equiv_pos_as_xyz
  1  'x, y, z'
loop_
 _atom_site_type_symbol
 _atom_site_label
 _atom_site_symmetry_multiplicity
 _atom_site_fract_x
 _atom_site_fract_y
 _atom_site_fract_z
 _atom_site_occupancy
  Ni  Ni0  1  0.50000000  0.00000000  0.00000000  1
  Ni  Ni1  1  0.00000000  0.50000000  0.50000000  1
  Ni  Ni2  1  0.00000000  0.50000000  0.00000000  1
  Ni  Ni3  1  0.50000000  0.00000000  0.50000000  1
  Ni  Ni4  1  0.00000000  0.00000000  0.50000000  1
  Ni  Ni5  1  0.50000000  0.50000000  0.00000000  1
  Cu  Cu6  1  0.08008400  0.08008400  0.08008400  1
  Cu  Cu7  1  0.08008400  0.08008400  0.75974700  1
  Cu  Cu8  1  0.08008400  0.75974700  0.08008400  1
  Cu  Cu9  1  0.58008400  0.58008400  0.58008400  1
  Cu  Cu10  1  0.75974700  0.08008400  0.08008400  1
  Cu  Cu11  1  0.58008400  0.58008400  0.25974700  1
  Cu  Cu12  1  0.25974700  0.58008400  0.58008400  1
  Cu  Cu13  1  0.58008400  0.25974700  0.58008400  1
  Cu  Cu14  1  0.75000000  0.25000000  0.25000000  1
  Cu  Cu15  1  0.25000000  0.75000000  0.75000000  1
  Cu  Cu16  1  0.25000000  0.75000000  0.25000000  1
  Cu  Cu17  1  0.75000000  0.25000000  0.75000000  1
  Cu  Cu18  1  0.25000000  0.25000000  0.75000000  1
  Cu  Cu19  1  0.75000000  0.75000000  0.25000000  1
  C  C20  1  0.25000000  0.25000000  0.25000000  1
  C  C21  1  0.75000000  0.75000000  0.75000000  1
  C  C22  1  0.25701700  0.10302800  0.93607800  1
  C  C23  1  0.10302800  0.25701700  0.70387700  1
  C  C24  1  0.93607800  0.70387700  0.25701700  1
  C  C25  1  0.93607800  0.25701700  0.10302800  1
  C  C26  1  0.60302800  0.75701700  0.43607800  1
  C  C27  1  0.70387700  0.93607800  0.10302800  1
  C  C28  1  0.70387700  0.10302800  0.25701700  1
  C  C29  1  0.75701700  0.60302800  0.20387700  1
  C  C30  1  0.25701700  0.93607800  0.70387700  1
  C  C31  1  0.20387700  0.43607800  0.75701700  1
  C  C32  1  0.10302800  0.70387700  0.93607800  1
  C  C33  1  0.43607800  0.20387700  0.60302800  1
  C  C34  1  0.10302800  0.93607800  0.25701700  1
  C  C35  1  0.75701700  0.43607800  0.60302800  1
  C  C36  1  0.70387700  0.25701700  0.93607800  1
  C  C37  1  0.43607800  0.75701700  0.20387700  1
  C  C38  1  0.93607800  0.10302800  0.70387700  1
  C  C39  1  0.20387700  0.60302800  0.43607800  1
  C  C40  1  0.25701700  0.70387700  0.10302800  1
  C  C41  1  0.60302800  0.20387700  0.75701700  1
  C  C42  1  0.43607800  0.60302800  0.75701700  1
  C  C43  1  0.20387700  0.75701700  0.60302800  1
  C  C44  1  0.60302800  0.43607800  0.20387700  1
  C  C45  1  0.75701700  0.20387700  0.43607800  1
  C  C46  1  0.00000000  0.00000000  0.00000000  1
  C  C47  1  0.50000000  0.50000000  0.50000000  1
