# generated using pymatgen
data_Cu3Ni2C13
_symmetry_space_group_name_H-M   'P 1'
_cell_length_a   7.23764182
_cell_length_b   7.23764182
_cell_length_c   7.24426565
_cell_angle_alpha   60.29513243
_cell_angle_beta   60.29513243
_cell_angle_gamma   60.28859284
_symmetry_Int_Tables_number   1
_chemical_formula_structural   Cu3Ni2C13
_chemical_formula_sum   'Cu3 Ni2 C13'
_cell_volume   270.11159736
_cell_formula_units_Z   1
loop_
 _symmetry_equiv_pos_site_id
 _symmetry_equiv_pos_as_xyz
  1  'x, y, z'
loop_
 _atom_site_type_symbol
 _atom_site_label
 _atom_site_symmetry_multiplicity
 _atom_site_fract_x
 _atom_site_fract_y
 _atom_site_fract_z
 _atom_site_occupancy
  C  C0  1  0.49587900  0.50412100  0.00000000  1
  Ni  Ni1  1  0.10649100  0.17751200  0.61205300  1
  Ni  Ni2  1  0.82248800  0.89350900  0.38794700  1
  Cu  Cu3  1  0.49902600  0.00094700  0.00079300  1
  Cu  Cu4  1  0.99905300  0.50097400  0.99920700  1
  Cu  Cu5  1  0.49827800  0.50172200  0.50000000  1
  C  C6  1  0.43640600  0.81950000  0.93329200  1
  C  C7  1  0.82389500  0.42823900  0.32470000  1
  C  C8  1  0.81937600  0.43376000  0.93370600  1
  C  C9  1  0.42859100  0.82609900  0.32575300  1
  C  C10  1  0.82487700  0.82603000  0.92755800  1
  C  C11  1  0.43542300  0.43215500  0.32007600  1
  C  C12  1  0.56624000  0.18062400  0.06629400  1
  C  C13  1  0.17390100  0.57140900  0.67424700  1
  C  C14  1  0.18050000  0.56359400  0.06670800  1
  C  C15  1  0.57176100  0.17610500  0.67530000  1
  C  C16  1  0.17397000  0.17512300  0.07244200  1
  C  C17  1  0.56784500  0.56457700  0.67992400  1
