# generated using pymatgen
data_Cu4Ni2C
_symmetry_space_group_name_H-M   'P 1'
_cell_length_a   8.28897207
_cell_length_b   8.28897207
_cell_length_c   14.77418616
_cell_angle_alpha   72.67766123
_cell_angle_beta   72.67766123
_cell_angle_gamma   68.10127763
_symmetry_Int_Tables_number   1
_chemical_formula_structural   Cu4Ni2C
_chemical_formula_sum   'Cu24 Ni12 C6'
_cell_volume   878.92944313
_cell_formula_units_Z   6
loop_
 _symmetry_equiv_pos_site_id
 _symmetry_equiv_pos_as_xyz
  1  'x, y, z'
loop_
 _atom_site_type_symbol
 _atom_site_label
 _atom_site_symmetry_multiplicity
 _atom_site_fract_x
 _atom_site_fract_y
 _atom_site_fract_z
 _atom_site_occupancy
  C  C0  1  0.86568100  0.37642700  0.96677800  1
  C  C1  1  0.62357300  0.13431900  0.53322200  1
  C  C2  1  0.13431900  0.62357300  0.03322200  1
  C  C3  1  0.37642700  0.86568100  0.46677800  1
  C  C4  1  0.50000000  0.00000000  0.00000000  1
  C  C5  1  0.00000000  0.50000000  0.50000000  1
  Ni  Ni6  1  0.15967900  0.03343300  0.11442200  1
  Ni  Ni7  1  0.96656700  0.84032100  0.38557800  1
  Ni  Ni8  1  0.84032100  0.96656700  0.88557800  1
  Ni  Ni9  1  0.03343300  0.15967900  0.61442200  1
  Ni  Ni10  1  0.53083200  0.77290100  0.86153600  1
  Ni  Ni11  1  0.22709900  0.46916800  0.63846400  1
  Ni  Ni12  1  0.46916800  0.22709900  0.13846400  1
  Ni  Ni13  1  0.77290100  0.53083200  0.36153600  1
  Ni  Ni14  1  0.63015000  0.67388400  0.12028600  1
  Ni  Ni15  1  0.32611600  0.36985000  0.37971400  1
  Ni  Ni16  1  0.36985000  0.32611600  0.87971400  1
  Ni  Ni17  1  0.67388400  0.63015000  0.62028600  1
  Cu  Cu18  1  0.74839000  0.64332400  0.86919100  1
  Cu  Cu19  1  0.35667600  0.25161000  0.63080900  1
  Cu  Cu20  1  0.25161000  0.35667600  0.13080900  1
  Cu  Cu21  1  0.64332400  0.74839000  0.36919100  1
  Cu  Cu22  1  0.12579900  0.16347200  0.85419900  1
  Cu  Cu23  1  0.83652800  0.87420100  0.64580100  1
  Cu  Cu24  1  0.87420100  0.83652800  0.14580100  1
  Cu  Cu25  1  0.16347200  0.12579900  0.35419900  1
  Cu  Cu26  1  0.80999500  0.00011500  0.14323900  1
  Cu  Cu27  1  0.99988500  0.19000500  0.35676100  1
  Cu  Cu28  1  0.19000500  0.99988500  0.85676100  1
  Cu  Cu29  1  0.00011500  0.80999500  0.64323900  1
  Cu  Cu30  1  0.85723400  0.55837200  0.06869200  1
  Cu  Cu31  1  0.44162800  0.14276600  0.43130800  1
  Cu  Cu32  1  0.14276600  0.44162800  0.93130800  1
  Cu  Cu33  1  0.55837200  0.85723400  0.56869200  1
  Cu  Cu34  1  0.79405600  0.18563000  0.90377700  1
  Cu  Cu35  1  0.81437000  0.20594400  0.59622300  1
  Cu  Cu36  1  0.20594400  0.81437000  0.09622300  1
  Cu  Cu37  1  0.18563000  0.79405600  0.40377700  1
  Cu  Cu38  1  0.60479800  0.35716100  0.08323500  1
  Cu  Cu39  1  0.64283900  0.39520200  0.41676500  1
  Cu  Cu40  1  0.39520200  0.64283900  0.91676500  1
  Cu  Cu41  1  0.35716100  0.60479800  0.58323500  1
