# generated using pymatgen
data_Cu2Ni5C18
_symmetry_space_group_name_H-M   'P 1'
_cell_length_a   9.81589899
_cell_length_b   9.81589899
_cell_length_c   8.60605600
_cell_angle_alpha   90.00000000
_cell_angle_beta   90.00000000
_cell_angle_gamma   139.71162462
_symmetry_Int_Tables_number   1
_chemical_formula_structural   Cu2Ni5C18
_chemical_formula_sum   'Cu4 Ni10 C36'
_cell_volume   536.19598424
_cell_formula_units_Z   2
loop_
 _symmetry_equiv_pos_site_id
 _symmetry_equiv_pos_as_xyz
  1  'x, y, z'
loop_
 _atom_site_type_symbol
 _atom_site_label
 _atom_site_symmetry_multiplicity
 _atom_site_fract_x
 _atom_site_fract_y
 _atom_site_fract_z
 _atom_site_occupancy
  C  C0  1  0.35767600  0.64232400  0.75000000  1
  C  C1  1  0.64232400  0.35767600  0.25000000  1
  C  C2  1  0.81425500  0.18574500  0.75000000  1
  C  C3  1  0.18574500  0.81425500  0.25000000  1
  C  C4  1  0.15460700  0.84539300  0.75000000  1
  C  C5  1  0.84539300  0.15460700  0.25000000  1
  C  C6  1  0.42385600  0.00202000  0.55766100  1
  C  C7  1  0.00202000  0.42385600  0.44233900  1
  C  C8  1  0.57614400  0.99798000  0.05766100  1
  C  C9  1  0.99798000  0.57614400  0.94233900  1
  C  C10  1  0.73339400  0.73339400  0.00000000  1
  C  C11  1  0.26660600  0.26660600  0.50000000  1
  C  C12  1  0.15822000  0.14534800  0.82864400  1
  C  C13  1  0.14534800  0.15822000  0.17135600  1
  C  C14  1  0.84178000  0.85465200  0.32864400  1
  C  C15  1  0.85465200  0.84178000  0.67135600  1
  C  C16  1  0.32635800  0.14101800  0.89622400  1
  C  C17  1  0.14101800  0.32635800  0.10377600  1
  C  C18  1  0.67364200  0.85898200  0.39622400  1
  C  C19  1  0.85898200  0.67364200  0.60377600  1
  Ni  Ni20  1  0.87448200  0.12551800  0.75000000  1
  Ni  Ni21  1  0.12551800  0.87448200  0.25000000  1
  Ni  Ni22  1  0.09511900  0.90488100  0.75000000  1
  Ni  Ni23  1  0.90488100  0.09511900  0.25000000  1
  Ni  Ni24  1  0.49411300  0.98163300  0.47480100  1
  Ni  Ni25  1  0.98163300  0.49411300  0.52519900  1
  Ni  Ni26  1  0.50588700  0.01836700  0.97480100  1
  Ni  Ni27  1  0.01836700  0.50588700  0.02519900  1
  Ni  Ni28  1  0.56925500  0.56925500  0.00000000  1
  Ni  Ni29  1  0.43074500  0.43074500  0.50000000  1
  Cu  Cu30  1  0.19818000  0.07435700  0.83264800  1
  Cu  Cu31  1  0.07435700  0.19818000  0.16735200  1
  Cu  Cu32  1  0.80182000  0.92564300  0.33264800  1
  Cu  Cu33  1  0.92564300  0.80182000  0.66735200  1
  C  C34  1  0.43097300  0.52995400  0.92627200  1
  C  C35  1  0.52995400  0.43097300  0.07372800  1
  C  C36  1  0.56902700  0.47004600  0.42627200  1
  C  C37  1  0.47004600  0.56902700  0.57372800  1
  C  C38  1  0.74167800  0.92846900  0.76490600  1
  C  C39  1  0.92846900  0.74167800  0.23509400  1
  C  C40  1  0.25832200  0.07153100  0.26490600  1
  C  C41  1  0.07153100  0.25832200  0.73509400  1
  C  C42  1  0.43223900  0.91626700  0.84812600  1
  C  C43  1  0.91626700  0.43223900  0.15187400  1
  C  C44  1  0.56776100  0.08373300  0.34812600  1
  C  C45  1  0.08373300  0.56776100  0.65187400  1
  C  C46  1  0.49585900  0.85870100  0.51433200  1
  C  C47  1  0.85870100  0.49585900  0.48566800  1
  C  C48  1  0.50414100  0.14129900  0.01433200  1
  C  C49  1  0.14129900  0.50414100  0.98566800  1
