# generated using pymatgen
data_Cu6NiC
_symmetry_space_group_name_H-M   'P 1'
_cell_length_a   9.88328842
_cell_length_b   9.88328842
_cell_length_c   5.11269643
_cell_angle_alpha   85.07403473
_cell_angle_beta   85.07403473
_cell_angle_gamma   26.67642372
_symmetry_Int_Tables_number   1
_chemical_formula_structural   Cu6NiC
_chemical_formula_sum   'Cu12 Ni2 C2'
_cell_volume   223.33382074
_cell_formula_units_Z   2
loop_
 _symmetry_equiv_pos_site_id
 _symmetry_equiv_pos_as_xyz
  1  'x, y, z'
loop_
 _atom_site_type_symbol
 _atom_site_label
 _atom_site_symmetry_multiplicity
 _atom_site_fract_x
 _atom_site_fract_y
 _atom_site_fract_z
 _atom_site_occupancy
  C  C0  1  0.20005900  0.20005900  0.77556800  1
  C  C1  1  0.79994100  0.79994100  0.22443200  1
  Ni  Ni2  1  0.58332800  0.58332800  0.15286000  1
  Ni  Ni3  1  0.41667200  0.41667200  0.84714000  1
  Cu  Cu4  1  0.64506600  0.64506600  0.02530200  1
  Cu  Cu5  1  0.35493400  0.35493400  0.97469800  1
  Cu  Cu6  1  0.08660200  0.08660200  0.66034800  1
  Cu  Cu7  1  0.91339800  0.91339800  0.33965200  1
  Cu  Cu8  1  0.71271700  0.71271700  0.58412200  1
  Cu  Cu9  1  0.28728300  0.28728300  0.41587800  1
  Cu  Cu10  1  0.76996800  0.76996800  0.75726000  1
  Cu  Cu11  1  0.23003200  0.23003200  0.24274000  1
  Cu  Cu12  1  0.31742700  0.79093900  0.21228100  1
  Cu  Cu13  1  0.79093900  0.31742700  0.21228100  1
  Cu  Cu14  1  0.68257300  0.20906100  0.78771900  1
  Cu  Cu15  1  0.20906100  0.68257300  0.78771900  1
