# generated using pymatgen
data_CuNiC8
_symmetry_space_group_name_H-M   'P 1'
_cell_length_a   5.67400900
_cell_length_b   5.51413300
_cell_length_c   9.27925838
_cell_angle_alpha   54.30738772
_cell_angle_beta   90.00000000
_cell_angle_gamma   90.00000000
_symmetry_Int_Tables_number   1
_chemical_formula_structural   CuNiC8
_chemical_formula_sum   'Cu2 Ni2 C16'
_cell_volume   235.78787002
_cell_formula_units_Z   2
loop_
 _symmetry_equiv_pos_site_id
 _symmetry_equiv_pos_as_xyz
  1  'x, y, z'
loop_
 _atom_site_type_symbol
 _atom_site_label
 _atom_site_symmetry_multiplicity
 _atom_site_fract_x
 _atom_site_fract_y
 _atom_site_fract_z
 _atom_site_occupancy
  C  C0  1  0.44446600  0.26166000  0.74949300  1
  C  C1  1  0.94446600  0.73834000  0.75050700  1
  C  C2  1  0.55553400  0.73834000  0.25050700  1
  C  C3  1  0.05553400  0.26166000  0.24949300  1
  Ni  Ni4  1  0.00000000  0.00000000  0.00000000  1
  Ni  Ni5  1  0.50000000  0.00000000  0.50000000  1
  Cu  Cu6  1  0.00000000  0.50000000  0.50000000  1
  Cu  Cu7  1  0.50000000  0.50000000  0.00000000  1
  C  C8  1  0.71277100  0.64397200  0.54808100  1
  C  C9  1  0.21277100  0.35602800  0.95191900  1
  C  C10  1  0.30509400  0.74156400  0.04772200  1
  C  C11  1  0.80509400  0.25843600  0.45227800  1
  C  C12  1  0.28722900  0.35602800  0.45191900  1
  C  C13  1  0.78722900  0.64397200  0.04808100  1
  C  C14  1  0.69490600  0.25843600  0.95227800  1
  C  C15  1  0.19490600  0.74156400  0.54772200  1
  C  C16  1  0.02990100  0.15194900  0.75333900  1
  C  C17  1  0.52990100  0.84805100  0.74666100  1
  C  C18  1  0.97009900  0.84805100  0.24666100  1
  C  C19  1  0.47009900  0.15194900  0.25333900  1
