# generated using pymatgen
data_Cu4NiC19
_symmetry_space_group_name_H-M   'P 1'
_cell_length_a   14.10716454
_cell_length_b   14.10716454
_cell_length_c   7.00045200
_cell_angle_alpha   90.00000000
_cell_angle_beta   90.00000000
_cell_angle_gamma   119.70923873
_symmetry_Int_Tables_number   1
_chemical_formula_structural   Cu4NiC19
_chemical_formula_sum   'Cu16 Ni4 C76'
_cell_volume   1210.04403815
_cell_formula_units_Z   4
loop_
 _symmetry_equiv_pos_site_id
 _symmetry_equiv_pos_as_xyz
  1  'x, y, z'
loop_
 _atom_site_type_symbol
 _atom_site_label
 _atom_site_symmetry_multiplicity
 _atom_site_fract_x
 _atom_site_fract_y
 _atom_site_fract_z
 _atom_site_occupancy
  C  C0  1  0.59198000  0.09198000  0.75000000  1
  C  C1  1  0.90802000  0.40802000  0.25000000  1
  C  C2  1  0.40802000  0.90802000  0.25000000  1
  C  C3  1  0.09198000  0.59198000  0.75000000  1
  C  C4  1  0.60897000  0.60897000  0.69826300  1
  C  C5  1  0.39103000  0.39103000  0.30173700  1
  C  C6  1  0.89103000  0.89103000  0.19826300  1
  C  C7  1  0.10897000  0.10897000  0.80173700  1
  C  C8  1  0.62964900  0.89866200  0.97417200  1
  C  C9  1  0.10133800  0.37035100  0.02582800  1
  C  C10  1  0.60133800  0.87035100  0.47417200  1
  C  C11  1  0.12964900  0.39866200  0.52582800  1
  C  C12  1  0.37035100  0.10133800  0.02582800  1
  C  C13  1  0.89866200  0.62964900  0.97417200  1
  C  C14  1  0.39866200  0.12964900  0.52582800  1
  C  C15  1  0.87035100  0.60133800  0.47417200  1
  C  C16  1  0.88215600  0.11784400  0.00000000  1
  C  C17  1  0.38215600  0.61784400  0.50000000  1
  C  C18  1  0.11784400  0.88215600  0.00000000  1
  C  C19  1  0.61784400  0.38215600  0.50000000  1
  Ni  Ni20  1  0.88114700  0.11885300  0.50000000  1
  Ni  Ni21  1  0.38114700  0.61885300  0.00000000  1
  Ni  Ni22  1  0.11885300  0.88114700  0.50000000  1
  Ni  Ni23  1  0.61885300  0.38114700  0.00000000  1
  Cu  Cu24  1  0.79990100  0.92366200  0.69706100  1
  Cu  Cu25  1  0.07633800  0.20009900  0.30293900  1
  Cu  Cu26  1  0.57633800  0.70009900  0.19706100  1
  Cu  Cu27  1  0.29990100  0.42366200  0.80293900  1
  Cu  Cu28  1  0.20009900  0.07633800  0.30293900  1
  Cu  Cu29  1  0.92366200  0.79990100  0.69706100  1
  Cu  Cu30  1  0.42366200  0.29990100  0.80293900  1
  Cu  Cu31  1  0.70009900  0.57633800  0.19706100  1
  Cu  Cu32  1  0.40415700  0.78444200  0.75723600  1
  Cu  Cu33  1  0.21555800  0.59584300  0.24276400  1
  Cu  Cu34  1  0.71555800  0.09584300  0.25723600  1
  Cu  Cu35  1  0.90415700  0.28444200  0.74276400  1
  Cu  Cu36  1  0.59584300  0.21555800  0.24276400  1
  Cu  Cu37  1  0.78444200  0.40415700  0.75723600  1
  Cu  Cu38  1  0.28444200  0.90415700  0.74276400  1
  Cu  Cu39  1  0.09584300  0.71555800  0.25723600  1
  C  C40  1  0.86459700  0.98345700  0.87002300  1
  C  C41  1  0.01654300  0.13540300  0.12997700  1
  C  C42  1  0.51654300  0.63540300  0.37002300  1
  C  C43  1  0.36459700  0.48345700  0.62997700  1
  C  C44  1  0.13540300  0.01654300  0.12997700  1
  C  C45  1  0.98345700  0.86459700  0.87002300  1
  C  C46  1  0.48345700  0.36459700  0.62997700  1
  C  C47  1  0.63540300  0.51654300  0.37002300  1
  C  C48  1  0.83264200  0.99861200  0.51325400  1
  C  C49  1  0.00138800  0.16735800  0.48674600  1
  C  C50  1  0.50138800  0.66735800  0.01325400  1
  C  C51  1  0.33264200  0.49861200  0.98674600  1
  C  C52  1  0.16735800  0.00138800  0.48674600  1
  C  C53  1  0.99861200  0.83264200  0.51325400  1
  C  C54  1  0.49861200  0.33264200  0.98674600  1
  C  C55  1  0.66735800  0.50138800  0.01325400  1
  C  C56  1  0.83127400  0.83127400  0.62920200  1
  C  C57  1  0.16872600  0.16872600  0.37079800  1
  C  C58  1  0.66872600  0.66872600  0.12920200  1
  C  C59  1  0.33127400  0.33127400  0.87079800  1
  C  C60  1  0.67644500  0.86181100  0.71650100  1
  C  C61  1  0.13818900  0.32355500  0.28349900  1
  C  C62  1  0.63818900  0.82355500  0.21650100  1
  C  C63  1  0.17644500  0.36181100  0.78349900  1
  C  C64  1  0.32355500  0.13818900  0.28349900  1
  C  C65  1  0.86181100  0.67644500  0.71650100  1
  C  C66  1  0.36181100  0.17644500  0.78349900  1
  C  C67  1  0.82355500  0.63818900  0.21650100  1
  C  C68  1  0.48139700  0.86840300  0.89761800  1
  C  C69  1  0.13159700  0.51860300  0.10238200  1
  C  C70  1  0.63159700  0.01860300  0.39761800  1
  C  C71  1  0.98139700  0.36840300  0.60238200  1
  C  C72  1  0.51860300  0.13159700  0.10238200  1
  C  C73  1  0.86840300  0.48139700  0.89761800  1
  C  C74  1  0.36840300  0.98139700  0.60238200  1
  C  C75  1  0.01860300  0.63159700  0.39761800  1
  C  C76  1  0.29181100  0.79181100  0.75000000  1
  C  C77  1  0.20818900  0.70818900  0.25000000  1
  C  C78  1  0.70818900  0.20818900  0.25000000  1
  C  C79  1  0.79181100  0.29181100  0.75000000  1
  C  C80  1  0.35556200  0.66196500  0.82690600  1
  C  C81  1  0.33803500  0.64443800  0.17309400  1
  C  C82  1  0.83803500  0.14443800  0.32690600  1
  C  C83  1  0.85556200  0.16196500  0.67309400  1
  C  C84  1  0.64443800  0.33803500  0.17309400  1
  C  C85  1  0.66196500  0.35556200  0.82690600  1
  C  C86  1  0.16196500  0.85556200  0.67309400  1
  C  C87  1  0.14443800  0.83803500  0.32690600  1
  C  C88  1  0.44317000  0.78902700  0.55390900  1
  C  C89  1  0.21097300  0.55683000  0.44609100  1
  C  C90  1  0.71097300  0.05683000  0.05390900  1
  C  C91  1  0.94317000  0.28902700  0.94609100  1
  C  C92  1  0.55683000  0.21097300  0.44609100  1
  C  C93  1  0.78902700  0.44317000  0.55390900  1
  C  C94  1  0.28902700  0.94317000  0.94609100  1
  C  C95  1  0.05683000  0.71097300  0.05390900  1
