# generated using pymatgen
data_Cu10Ni3C
_symmetry_space_group_name_H-M   'P 1'
_cell_length_a   10.60232900
_cell_length_b   7.63718900
_cell_length_c   13.34720674
_cell_angle_alpha   66.08005047
_cell_angle_beta   90.00000000
_cell_angle_gamma   90.00000000
_symmetry_Int_Tables_number   1
_chemical_formula_structural   Cu10Ni3C
_chemical_formula_sum   'Cu40 Ni12 C4'
_cell_volume   987.92735215
_cell_formula_units_Z   4
loop_
 _symmetry_equiv_pos_site_id
 _symmetry_equiv_pos_as_xyz
  1  'x, y, z'
loop_
 _atom_site_type_symbol
 _atom_site_label
 _atom_site_symmetry_multiplicity
 _atom_site_fract_x
 _atom_site_fract_y
 _atom_site_fract_z
 _atom_site_occupancy
  C  C0  1  0.70077100  0.87237900  0.63084400  1
  C  C1  1  0.20077100  0.12762100  0.86915600  1
  C  C2  1  0.29922900  0.12762100  0.36915600  1
  C  C3  1  0.79922900  0.87237900  0.13084400  1
  Ni  Ni4  1  0.29570000  0.64680600  0.65876500  1
  Ni  Ni5  1  0.79570000  0.35319400  0.84123500  1
  Ni  Ni6  1  0.70430000  0.35319400  0.34123500  1
  Ni  Ni7  1  0.20430000  0.64680600  0.15876500  1
  Ni  Ni8  1  0.92283200  0.79303100  0.87200200  1
  Ni  Ni9  1  0.42283200  0.20696900  0.62799800  1
  Ni  Ni10  1  0.07716800  0.20696900  0.12799800  1
  Ni  Ni11  1  0.57716800  0.79303100  0.37200200  1
  Ni  Ni12  1  0.50697700  0.81454600  0.94663100  1
  Ni  Ni13  1  0.00697700  0.18545400  0.55336900  1
  Ni  Ni14  1  0.49302300  0.18545400  0.05336900  1
  Ni  Ni15  1  0.99302300  0.81454600  0.44663100  1
  Cu  Cu16  1  0.72047300  0.22756200  0.64490500  1
  Cu  Cu17  1  0.22047300  0.77243800  0.85509500  1
  Cu  Cu18  1  0.27952700  0.77243800  0.35509500  1
  Cu  Cu19  1  0.77952700  0.22756200  0.14490500  1
  Cu  Cu20  1  0.90652200  0.96025000  0.59793200  1
  Cu  Cu21  1  0.40652200  0.03975000  0.90206800  1
  Cu  Cu22  1  0.09347800  0.03975000  0.40206800  1
  Cu  Cu23  1  0.59347800  0.96025000  0.09793200  1
  Cu  Cu24  1  0.78882900  0.58708500  0.70228400  1
  Cu  Cu25  1  0.28882900  0.41291500  0.79771600  1
  Cu  Cu26  1  0.21117100  0.41291500  0.29771600  1
  Cu  Cu27  1  0.71117100  0.58708500  0.20228400  1
  Cu  Cu28  1  0.77044900  0.86019700  0.80278700  1
  Cu  Cu29  1  0.27044900  0.13980300  0.69721300  1
  Cu  Cu30  1  0.22955100  0.13980300  0.19721300  1
  Cu  Cu31  1  0.72955100  0.86019700  0.30278700  1
  Cu  Cu32  1  0.68178600  0.12022600  0.48043600  1
  Cu  Cu33  1  0.18178600  0.87977400  0.01956400  1
  Cu  Cu34  1  0.31821400  0.87977400  0.51956400  1
  Cu  Cu35  1  0.81821400  0.12022600  0.98043600  1
  Cu  Cu36  1  0.62417000  0.73192400  0.51390700  1
  Cu  Cu37  1  0.12417000  0.26807600  0.98609300  1
  Cu  Cu38  1  0.37583000  0.26807600  0.48609300  1
  Cu  Cu39  1  0.87583000  0.73192400  0.01390700  1
  Cu  Cu40  1  0.55883600  0.60210200  0.73738700  1
  Cu  Cu41  1  0.05883600  0.39789800  0.76261300  1
  Cu  Cu42  1  0.44116400  0.39789800  0.26261300  1
  Cu  Cu43  1  0.94116400  0.60210200  0.23738700  1
  Cu  Cu44  1  0.50707700  0.97743400  0.67253800  1
  Cu  Cu45  1  0.00707700  0.02256600  0.82746200  1
  Cu  Cu46  1  0.49292300  0.02256600  0.32746200  1
  Cu  Cu47  1  0.99292300  0.97743400  0.17253800  1
  Cu  Cu48  1  0.79052800  0.36375000  0.58671300  1
  Cu  Cu49  1  0.29052800  0.63625000  0.91328700  1
  Cu  Cu50  1  0.20947200  0.63625000  0.41328700  1
  Cu  Cu51  1  0.70947200  0.36375000  0.08671300  1
  Cu  Cu52  1  0.07341200  0.54183300  0.67148000  1
  Cu  Cu53  1  0.57341200  0.45816700  0.82852000  1
  Cu  Cu54  1  0.92658800  0.45816700  0.32852000  1
  Cu  Cu55  1  0.42658800  0.54183300  0.17148000  1
