# generated using pymatgen
data_Cu14Ni3C
_symmetry_space_group_name_H-M   'P 1'
_cell_length_a   8.04083800
_cell_length_b   7.03036000
_cell_length_c   26.79243315
_cell_angle_alpha   76.95603091
_cell_angle_beta   90.00000000
_cell_angle_gamma   90.00000000
_symmetry_Int_Tables_number   1
_chemical_formula_structural   Cu14Ni3C
_chemical_formula_sum   'Cu56 Ni12 C4'
_cell_volume   1475.49549181
_cell_formula_units_Z   4
loop_
 _symmetry_equiv_pos_site_id
 _symmetry_equiv_pos_as_xyz
  1  'x, y, z'
loop_
 _atom_site_type_symbol
 _atom_site_label
 _atom_site_symmetry_multiplicity
 _atom_site_fract_x
 _atom_site_fract_y
 _atom_site_fract_z
 _atom_site_occupancy
  C  C0  1  0.93245100  0.14082300  0.94360800  1
  C  C1  1  0.06754900  0.85917700  0.05639200  1
  C  C2  1  0.43245100  0.85917700  0.55639200  1
  C  C3  1  0.56754900  0.14082300  0.44360800  1
  Ni  Ni4  1  0.67652000  0.99540800  0.62408700  1
  Ni  Ni5  1  0.32348000  0.00459200  0.37591300  1
  Ni  Ni6  1  0.17652000  0.00459200  0.87591300  1
  Ni  Ni7  1  0.82348000  0.99540800  0.12408700  1
  Ni  Ni8  1  0.77469400  0.39601300  0.49252300  1
  Ni  Ni9  1  0.22530600  0.60398700  0.50747700  1
  Ni  Ni10  1  0.27469400  0.60398700  0.00747700  1
  Ni  Ni11  1  0.72530600  0.39601300  0.99252300  1
  Ni  Ni12  1  0.79600200  0.91117000  0.77613700  1
  Ni  Ni13  1  0.20399800  0.08883000  0.22386300  1
  Ni  Ni14  1  0.29600200  0.08883000  0.72386300  1
  Ni  Ni15  1  0.70399800  0.91117000  0.27613700  1
  Cu  Cu16  1  0.79665600  0.20797700  0.50153600  1
  Cu  Cu17  1  0.20334400  0.79202300  0.49846400  1
  Cu  Cu18  1  0.29665600  0.79202300  0.99846400  1
  Cu  Cu19  1  0.70334400  0.20797700  0.00153600  1
  Cu  Cu20  1  0.79383000  0.79536400  0.74674900  1
  Cu  Cu21  1  0.20617000  0.20463600  0.25325100  1
  Cu  Cu22  1  0.29383000  0.20463600  0.75325100  1
  Cu  Cu23  1  0.70617000  0.79536400  0.24674900  1
  Cu  Cu24  1  0.99738500  0.54696000  0.83814600  1
  Cu  Cu25  1  0.00261500  0.45304000  0.16185400  1
  Cu  Cu26  1  0.49738500  0.45304000  0.66185400  1
  Cu  Cu27  1  0.50261500  0.54696000  0.33814600  1
  Cu  Cu28  1  0.10015500  0.13698600  0.00482000  1
  Cu  Cu29  1  0.89984500  0.86301400  0.99518000  1
  Cu  Cu30  1  0.60015500  0.86301400  0.49518000  1
  Cu  Cu31  1  0.39984500  0.13698600  0.50482000  1
  Cu  Cu32  1  0.78956700  0.07047300  0.64286900  1
  Cu  Cu33  1  0.21043300  0.92952700  0.35713100  1
  Cu  Cu34  1  0.28956700  0.92952700  0.85713100  1
  Cu  Cu35  1  0.71043300  0.07047300  0.14286900  1
  Cu  Cu36  1  0.69217600  0.82888700  0.61093700  1
  Cu  Cu37  1  0.30782400  0.17111300  0.38906300  1
  Cu  Cu38  1  0.19217600  0.17111300  0.88906300  1
  Cu  Cu39  1  0.80782400  0.82888700  0.11093700  1
  Cu  Cu40  1  0.88241900  0.06309900  0.76514300  1
  Cu  Cu41  1  0.11758100  0.93690100  0.23485700  1
  Cu  Cu42  1  0.38241900  0.93690100  0.73485700  1
  Cu  Cu43  1  0.61758100  0.06309900  0.26514300  1
  Cu  Cu44  1  0.11089300  0.83600600  0.61351600  1
  Cu  Cu45  1  0.88910700  0.16399400  0.38648400  1
  Cu  Cu46  1  0.61089300  0.16399400  0.88648400  1
  Cu  Cu47  1  0.38910700  0.83600600  0.11351600  1
  Cu  Cu48  1  0.52996700  0.31617200  0.87326600  1
  Cu  Cu49  1  0.47003300  0.68382800  0.12673400  1
  Cu  Cu50  1  0.02996700  0.68382800  0.62673400  1
  Cu  Cu51  1  0.97003300  0.31617200  0.37326600  1
  Cu  Cu52  1  0.81678800  0.46653900  0.95226200  1
  Cu  Cu53  1  0.18321200  0.53346100  0.04773800  1
  Cu  Cu54  1  0.31678800  0.53346100  0.54773800  1
  Cu  Cu55  1  0.68321200  0.46653900  0.45226200  1
  Cu  Cu56  1  0.41455600  0.57640600  0.67733700  1
  Cu  Cu57  1  0.58544400  0.42359400  0.32266300  1
  Cu  Cu58  1  0.91455600  0.42359400  0.82266300  1
  Cu  Cu59  1  0.08544400  0.57640600  0.17733700  1
  Cu  Cu60  1  0.71194000  0.87349900  0.81650400  1
  Cu  Cu61  1  0.28806000  0.12650100  0.18349600  1
  Cu  Cu62  1  0.21194000  0.12650100  0.68349600  1
  Cu  Cu63  1  0.78806000  0.87349900  0.31650400  1
  Cu  Cu64  1  0.53120500  0.07623600  0.61466200  1
  Cu  Cu65  1  0.46879500  0.92376400  0.38533800  1
  Cu  Cu66  1  0.03120500  0.92376400  0.88533800  1
  Cu  Cu67  1  0.96879500  0.07623600  0.11466200  1
  Cu  Cu68  1  0.83155100  0.49614700  0.51975100  1
  Cu  Cu69  1  0.16844900  0.50385300  0.48024900  1
  Cu  Cu70  1  0.33155100  0.50385300  0.98024900  1
  Cu  Cu71  1  0.66844900  0.49614700  0.01975100  1
