# generated using pymatgen
data_Cu2Ni14C9
_symmetry_space_group_name_H-M   'P 1'
_cell_length_a   4.57803390
_cell_length_b   4.52947535
_cell_length_c   13.47430713
_cell_angle_alpha   86.88941143
_cell_angle_beta   84.64797078
_cell_angle_gamma   90.18756057
_symmetry_Int_Tables_number   1
_chemical_formula_structural   Cu2Ni14C9
_chemical_formula_sum   'Cu2 Ni14 C9'
_cell_volume   277.76675312
_cell_formula_units_Z   1
loop_
 _symmetry_equiv_pos_site_id
 _symmetry_equiv_pos_as_xyz
  1  'x, y, z'
loop_
 _atom_site_type_symbol
 _atom_site_label
 _atom_site_symmetry_multiplicity
 _atom_site_fract_x
 _atom_site_fract_y
 _atom_site_fract_z
 _atom_site_occupancy
  C  C0  1  0.21954400  0.74606700  0.75494700  1
  C  C1  1  0.09601000  0.00499600  0.02800400  1
  C  C2  1  0.01947000  0.98119400  0.25382800  1
  C  C3  1  0.98343600  0.95314100  0.48669800  1
  C  C4  1  0.79591500  0.17130800  0.73525100  1
  C  C5  1  0.54931500  0.49080600  0.13715600  1
  C  C6  1  0.38262900  0.40072800  0.58742600  1
  C  C7  1  0.58431100  0.60840900  0.91821500  1
  C  C8  1  0.49511400  0.46343700  0.35700200  1
  Ni  Ni9  1  0.24520900  0.79744300  0.14269800  1
  Ni  Ni10  1  0.17399600  0.75707700  0.60281400  1
  Ni  Ni11  1  0.24256900  0.83097700  0.90244800  1
  Ni  Ni12  1  0.18816900  0.76686000  0.36560800  1
  Ni  Ni13  1  0.37476100  0.32770000  0.02040200  1
  Ni  Ni14  1  0.33023100  0.27737000  0.24726500  1
  Ni  Ni15  1  0.27587700  0.26116200  0.46834600  1
  Ni  Ni16  1  0.24019800  0.26662600  0.72786300  1
  Ni  Ni17  1  0.76791900  0.73008100  0.02823300  1
  Ni  Ni18  1  0.71699700  0.67631400  0.25052700  1
  Ni  Ni19  1  0.72515500  0.74347300  0.77281900  1
  Ni  Ni20  1  0.86260300  0.19476600  0.13729400  1
  Ni  Ni21  1  0.80077700  0.16055300  0.36545300  1
  Ni  Ni22  1  0.74862700  0.18458100  0.59924700  1
  Cu  Cu23  1  0.66411200  0.65792300  0.48205700  1
  Cu  Cu24  1  0.79483000  0.24145900  0.87840100  1
