# generated using pymatgen
data_Cu(NiC3)3
_symmetry_space_group_name_H-M   'P 1'
_cell_length_a   7.48469700
_cell_length_b   10.27922786
_cell_length_c   12.04030292
_cell_angle_alpha   111.11061314
_cell_angle_beta   71.89144045
_cell_angle_gamma   90.00000000
_symmetry_Int_Tables_number   1
_chemical_formula_structural   Cu(NiC3)3
_chemical_formula_sum   'Cu6 Ni18 C54'
_cell_volume   814.79797184
_cell_formula_units_Z   6
loop_
 _symmetry_equiv_pos_site_id
 _symmetry_equiv_pos_as_xyz
  1  'x, y, z'
loop_
 _atom_site_type_symbol
 _atom_site_label
 _atom_site_symmetry_multiplicity
 _atom_site_fract_x
 _atom_site_fract_y
 _atom_site_fract_z
 _atom_site_occupancy
  C  C0  1  0.00000000  0.00000000  0.00000000  1
  C  C1  1  0.99999800  0.49999900  0.50000100  1
  C  C2  1  0.32706700  0.16111700  0.83098800  1
  C  C3  1  0.67292800  0.83888100  0.16901400  1
  C  C4  1  0.16876900  0.82585700  0.66246200  1
  C  C5  1  0.49999900  0.50000100  0.00000200  1
  C  C6  1  0.83122900  0.17414500  0.33754300  1
  C  C7  1  0.15805800  0.83888100  0.16901400  1
  C  C8  1  0.50000100  0.49999900  0.50000100  1
  C  C9  1  0.84194400  0.16111700  0.83098800  1
  Ni  Ni10  1  0.14321200  0.57289900  0.13604000  1
  Ni  Ni11  1  0.47879500  0.24069900  0.45829600  1
  Ni  Ni12  1  0.81411600  0.90447000  0.78834500  1
  Ni  Ni13  1  0.00621700  0.29962600  0.98756700  1
  Ni  Ni14  1  0.33590300  0.95474100  0.32819400  1
  Ni  Ni15  1  0.67544800  0.62583500  0.64910200  1
  Ni  Ni16  1  0.72074800  0.57289900  0.13604000  1
  Ni  Ni17  1  0.06290900  0.24069900  0.45829600  1
  Ni  Ni18  1  0.39754000  0.90447000  0.78834500  1
  Ni  Ni19  1  0.85678800  0.42710100  0.86396000  1
  Ni  Ni20  1  0.18588400  0.09553000  0.21165500  1
  Ni  Ni21  1  0.52120500  0.75930100  0.54170400  1
  Ni  Ni22  1  0.99378300  0.70037400  0.01243300  1
  Ni  Ni23  1  0.32455200  0.37416500  0.35089800  1
  Ni  Ni24  1  0.66409700  0.04525900  0.67180600  1
  Ni  Ni25  1  0.27925200  0.42710100  0.86396000  1
  Ni  Ni26  1  0.60246000  0.09553000  0.21165500  1
  Ni  Ni27  1  0.93709100  0.75930100  0.54170400  1
  Cu  Cu28  1  0.87403100  0.43717500  0.25193700  1
  Cu  Cu29  1  0.20685300  0.10000800  0.58629200  1
  Cu  Cu30  1  0.53824400  0.77233400  0.92351300  1
  Cu  Cu31  1  0.12596900  0.56282500  0.74806300  1
  Cu  Cu32  1  0.46175600  0.22766600  0.07648700  1
  Cu  Cu33  1  0.79314700  0.89999200  0.41370800  1
  C  C34  1  0.93264900  0.46768100  0.13470100  1
  C  C35  1  0.26511300  0.12873700  0.46977600  1
  C  C36  1  0.59673500  0.79990700  0.80653100  1
  C  C37  1  0.06735100  0.53231900  0.86529900  1
  C  C38  1  0.40326500  0.20009300  0.19346900  1
  C  C39  1  0.73488700  0.87126300  0.53022400  1
  C  C40  1  0.24996200  0.62632800  0.11289700  1
  C  C41  1  0.58616000  0.29318900  0.43911100  1
  C  C42  1  0.92181800  0.95967100  0.78378400  1
  C  C43  1  0.04487300  0.21296200  0.91025400  1
  C  C44  1  0.37952500  0.88239400  0.24094800  1
  C  C45  1  0.71674700  0.54798300  0.56650600  1
  C  C46  1  0.63714000  0.62632800  0.11289700  1
  C  C47  1  0.97473000  0.29318900  0.43911100  1
  C  C48  1  0.29439800  0.95967100  0.78378400  1
  C  C49  1  0.75003800  0.37367200  0.88710300  1
  C  C50  1  0.07818200  0.04032900  0.21621600  1
  C  C51  1  0.41384000  0.70681100  0.56088900  1
  C  C52  1  0.95512700  0.78703800  0.08974600  1
  C  C53  1  0.28325300  0.45201700  0.43349400  1
  C  C54  1  0.62047500  0.11760600  0.75905200  1
  C  C55  1  0.36286000  0.37367200  0.88710300  1
  C  C56  1  0.70560200  0.04032900  0.21621600  1
  C  C57  1  0.02527000  0.70681100  0.56088900  1
  C  C58  1  0.00115700  0.49902500  0.32568000  1
  C  C59  1  0.33128700  0.16430200  0.66288000  1
  C  C60  1  0.66383600  0.83555900  0.99901600  1
  C  C61  1  0.89234500  0.28064100  0.21530900  1
  C  C62  1  0.22347700  0.94538200  0.55304800  1
  C  C63  1  0.55362800  0.61720600  0.89274400  1
  C  C64  1  0.67316400  0.49902500  0.32568000  1
  C  C65  1  0.00583300  0.16430200  0.66288000  1
  C  C66  1  0.33714600  0.83555900  0.99901600  1
  C  C67  1  0.99884300  0.50097500  0.67432000  1
  C  C68  1  0.33616400  0.16444100  0.00098400  1
  C  C69  1  0.66871300  0.83569800  0.33712000  1
  C  C70  1  0.10765500  0.71935900  0.78469100  1
  C  C71  1  0.44637200  0.38279400  0.10725600  1
  C  C72  1  0.77652300  0.05461800  0.44695200  1
  C  C73  1  0.32683600  0.50097500  0.67432000  1
  C  C74  1  0.66285400  0.16444100  0.00098400  1
  C  C75  1  0.99416700  0.83569800  0.33712000  1
  C  C76  1  0.63609600  0.31767200  0.72780800  1
  C  C77  1  0.36390400  0.68232800  0.27219200  1
