# generated using pymatgen
data_CuNiC8
_symmetry_space_group_name_H-M   'P 1'
_cell_length_a   8.76663150
_cell_length_b   8.76346567
_cell_length_c   8.76597013
_cell_angle_alpha   90.00000000
_cell_angle_beta   90.00000000
_cell_angle_gamma   90.00000000
_symmetry_Int_Tables_number   1
_chemical_formula_structural   CuNiC8
_chemical_formula_sum   'Cu4 Ni4 C32'
_cell_volume   673.45507157
_cell_formula_units_Z   4
loop_
 _symmetry_equiv_pos_site_id
 _symmetry_equiv_pos_as_xyz
  1  'x, y, z'
loop_
 _atom_site_type_symbol
 _atom_site_label
 _atom_site_symmetry_multiplicity
 _atom_site_fract_x
 _atom_site_fract_y
 _atom_site_fract_z
 _atom_site_occupancy
  Ni  Ni0  1  -0.00000000  0.00000000  -0.00000000  1
  Ni  Ni1  1  0.50000000  0.50000000  0.50000000  1
  Ni  Ni2  1  0.50000000  0.00000000  -0.00000000  1
  Ni  Ni3  1  0.00000000  0.50000000  -0.00000000  1
  Cu  Cu4  1  -0.00000000  0.50000000  0.50000000  1
  Cu  Cu5  1  0.50000000  0.00000000  0.50000000  1
  Cu  Cu6  1  0.50000000  0.50000000  -0.00000000  1
  Cu  Cu7  1  -0.00000000  0.00000000  0.50000000  1
  C  C8  1  0.25046733  0.25048392  0.25241041  1
  C  C9  1  0.74953267  0.74951608  0.25241041  1
  C  C10  1  0.74953267  0.25048392  0.74758959  1
  C  C11  1  0.25046733  0.74951608  0.74758959  1
  C  C12  1  0.74945988  0.74997824  0.74712790  1
  C  C13  1  0.25054012  0.25002176  0.74712790  1
  C  C14  1  0.25054012  0.74997824  0.25287210  1
  C  C15  1  0.74945988  0.25002176  0.25287210  1
  C  C16  1  0.98882291  0.20883682  0.28989621  1
  C  C17  1  0.01117709  0.79116318  0.28989621  1
  C  C18  1  0.01117709  0.20883682  0.71010379  1
  C  C19  1  0.98882291  0.79116318  0.71010379  1
  C  C20  1  0.28062779  0.98973890  0.21810914  1
  C  C21  1  0.28062779  0.01026110  0.78189086  1
  C  C22  1  0.71937221  0.01026110  0.21810914  1
  C  C23  1  0.71937221  0.98973890  0.78189086  1
  C  C24  1  0.21564914  0.27774958  0.98822340  1
  C  C25  1  0.78435086  0.27774958  0.01177660  1
  C  C26  1  0.21564914  0.72225042  0.01177660  1
  C  C27  1  0.78435086  0.72225042  0.98822340  1
  C  C28  1  0.51158885  0.29641947  0.21351130  1
  C  C29  1  0.48841115  0.70358053  0.21351130  1
  C  C30  1  0.48841115  0.29641947  0.78648870  1
  C  C31  1  0.51158885  0.70358053  0.78648870  1
  C  C32  1  0.21007904  0.51194734  0.29571429  1
  C  C33  1  0.21007904  0.48805266  0.70428571  1
  C  C34  1  0.78992096  0.48805266  0.29571429  1
  C  C35  1  0.78992096  0.51194734  0.70428571  1
  C  C36  1  0.29793984  0.21194016  0.51043092  1
  C  C37  1  0.70206016  0.21194016  0.48956908  1
  C  C38  1  0.29793984  0.78805984  0.48956908  1
  C  C39  1  0.70206016  0.78805984  0.51043092  1
