# generated using pymatgen
data_Cu3Ni15C7
_symmetry_space_group_name_H-M   'P 1'
_cell_length_a   8.14979000
_cell_length_b   14.48859200
_cell_length_c   18.98250000
_cell_angle_alpha   90.00000000
_cell_angle_beta   90.00000000
_cell_angle_gamma   90.00000000
_symmetry_Int_Tables_number   1
_chemical_formula_structural   Cu3Ni15C7
_chemical_formula_sum   'Cu24 Ni120 C56'
_cell_volume   2241.43427953
_cell_formula_units_Z   8
loop_
 _symmetry_equiv_pos_site_id
 _symmetry_equiv_pos_as_xyz
  1  'x, y, z'
loop_
 _atom_site_type_symbol
 _atom_site_label
 _atom_site_symmetry_multiplicity
 _atom_site_fract_x
 _atom_site_fract_y
 _atom_site_fract_z
 _atom_site_occupancy
  C  C0  1  0.49873300  0.32958300  0.40127000  1
  C  C1  1  0.99873300  0.17041700  0.59873000  1
  C  C2  1  0.50126700  0.82958300  0.09873000  1
  C  C3  1  0.00126700  0.67041700  0.90127000  1
  C  C4  1  0.50126700  0.67041700  0.59873000  1
  C  C5  1  0.00126700  0.82958300  0.40127000  1
  C  C6  1  0.49873300  0.17041700  0.90127000  1
  C  C7  1  0.99873300  0.32958300  0.09873000  1
  C  C8  1  0.54316900  0.06077200  0.42578100  1
  C  C9  1  0.04316900  0.43922800  0.57421900  1
  C  C10  1  0.45683100  0.56077200  0.07421900  1
  C  C11  1  0.95683100  0.93922800  0.92578100  1
  C  C12  1  0.45683100  0.93922800  0.57421900  1
  C  C13  1  0.95683100  0.56077200  0.42578100  1
  C  C14  1  0.54316900  0.43922800  0.92578100  1
  C  C15  1  0.04316900  0.06077200  0.07421900  1
  C  C16  1  0.38632700  0.09572600  0.48597800  1
  C  C17  1  0.88632700  0.40427400  0.51402200  1
  C  C18  1  0.61367300  0.59572600  0.01402200  1
  C  C19  1  0.11367300  0.90427400  0.98597800  1
  C  C20  1  0.61367300  0.90427400  0.51402200  1
  C  C21  1  0.11367300  0.59572600  0.48597800  1
  C  C22  1  0.38632700  0.40427400  0.98597800  1
  C  C23  1  0.88632700  0.09572600  0.01402200  1
  C  C24  1  0.35962000  0.99439500  0.43400300  1
  C  C25  1  0.85962000  0.50560500  0.56599700  1
  C  C26  1  0.64038000  0.49439500  0.06599700  1
  C  C27  1  0.14038000  0.00560500  0.93400300  1
  C  C28  1  0.64038000  0.00560500  0.56599700  1
  C  C29  1  0.14038000  0.49439500  0.43400300  1
  C  C30  1  0.35962000  0.50560500  0.93400300  1
  C  C31  1  0.85962000  0.99439500  0.06599700  1
  C  C32  1  0.55382200  0.93797500  0.42748400  1
  C  C33  1  0.05382200  0.56202500  0.57251600  1
  C  C34  1  0.44617800  0.43797500  0.07251600  1
  C  C35  1  0.94617800  0.06202500  0.92748400  1
  C  C36  1  0.44617800  0.06202500  0.57251600  1
  C  C37  1  0.94617800  0.43797500  0.42748400  1
  C  C38  1  0.55382200  0.56202500  0.92748400  1
  C  C39  1  0.05382200  0.93797500  0.07251600  1
  C  C40  1  0.69994500  0.00485300  0.47530900  1
  C  C41  1  0.19994500  0.49514700  0.52469100  1
  C  C42  1  0.30005500  0.50485300  0.02469100  1
  C  C43  1  0.80005500  0.99514700  0.97530900  1
  C  C44  1  0.30005500  0.99514700  0.52469100  1
  C  C45  1  0.80005500  0.50485300  0.47530900  1
  C  C46  1  0.69994500  0.49514700  0.97530900  1
  C  C47  1  0.19994500  0.00485300  0.02469100  1
  C  C48  1  0.59620000  0.10194400  0.51124900  1
  C  C49  1  0.09620000  0.39805600  0.48875100  1
  C  C50  1  0.40380000  0.60194400  0.98875100  1
  C  C51  1  0.90380000  0.89805600  0.01124900  1
  C  C52  1  0.40380000  0.89805600  0.48875100  1
  C  C53  1  0.90380000  0.60194400  0.51124900  1
  C  C54  1  0.59620000  0.39805600  0.01124900  1
  C  C55  1  0.09620000  0.10194400  0.98875100  1
  Ni  Ni56  1  0.37964400  0.35214800  0.60202100  1
  Ni  Ni57  1  0.87964400  0.14785200  0.39797900  1
  Ni  Ni58  1  0.62035600  0.85214800  0.89797900  1
  Ni  Ni59  1  0.12035600  0.64785200  0.10202100  1
  Ni  Ni60  1  0.62035600  0.64785200  0.39797900  1
  Ni  Ni61  1  0.12035600  0.85214800  0.60202100  1
  Ni  Ni62  1  0.37964400  0.14785200  0.10202100  1
  Ni  Ni63  1  0.87964400  0.35214800  0.89797900  1
  Ni  Ni64  1  0.58022600  0.35517100  0.60610200  1
  Ni  Ni65  1  0.08022600  0.14482900  0.39389800  1
  Ni  Ni66  1  0.41977400  0.85517100  0.89389800  1
  Ni  Ni67  1  0.91977400  0.64482900  0.10610200  1
  Ni  Ni68  1  0.41977400  0.64482900  0.39389800  1
  Ni  Ni69  1  0.91977400  0.85517100  0.60610200  1
  Ni  Ni70  1  0.58022600  0.14482900  0.10610200  1
  Ni  Ni71  1  0.08022600  0.35517100  0.89389800  1
  Ni  Ni72  1  0.48537800  0.25566700  0.60627400  1
  Ni  Ni73  1  0.98537800  0.24433300  0.39372600  1
  Ni  Ni74  1  0.51462200  0.75566700  0.89372600  1
  Ni  Ni75  1  0.01462200  0.74433300  0.10627400  1
  Ni  Ni76  1  0.51462200  0.74433300  0.39372600  1
  Ni  Ni77  1  0.01462200  0.75566700  0.60627400  1
  Ni  Ni78  1  0.48537800  0.24433300  0.10627400  1
  Ni  Ni79  1  0.98537800  0.25566700  0.89372600  1
  Ni  Ni80  1  0.55282100  0.53979100  0.29700900  1
  Ni  Ni81  1  0.05282100  0.96020900  0.70299100  1
  Ni  Ni82  1  0.44717900  0.03979100  0.20299100  1
  Ni  Ni83  1  0.94717900  0.46020900  0.79700900  1
  Ni  Ni84  1  0.44717900  0.46020900  0.70299100  1
  Ni  Ni85  1  0.94717900  0.03979100  0.29700900  1
  Ni  Ni86  1  0.55282100  0.96020900  0.79700900  1
  Ni  Ni87  1  0.05282100  0.53979100  0.20299100  1
  Ni  Ni88  1  0.59244400  0.48203600  0.22504500  1
  Ni  Ni89  1  0.09244400  0.01796400  0.77495500  1
  Ni  Ni90  1  0.40755600  0.98203600  0.27495500  1
  Ni  Ni91  1  0.90755600  0.51796400  0.72504500  1
  Ni  Ni92  1  0.40755600  0.51796400  0.77495500  1
  Ni  Ni93  1  0.90755600  0.98203600  0.22504500  1
  Ni  Ni94  1  0.59244400  0.01796400  0.72504500  1
  Ni  Ni95  1  0.09244400  0.48203600  0.27495500  1
  Ni  Ni96  1  0.73006800  0.49015100  0.28769600  1
  Ni  Ni97  1  0.23006800  0.00984900  0.71230400  1
  Ni  Ni98  1  0.26993200  0.99015100  0.21230400  1
  Ni  Ni99  1  0.76993200  0.50984900  0.78769600  1
  Ni  Ni100  1  0.26993200  0.50984900  0.71230400  1
  Ni  Ni101  1  0.76993200  0.99015100  0.28769600  1
  Ni  Ni102  1  0.73006800  0.00984900  0.78769600  1
  Ni  Ni103  1  0.23006800  0.49015100  0.21230400  1
  Ni  Ni104  1  0.34453400  0.23217200  0.23035900  1
  Ni  Ni105  1  0.84453400  0.26782800  0.76964100  1
  Ni  Ni106  1  0.65546600  0.73217200  0.26964100  1
  Ni  Ni107  1  0.15546600  0.76782800  0.73035900  1
  Ni  Ni108  1  0.65546600  0.76782800  0.76964100  1
  Ni  Ni109  1  0.15546600  0.73217200  0.23035900  1
  Ni  Ni110  1  0.34453400  0.26782800  0.73035900  1
  Ni  Ni111  1  0.84453400  0.23217200  0.26964100  1
  Ni  Ni112  1  0.23323000  0.32378400  0.24988100  1
  Ni  Ni113  1  0.73323000  0.17621600  0.75011900  1
  Ni  Ni114  1  0.76677000  0.82378400  0.25011900  1
  Ni  Ni115  1  0.26677000  0.67621600  0.74988100  1
  Ni  Ni116  1  0.76677000  0.67621600  0.75011900  1
  Ni  Ni117  1  0.26677000  0.82378400  0.24988100  1
  Ni  Ni118  1  0.23323000  0.17621600  0.74988100  1
  Ni  Ni119  1  0.73323000  0.32378400  0.25011900  1
  Ni  Ni120  1  0.18494400  0.22371900  0.28400600  1
  Ni  Ni121  1  0.68494400  0.27628100  0.71599400  1
  Ni  Ni122  1  0.81505600  0.72371900  0.21599400  1
  Ni  Ni123  1  0.31505600  0.77628100  0.78400600  1
  Ni  Ni124  1  0.81505600  0.77628100  0.71599400  1
  Ni  Ni125  1  0.31505600  0.72371900  0.28400600  1
  Ni  Ni126  1  0.18494400  0.27628100  0.78400600  1
  Ni  Ni127  1  0.68494400  0.22371900  0.21599400  1
  Ni  Ni128  1  0.57314700  0.10549600  0.37378500  1
  Ni  Ni129  1  0.07314700  0.39450400  0.62621500  1
  Ni  Ni130  1  0.42685300  0.60549600  0.12621500  1
  Ni  Ni131  1  0.92685300  0.89450400  0.87378500  1
  Ni  Ni132  1  0.42685300  0.89450400  0.62621500  1
  Ni  Ni133  1  0.92685300  0.60549600  0.37378500  1
  Ni  Ni134  1  0.57314700  0.39450400  0.87378500  1
  Ni  Ni135  1  0.07314700  0.10549600  0.12621500  1
  Ni  Ni136  1  0.30743800  0.16501500  0.47565600  1
  Ni  Ni137  1  0.80743800  0.33498500  0.52434400  1
  Ni  Ni138  1  0.69256200  0.66501500  0.02434400  1
  Ni  Ni139  1  0.19256200  0.83498500  0.97565600  1
  Ni  Ni140  1  0.69256200  0.83498500  0.52434400  1
  Ni  Ni141  1  0.19256200  0.66501500  0.47565600  1
  Ni  Ni142  1  0.30743800  0.33498500  0.97565600  1
  Ni  Ni143  1  0.80743800  0.16501500  0.02434400  1
  Ni  Ni144  1  0.25794100  0.99238800  0.38776800  1
  Ni  Ni145  1  0.75794100  0.50761200  0.61223200  1
  Ni  Ni146  1  0.74205900  0.49238800  0.11223200  1
  Ni  Ni147  1  0.24205900  0.00761200  0.88776800  1
  Ni  Ni148  1  0.74205900  0.00761200  0.61223200  1
  Ni  Ni149  1  0.24205900  0.49238800  0.38776800  1
  Ni  Ni150  1  0.25794100  0.50761200  0.88776800  1
  Ni  Ni151  1  0.75794100  0.99238800  0.11223200  1
  Ni  Ni152  1  0.58973500  0.89217200  0.37669400  1
  Ni  Ni153  1  0.08973500  0.60782800  0.62330600  1
  Ni  Ni154  1  0.41026500  0.39217200  0.12330600  1
  Ni  Ni155  1  0.91026500  0.10782800  0.87669400  1
  Ni  Ni156  1  0.41026500  0.10782800  0.62330600  1
  Ni  Ni157  1  0.91026500  0.39217200  0.37669400  1
  Ni  Ni158  1  0.58973500  0.60782800  0.87669400  1
  Ni  Ni159  1  0.08973500  0.89217200  0.12330600  1
  Ni  Ni160  1  0.84281800  0.00895300  0.45920700  1
  Ni  Ni161  1  0.34281800  0.49104700  0.54079300  1
  Ni  Ni162  1  0.15718200  0.50895300  0.04079300  1
  Ni  Ni163  1  0.65718200  0.99104700  0.95920700  1
  Ni  Ni164  1  0.15718200  0.99104700  0.54079300  1
  Ni  Ni165  1  0.65718200  0.50895300  0.45920700  1
  Ni  Ni166  1  0.84281800  0.49104700  0.95920700  1
  Ni  Ni167  1  0.34281800  0.00895300  0.04079300  1
  Ni  Ni168  1  0.65990300  0.17641800  0.51861100  1
  Ni  Ni169  1  0.15990300  0.32358200  0.48138900  1
  Ni  Ni170  1  0.34009700  0.67641800  0.98138900  1
  Ni  Ni171  1  0.84009700  0.82358200  0.01861100  1
  Ni  Ni172  1  0.34009700  0.82358200  0.48138900  1
  Ni  Ni173  1  0.84009700  0.67641800  0.51861100  1
  Ni  Ni174  1  0.65990300  0.32358200  0.01861100  1
  Ni  Ni175  1  0.15990300  0.17641800  0.98138900  1
  Cu  Cu176  1  0.47918600  0.32198300  0.62523600  1
  Cu  Cu177  1  0.97918600  0.17801700  0.37476400  1
  Cu  Cu178  1  0.52081400  0.82198300  0.87476400  1
  Cu  Cu179  1  0.02081400  0.67801700  0.12523600  1
  Cu  Cu180  1  0.52081400  0.67801700  0.37476400  1
  Cu  Cu181  1  0.02081400  0.82198300  0.62523600  1
  Cu  Cu182  1  0.47918600  0.17801700  0.12523600  1
  Cu  Cu183  1  0.97918600  0.32198300  0.87476400  1
  Cu  Cu184  1  0.60728700  0.48098600  0.27854800  1
  Cu  Cu185  1  0.10728700  0.01901400  0.72145200  1
  Cu  Cu186  1  0.39271300  0.98098600  0.22145200  1
  Cu  Cu187  1  0.89271300  0.51901400  0.77854800  1
  Cu  Cu188  1  0.39271300  0.51901400  0.72145200  1
  Cu  Cu189  1  0.89271300  0.98098600  0.27854800  1
  Cu  Cu190  1  0.60728700  0.01901400  0.77854800  1
  Cu  Cu191  1  0.10728700  0.48098600  0.22145200  1
  Cu  Cu192  1  0.28221400  0.26466500  0.27020800  1
  Cu  Cu193  1  0.78221400  0.23533500  0.72979200  1
  Cu  Cu194  1  0.71778600  0.76466500  0.22979200  1
  Cu  Cu195  1  0.21778600  0.73533500  0.77020800  1
  Cu  Cu196  1  0.71778600  0.73533500  0.72979200  1
  Cu  Cu197  1  0.21778600  0.76466500  0.27020800  1
  Cu  Cu198  1  0.28221400  0.23533500  0.77020800  1
  Cu  Cu199  1  0.78221400  0.26466500  0.22979200  1
