# generated using pymatgen
data_CuNi3C8
_symmetry_space_group_name_H-M   'P 1'
_cell_length_a   3.35543169
_cell_length_b   3.35543169
_cell_length_c   39.75299500
_cell_angle_alpha   90.00000000
_cell_angle_beta   90.00000000
_cell_angle_gamma   119.99999398
_symmetry_Int_Tables_number   1
_chemical_formula_structural   CuNi3C8
_chemical_formula_sum   'Cu1 Ni3 C8'
_cell_volume   387.61209211
_cell_formula_units_Z   1
loop_
 _symmetry_equiv_pos_site_id
 _symmetry_equiv_pos_as_xyz
  1  'x, y, z'
loop_
 _atom_site_type_symbol
 _atom_site_label
 _atom_site_symmetry_multiplicity
 _atom_site_fract_x
 _atom_site_fract_y
 _atom_site_fract_z
 _atom_site_occupancy
  C  C0  1  0.33333300  0.66666700  0.70677900  1
  C  C1  1  0.66666700  0.33333300  0.42063900  1
  C  C2  1  0.66666700  0.33333300  0.51577200  1
  C  C3  1  0.33333300  0.66666700  0.61166000  1
  Ni  Ni4  1  0.33333300  0.66666700  0.09398400  1
  Ni  Ni5  1  0.33333300  0.66666700  0.46814700  1
  Ni  Ni6  1  0.66666700  0.33333300  0.65924600  1
  Cu  Cu7  1  0.66666700  0.33333300  0.28150600  1
  C  C8  1  0.33333300  0.66666700  0.31973200  1
  C  C9  1  0.66666700  0.33333300  0.05593200  1
  C  C10  1  0.66666700  0.33333300  0.13204200  1
  C  C11  1  0.33333300  0.66666700  0.24330900  1
