# generated using pymatgen
data_Cu21(Ni3C5)2
_symmetry_space_group_name_H-M   'P 1'
_cell_length_a   3.90571900
_cell_length_b   14.13168402
_cell_length_c   15.92224426
_cell_angle_alpha   95.32240676
_cell_angle_beta   90.00221306
_cell_angle_gamma   97.84021030
_symmetry_Int_Tables_number   1
_chemical_formula_structural   Cu21(Ni3C5)2
_chemical_formula_sum   'Cu21 Ni6 C10'
_cell_volume   866.77824806
_cell_formula_units_Z   1
loop_
 _symmetry_equiv_pos_site_id
 _symmetry_equiv_pos_as_xyz
  1  'x, y, z'
loop_
 _atom_site_type_symbol
 _atom_site_label
 _atom_site_symmetry_multiplicity
 _atom_site_fract_x
 _atom_site_fract_y
 _atom_site_fract_z
 _atom_site_occupancy
  C  C0  1  0.68844400  0.37769200  0.48500400  1
  C  C1  1  0.50992800  0.02627100  0.12896600  1
  C  C2  1  0.22152500  0.42930700  0.69186600  1
  C  C3  1  0.78668400  0.57067600  0.30649900  1
  C  C4  1  0.90357700  0.79896700  0.01769700  1
  C  C5  1  0.73256300  0.46891900  0.89262500  1
  C  C6  1  0.31139900  0.62411300  0.51404000  1
  C  C7  1  0.26128400  0.52805600  0.10622200  1
  C  C8  1  0.09776400  0.19785300  0.98124200  1
  C  C9  1  0.48040800  0.97306900  0.87077400  1
  Ni  Ni10  1  0.06925000  0.14808200  0.70582400  1
  Ni  Ni11  1  0.12759800  0.27293200  0.24124100  1
  Ni  Ni12  1  0.93260700  0.85038400  0.29590300  1
  Ni  Ni13  1  0.86373800  0.72287600  0.75626500  1
  Ni  Ni14  1  0.04560100  0.10051600  0.43032500  1
  Ni  Ni15  1  0.95323400  0.90177900  0.56966200  1
  Cu  Cu16  1  0.46988200  0.93110000  0.40779000  1
  Cu  Cu17  1  0.59940700  0.20340800  0.09572500  1
  Cu  Cu18  1  0.53144500  0.07002500  0.59164700  1
  Cu  Cu19  1  0.32565200  0.65487300  0.23635300  1
  Cu  Cu20  1  0.27717800  0.56109500  0.81175000  1
  Cu  Cu21  1  0.22876300  0.47328100  0.40213200  1
  Cu  Cu22  1  0.71853800  0.43760200  0.18755400  1
  Cu  Cu23  1  0.57971300  0.15729800  0.87340400  1
  Cu  Cu24  1  0.61504100  0.23888200  0.36762700  1
  Cu  Cu25  1  0.80043200  0.60727600  0.02252000  1
  Cu  Cu26  1  0.02304800  0.05162600  0.23576200  1
  Cu  Cu27  1  0.67890400  0.34432900  0.76126600  1
  Cu  Cu28  1  0.19288000  0.38994200  0.97623900  1
  Cu  Cu29  1  0.39925100  0.79592200  0.90324900  1
  Cu  Cu30  1  0.00524000  0.00042100  0.99971200  1
  Cu  Cu31  1  0.84685500  0.69843000  0.43371300  1
  Cu  Cu32  1  0.38119900  0.76206700  0.63170700  1
  Cu  Cu33  1  0.96913200  0.94840300  0.76371100  1
  Cu  Cu34  1  0.42659400  0.84220900  0.12492000  1
  Cu  Cu35  1  0.15243400  0.30264400  0.56426800  1
  Cu  Cu36  1  0.75505600  0.52870700  0.59766500  1
