# generated using pymatgen
data_Cu9Ni8C9
_symmetry_space_group_name_H-M   'P 1'
_cell_length_a   14.68118900
_cell_length_b   7.26143800
_cell_length_c   7.61013396
_cell_angle_alpha   73.73805823
_cell_angle_beta   90.00000000
_cell_angle_gamma   90.00000000
_symmetry_Int_Tables_number   1
_chemical_formula_structural   Cu9Ni8C9
_chemical_formula_sum   'Cu18 Ni16 C18'
_cell_volume   778.83158840
_cell_formula_units_Z   2
loop_
 _symmetry_equiv_pos_site_id
 _symmetry_equiv_pos_as_xyz
  1  'x, y, z'
loop_
 _atom_site_type_symbol
 _atom_site_label
 _atom_site_symmetry_multiplicity
 _atom_site_fract_x
 _atom_site_fract_y
 _atom_site_fract_z
 _atom_site_occupancy
  C  C0  1  0.62181400  0.82183200  0.68475700  1
  C  C1  1  0.12181400  0.17816800  0.31524300  1
  C  C2  1  0.37818600  0.17816800  0.31524300  1
  C  C3  1  0.87818600  0.82183200  0.68475700  1
  C  C4  1  0.75000000  0.47560500  0.05798200  1
  C  C5  1  0.25000000  0.52439500  0.94201800  1
  C  C6  1  0.75000000  0.98188200  0.04064600  1
  C  C7  1  0.25000000  0.01811800  0.95935400  1
  C  C8  1  0.60279900  0.15192900  0.29081600  1
  C  C9  1  0.10279900  0.84807100  0.70918400  1
  C  C10  1  0.39720100  0.84807100  0.70918400  1
  C  C11  1  0.89720100  0.15192900  0.29081600  1
  C  C12  1  0.49677300  0.69752500  0.20035200  1
  C  C13  1  0.99677300  0.30247500  0.79964800  1
  C  C14  1  0.50322700  0.30247500  0.79964800  1
  C  C15  1  0.00322700  0.69752500  0.20035200  1
  C  C16  1  0.75000000  0.43201900  0.54388700  1
  C  C17  1  0.25000000  0.56798100  0.45611300  1
  Ni  Ni18  1  0.65379400  0.34601300  0.23883000  1
  Ni  Ni19  1  0.15379400  0.65398700  0.76117000  1
  Ni  Ni20  1  0.34620600  0.65398700  0.76117000  1
  Ni  Ni21  1  0.84620600  0.34601300  0.23883000  1
  Ni  Ni22  1  0.50561100  0.18589300  0.20844000  1
  Ni  Ni23  1  0.00561100  0.81410700  0.79156000  1
  Ni  Ni24  1  0.49438900  0.81410700  0.79156000  1
  Ni  Ni25  1  0.99438900  0.18589300  0.20844000  1
  Ni  Ni26  1  0.59733100  0.07715100  0.50078400  1
  Ni  Ni27  1  0.09733100  0.92284900  0.49921600  1
  Ni  Ni28  1  0.40266900  0.92284900  0.49921600  1
  Ni  Ni29  1  0.90266900  0.07715100  0.50078400  1
  Ni  Ni30  1  0.65059300  0.00510300  0.21041700  1
  Ni  Ni31  1  0.15059300  0.99489700  0.78958300  1
  Ni  Ni32  1  0.34940700  0.99489700  0.78958300  1
  Ni  Ni33  1  0.84940700  0.00510300  0.21041700  1
  Cu  Cu34  1  0.58888400  0.66722800  0.54317400  1
  Cu  Cu35  1  0.08888400  0.33277200  0.45682600  1
  Cu  Cu36  1  0.41111600  0.33277200  0.45682600  1
  Cu  Cu37  1  0.91111600  0.66722800  0.54317400  1
  Cu  Cu38  1  0.75000000  0.83739000  0.60594000  1
  Cu  Cu39  1  0.25000000  0.16261000  0.39406000  1
  Cu  Cu40  1  0.65792800  0.96996500  0.85886500  1
  Cu  Cu41  1  0.15792800  0.03003500  0.14113500  1
  Cu  Cu42  1  0.34207200  0.03003500  0.14113500  1
  Cu  Cu43  1  0.84207200  0.96996500  0.85886500  1
  Cu  Cu44  1  0.75000000  0.26373300  0.94399600  1
  Cu  Cu45  1  0.25000000  0.73626700  0.05600400  1
  Cu  Cu46  1  0.65372800  0.59144800  0.88795900  1
  Cu  Cu47  1  0.15372800  0.40855200  0.11204100  1
  Cu  Cu48  1  0.34627200  0.40855200  0.11204100  1
  Cu  Cu49  1  0.84627200  0.59144800  0.88795900  1
  Cu  Cu50  1  0.75000000  0.70208000  0.14863500  1
  Cu  Cu51  1  0.25000000  0.29792000  0.85136500  1
