# generated using pymatgen
data_CuNiC9
_symmetry_space_group_name_H-M   'P 1'
_cell_length_a   7.25361000
_cell_length_b   10.13753925
_cell_length_c   11.61996627
_cell_angle_alpha   93.12475010
_cell_angle_beta   90.00000000
_cell_angle_gamma   90.00000000
_symmetry_Int_Tables_number   1
_chemical_formula_structural   CuNiC9
_chemical_formula_sum   'Cu4 Ni4 C36'
_cell_volume   853.18936846
_cell_formula_units_Z   4
loop_
 _symmetry_equiv_pos_site_id
 _symmetry_equiv_pos_as_xyz
  1  'x, y, z'
loop_
 _atom_site_type_symbol
 _atom_site_label
 _atom_site_symmetry_multiplicity
 _atom_site_fract_x
 _atom_site_fract_y
 _atom_site_fract_z
 _atom_site_occupancy
  Ni  Ni0  1  0.49216000  0.93407400  0.68170100  1
  Ni  Ni1  1  0.99216000  0.06592600  0.31829900  1
  Ni  Ni2  1  0.96409900  0.34283100  0.85534500  1
  Ni  Ni3  1  0.46409900  0.65716900  0.14465500  1
  Cu  Cu4  1  0.99529200  0.89082400  0.59550600  1
  Cu  Cu5  1  0.49529200  0.10917600  0.40449400  1
  Cu  Cu6  1  0.46362300  0.44469800  0.86787700  1
  Cu  Cu7  1  0.96362300  0.55530200  0.13212300  1
  C  C8  1  0.68829200  0.77229400  0.81783900  1
  C  C9  1  0.18829200  0.22770600  0.18216100  1
  C  C10  1  0.66668000  0.71938200  0.33913900  1
  C  C11  1  0.16668000  0.28061800  0.66086100  1
  C  C12  1  0.76747500  0.29465900  0.65695000  1
  C  C13  1  0.26747500  0.70534100  0.34305000  1
  C  C14  1  0.28766900  0.78605000  0.82270300  1
  C  C15  1  0.78766900  0.21395000  0.17729700  1
  C  C16  1  0.98444600  0.88080200  0.93333600  1
  C  C17  1  0.48444600  0.11919800  0.06666400  1
  C  C18  1  0.77632700  0.50851900  0.50890300  1
  C  C19  1  0.27632700  0.49148100  0.49109700  1
  C  C20  1  0.46363900  0.57993700  0.96072000  1
  C  C21  1  0.96363900  0.42006300  0.03928000  1
  C  C22  1  0.96480000  0.50508500  0.79924400  1
  C  C23  1  0.46480000  0.49491500  0.20075600  1
  C  C24  1  0.27267200  0.35222000  0.88728100  1
  C  C25  1  0.77267200  0.64778000  0.11271900  1
  C  C26  1  0.99639200  0.91555400  0.45232900  1
  C  C27  1  0.49639200  0.08444600  0.54767100  1
  C  C28  1  0.99580900  0.94812800  0.19703300  1
  C  C29  1  0.49580900  0.05187200  0.80296700  1
  C  C30  1  0.65576700  0.35348800  0.88671100  1
  C  C31  1  0.15576700  0.64651200  0.11328900  1
  C  C32  1  0.96323900  0.17000700  0.88283400  1
  C  C33  1  0.46323900  0.82999300  0.11716600  1
  C  C34  1  0.80099800  0.95465600  0.65763300  1
  C  C35  1  0.30099700  0.04534400  0.34236700  1
  C  C36  1  0.18346000  0.96177000  0.66007100  1
  C  C37  1  0.68346000  0.03823000  0.33992900  1
  C  C38  1  0.00073300  0.73640400  0.61286800  1
  C  C39  1  0.50073300  0.26359600  0.38713200  1
  C  C40  1  0.48725000  0.79413400  0.57925900  1
  C  C41  1  0.98725000  0.20586600  0.42074100  1
  C  C42  1  0.46300900  0.49290100  0.73962800  1
  C  C43  1  0.96300900  0.50709900  0.26037200  1
