# generated using pymatgen
data_Cu6(Ni2C5)5
_symmetry_space_group_name_H-M   'P 1'
_cell_length_a   8.31027765
_cell_length_b   9.25583354
_cell_length_c   12.74310552
_cell_angle_alpha   79.89426484
_cell_angle_beta   82.37054210
_cell_angle_gamma   71.77762343
_symmetry_Int_Tables_number   1
_chemical_formula_structural   Cu6(Ni2C5)5
_chemical_formula_sum   'Cu6 Ni10 C25'
_cell_volume   913.39506729
_cell_formula_units_Z   1
loop_
 _symmetry_equiv_pos_site_id
 _symmetry_equiv_pos_as_xyz
  1  'x, y, z'
loop_
 _atom_site_type_symbol
 _atom_site_label
 _atom_site_symmetry_multiplicity
 _atom_site_fract_x
 _atom_site_fract_y
 _atom_site_fract_z
 _atom_site_occupancy
  C  C0  1  0.25595332  0.08418966  0.81644953  1
  C  C1  1  0.70506788  0.98868095  0.35649368  1
  C  C2  1  0.30030951  0.01051642  0.60888309  1
  C  C3  1  0.03585707  0.98421378  0.12136318  1
  C  C4  1  0.93248955  0.04686866  0.86997375  1
  C  C5  1  0.64009783  0.08285740  0.08716094  1
  C  C6  1  0.41207552  0.88453770  0.99804989  1
  Ni  Ni7  1  0.89154165  0.17623166  0.50233502  1
  Ni  Ni8  1  0.08809727  0.80534002  0.49139931  1
  Ni  Ni9  1  0.25179880  0.15048232  0.26159457  1
  Ni  Ni10  1  0.75150340  0.82474428  0.75708217  1
  Ni  Ni11  1  0.54474261  0.21108931  0.73283937  1
  Ni  Ni12  1  0.46853384  0.78632959  0.26200891  1
  Ni  Ni13  1  0.21502463  0.26972400  0.99613887  1
  Ni  Ni14  1  0.81924640  0.73690918  0.02346822  1
  Ni  Ni15  1  0.80913748  0.30719760  0.21526890  1
  Ni  Ni16  1  0.18742390  0.71357868  0.77368757  1
  Cu  Cu17  1  0.74665457  0.32833209  0.93944049  1
  Cu  Cu18  1  0.27431346  0.64889753  0.06890707  1
  Cu  Cu19  1  0.87057699  0.67601546  0.31259020  1
  Cu  Cu20  1  0.10896452  0.34806768  0.66805869  1
  Cu  Cu21  1  0.49627247  0.29756740  0.40782221  1
  Cu  Cu22  1  0.49558030  0.70639875  0.57739053  1
  C  C23  1  0.19003305  0.05631186  0.98285611  1
  C  C24  1  0.86334508  0.93613942  0.03026905  1
  C  C25  1  0.85364748  0.97237806  0.47414663  1
  C  C26  1  0.13210495  0.01839744  0.50776253  1
  C  C27  1  0.79517472  0.09608692  0.20544896  1
  C  C28  1  0.17451200  0.93175886  0.76960244  1
  C  C29  1  0.41792462  0.17257814  0.87767011  1
  C  C30  1  0.57741143  0.85260135  0.11396413  1
  C  C31  1  0.76427022  0.04017809  0.75791341  1
  C  C32  1  0.23132653  0.94741703  0.22583790  1
  C  C33  1  0.46112579  0.04222173  0.70038904  1
  C  C34  1  0.49189549  0.97397565  0.30782544  1
  C  C35  1  0.05413928  0.23441772  0.14341219  1
  C  C36  1  0.95067610  0.74962101  0.85812236  1
  C  C37  1  0.03405311  0.76833454  0.65208626  1
  C  C38  1  0.94295453  0.23348506  0.34542985  1
  C  C39  1  0.63562242  0.81219435  0.91407226  1
  C  C40  1  0.38633220  0.18598864  0.10770219  1
