# generated using pymatgen
data_Cu3Ni3C16
_symmetry_space_group_name_H-M   'P 1'
_cell_length_a   6.61566333
_cell_length_b   8.40519136
_cell_length_c   8.64619105
_cell_angle_alpha   88.66931712
_cell_angle_beta   91.43236271
_cell_angle_gamma   108.56025920
_symmetry_Int_Tables_number   1
_chemical_formula_structural   Cu3Ni3C16
_chemical_formula_sum   'Cu6 Ni6 C32'
_cell_volume   455.57222299
_cell_formula_units_Z   2
loop_
 _symmetry_equiv_pos_site_id
 _symmetry_equiv_pos_as_xyz
  1  'x, y, z'
loop_
 _atom_site_type_symbol
 _atom_site_label
 _atom_site_symmetry_multiplicity
 _atom_site_fract_x
 _atom_site_fract_y
 _atom_site_fract_z
 _atom_site_occupancy
  C  C0  1  0.33319300  0.58332600  0.74994400  1
  C  C1  1  0.33331700  0.08334400  0.25001600  1
  C  C2  1  0.32902400  0.33208200  0.99952200  1
  C  C3  1  0.33748100  0.83436400  0.50042600  1
  C  C4  1  0.98934600  0.76028600  0.23139500  1
  C  C5  1  0.99170200  0.27613700  0.73357000  1
  C  C6  1  0.67745900  0.40645900  0.26861800  1
  C  C7  1  0.67494900  0.89046400  0.76644700  1
  Ni  Ni8  1  0.33787400  0.82700600  0.99313300  1
  Ni  Ni9  1  0.32881300  0.33959100  0.50689000  1
  Ni  Ni10  1  0.67609400  0.15944600  0.99308200  1
  Ni  Ni11  1  0.68733600  0.65896800  0.48759900  1
  Ni  Ni12  1  0.97929800  0.50771700  0.01240500  1
  Ni  Ni13  1  0.99052100  0.00722500  0.50694500  1
  Cu  Cu14  1  0.33335300  0.08331900  0.75001200  1
  Cu  Cu15  1  0.66851000  0.91542400  0.24956500  1
  Cu  Cu16  1  0.99821000  0.25128700  0.25042700  1
  Cu  Cu17  1  0.33338700  0.58333600  0.25000700  1
  Cu  Cu18  1  0.66536500  0.41995400  0.75010900  1
  Cu  Cu19  1  0.00132400  0.74672800  0.74988200  1
  C  C20  1  0.99461800  0.51805600  0.77303600  1
  C  C21  1  0.97526200  0.99718600  0.27436500  1
  C  C22  1  0.67202900  0.64861400  0.72695700  1
  C  C23  1  0.69145200  0.16952200  0.22563600  1
  C  C24  1  0.99355800  0.27354800  0.00595700  1
  C  C25  1  0.99115300  0.75898800  0.50731200  1
  C  C26  1  0.67553300  0.40769900  0.99270100  1
  C  C27  1  0.67310500  0.89313300  0.49401400  1
  C  C28  1  0.33131700  0.33327500  0.73121100  1
  C  C29  1  0.36361500  0.84173300  0.23377500  1
  C  C30  1  0.30306600  0.32496000  0.26622700  1
  C  C31  1  0.33532800  0.83337700  0.76879000  1
  C  C32  1  0.36634800  0.08210300  0.99498000  1
  C  C33  1  0.35364800  0.57303300  0.49321100  1
  C  C34  1  0.31303000  0.59365500  0.00679100  1
  C  C35  1  0.30030000  0.08458300  0.50501100  1
  C  C36  1  0.65458500  0.92857800  0.00276800  1
  C  C37  1  0.63864900  0.41777300  0.50343600  1
  C  C38  1  0.02802500  0.74891300  0.99656000  1
  C  C39  1  0.01205800  0.23808400  0.49725300  1
  C  C40  1  0.66921200  0.66748600  0.27095100  1
  C  C41  1  0.67213200  0.19269500  0.76986100  1
  C  C42  1  0.99755500  0.49922100  0.22905000  1
  C  C43  1  0.99452300  0.97398800  0.73015400  1
