# generated using pymatgen
data_Cu(Ni2C)3
_symmetry_space_group_name_H-M   'P 1'
_cell_length_a   7.36869000
_cell_length_b   5.80072000
_cell_length_c   7.22420900
_cell_angle_alpha   69.17604698
_cell_angle_beta   90.00000000
_cell_angle_gamma   90.00000000
_symmetry_Int_Tables_number   1
_chemical_formula_structural   Cu(Ni2C)3
_chemical_formula_sum   'Cu2 Ni12 C6'
_cell_volume   288.61846409
_cell_formula_units_Z   2
loop_
 _symmetry_equiv_pos_site_id
 _symmetry_equiv_pos_as_xyz
  1  'x, y, z'
loop_
 _atom_site_type_symbol
 _atom_site_label
 _atom_site_symmetry_multiplicity
 _atom_site_fract_x
 _atom_site_fract_y
 _atom_site_fract_z
 _atom_site_occupancy
  C  C0  1  0.75000000  0.89758900  0.69978100  1
  C  C1  1  0.25000000  0.10241100  0.30021900  1
  C  C2  1  0.50000000  0.50000000  0.50000000  1
  C  C3  1  0.00000000  0.50000000  0.50000000  1
  C  C4  1  0.75000000  0.36112800  0.17720300  1
  C  C5  1  0.25000000  0.63887200  0.82279700  1
  Ni  Ni6  1  0.56534000  0.29158800  0.33717800  1
  Ni  Ni7  1  0.06534000  0.70841200  0.66282200  1
  Ni  Ni8  1  0.43466000  0.70841200  0.66282200  1
  Ni  Ni9  1  0.93466000  0.29158800  0.33717800  1
  Ni  Ni10  1  0.75000000  0.15387100  0.06800500  1
  Ni  Ni11  1  0.25000000  0.84612900  0.93199500  1
  Ni  Ni12  1  0.75000000  0.65134700  0.03125700  1
  Ni  Ni13  1  0.25000000  0.34865300  0.96874300  1
  Ni  Ni14  1  0.05340500  0.74102600  0.30250800  1
  Ni  Ni15  1  0.55340500  0.25897400  0.69749200  1
  Ni  Ni16  1  0.94659500  0.25897400  0.69749200  1
  Ni  Ni17  1  0.44659500  0.74102600  0.30250800  1
  Cu  Cu18  1  0.75000000  0.64320600  0.50293800  1
  Cu  Cu19  1  0.25000000  0.35679400  0.49706200  1
