# generated using pymatgen
data_Cu(NiC28)3
_symmetry_space_group_name_H-M   'P 1'
_cell_length_a   5.67317200
_cell_length_b   9.14614600
_cell_length_c   16.15802914
_cell_angle_alpha   89.89307141
_cell_angle_beta   90.00000000
_cell_angle_gamma   90.00000000
_symmetry_Int_Tables_number   1
_chemical_formula_structural   Cu(NiC28)3
_chemical_formula_sum   'Cu1 Ni3 C84'
_cell_volume   838.40085239
_cell_formula_units_Z   1
loop_
 _symmetry_equiv_pos_site_id
 _symmetry_equiv_pos_as_xyz
  1  'x, y, z'
loop_
 _atom_site_type_symbol
 _atom_site_label
 _atom_site_symmetry_multiplicity
 _atom_site_fract_x
 _atom_site_fract_y
 _atom_site_fract_z
 _atom_site_occupancy
  Ni  Ni0  1  0.50000000  0.52401600  0.58581600  1
  Ni  Ni1  1  0.00000000  0.02334000  0.91490600  1
  Ni  Ni2  1  0.00000000  0.47615500  0.41408100  1
  Cu  Cu3  1  0.50000000  0.98027700  0.08816600  1
  C  C4  1  0.74800500  0.17152200  0.29549500  1
  C  C5  1  0.25192200  0.32782900  0.79618400  1
  C  C6  1  0.24834500  0.82819500  0.70454800  1
  C  C7  1  0.75176600  0.67382600  0.20318600  1
  C  C8  1  0.75165500  0.82819500  0.70454800  1
  C  C9  1  0.24823400  0.67382600  0.20318600  1
  C  C10  1  0.25199500  0.17152200  0.29549500  1
  C  C11  1  0.74807800  0.32782900  0.79618400  1
  C  C12  1  0.50000000  0.36874400  0.21962000  1
  C  C13  1  0.50000000  0.13151200  0.71992500  1
  C  C14  1  0.00000000  0.63136200  0.78037000  1
  C  C15  1  0.00000000  0.86873300  0.28019600  1
  C  C16  1  0.00000000  0.03392000  0.39379400  1
  C  C17  1  0.00000000  0.46633900  0.89406700  1
  C  C18  1  0.50000000  0.96615400  0.60602900  1
  C  C19  1  0.50000000  0.53434200  0.10594000  1
  C  C20  1  0.00000000  0.38744100  0.24383300  1
  C  C21  1  0.00000000  0.11282300  0.74423100  1
  C  C22  1  0.50000000  0.61260200  0.75605900  1
  C  C23  1  0.50000000  0.88823100  0.25484400  1
  C  C24  1  0.50000000  0.98398200  0.36769500  1
  C  C25  1  0.50000000  0.51590100  0.86759100  1
  C  C26  1  0.00000000  0.01594000  0.63252200  1
  C  C27  1  0.00000000  0.48420200  0.13241700  1
  C  C28  1  0.63768200  0.65919900  0.97013200  1
  C  C29  1  0.36204900  0.84098600  0.47010200  1
  C  C30  1  0.13751700  0.34079800  0.02989800  1
  C  C31  1  0.86207400  0.15900100  0.52992100  1
  C  C32  1  0.86248300  0.34079800  0.02989800  1
  C  C33  1  0.13792600  0.15900100  0.52992100  1
  C  C34  1  0.36231800  0.65919900  0.97013200  1
  C  C35  1  0.63795100  0.84098600  0.47010200  1
  C  C36  1  0.50000000  0.24852900  0.94973200  1
  C  C37  1  0.50000000  0.24791400  0.44894500  1
  C  C38  1  0.00000000  0.75011800  0.05063100  1
  C  C39  1  0.00000000  0.75208600  0.55097500  1
  C  C40  1  0.00000000  0.07912700  0.14483500  1
  C  C41  1  0.00000000  0.41835500  0.64621900  1
  C  C42  1  0.50000000  0.91809100  0.85580600  1
  C  C43  1  0.50000000  0.58218500  0.35352700  1
  C  C44  1  0.50000000  0.28547900  0.25812400  1
  C  C45  1  0.50000000  0.21427800  0.75866300  1
  C  C46  1  0.00000000  0.71443300  0.74174400  1
  C  C47  1  0.00000000  0.78565200  0.24178500  1
  C  C48  1  0.00000000  0.30447900  0.28485800  1
  C  C49  1  0.00000000  0.19466400  0.78585100  1
  C  C50  1  0.50000000  0.69481100  0.71450600  1
  C  C51  1  0.50000000  0.80939500  0.21141100  1
  C  C52  1  0.79933700  0.09536000  0.18323200  1
  C  C53  1  0.19956900  0.40178100  0.68472700  1
  C  C54  1  0.30084800  0.90212200  0.81669700  1
  C  C55  1  0.69932500  0.59931600  0.31492300  1
  C  C56  1  0.69915200  0.90212200  0.81669700  1
  C  C57  1  0.30067500  0.59931600  0.31492300  1
  C  C58  1  0.20066300  0.09536000  0.18323200  1
  C  C59  1  0.80043100  0.40178100  0.68472700  1
  C  C60  1  0.50000000  0.59700200  0.95918600  1
  C  C61  1  0.50000000  0.90290600  0.45904900  1
  C  C62  1  0.00000000  0.40286300  0.04097800  1
  C  C63  1  0.00000000  0.09704700  0.54092200  1
  C  C64  1  0.70097500  0.23986000  0.40886300  1
  C  C65  1  0.29934200  0.26012200  0.90990600  1
  C  C66  1  0.20095400  0.76016700  0.59104400  1
  C  C67  1  0.79863600  0.74357200  0.09084700  1
  C  C68  1  0.79904600  0.76016700  0.59104400  1
  C  C69  1  0.20136400  0.74357200  0.09084700  1
  C  C70  1  0.29902500  0.23986000  0.40886300  1
  C  C71  1  0.70065800  0.26012200  0.90990600  1
  C  C72  1  0.50000000  0.03400600  0.31221900  1
  C  C73  1  0.50000000  0.46580700  0.81225100  1
  C  C74  1  0.00000000  0.96591000  0.68798100  1
  C  C75  1  0.00000000  0.53509900  0.18744900  1
  C  C76  1  0.00000000  0.04449300  0.06817400  1
  C  C77  1  0.00000000  0.45381900  0.56930800  1
  C  C78  1  0.50000000  0.95236000  0.93311100  1
  C  C79  1  0.50000000  0.54606500  0.43034300  1
  C  C80  1  0.50000000  0.22552800  0.02777000  1
  C  C81  1  0.50000000  0.26439000  0.52722400  1
  C  C82  1  0.00000000  0.76366400  0.97234200  1
  C  C83  1  0.00000000  0.73554500  0.47271100  1
  C  C84  1  0.00000000  0.04768100  0.33384200  1
  C  C85  1  0.00000000  0.45200700  0.83422700  1
  C  C86  1  0.50000000  0.95239200  0.66597200  1
  C  C87  1  0.50000000  0.54849100  0.16581300  1
