# generated using pymatgen
data_Cu12NiC8
_symmetry_space_group_name_H-M   'P 1'
_cell_length_a   10.58221027
_cell_length_b   10.58221027
_cell_length_c   7.68522600
_cell_angle_alpha   90.00000000
_cell_angle_beta   90.00000000
_cell_angle_gamma   120.00000169
_symmetry_Int_Tables_number   1
_chemical_formula_structural   Cu12NiC8
_chemical_formula_sum   'Cu24 Ni2 C16'
_cell_volume   745.31530789
_cell_formula_units_Z   2
loop_
 _symmetry_equiv_pos_site_id
 _symmetry_equiv_pos_as_xyz
  1  'x, y, z'
loop_
 _atom_site_type_symbol
 _atom_site_label
 _atom_site_symmetry_multiplicity
 _atom_site_fract_x
 _atom_site_fract_y
 _atom_site_fract_z
 _atom_site_occupancy
  C  C0  1  0.74234000  0.98919700  0.75000000  1
  C  C1  1  0.25766000  0.01080300  0.25000000  1
  C  C2  1  0.24685700  0.25766000  0.75000000  1
  C  C3  1  0.75314300  0.74234000  0.25000000  1
  C  C4  1  0.01080300  0.75314300  0.75000000  1
  C  C5  1  0.98919700  0.24685700  0.25000000  1
  C  C6  1  0.66666700  0.33333300  0.00011000  1
  C  C7  1  0.33333300  0.66666700  0.99989000  1
  C  C8  1  0.33333300  0.66666700  0.50011000  1
  C  C9  1  0.66666700  0.33333300  0.49989000  1
  C  C10  1  0.96643400  0.37983200  0.75000000  1
  C  C11  1  0.03356600  0.62016800  0.25000000  1
  C  C12  1  0.41339800  0.03356600  0.75000000  1
  C  C13  1  0.58660200  0.96643400  0.25000000  1
  C  C14  1  0.62016800  0.58660200  0.75000000  1
  C  C15  1  0.37983200  0.41339800  0.25000000  1
  Ni  Ni16  1  0.00000000  0.00000000  0.00000000  1
  Ni  Ni17  1  0.00000000  0.00000000  0.50000000  1
  Cu  Cu18  1  0.49778300  0.64957300  0.75000000  1
  Cu  Cu19  1  0.50221700  0.35042700  0.25000000  1
  Cu  Cu20  1  0.15179000  0.50221700  0.75000000  1
  Cu  Cu21  1  0.84821000  0.49778300  0.25000000  1
  Cu  Cu22  1  0.35042700  0.84821000  0.75000000  1
  Cu  Cu23  1  0.64957300  0.15179000  0.25000000  1
  Cu  Cu24  1  0.91183800  0.26837000  0.92951900  1
  Cu  Cu25  1  0.08816200  0.73163000  0.07048100  1
  Cu  Cu26  1  0.35653200  0.08816200  0.92951900  1
  Cu  Cu27  1  0.08816200  0.73163000  0.42951900  1
  Cu  Cu28  1  0.64346800  0.91183800  0.07048100  1
  Cu  Cu29  1  0.91183800  0.26837000  0.57048100  1
  Cu  Cu30  1  0.73163000  0.64346800  0.92951900  1
  Cu  Cu31  1  0.64346800  0.91183800  0.42951900  1
  Cu  Cu32  1  0.26837000  0.35653200  0.07048100  1
  Cu  Cu33  1  0.35653200  0.08816200  0.57048100  1
  Cu  Cu34  1  0.26837000  0.35653200  0.42951900  1
  Cu  Cu35  1  0.73163000  0.64346800  0.57048100  1
  Cu  Cu36  1  0.86385000  0.46626700  0.75000000  1
  Cu  Cu37  1  0.13615000  0.53373300  0.25000000  1
  Cu  Cu38  1  0.60241800  0.13615000  0.75000000  1
  Cu  Cu39  1  0.39758200  0.86385000  0.25000000  1
  Cu  Cu40  1  0.53373300  0.39758200  0.75000000  1
  Cu  Cu41  1  0.46626700  0.60241800  0.25000000  1
