# generated using pymatgen
data_Cu2NiC11
_symmetry_space_group_name_H-M   'P 1'
_cell_length_a   9.94304077
_cell_length_b   9.94304077
_cell_length_c   9.81381580
_cell_angle_alpha   66.20709625
_cell_angle_beta   66.20709625
_cell_angle_gamma   16.73107705
_symmetry_Int_Tables_number   1
_chemical_formula_structural   Cu2NiC11
_chemical_formula_sum   'Cu4 Ni2 C22'
_cell_volume   255.03439243
_cell_formula_units_Z   2
loop_
 _symmetry_equiv_pos_site_id
 _symmetry_equiv_pos_as_xyz
  1  'x, y, z'
loop_
 _atom_site_type_symbol
 _atom_site_label
 _atom_site_symmetry_multiplicity
 _atom_site_fract_x
 _atom_site_fract_y
 _atom_site_fract_z
 _atom_site_occupancy
  C  C0  1  0.50000000  0.50000000  0.00000000  1
  C  C1  1  0.21148500  0.21148500  0.15281800  1
  C  C2  1  0.92791600  0.92791600  0.29431100  1
  C  C3  1  0.63193400  0.63193400  0.44143700  1
  C  C4  1  0.36806600  0.36806600  0.55856300  1
  C  C5  1  0.07208400  0.07208400  0.70568900  1
  C  C6  1  0.78851500  0.78851500  0.84718200  1
  C  C7  1  0.00000000  0.00000000  0.50000000  1
  Ni  Ni8  1  0.14281000  0.14281000  0.93253200  1
  Ni  Ni9  1  0.85719000  0.85719000  0.06746800  1
  Cu  Cu10  1  0.56261300  0.56261300  0.23836500  1
  Cu  Cu11  1  0.28443700  0.28443700  0.36144100  1
  Cu  Cu12  1  0.71556300  0.71556300  0.63855900  1
  Cu  Cu13  1  0.43738700  0.43738700  0.76163500  1
  C  C14  1  0.61207000  0.61207000  0.83311400  1
  C  C15  1  0.32425600  0.32425600  0.97826200  1
  C  C16  1  0.04772800  0.04772800  0.09921000  1
  C  C17  1  0.76062800  0.76062800  0.24052400  1
  C  C18  1  0.46930500  0.46930500  0.37849800  1
  C  C19  1  0.18260300  0.18260300  0.53478600  1
  C  C20  1  0.89360500  0.89360500  0.68779200  1
  C  C21  1  0.38793000  0.38793000  0.16688600  1
  C  C22  1  0.10639500  0.10639500  0.31220800  1
  C  C23  1  0.81739700  0.81739700  0.46521400  1
  C  C24  1  0.53069500  0.53069500  0.62150200  1
  C  C25  1  0.23937200  0.23937200  0.75947600  1
  C  C26  1  0.95227200  0.95227200  0.90079000  1
  C  C27  1  0.67574400  0.67574400  0.02173800  1
