# generated using pymatgen
data_Cu3(Ni2C15)2
_symmetry_space_group_name_H-M   'P 1'
_cell_length_a   6.41213934
_cell_length_b   7.95518940
_cell_length_c   9.41112466
_cell_angle_alpha   104.46657768
_cell_angle_beta   108.38713010
_cell_angle_gamma   101.41292635
_symmetry_Int_Tables_number   1
_chemical_formula_structural   Cu3(Ni2C15)2
_chemical_formula_sum   'Cu3 Ni4 C30'
_cell_volume   420.63472542
_cell_formula_units_Z   1
loop_
 _symmetry_equiv_pos_site_id
 _symmetry_equiv_pos_as_xyz
  1  'x, y, z'
loop_
 _atom_site_type_symbol
 _atom_site_label
 _atom_site_symmetry_multiplicity
 _atom_site_fract_x
 _atom_site_fract_y
 _atom_site_fract_z
 _atom_site_occupancy
  Ni  Ni0  1  0.61589300  0.54955300  0.88648100  1
  Ni  Ni1  1  0.04615400  0.72416100  0.52663100  1
  Ni  Ni2  1  0.38410800  0.45044800  0.11351900  1
  Ni  Ni3  1  0.95384600  0.27583900  0.47336900  1
  Cu  Cu4  1  0.29284300  0.80574100  0.29005700  1
  Cu  Cu5  1  0.70715700  0.19425900  0.70994300  1
  Cu  Cu6  1  0.00000000  0.00000000  0.00000000  1
  C  C7  1  0.77383700  0.85162600  0.22917100  1
  C  C8  1  0.22616300  0.14837500  0.77083000  1
  C  C9  1  0.60662500  0.77649800  0.63276600  1
  C  C10  1  0.39337400  0.22350200  0.36723400  1
  C  C11  1  0.08908800  0.59595300  0.83251100  1
  C  C12  1  0.91091200  0.40404700  0.16748900  1
  C  C13  1  0.78951900  0.05001100  0.29430200  1
  C  C14  1  0.21048200  0.94999000  0.70569900  1
  C  C15  1  0.77435400  0.80464800  0.05663900  1
  C  C16  1  0.22564800  0.19535300  0.94336200  1
  C  C17  1  0.62813100  0.22689700  0.49028700  1
  C  C18  1  0.37187100  0.77310400  0.50971400  1
  C  C19  1  0.01717000  0.19179400  0.66328500  1
  C  C20  1  0.98283100  0.80820600  0.33671500  1
  C  C21  1  0.87537500  0.46455300  0.83800300  1
  C  C22  1  0.12462400  0.53544700  0.16199700  1
  C  C23  1  0.89049500  0.21011100  0.08478500  1
  C  C24  1  0.10950500  0.78988900  0.91521600  1
  C  C25  1  0.93757200  0.44974700  0.34599100  1
  C  C26  1  0.27081700  0.03262600  0.23566500  1
  C  C27  1  0.72918300  0.96737500  0.76433600  1
  C  C28  1  0.30798800  0.54155900  0.91611700  1
  C  C29  1  0.69201100  0.45844000  0.08388200  1
  C  C30  1  0.24796400  0.27195200  0.46322800  1
  C  C31  1  0.06242800  0.55025200  0.65400900  1
  C  C32  1  0.44798800  0.36337200  0.28711300  1
  C  C33  1  0.55201200  0.63662900  0.71288800  1
  C  C34  1  0.45469400  0.26856300  0.77568000  1
  C  C35  1  0.54530600  0.73143800  0.22432000  1
  C  C36  1  0.75203500  0.72804800  0.53677200  1
