# generated using pymatgen
data_Cu4NiC
_symmetry_space_group_name_H-M   'P 1'
_cell_length_a   7.24682200
_cell_length_b   8.73633900
_cell_length_c   10.65723774
_cell_angle_alpha   87.80077479
_cell_angle_beta   90.00000000
_cell_angle_gamma   90.00000000
_symmetry_Int_Tables_number   1
_chemical_formula_structural   Cu4NiC
_chemical_formula_sum   'Cu32 Ni8 C8'
_cell_volume   674.22014138
_cell_formula_units_Z   8
loop_
 _symmetry_equiv_pos_site_id
 _symmetry_equiv_pos_as_xyz
  1  'x, y, z'
loop_
 _atom_site_type_symbol
 _atom_site_label
 _atom_site_symmetry_multiplicity
 _atom_site_fract_x
 _atom_site_fract_y
 _atom_site_fract_z
 _atom_site_occupancy
  C  C0  1  0.34954000  0.43736500  0.84231900  1
  C  C1  1  0.65046000  0.56263500  0.15768100  1
  C  C2  1  0.84954000  0.56263500  0.65768100  1
  C  C3  1  0.15046000  0.43736500  0.34231900  1
  C  C4  1  0.16886900  0.94425900  0.84898200  1
  C  C5  1  0.83113100  0.05574100  0.15101800  1
  C  C6  1  0.66886900  0.05574100  0.65101800  1
  C  C7  1  0.33113100  0.94425900  0.34898200  1
  Ni  Ni8  1  0.16646500  0.18115900  0.60963600  1
  Ni  Ni9  1  0.83353500  0.81884100  0.39036400  1
  Ni  Ni10  1  0.66646500  0.81884100  0.89036400  1
  Ni  Ni11  1  0.33353500  0.18115900  0.10963600  1
  Ni  Ni12  1  0.34342600  0.72893900  0.58904200  1
  Ni  Ni13  1  0.65657400  0.27106100  0.41095800  1
  Ni  Ni14  1  0.84342600  0.27106100  0.91095800  1
  Ni  Ni15  1  0.15657400  0.72893900  0.08904200  1
  Cu  Cu16  1  0.81772000  0.87441300  0.51932100  1
  Cu  Cu17  1  0.18228000  0.12558700  0.48067900  1
  Cu  Cu18  1  0.31772000  0.12558700  0.98067900  1
  Cu  Cu19  1  0.68228000  0.87441300  0.01932100  1
  Cu  Cu20  1  0.51145700  0.90636000  0.82354200  1
  Cu  Cu21  1  0.48854300  0.09364000  0.17645800  1
  Cu  Cu22  1  0.01145700  0.09364000  0.67645800  1
  Cu  Cu23  1  0.98854300  0.90636000  0.32354200  1
  Cu  Cu24  1  0.13964800  0.34613500  0.60808300  1
  Cu  Cu25  1  0.86035200  0.65386500  0.39191700  1
  Cu  Cu26  1  0.63964800  0.65386500  0.89191700  1
  Cu  Cu27  1  0.36035200  0.34613500  0.10808300  1
  Cu  Cu28  1  0.24691000  0.70268700  0.96531500  1
  Cu  Cu29  1  0.75309000  0.29731300  0.03468500  1
  Cu  Cu30  1  0.74691000  0.29731300  0.53468500  1
  Cu  Cu31  1  0.25309000  0.70268700  0.46531500  1
  Cu  Cu32  1  0.44538800  0.87881100  0.56130200  1
  Cu  Cu33  1  0.55461200  0.12118900  0.43869800  1
  Cu  Cu34  1  0.94538800  0.12118900  0.93869800  1
  Cu  Cu35  1  0.05461200  0.87881100  0.06130200  1
  Cu  Cu36  1  0.46875300  0.60701600  0.62918400  1
  Cu  Cu37  1  0.53124700  0.39298400  0.37081600  1
  Cu  Cu38  1  0.96875300  0.39298400  0.87081600  1
  Cu  Cu39  1  0.03124700  0.60701600  0.12918400  1
  Cu  Cu40  1  0.83288600  0.86378400  0.80946200  1
  Cu  Cu41  1  0.16711400  0.13621600  0.19053800  1
  Cu  Cu42  1  0.33288600  0.13621600  0.69053800  1
  Cu  Cu43  1  0.66711400  0.86378400  0.30946200  1
  Cu  Cu44  1  0.19970500  0.75585100  0.68676300  1
  Cu  Cu45  1  0.80029500  0.24414900  0.31323700  1
  Cu  Cu46  1  0.69970500  0.24414900  0.81323700  1
  Cu  Cu47  1  0.30029500  0.75585100  0.18676300  1
