# generated using pymatgen
data_Cu2Ni6C25
_symmetry_space_group_name_H-M   'P 1'
_cell_length_a   13.73744600
_cell_length_b   6.66765000
_cell_length_c   20.04248732
_cell_angle_alpha   72.71495270
_cell_angle_beta   90.00000000
_cell_angle_gamma   90.00000000
_symmetry_Int_Tables_number   1
_chemical_formula_structural   Cu2Ni6C25
_chemical_formula_sum   'Cu8 Ni24 C100'
_cell_volume   1752.91264904
_cell_formula_units_Z   4
loop_
 _symmetry_equiv_pos_site_id
 _symmetry_equiv_pos_as_xyz
  1  'x, y, z'
loop_
 _atom_site_type_symbol
 _atom_site_label
 _atom_site_symmetry_multiplicity
 _atom_site_fract_x
 _atom_site_fract_y
 _atom_site_fract_z
 _atom_site_occupancy
  C  C0  1  0.24266700  0.06432100  0.15552800  1
  C  C1  1  0.74266700  0.93567900  0.34447200  1
  C  C2  1  0.75733300  0.93567900  0.84447200  1
  C  C3  1  0.25733300  0.06432100  0.65552800  1
  C  C4  1  0.74003800  0.40793600  0.95963000  1
  C  C5  1  0.24003800  0.59206400  0.54037000  1
  C  C6  1  0.25996200  0.59206400  0.04037000  1
  C  C7  1  0.75996200  0.40793600  0.45963000  1
  C  C8  1  0.41527500  0.46442300  0.69712900  1
  C  C9  1  0.91527500  0.53557700  0.80287100  1
  C  C10  1  0.58472500  0.53557700  0.30287100  1
  C  C11  1  0.08472500  0.46442300  0.19712900  1
  C  C12  1  0.83277400  0.09219600  0.99346800  1
  C  C13  1  0.33277400  0.90780400  0.50653200  1
  C  C14  1  0.16722600  0.90780400  0.00653200  1
  C  C15  1  0.66722600  0.09219600  0.49346800  1
  C  C16  1  0.81570100  0.08606600  0.08349500  1
  C  C17  1  0.31570100  0.91393400  0.41650500  1
  C  C18  1  0.18429900  0.91393400  0.91650500  1
  C  C19  1  0.68429900  0.08606600  0.58349500  1
  C  C20  1  0.88679100  0.29152400  0.02488400  1
  C  C21  1  0.38679100  0.70847600  0.47511600  1
  C  C22  1  0.11320900  0.70847600  0.97511600  1
  C  C23  1  0.61320900  0.29152400  0.52488400  1
  C  C24  1  0.58184700  0.27237600  0.00191600  1
  C  C25  1  0.08184700  0.72762400  0.49808400  1
  C  C26  1  0.41815300  0.72762400  0.99808400  1
  C  C27  1  0.91815300  0.27237600  0.50191600  1
  C  C28  1  0.64224000  0.07537800  0.07010400  1
  C  C29  1  0.14224000  0.92462200  0.42989600  1
  C  C30  1  0.35776000  0.92462200  0.92989600  1
  C  C31  1  0.85776000  0.07537800  0.57010400  1
  C  C32  1  0.65714100  0.08104100  0.97996000  1
  C  C33  1  0.15714100  0.91895900  0.52004000  1
  C  C34  1  0.34285900  0.91895900  0.02004000  1
  C  C35  1  0.84285900  0.08104100  0.47996000  1
  C  C36  1  0.65352700  0.53894700  0.04374500  1
  C  C37  1  0.15352700  0.46105300  0.45625500  1
  C  C38  1  0.34647300  0.46105300  0.95625500  1
  C  C39  1  0.84647300  0.53894700  0.54374500  1
  C  C40  1  0.78301100  0.55978400  0.04892000  1
  C  C41  1  0.28301100  0.44021600  0.45108000  1
  C  C42  1  0.21698900  0.44021600  0.95108000  1
  C  C43  1  0.71698900  0.55978400  0.54892000  1
  C  C44  1  0.71965500  0.34690100  0.11156500  1
  C  C45  1  0.21965500  0.65309900  0.38843500  1
  C  C46  1  0.28034500  0.65309900  0.88843500  1
  C  C47  1  0.78034500  0.34690100  0.61156500  1
  C  C48  1  0.55083800  0.26085800  0.67310700  1
  C  C49  1  0.05083800  0.73914200  0.82689300  1
  C  C50  1  0.44916200  0.73914200  0.32689300  1
  C  C51  1  0.94916200  0.26085800  0.17310700  1
  C  C52  1  0.50475100  0.15562800  0.76015100  1
  C  C53  1  0.00475100  0.84437200  0.73984900  1
  C  C54  1  0.49524900  0.84437200  0.23984900  1
  C  C55  1  0.99524900  0.15562800  0.26015100  1
  C  C56  1  0.61414400  0.31111100  0.74565800  1
  C  C57  1  0.11414400  0.68888900  0.75434200  1
  C  C58  1  0.38585600  0.68888900  0.25434200  1
  C  C59  1  0.88585600  0.31111100  0.24565800  1
  C  C60  1  0.44277800  0.39360100  0.82132000  1
  C  C61  1  0.94277800  0.60639900  0.67868000  1
  C  C62  1  0.55722200  0.60639900  0.17868000  1
  C  C63  1  0.05722200  0.39360100  0.32132000  1
  C  C64  1  0.42762900  0.66761300  0.77513100  1
  C  C65  1  0.92762900  0.33238700  0.72486900  1
  C  C66  1  0.57237100  0.33238700  0.22486900  1
  C  C67  1  0.07237100  0.66761300  0.27513100  1
  C  C68  1  0.54748600  0.56282000  0.79973300  1
  C  C69  1  0.04748600  0.43718000  0.70026700  1
  C  C70  1  0.45251400  0.43718000  0.20026700  1
  C  C71  1  0.95251400  0.56282000  0.29973300  1
  C  C72  1  0.53638100  0.62930600  0.61254200  1
  C  C73  1  0.03638100  0.37069400  0.88745800  1
  C  C74  1  0.46361900  0.37069400  0.38745800  1
  C  C75  1  0.96361900  0.62930600  0.11254200  1
  C  C76  1  0.60178300  0.69250300  0.68205100  1
  C  C77  1  0.10178300  0.30749700  0.81794900  1
  C  C78  1  0.39821700  0.30749700  0.31794900  1
  C  C79  1  0.89821700  0.69250300  0.18205100  1
  C  C80  1  0.48303600  0.80289300  0.65521200  1
  C  C81  1  0.98303600  0.19710700  0.84478800  1
  C  C82  1  0.51696400  0.19710700  0.34478800  1
  C  C83  1  0.01696400  0.80289300  0.15521200  1
  Ni  Ni84  1  0.82440700  0.18643800  0.02953100  1
  Ni  Ni85  1  0.32440700  0.81356200  0.47046900  1
  Ni  Ni86  1  0.17559300  0.81356200  0.97046900  1
  Ni  Ni87  1  0.67559300  0.18643800  0.52953100  1
  Ni  Ni88  1  0.64718900  0.17517200  0.01585100  1
  Ni  Ni89  1  0.14718900  0.82482800  0.48414900  1
  Ni  Ni90  1  0.35281100  0.82482800  0.98414900  1
  Ni  Ni91  1  0.85281100  0.17517200  0.51585100  1
  Ni  Ni92  1  0.72150200  0.45074100  0.05771000  1
  Ni  Ni93  1  0.22150200  0.54925900  0.44229000  1
  Ni  Ni94  1  0.27849800  0.54925900  0.94229000  1
  Ni  Ni95  1  0.77849800  0.45074100  0.55771000  1
  Ni  Ni96  1  0.54304600  0.28749900  0.72394100  1
  Ni  Ni97  1  0.04304600  0.71250100  0.77605900  1
  Ni  Ni98  1  0.45695400  0.71250100  0.27605900  1
  Ni  Ni99  1  0.95695400  0.28749900  0.22394100  1
  Ni  Ni100  1  0.47466800  0.53065700  0.78292900  1
  Ni  Ni101  1  0.97466800  0.46934300  0.71707100  1
  Ni  Ni102  1  0.52533200  0.46934300  0.21707100  1
  Ni  Ni103  1  0.02533200  0.53065700  0.28292900  1
  Ni  Ni104  1  0.53018500  0.66563800  0.66211600  1
  Ni  Ni105  1  0.03018500  0.33436200  0.83788400  1
  Ni  Ni106  1  0.46981500  0.33436200  0.33788400  1
  Ni  Ni107  1  0.96981500  0.66563800  0.16211600  1
  Cu  Cu108  1  0.73364500  0.31442700  0.01115200  1
  Cu  Cu109  1  0.23364500  0.68557300  0.48884800  1
  Cu  Cu110  1  0.26635500  0.68557300  0.98884800  1
  Cu  Cu111  1  0.76635500  0.31442700  0.51115200  1
  Cu  Cu112  1  0.48495300  0.48299500  0.71508900  1
  Cu  Cu113  1  0.98495300  0.51700500  0.78491100  1
  Cu  Cu114  1  0.51504700  0.51700500  0.28491100  1
  Cu  Cu115  1  0.01504700  0.48299500  0.21508900  1
  C  C116  1  0.22981300  0.67547000  0.15411500  1
  C  C117  1  0.72981300  0.32453000  0.34588500  1
  C  C118  1  0.77018700  0.32453000  0.84588500  1
  C  C119  1  0.27018700  0.67547000  0.65411500  1
  C  C120  1  0.39701300  0.22547300  0.09460600  1
  C  C121  1  0.89701300  0.77452700  0.40539400  1
  C  C122  1  0.60298700  0.77452700  0.90539400  1
  C  C123  1  0.10298700  0.22547300  0.59460600  1
  C  C124  1  0.10285300  0.25384700  0.07529700  1
  C  C125  1  0.60285300  0.74615300  0.42470300  1
  C  C126  1  0.89714700  0.74615300  0.92470300  1
  C  C127  1  0.39714700  0.25384700  0.57529700  1
  C  C128  1  0.21519300  0.06228300  0.28061000  1
  C  C129  1  0.71519300  0.93771700  0.21939000  1
  C  C130  1  0.78480700  0.93771700  0.71939000  1
  C  C131  1  0.28480700  0.06228300  0.78061000  1
