# generated using pymatgen
data_Cu2Ni9C14
_symmetry_space_group_name_H-M   'P 1'
_cell_length_a   10.58194300
_cell_length_b   8.97862200
_cell_length_c   14.04366619
_cell_angle_alpha   65.85900304
_cell_angle_beta   90.00000000
_cell_angle_gamma   90.00000000
_symmetry_Int_Tables_number   1
_chemical_formula_structural   Cu2Ni9C14
_chemical_formula_sum   'Cu8 Ni36 C56'
_cell_volume   1217.61042151
_cell_formula_units_Z   4
loop_
 _symmetry_equiv_pos_site_id
 _symmetry_equiv_pos_as_xyz
  1  'x, y, z'
loop_
 _atom_site_type_symbol
 _atom_site_label
 _atom_site_symmetry_multiplicity
 _atom_site_fract_x
 _atom_site_fract_y
 _atom_site_fract_z
 _atom_site_occupancy
  C  C0  1  0.42418900  0.13489200  0.27609000  1
  C  C1  1  0.07581100  0.13489200  0.77609000  1
  C  C2  1  0.57581100  0.86510800  0.72391000  1
  C  C3  1  0.92418900  0.86510800  0.22391000  1
  C  C4  1  0.68116500  0.44570300  0.34008300  1
  C  C5  1  0.81883500  0.44570300  0.84008300  1
  C  C6  1  0.31883500  0.55429700  0.65991700  1
  C  C7  1  0.18116500  0.55429700  0.15991700  1
  Ni  Ni8  1  0.16851400  0.12136400  0.46979600  1
  Ni  Ni9  1  0.33148600  0.12136400  0.96979600  1
  Ni  Ni10  1  0.83148600  0.87863600  0.53020400  1
  Ni  Ni11  1  0.66851400  0.87863600  0.03020400  1
  Ni  Ni12  1  0.28307300  0.84249300  0.26366700  1
  Ni  Ni13  1  0.21692700  0.84249300  0.76366700  1
  Ni  Ni14  1  0.71692700  0.15750700  0.73633300  1
  Ni  Ni15  1  0.78307300  0.15750700  0.23633300  1
  Ni  Ni16  1  0.19586500  0.99185900  0.23745000  1
  Ni  Ni17  1  0.30413500  0.99185900  0.73745000  1
  Ni  Ni18  1  0.80413500  0.00814100  0.76255000  1
  Ni  Ni19  1  0.69586500  0.00814100  0.26255000  1
  Ni  Ni20  1  0.29401700  0.93150400  0.47805000  1
  Ni  Ni21  1  0.20598300  0.93150400  0.97805000  1
  Ni  Ni22  1  0.70598300  0.06849600  0.52195000  1
  Ni  Ni23  1  0.79401700  0.06849600  0.02195000  1
  Ni  Ni24  1  0.38498900  0.05891600  0.48909700  1
  Ni  Ni25  1  0.11501100  0.05891600  0.98909700  1
  Ni  Ni26  1  0.61501100  0.94108400  0.51090300  1
  Ni  Ni27  1  0.88498900  0.94108400  0.01090300  1
  Ni  Ni28  1  0.55145500  0.39806500  0.13026400  1
  Ni  Ni29  1  0.94854500  0.39806500  0.63026400  1
  Ni  Ni30  1  0.44854500  0.60193500  0.86973600  1
  Ni  Ni31  1  0.05145500  0.60193500  0.36973600  1
  Ni  Ni32  1  0.57951200  0.28785100  0.07036300  1
  Ni  Ni33  1  0.92048800  0.28785100  0.57036300  1
  Ni  Ni34  1  0.42048800  0.71214900  0.92963700  1
  Ni  Ni35  1  0.07951200  0.71214900  0.42963700  1
  Ni  Ni36  1  0.53258700  0.78474100  0.38067000  1
  Ni  Ni37  1  0.96741300  0.78474100  0.88067000  1
  Ni  Ni38  1  0.46741300  0.21525900  0.61933000  1
  Ni  Ni39  1  0.03258700  0.21525900  0.11933000  1
  Ni  Ni40  1  0.65192200  0.87003100  0.39931100  1
  Ni  Ni41  1  0.84807800  0.87003100  0.89931100  1
  Ni  Ni42  1  0.34807800  0.12996900  0.60068900  1
  Ni  Ni43  1  0.15192200  0.12996900  0.10068900  1
  Cu  Cu44  1  0.35924400  0.51243700  0.40474300  1
  Cu  Cu45  1  0.14075600  0.51243700  0.90474300  1
  Cu  Cu46  1  0.64075600  0.48756300  0.59525700  1
  Cu  Cu47  1  0.85924400  0.48756300  0.09525700  1
  Cu  Cu48  1  0.99389800  0.24433800  0.36960300  1
  Cu  Cu49  1  0.50610200  0.24433800  0.86960300  1
  Cu  Cu50  1  0.00610200  0.75566200  0.63039700  1
  Cu  Cu51  1  0.49389800  0.75566200  0.13039700  1
  C  C52  1  0.57952500  0.26569100  0.37493500  1
  C  C53  1  0.92047500  0.26569100  0.87493500  1
  C  C54  1  0.42047500  0.73430900  0.62506500  1
  C  C55  1  0.07952500  0.73430900  0.12506500  1
  C  C56  1  0.77099300  0.63547200  0.29785600  1
  C  C57  1  0.72900700  0.63547200  0.79785600  1
  C  C58  1  0.22900700  0.36452800  0.70214400  1
  C  C59  1  0.27099300  0.36452800  0.20214400  1
  C  C60  1  0.51330000  0.59052000  0.37709600  1
  C  C61  1  0.98670000  0.59052000  0.87709600  1
  C  C62  1  0.48670000  0.40948000  0.62290400  1
  C  C63  1  0.01330000  0.40948000  0.12290400  1
  C  C64  1  0.28993200  0.62675500  0.28448900  1
  C  C65  1  0.21006800  0.62675500  0.78448900  1
  C  C66  1  0.71006800  0.37324500  0.71551100  1
  C  C67  1  0.78993200  0.37324500  0.21551100  1
  C  C68  1  0.30492000  0.60973700  0.47856500  1
  C  C69  1  0.19508000  0.60973700  0.97856500  1
  C  C70  1  0.69508000  0.39026300  0.52143500  1
  C  C71  1  0.80492000  0.39026300  0.02143500  1
  C  C72  1  0.06132200  0.43590400  0.31622300  1
  C  C73  1  0.43867800  0.43590400  0.81622300  1
  C  C74  1  0.93867800  0.56409600  0.68377700  1
  C  C75  1  0.56132200  0.56409600  0.18377700  1
  C  C76  1  0.86036300  0.27256300  0.42832600  1
  C  C77  1  0.63963700  0.27256300  0.92832600  1
  C  C78  1  0.13963700  0.72743700  0.57167400  1
  C  C79  1  0.36036300  0.72743700  0.07167400  1
  C  C80  1  0.08457500  0.15593300  0.48749300  1
  C  C81  1  0.41542500  0.15593300  0.98749300  1
  C  C82  1  0.91542500  0.84406700  0.51250700  1
  C  C83  1  0.58457500  0.84406700  0.01250700  1
  C  C84  1  0.28505700  0.96201400  0.24189000  1
  C  C85  1  0.21494300  0.96201400  0.74189000  1
  C  C86  1  0.71494300  0.03798600  0.75811000  1
  C  C87  1  0.78505700  0.03798600  0.25811000  1
  C  C88  1  0.31285200  0.04865400  0.44830600  1
  C  C89  1  0.18714800  0.04865400  0.94830600  1
  C  C90  1  0.68714800  0.95134600  0.55169400  1
  C  C91  1  0.81285200  0.95134600  0.05169400  1
  C  C92  1  0.53719800  0.28909500  0.13186500  1
  C  C93  1  0.96280200  0.28909500  0.63186500  1
  C  C94  1  0.46280200  0.71090500  0.86813500  1
  C  C95  1  0.03719800  0.71090500  0.36813500  1
  C  C96  1  0.56314700  0.89051900  0.37953800  1
  C  C97  1  0.93685300  0.89051900  0.87953800  1
  C  C98  1  0.43685300  0.10948100  0.62046200  1
  C  C99  1  0.06314700  0.10948100  0.12046200  1
