# generated using pymatgen
data_Cu10Ni4C3
_symmetry_space_group_name_H-M   'P 1'
_cell_length_a   9.92588431
_cell_length_b   9.92588431
_cell_length_c   9.92588431
_cell_angle_alpha   136.72385997
_cell_angle_beta   136.72385997
_cell_angle_gamma   62.86319959
_symmetry_Int_Tables_number   1
_chemical_formula_structural   Cu10Ni4C3
_chemical_formula_sum   'Cu10 Ni4 C3'
_cell_volume   453.83346627
_cell_formula_units_Z   1
loop_
 _symmetry_equiv_pos_site_id
 _symmetry_equiv_pos_as_xyz
  1  'x, y, z'
loop_
 _atom_site_type_symbol
 _atom_site_label
 _atom_site_symmetry_multiplicity
 _atom_site_fract_x
 _atom_site_fract_y
 _atom_site_fract_z
 _atom_site_occupancy
  C  C0  1  0.89048300  0.89048300  0.00000000  1
  C  C1  1  0.10951700  0.10951700  0.00000000  1
  Ni  Ni2  1  0.00000000  0.50000000  0.50000000  1
  Ni  Ni3  1  0.50000000  0.00000000  0.50000000  1
  Ni  Ni4  1  0.25000000  0.75000000  0.50000000  1
  Ni  Ni5  1  0.75000000  0.25000000  0.50000000  1
  Cu  Cu6  1  0.75679200  0.75679200  0.00000000  1
  Cu  Cu7  1  0.24320800  0.24320800  0.00000000  1
  Cu  Cu8  1  0.11353400  0.11353400  0.44593600  1
  Cu  Cu9  1  0.66759800  0.66759800  0.55406400  1
  Cu  Cu10  1  0.11353400  0.66759800  0.00000000  1
  Cu  Cu11  1  0.66759800  0.11353400  0.00000000  1
  Cu  Cu12  1  0.88646600  0.88646600  0.55406400  1
  Cu  Cu13  1  0.33240200  0.33240200  0.44593600  1
  Cu  Cu14  1  0.88646600  0.33240200  0.00000000  1
  Cu  Cu15  1  0.33240200  0.88646600  0.00000000  1
  C  C16  1  0.00000000  0.00000000  0.00000000  1
