# generated using pymatgen
data_Cu3Ni3C20
_symmetry_space_group_name_H-M   'P 1'
_cell_length_a   15.74757300
_cell_length_b   7.95773100
_cell_length_c   7.96025761
_cell_angle_alpha   87.16862142
_cell_angle_beta   90.00000000
_cell_angle_gamma   90.00000000
_symmetry_Int_Tables_number   1
_chemical_formula_structural   Cu3Ni3C20
_chemical_formula_sum   'Cu6 Ni6 C40'
_cell_volume   996.32152128
_cell_formula_units_Z   2
loop_
 _symmetry_equiv_pos_site_id
 _symmetry_equiv_pos_as_xyz
  1  'x, y, z'
loop_
 _atom_site_type_symbol
 _atom_site_label
 _atom_site_symmetry_multiplicity
 _atom_site_fract_x
 _atom_site_fract_y
 _atom_site_fract_z
 _atom_site_occupancy
  C  C0  1  0.80277600  0.91615500  0.80137100  1
  C  C1  1  0.30277600  0.08384500  0.19862900  1
  C  C2  1  0.79511600  0.22203900  0.06987600  1
  C  C3  1  0.29511600  0.77796100  0.93012400  1
  C  C4  1  0.96099200  0.19623800  0.80122500  1
  C  C5  1  0.46099200  0.80376200  0.19877500  1
  C  C6  1  0.93447600  0.90895400  0.12122500  1
  C  C7  1  0.43447600  0.09104600  0.87877500  1
  C  C8  1  0.88699400  0.56429700  0.91101400  1
  C  C9  1  0.38699400  0.43570300  0.08898600  1
  C  C10  1  0.62617700  0.98242100  0.00125700  1
  C  C11  1  0.12617700  0.01757900  0.99874300  1
  C  C12  1  0.85738700  0.09791900  0.45106000  1
  C  C13  1  0.35738700  0.90208100  0.54894000  1
  Ni  Ni14  1  0.57429000  0.21343300  0.43301200  1
  Ni  Ni15  1  0.07429000  0.78656700  0.56698800  1
  Ni  Ni16  1  0.08503800  0.44984700  0.22027300  1
  Ni  Ni17  1  0.58503800  0.55015300  0.77972700  1
  Ni  Ni18  1  0.74460200  0.63066500  0.36679200  1
  Ni  Ni19  1  0.24460200  0.36933500  0.63320800  1
  Cu  Cu20  1  0.59734300  0.07989900  0.48500900  1
  Cu  Cu21  1  0.09734300  0.92010100  0.51499100  1
  Cu  Cu22  1  0.10987200  0.47842300  0.08215600  1
  Cu  Cu23  1  0.60987200  0.52157700  0.91784400  1
  Cu  Cu24  1  0.81382700  0.58788500  0.40608100  1
  Cu  Cu25  1  0.31382700  0.41211500  0.59391900  1
  C  C26  1  0.87366000  0.06248100  0.94795800  1
  C  C27  1  0.37366000  0.93751900  0.05204200  1
  C  C28  1  0.77863500  0.04123200  0.59162700  1
  C  C29  1  0.27863500  0.95876800  0.40837300  1
  C  C30  1  0.86388400  0.71049700  0.75203600  1
  C  C31  1  0.36388400  0.28950300  0.24796400  1
  C  C32  1  0.70263600  0.84939800  0.92942900  1
  C  C33  1  0.20263600  0.15060200  0.07057100  1
  C  C34  1  0.79838400  0.44780500  0.96427700  1
  C  C35  1  0.29838400  0.55219500  0.03572300  1
  C  C36  1  0.82477300  0.24871600  0.30479300  1
  C  C37  1  0.32477300  0.75128400  0.69520700  1
  C  C38  1  0.67497100  0.16704500  0.05295900  1
  C  C39  1  0.17497100  0.83295500  0.94704100  1
  C  C40  1  0.96722200  0.43200300  0.85418300  1
  C  C41  1  0.46722200  0.56799700  0.14581700  1
  C  C42  1  0.57634100  0.89214700  0.17354500  1
  C  C43  1  0.07634100  0.10785300  0.82645500  1
  C  C44  1  0.94233800  0.17194000  0.56157000  1
  C  C45  1  0.44233800  0.82806000  0.43843000  1
  C  C46  1  0.88832600  0.92320900  0.34707200  1
  C  C47  1  0.38832600  0.07679100  0.65292800  1
  C  C48  1  0.91988500  0.67122000  0.08295500  1
  C  C49  1  0.41988500  0.32878000  0.91704500  1
  C  C50  1  0.55244600  0.02879600  0.84593600  1
  C  C51  1  0.05244600  0.97120400  0.15406400  1
