# generated using pymatgen
data_Cu7(NiC)2
_symmetry_space_group_name_H-M   'P 1'
_cell_length_a   7.90305929
_cell_length_b   7.90305929
_cell_length_c   8.02895940
_cell_angle_alpha   87.42709011
_cell_angle_beta   87.42709011
_cell_angle_gamma   59.52491169
_symmetry_Int_Tables_number   1
_chemical_formula_structural   Cu7(NiC)2
_chemical_formula_sum   'Cu14 Ni4 C4'
_cell_volume   431.61829696
_cell_formula_units_Z   2
loop_
 _symmetry_equiv_pos_site_id
 _symmetry_equiv_pos_as_xyz
  1  'x, y, z'
loop_
 _atom_site_type_symbol
 _atom_site_label
 _atom_site_symmetry_multiplicity
 _atom_site_fract_x
 _atom_site_fract_y
 _atom_site_fract_z
 _atom_site_occupancy
  C  C0  1  0.06903200  0.73093600  0.85707200  1
  C  C1  1  0.26906400  0.93096800  0.64292800  1
  C  C2  1  0.93096800  0.26906400  0.14292800  1
  C  C3  1  0.73093600  0.06903200  0.35707200  1
  Ni  Ni4  1  0.79804400  0.49084700  0.65595600  1
  Ni  Ni5  1  0.50915300  0.20195600  0.84404400  1
  Ni  Ni6  1  0.20195600  0.50915300  0.34404400  1
  Ni  Ni7  1  0.49084700  0.79804400  0.15595600  1
  Cu  Cu8  1  0.23921800  0.64001500  0.99702900  1
  Cu  Cu9  1  0.35998500  0.76078200  0.50297100  1
  Cu  Cu10  1  0.76078200  0.35998500  0.00297100  1
  Cu  Cu11  1  0.64001500  0.23921800  0.49702900  1
  Cu  Cu12  1  0.85733900  0.79239200  0.94494300  1
  Cu  Cu13  1  0.20760800  0.14266100  0.55505700  1
  Cu  Cu14  1  0.14266100  0.20760800  0.05505700  1
  Cu  Cu15  1  0.79239200  0.85733900  0.44494300  1
  Cu  Cu16  1  0.12959700  0.55187600  0.72608100  1
  Cu  Cu17  1  0.44812400  0.87040300  0.77391900  1
  Cu  Cu18  1  0.87040300  0.44812400  0.27391900  1
  Cu  Cu19  1  0.55187600  0.12959700  0.22608100  1
  Cu  Cu20  1  0.06278300  0.93721700  0.75000000  1
  Cu  Cu21  1  0.93721700  0.06278300  0.25000000  1
