# generated using pymatgen
data_CuNiC10
_symmetry_space_group_name_H-M   'P 1'
_cell_length_a   6.89431800
_cell_length_b   4.74491300
_cell_length_c   9.87401853
_cell_angle_alpha   82.76250571
_cell_angle_beta   90.00000000
_cell_angle_gamma   90.00000000
_symmetry_Int_Tables_number   1
_chemical_formula_structural   CuNiC10
_chemical_formula_sum   'Cu2 Ni2 C20'
_cell_volume   320.43458992
_cell_formula_units_Z   2
loop_
 _symmetry_equiv_pos_site_id
 _symmetry_equiv_pos_as_xyz
  1  'x, y, z'
loop_
 _atom_site_type_symbol
 _atom_site_label
 _atom_site_symmetry_multiplicity
 _atom_site_fract_x
 _atom_site_fract_y
 _atom_site_fract_z
 _atom_site_occupancy
  Ni  Ni0  1  0.25000000  0.37820500  0.35940500  1
  Ni  Ni1  1  0.75000000  0.62179500  0.64059500  1
  Cu  Cu2  1  0.75000000  0.65086600  0.17588700  1
  Cu  Cu3  1  0.25000000  0.34913400  0.82411300  1
  C  C4  1  0.25000000  0.85319500  0.07053800  1
  C  C5  1  0.75000000  0.14680500  0.92946200  1
  C  C6  1  0.75000000  0.16837500  0.39915700  1
  C  C7  1  0.25000000  0.83162500  0.60084300  1
  C  C8  1  0.25000000  0.83520600  0.45289900  1
  C  C9  1  0.75000000  0.16479400  0.54710100  1
  C  C10  1  0.75000000  0.87002900  0.36546300  1
  C  C11  1  0.25000000  0.12997100  0.63453700  1
  C  C12  1  0.57634200  0.26250700  0.85383200  1
  C  C13  1  0.07634200  0.73749300  0.14616800  1
  C  C14  1  0.42365800  0.73749300  0.14616800  1
  C  C15  1  0.92365800  0.26250700  0.85383200  1
  C  C16  1  0.75000000  0.83086300  0.94479700  1
  C  C17  1  0.25000000  0.16913700  0.05520300  1
  C  C18  1  0.25000000  0.77445000  0.92733600  1
  C  C19  1  0.75000000  0.22555000  0.07266400  1
  C  C20  1  0.07940400  0.67405900  0.66852000  1
  C  C21  1  0.57940400  0.32594100  0.33148000  1
  C  C22  1  0.92059600  0.32594100  0.33148000  1
  C  C23  1  0.42059600  0.67405900  0.66852000  1
