# generated using pymatgen
data_Cu8Ni11C65
_symmetry_space_group_name_H-M   'P 1'
_cell_length_a   3.94571700
_cell_length_b   3.94571700
_cell_length_c   69.62783400
_cell_angle_alpha   90.00000000
_cell_angle_beta   90.00000000
_cell_angle_gamma   90.00000000
_symmetry_Int_Tables_number   1
_chemical_formula_structural   Cu8Ni11C65
_chemical_formula_sum   'Cu8 Ni11 C65'
_cell_volume   1084.01365074
_cell_formula_units_Z   1
loop_
 _symmetry_equiv_pos_site_id
 _symmetry_equiv_pos_as_xyz
  1  'x, y, z'
loop_
 _atom_site_type_symbol
 _atom_site_label
 _atom_site_symmetry_multiplicity
 _atom_site_fract_x
 _atom_site_fract_y
 _atom_site_fract_z
 _atom_site_occupancy
  C  C0  1  0.50000000  0.50000000  0.02799700  1
  C  C1  1  0.50000000  0.50000000  0.08085000  1
  C  C2  1  0.50000000  0.50000000  0.13225300  1
  C  C3  1  0.50000000  0.50000000  0.18439800  1
  C  C4  1  0.50000000  0.50000000  0.23691500  1
  C  C5  1  0.50000000  0.50000000  0.28944700  1
  C  C6  1  0.50000000  0.50000000  0.34190200  1
  C  C7  1  0.50000000  0.50000000  0.39413400  1
  C  C8  1  0.50000000  0.50000000  0.44578800  1
  C  C9  1  0.50000000  0.50000000  0.49953700  1
  C  C10  1  0.50000000  0.50000000  0.55262200  1
  C  C11  1  0.50000000  0.50000000  0.60536000  1
  C  C12  1  0.50000000  0.50000000  0.65796300  1
  C  C13  1  0.50000000  0.50000000  0.71039100  1
  C  C14  1  0.50000000  0.50000000  0.76245500  1
  C  C15  1  0.50000000  0.50000000  0.81390600  1
  C  C16  1  0.50000000  0.50000000  0.86679300  1
  C  C17  1  0.50000000  0.50000000  0.92071100  1
  C  C18  1  0.50000000  0.50000000  0.97511800  1
  Ni  Ni19  1  0.00000000  0.00000000  0.00260300  1
  Ni  Ni20  1  0.00000000  0.00000000  0.05328300  1
  Ni  Ni21  1  0.00000000  0.00000000  0.68408600  1
  Ni  Ni22  1  0.00000000  0.00000000  0.78877700  1
  Ni  Ni23  1  0.00000000  0.00000000  0.84131100  1
  Ni  Ni24  1  0.00000000  0.00000000  0.89473500  1
  Ni  Ni25  1  0.00000000  0.00000000  0.47338800  1
  Ni  Ni26  1  0.00000000  0.00000000  0.52497600  1
  Ni  Ni27  1  0.00000000  0.00000000  0.63111500  1
  Ni  Ni28  1  0.00000000  0.00000000  0.73658300  1
  Ni  Ni29  1  0.00000000  0.00000000  0.94785600  1
  Cu  Cu30  1  0.00000000  0.00000000  0.10556400  1
  Cu  Cu31  1  0.00000000  0.00000000  0.21053800  1
  Cu  Cu32  1  0.00000000  0.00000000  0.42083500  1
  Cu  Cu33  1  0.00000000  0.00000000  0.15797600  1
  Cu  Cu34  1  0.00000000  0.00000000  0.26316200  1
  Cu  Cu35  1  0.00000000  0.00000000  0.31577800  1
  Cu  Cu36  1  0.00000000  0.00000000  0.36834600  1
  Cu  Cu37  1  0.00000000  0.00000000  0.57741500  1
  C  C38  1  0.00000000  0.50000000  0.00293200  1
  C  C39  1  0.00000000  0.50000000  0.10540300  1
  C  C40  1  0.00000000  0.50000000  0.21050800  1
  C  C41  1  0.00000000  0.50000000  0.42104900  1
  C  C42  1  0.00000000  0.00000000  0.65806100  1
  C  C43  1  0.00000000  0.00000000  0.71047500  1
  C  C44  1  0.00000000  0.50000000  0.68437000  1
  C  C45  1  0.00000000  0.00000000  0.81587200  1
  C  C46  1  0.00000000  0.00000000  0.92151800  1
  C  C47  1  0.00000000  0.00000000  0.97414300  1
  C  C48  1  0.50000000  0.00000000  0.00293200  1
  C  C49  1  0.50000000  0.00000000  0.05338300  1
  C  C50  1  0.50000000  0.00000000  0.10540300  1
  C  C51  1  0.50000000  0.00000000  0.15789700  1
  C  C52  1  0.50000000  0.00000000  0.21050800  1
  C  C53  1  0.50000000  0.00000000  0.26316300  1
  C  C54  1  0.50000000  0.00000000  0.31581100  1
  C  C55  1  0.50000000  0.00000000  0.36844800  1
  C  C56  1  0.50000000  0.00000000  0.42104900  1
  C  C57  1  0.50000000  0.00000000  0.47341000  1
  C  C58  1  0.50000000  0.00000000  0.52466300  1
  C  C59  1  0.50000000  0.00000000  0.57457900  1
  C  C60  1  0.50000000  0.00000000  0.68437000  1
  C  C61  1  0.50000000  0.00000000  0.63181700  1
  C  C62  1  0.50000000  0.00000000  0.78958200  1
  C  C63  1  0.50000000  0.00000000  0.73678000  1
  C  C64  1  0.50000000  0.00000000  0.84372000  1
  C  C65  1  0.50000000  0.00000000  0.89548800  1
  C  C66  1  0.50000000  0.00000000  0.94776200  1
  C  C67  1  0.00000000  0.50000000  0.05338300  1
  C  C68  1  0.00000000  0.50000000  0.15789700  1
  C  C69  1  0.00000000  0.50000000  0.26316300  1
  C  C70  1  0.00000000  0.50000000  0.31581100  1
  C  C71  1  0.00000000  0.50000000  0.36844800  1
  C  C72  1  0.00000000  0.50000000  0.47341000  1
  C  C73  1  0.00000000  0.50000000  0.52466300  1
  C  C74  1  0.00000000  0.50000000  0.57457900  1
  C  C75  1  0.00000000  0.50000000  0.63181700  1
  C  C76  1  0.00000000  0.50000000  0.73678000  1
  C  C77  1  0.00000000  0.00000000  0.60585900  1
  C  C78  1  0.00000000  0.00000000  0.76294400  1
  C  C79  1  0.00000000  0.50000000  0.78958200  1
  C  C80  1  0.00000000  0.50000000  0.84372000  1
  C  C81  1  0.00000000  0.50000000  0.89548800  1
  C  C82  1  0.00000000  0.50000000  0.94776200  1
  C  C83  1  0.00000000  0.00000000  0.86852100  1
