# generated using pymatgen
data_Cu2Ni2C5
_symmetry_space_group_name_H-M   'P 1'
_cell_length_a   3.34966750
_cell_length_b   3.34966750
_cell_length_c   31.03796100
_cell_angle_alpha   90.00000000
_cell_angle_beta   90.00000000
_cell_angle_gamma   119.99999004
_symmetry_Int_Tables_number   1
_chemical_formula_structural   Cu2Ni2C5
_chemical_formula_sum   'Cu2 Ni2 C5'
_cell_volume   301.59716604
_cell_formula_units_Z   1
loop_
 _symmetry_equiv_pos_site_id
 _symmetry_equiv_pos_as_xyz
  1  'x, y, z'
loop_
 _atom_site_type_symbol
 _atom_site_label
 _atom_site_symmetry_multiplicity
 _atom_site_fract_x
 _atom_site_fract_y
 _atom_site_fract_z
 _atom_site_occupancy
  C  C0  1  0.66666700  0.33333300  0.51729500  1
  C  C1  1  0.66666700  0.33333300  0.63946600  1
  C  C2  1  0.33333300  0.66666700  0.11565100  1
  C  C3  1  0.33333300  0.66666700  0.57840100  1
  C  C4  1  0.66666700  0.33333300  0.34690200  1
  Ni  Ni5  1  0.33333300  0.66666700  0.40083100  1
  Ni  Ni6  1  0.33333300  0.66666700  0.29299000  1
  Cu  Cu7  1  0.66666700  0.33333300  0.06683900  1
  Cu  Cu8  1  0.66666700  0.33333300  0.16446600  1
