# generated using pymatgen
data_Cu6Ni8C
_symmetry_space_group_name_H-M   'P 1'
_cell_length_a   5.41050100
_cell_length_b   6.90321600
_cell_length_c   12.63510000
_cell_angle_alpha   90.00000000
_cell_angle_beta   90.00000000
_cell_angle_gamma   90.00000000
_symmetry_Int_Tables_number   1
_chemical_formula_structural   Cu6Ni8C
_chemical_formula_sum   'Cu12 Ni16 C2'
_cell_volume   471.91917908
_cell_formula_units_Z   2
loop_
 _symmetry_equiv_pos_site_id
 _symmetry_equiv_pos_as_xyz
  1  'x, y, z'
loop_
 _atom_site_type_symbol
 _atom_site_label
 _atom_site_symmetry_multiplicity
 _atom_site_fract_x
 _atom_site_fract_y
 _atom_site_fract_z
 _atom_site_occupancy
  C  C0  1  0.00000000  0.50000000  0.50000000  1
  C  C1  1  0.00000000  0.00000000  0.00000000  1
  Ni  Ni2  1  0.43261100  0.00000000  0.71362800  1
  Ni  Ni3  1  0.43261100  0.50000000  0.78637200  1
  Ni  Ni4  1  0.56738900  0.00000000  0.28637200  1
  Ni  Ni5  1  0.56738900  0.50000000  0.21362800  1
  Ni  Ni6  1  0.62430500  0.00000000  0.63757200  1
  Ni  Ni7  1  0.62430500  0.50000000  0.86242800  1
  Ni  Ni8  1  0.37569500  0.00000000  0.36242800  1
  Ni  Ni9  1  0.37569500  0.50000000  0.13757200  1
  Ni  Ni10  1  0.72389400  0.17139700  0.59758500  1
  Ni  Ni11  1  0.72389400  0.32860300  0.90241500  1
  Ni  Ni12  1  0.27610600  0.17139700  0.40241500  1
  Ni  Ni13  1  0.72389400  0.67139700  0.90241500  1
  Ni  Ni14  1  0.27610600  0.82860300  0.40241500  1
  Ni  Ni15  1  0.27610600  0.67139700  0.09758500  1
  Ni  Ni16  1  0.72389400  0.82860300  0.59758500  1
  Ni  Ni17  1  0.27610600  0.32860300  0.09758500  1
  Cu  Cu18  1  0.80989600  0.30865300  0.55780600  1
  Cu  Cu19  1  0.80989600  0.19134700  0.94219400  1
  Cu  Cu20  1  0.19010400  0.30865300  0.44219400  1
  Cu  Cu21  1  0.80989600  0.80865300  0.94219400  1
  Cu  Cu22  1  0.19010400  0.69134700  0.44219400  1
  Cu  Cu23  1  0.19010400  0.80865300  0.05780600  1
  Cu  Cu24  1  0.80989600  0.69134700  0.55780600  1
  Cu  Cu25  1  0.19010400  0.19134700  0.05780600  1
  Cu  Cu26  1  0.27376700  0.00000000  0.77654800  1
  Cu  Cu27  1  0.27376700  0.50000000  0.72345200  1
  Cu  Cu28  1  0.72623300  0.00000000  0.22345200  1
  Cu  Cu29  1  0.72623300  0.50000000  0.27654800  1
