# generated using pymatgen
data_Cu5NiC24
_symmetry_space_group_name_H-M   'P 1'
_cell_length_a   7.04390339
_cell_length_b   7.04390339
_cell_length_c   14.05548400
_cell_angle_alpha   90.00000000
_cell_angle_beta   90.00000000
_cell_angle_gamma   86.97761667
_symmetry_Int_Tables_number   1
_chemical_formula_structural   Cu5NiC24
_chemical_formula_sum   'Cu10 Ni2 C48'
_cell_volume   696.41492276
_cell_formula_units_Z   2
loop_
 _symmetry_equiv_pos_site_id
 _symmetry_equiv_pos_as_xyz
  1  'x, y, z'
loop_
 _atom_site_type_symbol
 _atom_site_label
 _atom_site_symmetry_multiplicity
 _atom_site_fract_x
 _atom_site_fract_y
 _atom_site_fract_z
 _atom_site_occupancy
  C  C0  1  0.08135000  0.38591200  0.13311500  1
  C  C1  1  0.61408800  0.91865000  0.86688500  1
  C  C2  1  0.91865000  0.61408800  0.63311500  1
  C  C3  1  0.38591200  0.08135000  0.36688500  1
  Ni  Ni4  1  0.13626100  0.86373900  0.00000000  1
  Ni  Ni5  1  0.86373900  0.13626100  0.50000000  1
  Cu  Cu6  1  0.76399600  0.79100900  0.08039400  1
  Cu  Cu7  1  0.20899100  0.23600400  0.91960600  1
  Cu  Cu8  1  0.23600400  0.20899100  0.58039400  1
  Cu  Cu9  1  0.79100900  0.76399600  0.41960600  1
  Cu  Cu10  1  0.69931000  0.69931000  0.25000000  1
  Cu  Cu11  1  0.30069000  0.30069000  0.75000000  1
  Cu  Cu12  1  0.77084800  0.43335500  0.36776000  1
  Cu  Cu13  1  0.56664500  0.22915200  0.63224000  1
  Cu  Cu14  1  0.22915200  0.56664500  0.86776000  1
  Cu  Cu15  1  0.43335500  0.77084800  0.13224000  1
  C  C16  1  0.15116400  0.58748300  0.32947600  1
  C  C17  1  0.41251700  0.84883600  0.67052400  1
  C  C18  1  0.84883600  0.41251700  0.82947600  1
  C  C19  1  0.58748300  0.15116400  0.17052400  1
  C  C20  1  0.35665900  0.58259100  0.29017800  1
  C  C21  1  0.41740900  0.64334100  0.70982200  1
  C  C22  1  0.64334100  0.41740900  0.79017800  1
  C  C23  1  0.58259100  0.35665900  0.20982200  1
  C  C24  1  0.94338300  0.06347700  0.28687200  1
  C  C25  1  0.93652300  0.05661700  0.71312800  1
  C  C26  1  0.05661700  0.93652300  0.78687200  1
  C  C27  1  0.06347700  0.94338300  0.21312800  1
  C  C28  1  0.70159600  0.38526800  0.95356200  1
  C  C29  1  0.61473200  0.29840400  0.04643800  1
  C  C30  1  0.29840400  0.61473200  0.45356200  1
  C  C31  1  0.38526800  0.70159600  0.54643800  1
  C  C32  1  0.87967700  0.82518700  0.00620200  1
  C  C33  1  0.17481300  0.12032300  0.99379800  1
  C  C34  1  0.12032300  0.17481300  0.50620200  1
  C  C35  1  0.82518700  0.87967700  0.49379800  1
  C  C36  1  0.56641500  0.81195200  0.06228200  1
  C  C37  1  0.18804800  0.43358500  0.93771800  1
  C  C38  1  0.43358500  0.18804800  0.56228200  1
  C  C39  1  0.81195200  0.56641500  0.43771800  1
  C  C40  1  0.82598100  0.73690200  0.16965400  1
  C  C41  1  0.26309800  0.17401900  0.83034600  1
  C  C42  1  0.17401900  0.26309800  0.66965400  1
  C  C43  1  0.73690200  0.82598100  0.33034600  1
  C  C44  1  0.72798400  0.49508700  0.27671000  1
  C  C45  1  0.50491300  0.27201600  0.72329000  1
  C  C46  1  0.27201600  0.50491300  0.77671000  1
  C  C47  1  0.49508700  0.72798400  0.22329000  1
  C  C48  1  0.77271900  0.24444000  0.38725600  1
  C  C49  1  0.75556000  0.22728100  0.61274400  1
  C  C50  1  0.22728100  0.75556000  0.88725600  1
  C  C51  1  0.24444000  0.77271900  0.11274400  1
  C  C52  1  0.26778100  0.50775000  0.32905100  1
  C  C53  1  0.49225000  0.73221900  0.67094900  1
  C  C54  1  0.73221900  0.49225000  0.82905100  1
  C  C55  1  0.50775000  0.26778100  0.17094900  1
  C  C56  1  0.06177200  0.06177200  0.25000000  1
  C  C57  1  0.93822800  0.93822800  0.75000000  1
  C  C58  1  0.71858100  0.28141900  0.00000000  1
  C  C59  1  0.28141900  0.71858100  0.50000000  1
