# generated using pymatgen
data_CuNi3C14
_symmetry_space_group_name_H-M   'P 1'
_cell_length_a   8.14122327
_cell_length_b   8.14122327
_cell_length_c   8.14122261
_cell_angle_alpha   52.57233245
_cell_angle_beta   52.57233245
_cell_angle_gamma   52.57232932
_symmetry_Int_Tables_number   1
_chemical_formula_structural   CuNi3C14
_chemical_formula_sum   'Cu1 Ni3 C14'
_cell_volume   315.03530536
_cell_formula_units_Z   1
loop_
 _symmetry_equiv_pos_site_id
 _symmetry_equiv_pos_as_xyz
  1  'x, y, z'
loop_
 _atom_site_type_symbol
 _atom_site_label
 _atom_site_symmetry_multiplicity
 _atom_site_fract_x
 _atom_site_fract_y
 _atom_site_fract_z
 _atom_site_occupancy
  C  C0  1  0.89354500  0.89354500  0.89354500  1
  C  C1  1  0.10645500  0.10645500  0.10645500  1
  Ni  Ni2  1  0.50000000  0.50000000  0.00000000  1
  Ni  Ni3  1  0.00000000  0.50000000  0.50000000  1
  Ni  Ni4  1  0.50000000  0.00000000  0.50000000  1
  Cu  Cu5  1  0.50000000  0.50000000  0.50000000  1
  C  C6  1  0.81342700  0.41898800  0.81342700  1
  C  C7  1  0.81342700  0.81342700  0.41898800  1
  C  C8  1  0.41898800  0.81342700  0.81342700  1
  C  C9  1  0.18657300  0.58101200  0.18657300  1
  C  C10  1  0.18657300  0.18657300  0.58101200  1
  C  C11  1  0.58101200  0.18657300  0.18657300  1
  C  C12  1  0.41992300  0.82023100  0.41992300  1
  C  C13  1  0.41992300  0.41992300  0.82023100  1
  C  C14  1  0.82023100  0.41992300  0.41992300  1
  C  C15  1  0.58007700  0.17976900  0.58007700  1
  C  C16  1  0.58007700  0.58007700  0.17976900  1
  C  C17  1  0.17976900  0.58007700  0.58007700  1
