# generated using pymatgen
data_Cu12Ni2C11
_symmetry_space_group_name_H-M   'P 1'
_cell_length_a   9.37962400
_cell_length_b   9.44841100
_cell_length_c   16.88551600
_cell_angle_alpha   90.00000000
_cell_angle_beta   90.00000000
_cell_angle_gamma   90.00000000
_symmetry_Int_Tables_number   1
_chemical_formula_structural   Cu12Ni2C11
_chemical_formula_sum   'Cu48 Ni8 C44'
_cell_volume   1496.43736065
_cell_formula_units_Z   4
loop_
 _symmetry_equiv_pos_site_id
 _symmetry_equiv_pos_as_xyz
  1  'x, y, z'
loop_
 _atom_site_type_symbol
 _atom_site_label
 _atom_site_symmetry_multiplicity
 _atom_site_fract_x
 _atom_site_fract_y
 _atom_site_fract_z
 _atom_site_occupancy
  C  C0  1  0.00000000  0.00000000  0.00000000  1
  C  C1  1  0.50000000  0.00000000  0.50000000  1
  C  C2  1  0.50000000  0.50000000  0.00000000  1
  C  C3  1  0.00000000  0.50000000  0.50000000  1
  C  C4  1  0.23963300  0.56323700  0.14408100  1
  C  C5  1  0.26036700  0.43676300  0.64408100  1
  C  C6  1  0.73963300  0.93676300  0.85591900  1
  C  C7  1  0.76036700  0.06323700  0.35591900  1
  C  C8  1  0.76036700  0.43676300  0.85591900  1
  C  C9  1  0.73963300  0.56323700  0.35591900  1
  C  C10  1  0.26036700  0.06323700  0.14408100  1
  C  C11  1  0.23963300  0.93676300  0.64408100  1
  C  C12  1  0.28321000  0.81340900  0.03224400  1
  C  C13  1  0.21679000  0.18659100  0.53224400  1
  C  C14  1  0.78321000  0.68659100  0.96775600  1
  C  C15  1  0.71679000  0.31340900  0.46775600  1
  C  C16  1  0.71679000  0.18659100  0.96775600  1
  C  C17  1  0.78321000  0.81340900  0.46775600  1
  C  C18  1  0.21679000  0.31340900  0.03224400  1
  C  C19  1  0.28321000  0.68659100  0.53224400  1
  C  C20  1  0.04253000  0.58368000  0.30607400  1
  C  C21  1  0.45747000  0.41632000  0.80607400  1
  C  C22  1  0.54253000  0.91632000  0.69392600  1
  C  C23  1  0.95747000  0.08368000  0.19392600  1
  C  C24  1  0.95747000  0.41632000  0.69392600  1
  C  C25  1  0.54253000  0.58368000  0.19392600  1
  C  C26  1  0.45747000  0.08368000  0.30607400  1
  C  C27  1  0.04253000  0.91632000  0.80607400  1
  C  C28  1  0.34299000  0.80777300  0.92956700  1
  C  C29  1  0.15701000  0.19222700  0.42956700  1
  C  C30  1  0.84299000  0.69222700  0.07043300  1
  C  C31  1  0.65701000  0.30777300  0.57043300  1
  C  C32  1  0.65701000  0.19222700  0.07043300  1
  C  C33  1  0.84299000  0.80777300  0.57043300  1
  C  C34  1  0.15701000  0.30777300  0.92956700  1
  C  C35  1  0.34299000  0.69222700  0.42956700  1
  C  C36  1  0.16246400  0.76610900  0.82804600  1
  C  C37  1  0.33753600  0.23389100  0.32804600  1
  C  C38  1  0.66246400  0.73389100  0.17195400  1
  C  C39  1  0.83753600  0.26610900  0.67195400  1
  C  C40  1  0.83753600  0.23389100  0.17195400  1
  C  C41  1  0.66246400  0.76610900  0.67195400  1
  C  C42  1  0.33753600  0.26610900  0.82804600  1
  C  C43  1  0.16246400  0.73389100  0.32804600  1
  Ni  Ni44  1  0.26397100  0.77548700  0.87395600  1
  Ni  Ni45  1  0.23602900  0.22451300  0.37395600  1
  Ni  Ni46  1  0.76397100  0.72451300  0.12604400  1
  Ni  Ni47  1  0.73602900  0.27548700  0.62604400  1
  Ni  Ni48  1  0.73602900  0.22451300  0.12604400  1
  Ni  Ni49  1  0.76397100  0.77548700  0.62604400  1
  Ni  Ni50  1  0.23602900  0.27548700  0.87395600  1
  Ni  Ni51  1  0.26397100  0.72451300  0.37395600  1
  Cu  Cu52  1  0.12293100  0.83804900  0.02369000  1
  Cu  Cu53  1  0.37706900  0.16195100  0.52369000  1
  Cu  Cu54  1  0.62293100  0.66195100  0.97631000  1
  Cu  Cu55  1  0.87706900  0.33804900  0.47631000  1
  Cu  Cu56  1  0.87706900  0.16195100  0.97631000  1
  Cu  Cu57  1  0.62293100  0.83804900  0.47631000  1
  Cu  Cu58  1  0.37706900  0.33804900  0.02369000  1
  Cu  Cu59  1  0.12293100  0.66195100  0.52369000  1
  Cu  Cu60  1  0.31640600  0.65682500  0.05055500  1
  Cu  Cu61  1  0.18359400  0.34317500  0.55055500  1
  Cu  Cu62  1  0.81640600  0.84317500  0.94944500  1
  Cu  Cu63  1  0.68359400  0.15682500  0.44944500  1
  Cu  Cu64  1  0.68359400  0.34317500  0.94944500  1
  Cu  Cu65  1  0.81640600  0.65682500  0.44944500  1
  Cu  Cu66  1  0.18359400  0.15682500  0.05055500  1
  Cu  Cu67  1  0.31640600  0.84317500  0.55055500  1
  Cu  Cu68  1  0.13514700  0.42271700  0.07967300  1
  Cu  Cu69  1  0.36485300  0.57728300  0.57967300  1
  Cu  Cu70  1  0.63514700  0.07728300  0.92032700  1
  Cu  Cu71  1  0.86485300  0.92271700  0.42032700  1
  Cu  Cu72  1  0.86485300  0.57728300  0.92032700  1
  Cu  Cu73  1  0.63514700  0.42271700  0.42032700  1
  Cu  Cu74  1  0.36485300  0.92271700  0.07967300  1
  Cu  Cu75  1  0.13514700  0.07728300  0.57967300  1
  Cu  Cu76  1  0.93976100  0.99565600  0.11885900  1
  Cu  Cu77  1  0.56023900  0.00434400  0.61885900  1
  Cu  Cu78  1  0.43976100  0.50434400  0.88114100  1
  Cu  Cu79  1  0.06023900  0.49565600  0.38114100  1
  Cu  Cu80  1  0.06023900  0.00434400  0.88114100  1
  Cu  Cu81  1  0.43976100  0.99565600  0.38114100  1
  Cu  Cu82  1  0.56023900  0.49565600  0.11885900  1
  Cu  Cu83  1  0.93976100  0.50434400  0.61885900  1
  Cu  Cu84  1  0.11405700  0.52284600  0.23319200  1
  Cu  Cu85  1  0.38594300  0.47715400  0.73319200  1
  Cu  Cu86  1  0.61405700  0.97715400  0.76680800  1
  Cu  Cu87  1  0.88594300  0.02284600  0.26680800  1
  Cu  Cu88  1  0.88594300  0.47715400  0.76680800  1
  Cu  Cu89  1  0.61405700  0.52284600  0.26680800  1
  Cu  Cu90  1  0.38594300  0.02284600  0.23319200  1
  Cu  Cu91  1  0.11405700  0.97715400  0.73319200  1
  Cu  Cu92  1  0.39182400  0.63854900  0.20976400  1
  Cu  Cu93  1  0.10817600  0.36145100  0.70976400  1
  Cu  Cu94  1  0.89182400  0.86145100  0.79023600  1
  Cu  Cu95  1  0.60817600  0.13854900  0.29023600  1
  Cu  Cu96  1  0.60817600  0.36145100  0.79023600  1
  Cu  Cu97  1  0.89182400  0.63854900  0.29023600  1
  Cu  Cu98  1  0.10817600  0.13854900  0.20976400  1
  Cu  Cu99  1  0.39182400  0.86145100  0.70976400  1
