# generated using pymatgen
data_CuNi6C
_symmetry_space_group_name_H-M   'P 1'
_cell_length_a   4.65934300
_cell_length_b   5.93325100
_cell_length_c   11.39898900
_cell_angle_alpha   90.00000000
_cell_angle_beta   90.00000000
_cell_angle_gamma   90.00000000
_symmetry_Int_Tables_number   1
_chemical_formula_structural   CuNi6C
_chemical_formula_sum   'Cu2 Ni12 C2'
_cell_volume   315.12563811
_cell_formula_units_Z   2
loop_
 _symmetry_equiv_pos_site_id
 _symmetry_equiv_pos_as_xyz
  1  'x, y, z'
loop_
 _atom_site_type_symbol
 _atom_site_label
 _atom_site_symmetry_multiplicity
 _atom_site_fract_x
 _atom_site_fract_y
 _atom_site_fract_z
 _atom_site_occupancy
  Ni  Ni0  1  0.00000000  0.27337100  0.10422500  1
  Ni  Ni1  1  0.00000000  0.72662900  0.10422500  1
  Ni  Ni2  1  0.00000000  0.00000000  0.33611300  1
  Ni  Ni3  1  0.50000000  0.74671100  0.42402800  1
  Ni  Ni4  1  0.50000000  0.25328900  0.42402800  1
  Ni  Ni5  1  0.50000000  0.00000000  0.16988800  1
  Ni  Ni6  1  0.00000000  0.77337100  0.60422500  1
  Ni  Ni7  1  0.00000000  0.22662900  0.60422500  1
  Ni  Ni8  1  0.00000000  0.50000000  0.83611300  1
  Ni  Ni9  1  0.50000000  0.24671100  0.92402800  1
  Ni  Ni10  1  0.50000000  0.75328900  0.92402800  1
  Ni  Ni11  1  0.50000000  0.50000000  0.66988800  1
  Cu  Cu12  1  0.00000000  0.50000000  0.36880600  1
  Cu  Cu13  1  0.00000000  0.00000000  0.86880600  1
  C  C14  1  0.50000000  0.50000000  0.06868600  1
  C  C15  1  0.50000000  0.00000000  0.56868600  1
