# generated using pymatgen
data_Cu2Ni3C32
_symmetry_space_group_name_H-M   'P 1'
_cell_length_a   8.79049598
_cell_length_b   8.62290668
_cell_length_c   8.66422403
_cell_angle_alpha   59.98391368
_cell_angle_beta   59.47813978
_cell_angle_gamma   60.11840094
_symmetry_Int_Tables_number   1
_chemical_formula_structural   Cu2Ni3C32
_chemical_formula_sum   'Cu2 Ni3 C32'
_cell_volume   462.88289472
_cell_formula_units_Z   1
loop_
 _symmetry_equiv_pos_site_id
 _symmetry_equiv_pos_as_xyz
  1  'x, y, z'
loop_
 _atom_site_type_symbol
 _atom_site_label
 _atom_site_symmetry_multiplicity
 _atom_site_fract_x
 _atom_site_fract_y
 _atom_site_fract_z
 _atom_site_occupancy
  C  C0  1  0.75092000  0.75050900  0.74489100  1
  Ni  Ni1  1  0.11546900  0.62727800  0.63196400  1
  Ni  Ni2  1  0.38590200  0.86771500  0.87223600  1
  Ni  Ni3  1  0.94895700  0.34717300  0.35464900  1
  C  C4  1  0.55762900  0.14912500  0.14936700  1
  Cu  Cu5  1  0.98011800  0.00683400  0.00500000  1
  Cu  Cu6  1  0.52025000  0.49181000  0.49264800  1
  C  C7  1  0.25276700  0.25000200  0.54428500  1
  C  C8  1  0.24953700  0.96078500  0.24870100  1
  C  C9  1  0.24773100  0.54012400  0.96137200  1
  C  C10  1  0.74446900  0.45168300  0.05153600  1
  C  C11  1  0.74856200  0.05238200  0.74933300  1
  C  C12  1  0.75678400  0.74706900  0.44335100  1
  C  C13  1  0.07547800  0.09210700  0.35764400  1
  C  C14  1  0.07608200  0.47436500  0.09158800  1
  C  C15  1  0.08636500  0.35528300  0.47946300  1
  C  C16  1  0.18918600  0.11018400  0.75372400  1
  C  C17  1  0.42561800  0.14437000  0.41096200  1
  C  C18  1  0.32015100  0.38609800  0.55028000  1
  C  C19  1  0.18495600  0.95064300  0.11494100  1
  C  C20  1  0.31362000  0.75381800  0.38797500  1
  C  C21  1  0.57835600  0.61491900  0.99374600  1
  C  C22  1  0.31639400  0.54573400  0.75171200  1
  C  C23  1  0.77006900  0.24972200  0.06856200  1
  C  C24  1  0.57956500  0.00109500  0.80453900  1
  C  C25  1  0.41316700  0.03456900  0.14389300  1
  C  C26  1  0.18132800  0.75156200  0.95256900  1
  C  C27  1  0.71490500  0.43344000  0.25193100  1
  C  C28  1  0.41193400  0.41168400  0.03215200  1
  C  C29  1  0.72882900  0.25210900  0.58893900  1
  C  C30  1  0.76809600  0.07386400  0.90764300  1
  C  C31  1  0.73944600  0.58436600  0.42414100  1
  C  C32  1  0.58314600  0.80109300  0.60987000  1
  C  C33  1  0.77509500  0.90639700  0.24359700  1
  C  C34  1  0.92325400  0.69832900  0.49286900  1
  C  C35  1  0.91664700  0.50234400  0.88726700  1
  C  C36  1  0.91921100  0.88656200  0.69351600  1
