# generated using pymatgen
data_Cu5NiC36
_symmetry_space_group_name_H-M   'P 1'
_cell_length_a   7.59210924
_cell_length_b   7.80443610
_cell_length_c   10.31527983
_cell_angle_alpha   108.33257123
_cell_angle_beta   86.58811990
_cell_angle_gamma   92.18157620
_symmetry_Int_Tables_number   1
_chemical_formula_structural   Cu5NiC36
_chemical_formula_sum   'Cu5 Ni1 C36'
_cell_volume   579.03275398
_cell_formula_units_Z   1
loop_
 _symmetry_equiv_pos_site_id
 _symmetry_equiv_pos_as_xyz
  1  'x, y, z'
loop_
 _atom_site_type_symbol
 _atom_site_label
 _atom_site_symmetry_multiplicity
 _atom_site_fract_x
 _atom_site_fract_y
 _atom_site_fract_z
 _atom_site_occupancy
  Ni  Ni0  1  0.01849730  0.59409751  0.45137332  1
  Cu  Cu1  1  0.30068036  0.89298261  0.62174823  1
  Cu  Cu2  1  0.24056200  0.84730984  0.06970663  1
  Cu  Cu3  1  0.50149550  0.50081973  0.00467974  1
  Cu  Cu4  1  0.77077558  0.15764350  0.92868463  1
  Cu  Cu5  1  0.71293064  0.11139146  0.39388758  1
  C  C6  1  0.15707622  0.20489651  0.01389888  1
  C  C7  1  0.10941953  0.18620424  0.29273944  1
  C  C8  1  0.32844061  0.57802206  0.74888999  1
  C  C9  1  0.44008594  0.74770338  0.31633682  1
  C  C10  1  0.54912857  0.25171198  0.69429335  1
  C  C11  1  0.69091587  0.43601717  0.25577268  1
  C  C12  1  0.87801878  0.79945072  0.69948103  1
  C  C13  1  0.84584909  0.79378736  0.98297108  1
  C  C14  1  0.00542826  0.78217760  0.06877318  1
  C  C15  1  0.94831835  0.08604352  0.33757065  1
  C  C16  1  0.16127268  0.48937152  0.69479124  1
  C  C17  1  0.04872362  0.22550632  0.15620485  1
  C  C18  1  0.28983423  0.35523147  0.02864195  1
  C  C19  1  0.15031800  0.36712165  0.39407097  1
  C  C20  1  0.39287314  0.73734536  0.69299554  1
  C  C21  1  0.28049594  0.77220442  0.42088887  1
  C  C22  1  0.34822969  0.64720777  0.90684302  1
  C  C23  1  0.38513438  0.12511790  0.66142156  1
  C  C24  1  0.23899516  0.01515155  0.96415162  1
  C  C25  1  0.38590817  0.71746834  0.16908940  1
  C  C26  1  0.26061682  0.05246129  0.24412221  1
  C  C27  1  0.49463991  0.44403197  0.69181161  1
  C  C28  1  0.52129948  0.56267325  0.31557398  1
  C  C29  1  0.75757819  0.96175780  0.75247708  1
  C  C30  1  0.60713452  0.28081322  0.84075117  1
  C  C31  1  0.76665012  0.98431765  0.02816759  1
  C  C32  1  0.58005999  0.89721513  0.36257342  1
  C  C33  1  0.66884796  0.36170310  0.09945059  1
  C  C34  1  0.69925047  0.19178881  0.58606375  1
  C  C35  1  0.65154031  0.28583952  0.32150157  1
  C  C36  1  0.80780156  0.63272530  0.59530775  1
  C  C37  1  0.71254653  0.64891313  0.98452157  1
  C  C38  1  0.93844206  0.75725692  0.83308879  1
  C  C39  1  0.85664156  0.54616372  0.29840017  1
  C  C40  1  0.05328009  0.84232336  0.62418380  1
  C  C41  1  0.00676182  0.21969733  0.92084872  1
