# generated using pymatgen
data_Cu3(NiC7)2
_symmetry_space_group_name_H-M   'P 1'
_cell_length_a   5.14707900
_cell_length_b   10.57965700
_cell_length_c   17.87180700
_cell_angle_alpha   90.00000000
_cell_angle_beta   90.00000000
_cell_angle_gamma   90.00000000
_symmetry_Int_Tables_number   1
_chemical_formula_structural   Cu3(NiC7)2
_chemical_formula_sum   'Cu12 Ni8 C56'
_cell_volume   973.19728272
_cell_formula_units_Z   4
loop_
 _symmetry_equiv_pos_site_id
 _symmetry_equiv_pos_as_xyz
  1  'x, y, z'
loop_
 _atom_site_type_symbol
 _atom_site_label
 _atom_site_symmetry_multiplicity
 _atom_site_fract_x
 _atom_site_fract_y
 _atom_site_fract_z
 _atom_site_occupancy
  C  C0  1  0.09649800  0.25000000  0.24967500  1
  C  C1  1  0.90350200  0.75000000  0.75032500  1
  C  C2  1  0.40350200  0.75000000  0.74967500  1
  C  C3  1  0.59649800  0.25000000  0.25032500  1
  C  C4  1  0.23533600  0.25000000  0.69001600  1
  C  C5  1  0.76466400  0.75000000  0.30998400  1
  C  C6  1  0.26466400  0.75000000  0.19001600  1
  C  C7  1  0.73533600  0.25000000  0.80998400  1
  Ni  Ni8  1  0.24691100  0.07220400  0.52718600  1
  Ni  Ni9  1  0.75308900  0.92779600  0.47281400  1
  Ni  Ni10  1  0.25308900  0.92779600  0.02718600  1
  Ni  Ni11  1  0.75308900  0.57220400  0.47281400  1
  Ni  Ni12  1  0.74691100  0.07220400  0.97281400  1
  Ni  Ni13  1  0.24691100  0.42779600  0.52718600  1
  Ni  Ni14  1  0.74691100  0.42779600  0.97281400  1
  Ni  Ni15  1  0.25308900  0.57220400  0.02718600  1
  Cu  Cu16  1  0.28117800  0.52627400  0.34457300  1
  Cu  Cu17  1  0.71882200  0.47372600  0.65542700  1
  Cu  Cu18  1  0.21882200  0.47372600  0.84457300  1
  Cu  Cu19  1  0.71882200  0.02627400  0.65542700  1
  Cu  Cu20  1  0.78117800  0.52627400  0.15542700  1
  Cu  Cu21  1  0.28117800  0.97372600  0.34457300  1
  Cu  Cu22  1  0.78117800  0.97372600  0.15542700  1
  Cu  Cu23  1  0.21882200  0.02627400  0.84457300  1
  Cu  Cu24  1  0.28184700  0.25000000  0.05545800  1
  Cu  Cu25  1  0.71815300  0.75000000  0.94454200  1
  Cu  Cu26  1  0.21815300  0.75000000  0.55545800  1
  Cu  Cu27  1  0.78184700  0.25000000  0.44454200  1
  C  C28  1  0.08234200  0.62334800  0.28812500  1
  C  C29  1  0.91765800  0.37665200  0.71187500  1
  C  C30  1  0.41765800  0.37665200  0.78812500  1
  C  C31  1  0.91765800  0.12334800  0.71187500  1
  C  C32  1  0.58234200  0.62334800  0.21187500  1
  C  C33  1  0.08234200  0.87665200  0.28812500  1
  C  C34  1  0.58234200  0.87665200  0.21187500  1
  C  C35  1  0.41765800  0.12334800  0.78812500  1
  C  C36  1  0.07903200  0.01152100  0.42803000  1
  C  C37  1  0.92096800  0.98847900  0.57197000  1
  C  C38  1  0.42096800  0.98847900  0.92803000  1
  C  C39  1  0.92096800  0.51152100  0.57197000  1
  C  C40  1  0.57903200  0.01152100  0.07197000  1
  C  C41  1  0.07903200  0.48847900  0.42803000  1
  C  C42  1  0.57903200  0.48847900  0.07197000  1
  C  C43  1  0.42096800  0.51152100  0.92803000  1
  C  C44  1  0.35207800  0.11578300  0.29644000  1
  C  C45  1  0.64792200  0.88421700  0.70356000  1
  C  C46  1  0.14792200  0.88421700  0.79644000  1
  C  C47  1  0.64792200  0.61578300  0.70356000  1
  C  C48  1  0.85207800  0.11578300  0.20356000  1
  C  C49  1  0.35207800  0.38421700  0.29644000  1
  C  C50  1  0.85207800  0.38421700  0.20356000  1
  C  C51  1  0.14792200  0.61578300  0.79644000  1
  C  C52  1  0.06829700  0.25000000  0.50696300  1
  C  C53  1  0.93170300  0.75000000  0.49303700  1
  C  C54  1  0.43170300  0.75000000  0.00696300  1
  C  C55  1  0.56829700  0.25000000  0.99303700  1
  C  C56  1  0.35683500  0.25000000  0.15073000  1
  C  C57  1  0.64316500  0.75000000  0.84927000  1
  C  C58  1  0.14316500  0.75000000  0.65073000  1
  C  C59  1  0.85683500  0.25000000  0.34927000  1
  C  C60  1  0.07970200  0.11302400  0.03497100  1
  C  C61  1  0.92029800  0.88697600  0.96502900  1
  C  C62  1  0.42029800  0.88697600  0.53497100  1
  C  C63  1  0.92029800  0.61302400  0.96502900  1
  C  C64  1  0.57970200  0.11302400  0.46502900  1
  C  C65  1  0.07970200  0.38697600  0.03497100  1
  C  C66  1  0.57970200  0.38697600  0.46502900  1
  C  C67  1  0.42029800  0.61302400  0.53497100  1
  C  C68  1  0.07003700  0.61205500  0.12477100  1
  C  C69  1  0.92996300  0.38794500  0.87522900  1
  C  C70  1  0.42996300  0.38794500  0.62477100  1
  C  C71  1  0.92996300  0.11205500  0.87522900  1
  C  C72  1  0.57003700  0.61205500  0.37522900  1
  C  C73  1  0.07003700  0.88794500  0.12477100  1
  C  C74  1  0.57003700  0.88794500  0.37522900  1
  C  C75  1  0.42996300  0.11205500  0.62477100  1
