# generated using pymatgen
data_Cu(NiC5)2
_symmetry_space_group_name_H-M   'P 1'
_cell_length_a   12.32024321
_cell_length_b   12.32024321
_cell_length_c   12.32024321
_cell_angle_alpha   146.51006387
_cell_angle_beta   119.12759619
_cell_angle_gamma   71.29238205
_symmetry_Int_Tables_number   1
_chemical_formula_structural   Cu(NiC5)2
_chemical_formula_sum   'Cu4 Ni8 C40'
_cell_volume   887.19645810
_cell_formula_units_Z   4
loop_
 _symmetry_equiv_pos_site_id
 _symmetry_equiv_pos_as_xyz
  1  'x, y, z'
loop_
 _atom_site_type_symbol
 _atom_site_label
 _atom_site_symmetry_multiplicity
 _atom_site_fract_x
 _atom_site_fract_y
 _atom_site_fract_z
 _atom_site_occupancy
  Ni  Ni0  1  0.73460400  0.68992700  0.11297800  1
  Ni  Ni1  1  0.42305200  0.81007300  0.54467800  1
  Ni  Ni2  1  0.76539600  0.87837400  0.95532200  1
  Ni  Ni3  1  0.07694800  0.62162600  0.38702200  1
  Ni  Ni4  1  0.26539600  0.31007300  0.88702200  1
  Ni  Ni5  1  0.57694800  0.18992700  0.45532200  1
  Ni  Ni6  1  0.23460400  0.12162600  0.04467800  1
  Ni  Ni7  1  0.92305200  0.37837400  0.61297800  1
  Cu  Cu8  1  0.32632400  0.75000000  0.07632400  1
  Cu  Cu9  1  0.17367600  0.25000000  0.42367600  1
  Cu  Cu10  1  0.67367600  0.25000000  0.92367600  1
  Cu  Cu11  1  0.82632400  0.75000000  0.57632400  1
  C  C12  1  0.41740100  0.66740100  0.75000000  1
  C  C13  1  0.08259900  0.83259900  0.25000000  1
  C  C14  1  0.58259900  0.33259900  0.25000000  1
  C  C15  1  0.91740100  0.16740100  0.75000000  1
  C  C16  1  0.57185900  0.75000000  0.32185900  1
  C  C17  1  0.92814100  0.25000000  0.17814100  1
  C  C18  1  0.42814100  0.25000000  0.67814100  1
  C  C19  1  0.07185900  0.75000000  0.82185900  1
  C  C20  1  0.64061400  0.90963600  0.56995200  1
  C  C21  1  0.66031600  0.59036400  0.23097900  1
  C  C22  1  0.85938600  0.42933700  0.26902100  1
  C  C23  1  0.83968400  0.07066300  0.93004800  1
  C  C24  1  0.35938600  0.09036400  0.43004800  1
  C  C25  1  0.33968400  0.40963600  0.76902100  1
  C  C26  1  0.14061400  0.57066300  0.73097900  1
  C  C27  1  0.16031600  0.92933700  0.06995200  1
  C  C28  1  0.55906800  0.83490200  0.27129600  1
  C  C29  1  0.43639400  0.66509800  0.22416600  1
  C  C30  1  0.94093200  0.21222800  0.27583400  1
  C  C31  1  0.06360600  0.28777200  0.22870400  1
  C  C32  1  0.44093200  0.16509800  0.72870400  1
  C  C33  1  0.56360600  0.33490200  0.77583400  1
  C  C34  1  0.05906800  0.78777200  0.72416600  1
  C  C35  1  0.93639400  0.71222800  0.77129600  1
  C  C36  1  0.39782000  0.82073600  0.98593200  1
  C  C37  1  0.16519600  0.67926400  0.07708400  1
  C  C38  1  0.10218000  0.08811100  0.42291600  1
  C  C39  1  0.33480400  0.41188900  0.51406800  1
  C  C40  1  0.60218000  0.17926400  0.01406800  1
  C  C41  1  0.83480400  0.32073600  0.92291600  1
  C  C42  1  0.89782000  0.91188900  0.57708400  1
  C  C43  1  0.66519600  0.58811100  0.48593200  1
  C  C44  1  0.58084300  0.65918900  0.80435200  1
  C  C45  1  0.14516300  0.84081100  0.42165300  1
  C  C46  1  0.91915700  0.72351000  0.07834700  1
  C  C47  1  0.35483700  0.77649000  0.69564800  1
  C  C48  1  0.41915700  0.34081100  0.19564800  1
  C  C49  1  0.85483700  0.15918900  0.57834700  1
  C  C50  1  0.08084300  0.27649000  0.92165300  1
  C  C51  1  0.64516300  0.22351000  0.30435200  1
