# generated using pymatgen
data_CuNiC12
_symmetry_space_group_name_H-M   'P 1'
_cell_length_a   14.45863970
_cell_length_b   11.94023379
_cell_length_c   11.90717458
_cell_angle_alpha   74.64448375
_cell_angle_beta   52.78193830
_cell_angle_gamma   52.57357794
_symmetry_Int_Tables_number   1
_chemical_formula_structural   CuNiC12
_chemical_formula_sum   'Cu4 Ni4 C48'
_cell_volume   1282.70775333
_cell_formula_units_Z   4
loop_
 _symmetry_equiv_pos_site_id
 _symmetry_equiv_pos_as_xyz
  1  'x, y, z'
loop_
 _atom_site_type_symbol
 _atom_site_label
 _atom_site_symmetry_multiplicity
 _atom_site_fract_x
 _atom_site_fract_y
 _atom_site_fract_z
 _atom_site_occupancy
  Ni  Ni0  1  0.75370000  0.75370000  0.24630000  1
  Ni  Ni1  1  0.00370000  0.00370000  0.49630000  1
  Ni  Ni2  1  0.49630000  0.49630000  0.00370000  1
  Ni  Ni3  1  0.24630000  0.24630000  0.75370000  1
  Cu  Cu4  1  0.25000000  0.25000000  0.25000000  1
  Cu  Cu5  1  0.00000000  0.00000000  0.00000000  1
  Cu  Cu6  1  0.75000000  0.75000000  0.75000000  1
  Cu  Cu7  1  0.50000000  0.50000000  0.50000000  1
  C  C8  1  0.09232800  0.65597300  0.26663800  1
  C  C9  1  0.98506100  0.26663800  0.65597300  1
  C  C10  1  0.65597300  0.09232800  0.98506100  1
  C  C11  1  0.26663800  0.98506100  0.09232800  1
  C  C12  1  0.15767200  0.59402700  0.98336200  1
  C  C13  1  0.26493900  0.98336200  0.59402700  1
  C  C14  1  0.59402700  0.15767200  0.26493900  1
  C  C15  1  0.98336200  0.26493900  0.15767200  1
  C  C16  1  0.01460800  0.74059100  0.75827000  1
  C  C17  1  0.48653100  0.75827000  0.74059100  1
  C  C18  1  0.74059100  0.01460800  0.48653100  1
  C  C19  1  0.75827000  0.48653100  0.01460800  1
  C  C20  1  0.23539200  0.50940900  0.49173000  1
  C  C21  1  0.76346900  0.49173000  0.50940900  1
  C  C22  1  0.50940900  0.23539200  0.76346900  1
  C  C23  1  0.49173000  0.76346900  0.23539200  1
  C  C24  1  0.03764100  0.04289100  0.71741000  1
  C  C25  1  0.71741000  0.20205800  0.03764100  1
  C  C26  1  0.04289100  0.03764100  0.20205800  1
  C  C27  1  0.20205800  0.71741000  0.04289100  1
  C  C28  1  0.21235900  0.20710900  0.53259000  1
  C  C29  1  0.04794200  0.53259000  0.20710900  1
  C  C30  1  0.20710900  0.21235900  0.04794200  1
  C  C31  1  0.53259000  0.04794200  0.21235900  1
  C  C32  1  0.70699600  0.71179800  0.54946500  1
  C  C33  1  0.03174100  0.54946500  0.71179800  1
  C  C34  1  0.71179800  0.70699600  0.03174100  1
  C  C35  1  0.54946500  0.03174100  0.70699600  1
  C  C36  1  0.54300400  0.53820200  0.70053500  1
  C  C37  1  0.21825900  0.70053500  0.53820200  1
  C  C38  1  0.53820200  0.54300400  0.21825900  1
  C  C39  1  0.70053500  0.21825900  0.54300400  1
  C  C40  1  0.80952900  0.93976900  0.77786600  1
  C  C41  1  0.47283600  0.77786600  0.93976900  1
  C  C42  1  0.93976900  0.80952900  0.47283600  1
  C  C43  1  0.77786600  0.47283600  0.80952900  1
  C  C44  1  0.97490400  0.78349200  0.96319700  1
  C  C45  1  0.27840700  0.96319700  0.78349200  1
  C  C46  1  0.78349200  0.97490400  0.27840700  1
  C  C47  1  0.96319700  0.27840700  0.97490400  1
  C  C48  1  0.27509600  0.46650800  0.28680300  1
  C  C49  1  0.97159300  0.28680300  0.46650800  1
  C  C50  1  0.46650800  0.27509600  0.97159300  1
  C  C51  1  0.28680300  0.97159300  0.27509600  1
  C  C52  1  0.47213400  0.77716400  0.44047100  1
  C  C53  1  0.31023100  0.44047100  0.77716400  1
  C  C54  1  0.77716400  0.47213400  0.31023100  1
  C  C55  1  0.44047100  0.31023100  0.47213400  1
