# generated using pymatgen
data_Cu2Ni5C16
_symmetry_space_group_name_H-M   'P 1'
_cell_length_a   6.03317268
_cell_length_b   6.03317268
_cell_length_c   25.19068900
_cell_angle_alpha   90.00000000
_cell_angle_beta   90.00000000
_cell_angle_gamma   120.00000743
_symmetry_Int_Tables_number   1
_chemical_formula_structural   Cu2Ni5C16
_chemical_formula_sum   'Cu4 Ni10 C32'
_cell_volume   794.07615798
_cell_formula_units_Z   2
loop_
 _symmetry_equiv_pos_site_id
 _symmetry_equiv_pos_as_xyz
  1  'x, y, z'
loop_
 _atom_site_type_symbol
 _atom_site_label
 _atom_site_symmetry_multiplicity
 _atom_site_fract_x
 _atom_site_fract_y
 _atom_site_fract_z
 _atom_site_occupancy
  Ni  Ni0  1  0.33333300  0.66666700  0.54247900  1
  Ni  Ni1  1  0.66666700  0.33333300  0.45752100  1
  Ni  Ni2  1  0.66666700  0.33333300  0.04247900  1
  Ni  Ni3  1  0.33333300  0.66666700  0.95752100  1
  Ni  Ni4  1  0.00000000  0.00000000  0.13832000  1
  Ni  Ni5  1  0.00000000  0.00000000  0.86168000  1
  Ni  Ni6  1  0.00000000  0.00000000  0.63832000  1
  Ni  Ni7  1  0.00000000  0.00000000  0.36168000  1
  Ni  Ni8  1  0.33333300  0.66666700  0.25000000  1
  Ni  Ni9  1  0.66666700  0.33333300  0.75000000  1
  Cu  Cu10  1  0.33333300  0.66666700  0.10371200  1
  Cu  Cu11  1  0.66666700  0.33333300  0.89628800  1
  Cu  Cu12  1  0.66666700  0.33333300  0.60371200  1
  Cu  Cu13  1  0.33333300  0.66666700  0.39628800  1
  C  C14  1  0.00000000  0.00000000  0.00000000  1
  C  C15  1  0.00000000  0.00000000  0.50000000  1
  C  C16  1  0.33333300  0.66666700  0.68118500  1
  C  C17  1  0.66666700  0.33333300  0.31881500  1
  C  C18  1  0.66666700  0.33333300  0.18118500  1
  C  C19  1  0.33333300  0.66666700  0.81881500  1
  C  C20  1  0.50544600  0.01089200  0.15841900  1
  C  C21  1  0.49455400  0.98910800  0.84158100  1
  C  C22  1  0.98910800  0.49455400  0.15841900  1
  C  C23  1  0.49455400  0.98910800  0.65841900  1
  C  C24  1  0.01089200  0.50544600  0.84158100  1
  C  C25  1  0.50544600  0.01089200  0.34158100  1
  C  C26  1  0.50544600  0.49455400  0.15841900  1
  C  C27  1  0.01089200  0.50544600  0.65841900  1
  C  C28  1  0.49455400  0.50544600  0.84158100  1
  C  C29  1  0.98910800  0.49455400  0.34158100  1
  C  C30  1  0.49455400  0.50544600  0.65841900  1
  C  C31  1  0.50544600  0.49455400  0.34158100  1
  C  C32  1  0.16219600  0.32439200  0.05072900  1
  C  C33  1  0.83780400  0.67560800  0.94927100  1
  C  C34  1  0.67560800  0.83780400  0.05072900  1
  C  C35  1  0.83780400  0.67560800  0.55072900  1
  C  C36  1  0.32439200  0.16219600  0.94927100  1
  C  C37  1  0.16219600  0.32439200  0.44927100  1
  C  C38  1  0.16219600  0.83780400  0.05072900  1
  C  C39  1  0.32439200  0.16219600  0.55072900  1
  C  C40  1  0.83780400  0.16219600  0.94927100  1
  C  C41  1  0.67560800  0.83780400  0.44927100  1
  C  C42  1  0.83780400  0.16219600  0.55072900  1
  C  C43  1  0.16219600  0.83780400  0.44927100  1
  C  C44  1  0.33333300  0.66666700  0.75000000  1
  C  C45  1  0.66666700  0.33333300  0.25000000  1
