# generated using pymatgen
data_CuNiC7
_symmetry_space_group_name_H-M   'P 1'
_cell_length_a   3.97964600
_cell_length_b   11.60537200
_cell_length_c   16.91957000
_cell_angle_alpha   90.00000000
_cell_angle_beta   90.00000000
_cell_angle_gamma   90.00000000
_symmetry_Int_Tables_number   1
_chemical_formula_structural   CuNiC7
_chemical_formula_sum   'Cu4 Ni4 C28'
_cell_volume   781.43494694
_cell_formula_units_Z   4
loop_
 _symmetry_equiv_pos_site_id
 _symmetry_equiv_pos_as_xyz
  1  'x, y, z'
loop_
 _atom_site_type_symbol
 _atom_site_label
 _atom_site_symmetry_multiplicity
 _atom_site_fract_x
 _atom_site_fract_y
 _atom_site_fract_z
 _atom_site_occupancy
  C  C0  1  0.25000000  0.13544000  0.40810600  1
  C  C1  1  0.25000000  0.63544000  0.09189400  1
  C  C2  1  0.75000000  0.86456000  0.59189400  1
  C  C3  1  0.75000000  0.36456000  0.90810600  1
  C  C4  1  0.25000000  0.48038800  0.32146400  1
  C  C5  1  0.25000000  0.98038800  0.17853600  1
  C  C6  1  0.75000000  0.51961200  0.67853600  1
  C  C7  1  0.75000000  0.01961200  0.82146400  1
  Ni  Ni8  1  0.25000000  0.19544800  0.64116700  1
  Ni  Ni9  1  0.25000000  0.69544800  0.85883300  1
  Ni  Ni10  1  0.75000000  0.80455200  0.35883300  1
  Ni  Ni11  1  0.75000000  0.30455200  0.14116700  1
  Cu  Cu12  1  0.25000000  0.59501400  0.49689500  1
  Cu  Cu13  1  0.25000000  0.09501400  0.00310500  1
  Cu  Cu14  1  0.75000000  0.40498600  0.50310500  1
  Cu  Cu15  1  0.75000000  0.90498600  0.99689500  1
  C  C16  1  0.25000000  0.68235900  0.61681300  1
  C  C17  1  0.25000000  0.18235900  0.88318700  1
  C  C18  1  0.75000000  0.31764100  0.38318700  1
  C  C19  1  0.75000000  0.81764100  0.11681300  1
  C  C20  1  0.25000000  0.39878000  0.57353900  1
  C  C21  1  0.25000000  0.89878000  0.92646100  1
  C  C22  1  0.75000000  0.60122000  0.42646100  1
  C  C23  1  0.75000000  0.10122000  0.07353900  1
  C  C24  1  0.25000000  0.88606100  0.46215100  1
  C  C25  1  0.25000000  0.38606100  0.03784900  1
  C  C26  1  0.75000000  0.11393900  0.53784900  1
  C  C27  1  0.75000000  0.61393900  0.96215100  1
  C  C28  1  0.25000000  0.48647300  0.80581300  1
  C  C29  1  0.25000000  0.98647300  0.69418700  1
  C  C30  1  0.75000000  0.51352700  0.19418700  1
  C  C31  1  0.75000000  0.01352700  0.30581300  1
  C  C32  1  0.25000000  0.73970900  0.27019200  1
  C  C33  1  0.25000000  0.23970900  0.22980800  1
  C  C34  1  0.75000000  0.26029100  0.72980800  1
  C  C35  1  0.75000000  0.76029100  0.77019200  1
