# generated using pymatgen
data_CuNiC8
_symmetry_space_group_name_H-M   'P 1'
_cell_length_a   8.41448994
_cell_length_b   8.41101570
_cell_length_c   8.37593150
_cell_angle_alpha   90.00000000
_cell_angle_beta   90.00000000
_cell_angle_gamma   90.00000000
_symmetry_Int_Tables_number   1
_chemical_formula_structural   CuNiC8
_chemical_formula_sum   'Cu4 Ni4 C32'
_cell_volume   592.80158493
_cell_formula_units_Z   4
loop_
 _symmetry_equiv_pos_site_id
 _symmetry_equiv_pos_as_xyz
  1  'x, y, z'
loop_
 _atom_site_type_symbol
 _atom_site_label
 _atom_site_symmetry_multiplicity
 _atom_site_fract_x
 _atom_site_fract_y
 _atom_site_fract_z
 _atom_site_occupancy
  Ni  Ni0  1  -0.00000000  0.50000000  0.50000000  1
  Ni  Ni1  1  0.50000000  0.50000000  0.00000000  1
  Ni  Ni2  1  0.50000000  -0.00000000  0.00000000  1
  Ni  Ni3  1  -0.00000000  -0.00000000  0.50000000  1
  Cu  Cu4  1  0.50000000  -0.00000000  0.50000000  1
  Cu  Cu5  1  -0.00000000  0.50000000  0.00000000  1
  Cu  Cu6  1  -0.00000000  -0.00000000  0.00000000  1
  Cu  Cu7  1  0.50000000  0.50000000  0.50000000  1
  C  C8  1  0.25000000  0.25000000  0.25000000  1
  C  C9  1  0.75000000  0.75000000  0.25000000  1
  C  C10  1  0.75000000  0.25000000  0.75000000  1
  C  C11  1  0.25000000  0.75000000  0.75000000  1
  C  C12  1  0.75000000  0.75000000  0.75000000  1
  C  C13  1  0.25000000  0.25000000  0.75000000  1
  C  C14  1  0.25000000  0.75000000  0.25000000  1
  C  C15  1  0.75000000  0.25000000  0.25000000  1
  C  C16  1  0.98480901  0.22863109  0.27452977  1
  C  C17  1  0.01519099  0.77136891  0.27452977  1
  C  C18  1  0.01519099  0.22863109  0.72547023  1
  C  C19  1  0.98480901  0.77136891  0.72547023  1
  C  C20  1  0.26017232  0.98512526  0.21548482  1
  C  C21  1  0.26017232  0.01487474  0.78451518  1
  C  C22  1  0.73982768  0.01487474  0.21548482  1
  C  C23  1  0.73982768  0.98512526  0.78451518  1
  C  C24  1  0.19895311  0.28297860  0.98557434  1
  C  C25  1  0.80104689  0.28297860  0.01442566  1
  C  C26  1  0.19895311  0.71702140  0.01442566  1
  C  C27  1  0.80104689  0.71702140  0.98557434  1
  C  C28  1  0.51519099  0.27136891  0.22547023  1
  C  C29  1  0.48480901  0.72863109  0.22547023  1
  C  C30  1  0.48480901  0.27136891  0.77452977  1
  C  C31  1  0.51519099  0.72863109  0.77452977  1
  C  C32  1  0.23982768  0.51487474  0.28451518  1
  C  C33  1  0.23982768  0.48512526  0.71548482  1
  C  C34  1  0.76017232  0.48512526  0.28451518  1
  C  C35  1  0.76017232  0.51487474  0.71548482  1
  C  C36  1  0.30104689  0.21702140  0.51442566  1
  C  C37  1  0.69895311  0.21702140  0.48557434  1
  C  C38  1  0.30104689  0.78297860  0.48557434  1
  C  C39  1  0.69895311  0.78297860  0.51442566  1
