# generated using pymatgen
data_Cu4NiC10
_symmetry_space_group_name_H-M   'P 1'
_cell_length_a   13.94785535
_cell_length_b   13.94785535
_cell_length_c   13.94785535
_cell_angle_alpha   164.07998451
_cell_angle_beta   164.07998451
_cell_angle_gamma   22.58793876
_symmetry_Int_Tables_number   1
_chemical_formula_structural   Cu4NiC10
_chemical_formula_sum   'Cu4 Ni1 C10'
_cell_volume   204.11532175
_cell_formula_units_Z   1
loop_
 _symmetry_equiv_pos_site_id
 _symmetry_equiv_pos_as_xyz
  1  'x, y, z'
loop_
 _atom_site_type_symbol
 _atom_site_label
 _atom_site_symmetry_multiplicity
 _atom_site_fract_x
 _atom_site_fract_y
 _atom_site_fract_z
 _atom_site_occupancy
  Ni  Ni0  1  0.00000000  0.00000000  0.00000000  1
  Cu  Cu1  1  0.39767800  0.39767800  0.00000000  1
  Cu  Cu2  1  0.79922500  0.79922500  0.00000000  1
  Cu  Cu3  1  0.20077500  0.20077500  0.00000000  1
  Cu  Cu4  1  0.60232200  0.60232200  0.00000000  1
  C  C5  1  0.05213700  0.55213700  0.50000000  1
  C  C6  1  0.25000000  0.75000000  0.50000000  1
  C  C7  1  0.65087800  0.15087800  0.50000000  1
  C  C8  1  0.44786300  0.94786300  0.50000000  1
  C  C9  1  0.84912200  0.34912200  0.50000000  1
  C  C10  1  0.94786300  0.44786300  0.50000000  1
  C  C11  1  0.15087800  0.65087800  0.50000000  1
  C  C12  1  0.55213700  0.05213700  0.50000000  1
  C  C13  1  0.34912200  0.84912200  0.50000000  1
  C  C14  1  0.75000000  0.25000000  0.50000000  1
