# generated using pymatgen
data_Cu2NiC8
_symmetry_space_group_name_H-M   'P 1'
_cell_length_a   9.21492300
_cell_length_b   10.51164100
_cell_length_c   10.85026743
_cell_angle_alpha   86.00896390
_cell_angle_beta   90.00000000
_cell_angle_gamma   90.00000000
_symmetry_Int_Tables_number   1
_chemical_formula_structural   Cu2NiC8
_chemical_formula_sum   'Cu12 Ni6 C48'
_cell_volume   1048.45117034
_cell_formula_units_Z   6
loop_
 _symmetry_equiv_pos_site_id
 _symmetry_equiv_pos_as_xyz
  1  'x, y, z'
loop_
 _atom_site_type_symbol
 _atom_site_label
 _atom_site_symmetry_multiplicity
 _atom_site_fract_x
 _atom_site_fract_y
 _atom_site_fract_z
 _atom_site_occupancy
  C  C0  1  0.44888500  0.83278400  0.57415300  1
  C  C1  1  0.94366000  0.50000000  0.75000000  1
  C  C2  1  0.44888500  0.16721600  0.92584700  1
  C  C3  1  0.05634000  0.50000000  0.25000000  1
  C  C4  1  0.55111500  0.16721600  0.42584700  1
  C  C5  1  0.55111500  0.83278400  0.07415300  1
  Ni  Ni6  1  0.92933700  0.19851600  0.40986300  1
  Ni  Ni7  1  0.07066300  0.80148400  0.59013700  1
  Ni  Ni8  1  0.43245700  0.50000000  0.25000000  1
  Ni  Ni9  1  0.92933700  0.80148400  0.09013700  1
  Ni  Ni10  1  0.56754300  0.50000000  0.75000000  1
  Ni  Ni11  1  0.07066300  0.19851600  0.90986300  1
  Cu  Cu12  1  0.20250300  0.82968500  0.29343200  1
  Cu  Cu13  1  0.75661200  0.84280300  0.38089600  1
  Cu  Cu14  1  0.24338800  0.84280300  0.88089600  1
  Cu  Cu15  1  0.79749700  0.82968500  0.79343200  1
  Cu  Cu16  1  0.29405200  0.51561900  0.96159900  1
  Cu  Cu17  1  0.75661200  0.15719700  0.11910400  1
  Cu  Cu18  1  0.70594800  0.51561900  0.46159900  1
  Cu  Cu19  1  0.24338800  0.15719700  0.61910400  1
  Cu  Cu20  1  0.29405200  0.48438100  0.53840100  1
  Cu  Cu21  1  0.70594800  0.48438100  0.03840100  1
  Cu  Cu22  1  0.79749700  0.17031500  0.70656800  1
  Cu  Cu23  1  0.20250300  0.17031500  0.20656800  1
  C  C24  1  0.77393600  0.79753500  0.96858300  1
  C  C25  1  0.76875400  0.16479300  0.29443600  1
  C  C26  1  0.87603700  0.00000000  0.75000000  1
  C  C27  1  0.89076300  0.48731500  0.10452300  1
  C  C28  1  0.39105800  0.04971100  0.56656200  1
  C  C29  1  0.93804700  0.72899700  0.71415700  1
  C  C30  1  0.35896000  0.69335600  0.94240200  1
  C  C31  1  0.10923700  0.48731500  0.60452300  1
  C  C32  1  0.72365900  0.52653200  0.86504700  1
  C  C33  1  0.39105800  0.95028900  0.93343800  1
  C  C34  1  0.72365900  0.47346800  0.63495300  1
  C  C35  1  0.44019100  0.42348000  0.87988600  1
  C  C36  1  0.94005000  0.14251200  0.04285400  1
  C  C37  1  0.06195300  0.72899700  0.21415700  1
  C  C38  1  0.64104000  0.30664400  0.05759800  1
  C  C39  1  0.35896000  0.30664400  0.55759800  1
  C  C40  1  0.93804700  0.27100300  0.78584300  1
  C  C41  1  0.60894200  0.95028900  0.43343800  1
  C  C42  1  0.22606400  0.79753500  0.46858300  1
  C  C43  1  0.55980900  0.57652000  0.12011400  1
  C  C44  1  0.38707400  0.18719200  0.27353100  1
  C  C45  1  0.27634100  0.47346800  0.13495300  1
  C  C46  1  0.05995000  0.14251200  0.54285400  1
  C  C47  1  0.27634100  0.52653200  0.36504700  1
  C  C48  1  0.89076300  0.51268500  0.39547700  1
  C  C49  1  0.55980900  0.42348000  0.37988600  1
  C  C50  1  0.10923700  0.51268500  0.89547700  1
  C  C51  1  0.61292600  0.18719200  0.77353100  1
  C  C52  1  0.61292600  0.81280800  0.72646900  1
  C  C53  1  0.05995000  0.85748800  0.95714600  1
  C  C54  1  0.06195300  0.27100300  0.28584300  1
  C  C55  1  0.77393600  0.20246500  0.53141700  1
  C  C56  1  0.12396300  0.00000000  0.25000000  1
  C  C57  1  0.23124600  0.16479300  0.79443600  1
  C  C58  1  0.60894200  0.04971100  0.06656200  1
  C  C59  1  0.94005000  0.85748800  0.45714600  1
  C  C60  1  0.22606400  0.20246500  0.03141700  1
  C  C61  1  0.76875400  0.83520700  0.20556400  1
  C  C62  1  0.44019100  0.57652000  0.62011400  1
  C  C63  1  0.64104000  0.69335600  0.44240200  1
  C  C64  1  0.23124600  0.83520700  0.70556400  1
  C  C65  1  0.38707400  0.81280800  0.22646900  1
