# generated using pymatgen
data_CuNiC8
_symmetry_space_group_name_H-M   'P 1'
_cell_length_a   8.49633492
_cell_length_b   8.45674041
_cell_length_c   8.43377149
_cell_angle_alpha   90.00000000
_cell_angle_beta   90.00000000
_cell_angle_gamma   90.00000000
_symmetry_Int_Tables_number   1
_chemical_formula_structural   CuNiC8
_chemical_formula_sum   'Cu4 Ni4 C32'
_cell_volume   605.97743580
_cell_formula_units_Z   4
loop_
 _symmetry_equiv_pos_site_id
 _symmetry_equiv_pos_as_xyz
  1  'x, y, z'
loop_
 _atom_site_type_symbol
 _atom_site_label
 _atom_site_symmetry_multiplicity
 _atom_site_fract_x
 _atom_site_fract_y
 _atom_site_fract_z
 _atom_site_occupancy
  Ni  Ni0  1  0.00000000  -0.00000000  0.00000000  1
  Ni  Ni1  1  0.50000000  0.50000000  0.50000000  1
  Ni  Ni2  1  0.00000000  0.50000000  0.50000000  1
  Ni  Ni3  1  0.50000000  -0.00000000  -0.00000000  1
  Cu  Cu4  1  0.50000000  -0.00000000  0.50000000  1
  Cu  Cu5  1  0.50000000  0.50000000  0.00000000  1
  Cu  Cu6  1  0.00000000  0.50000000  -0.00000000  1
  Cu  Cu7  1  0.00000000  -0.00000000  0.50000000  1
  C  C8  1  0.75000000  0.75000000  0.75000000  1
  C  C9  1  0.25000000  0.25000000  0.75000000  1
  C  C10  1  0.25000000  0.75000000  0.25000000  1
  C  C11  1  0.75000000  0.25000000  0.25000000  1
  C  C12  1  0.25000000  0.25000000  0.25000000  1
  C  C13  1  0.75000000  0.75000000  0.25000000  1
  C  C14  1  0.75000000  0.25000000  0.75000000  1
  C  C15  1  0.25000000  0.75000000  0.75000000  1
  C  C16  1  0.01063938  0.22923299  0.28601180  1
  C  C17  1  0.98936062  0.77076701  0.28601180  1
  C  C18  1  0.98936062  0.22923299  0.71398820  1
  C  C19  1  0.01063938  0.77076701  0.71398820  1
  C  C20  1  0.26324509  0.01008068  0.21966438  1
  C  C21  1  0.26324509  0.98991932  0.78033562  1
  C  C22  1  0.73675491  0.98991932  0.21966438  1
  C  C23  1  0.73675491  0.01008068  0.78033562  1
  C  C24  1  0.21134904  0.26968301  0.02211567  1
  C  C25  1  0.78865096  0.26968301  0.97788433  1
  C  C26  1  0.21134904  0.73031699  0.97788433  1
  C  C27  1  0.78865096  0.73031699  0.02211567  1
  C  C28  1  0.48936062  0.27076701  0.21398820  1
  C  C29  1  0.51063938  0.72923299  0.21398820  1
  C  C30  1  0.51063938  0.27076701  0.78601180  1
  C  C31  1  0.48936062  0.72923299  0.78601180  1
  C  C32  1  0.23675491  0.48991932  0.28033562  1
  C  C33  1  0.23675491  0.51008068  0.71966438  1
  C  C34  1  0.76324509  0.51008068  0.28033562  1
  C  C35  1  0.76324509  0.48991932  0.71966438  1
  C  C36  1  0.28865096  0.23031699  0.47788433  1
  C  C37  1  0.71134904  0.23031699  0.52211567  1
  C  C38  1  0.28865096  0.76968301  0.52211567  1
  C  C39  1  0.71134904  0.76968301  0.47788433  1
