# generated using pymatgen
data_Cu18Ni4C5
_symmetry_space_group_name_H-M   'P 1'
_cell_length_a   5.02693913
_cell_length_b   9.29095100
_cell_length_c   18.47015800
_cell_angle_alpha   90.00000000
_cell_angle_beta   90.00000000
_cell_angle_gamma   89.85040440
_symmetry_Int_Tables_number   1
_chemical_formula_structural   Cu18Ni4C5
_chemical_formula_sum   'Cu36 Ni8 C10'
_cell_volume   862.64662347
_cell_formula_units_Z   2
loop_
 _symmetry_equiv_pos_site_id
 _symmetry_equiv_pos_as_xyz
  1  'x, y, z'
loop_
 _atom_site_type_symbol
 _atom_site_label
 _atom_site_symmetry_multiplicity
 _atom_site_fract_x
 _atom_site_fract_y
 _atom_site_fract_z
 _atom_site_occupancy
  C  C0  1  0.73631300  0.91510300  0.11667600  1
  C  C1  1  0.23679900  0.41519000  0.37980900  1
  C  C2  1  0.25054600  0.25002000  0.99816400  1
  C  C3  1  0.26368700  0.08489700  0.61667600  1
  C  C4  1  0.74945400  0.74998000  0.49816400  1
  C  C5  1  0.76320100  0.58481000  0.87980900  1
  C  C6  1  0.24290500  0.95815500  0.81569900  1
  C  C7  1  0.75709500  0.04184500  0.31569900  1
  C  C8  1  0.25870200  0.54118700  0.18080000  1
  C  C9  1  0.74129800  0.45881300  0.68080000  1
  Ni  Ni10  1  0.74951900  0.86738600  0.70944000  1
  Ni  Ni11  1  0.25048100  0.13261400  0.20944000  1
  Ni  Ni12  1  0.24813000  0.36762800  0.78702500  1
  Ni  Ni13  1  0.76406500  0.49946700  0.07465700  1
  Ni  Ni14  1  0.75187000  0.63237200  0.28702500  1
  Ni  Ni15  1  0.73714000  0.00018400  0.92188900  1
  Ni  Ni16  1  0.23593500  0.50053300  0.57465700  1
  Ni  Ni17  1  0.26286000  0.99981600  0.42188900  1
  Cu  Cu18  1  0.97382600  0.55147700  0.60812300  1
  Cu  Cu19  1  0.26199000  0.70283600  0.15149500  1
  Cu  Cu20  1  0.21431000  0.38835900  0.86482300  1
  Cu  Cu21  1  0.72858400  0.41710800  0.00785200  1
  Cu  Cu22  1  0.55053100  0.45209900  0.12829700  1
  Cu  Cu23  1  0.04985400  0.95304600  0.36786900  1
  Cu  Cu24  1  0.71522200  0.88830300  0.63162300  1
  Cu  Cu25  1  0.44946900  0.54790100  0.62829700  1
  Cu  Cu26  1  0.01472300  0.93651800  0.72925500  1
  Cu  Cu27  1  0.78569000  0.61164100  0.36482300  1
  Cu  Cu28  1  0.73882700  0.84561900  0.93185400  1
  Cu  Cu29  1  0.54033800  0.95858800  0.74776200  1
  Cu  Cu30  1  0.77375600  0.08308800  0.98852100  1
  Cu  Cu31  1  0.27141600  0.58289200  0.50785200  1
  Cu  Cu32  1  0.51236400  0.43748800  0.76708200  1
  Cu  Cu33  1  0.28477800  0.11169700  0.13162300  1
  Cu  Cu34  1  0.76054400  0.78087000  0.26163200  1
  Cu  Cu35  1  0.22624400  0.91691200  0.48852100  1
  Cu  Cu36  1  0.52550900  0.94900600  0.38855200  1
  Cu  Cu37  1  0.73801000  0.29716400  0.65149500  1
  Cu  Cu38  1  0.48763600  0.56251200  0.26708200  1
  Cu  Cu39  1  0.23794300  0.34588100  0.56506400  1
  Cu  Cu40  1  0.95014600  0.04695400  0.86786900  1
  Cu  Cu41  1  0.24022000  0.79647100  0.84496300  1
  Cu  Cu42  1  0.98527700  0.06348200  0.22925500  1
  Cu  Cu43  1  0.23945600  0.21913000  0.76163200  1
  Cu  Cu44  1  0.76205700  0.65411900  0.06506400  1
  Cu  Cu45  1  0.03819200  0.45839100  0.74888500  1
  Cu  Cu46  1  0.96180800  0.54160900  0.24888500  1
  Cu  Cu47  1  0.47449100  0.05099400  0.88855200  1
  Cu  Cu48  1  0.73974200  0.71889900  0.73483700  1
  Cu  Cu49  1  0.45966200  0.04141200  0.24776200  1
  Cu  Cu50  1  0.75978000  0.20352900  0.34496300  1
  Cu  Cu51  1  0.26025800  0.28110100  0.23483700  1
  Cu  Cu52  1  0.02617400  0.44852300  0.10812300  1
  Cu  Cu53  1  0.26117300  0.15438100  0.43185400  1
