# generated using pymatgen
data_Cu27(NiC7)2
_symmetry_space_group_name_H-M   'P 1'
_cell_length_a   14.78240900
_cell_length_b   8.18047300
_cell_length_c   9.92355690
_cell_angle_alpha   89.73530314
_cell_angle_beta   90.00000000
_cell_angle_gamma   90.00000000
_symmetry_Int_Tables_number   1
_chemical_formula_structural   Cu27(NiC7)2
_chemical_formula_sum   'Cu54 Ni4 C28'
_cell_volume   1200.01412859
_cell_formula_units_Z   2
loop_
 _symmetry_equiv_pos_site_id
 _symmetry_equiv_pos_as_xyz
  1  'x, y, z'
loop_
 _atom_site_type_symbol
 _atom_site_label
 _atom_site_symmetry_multiplicity
 _atom_site_fract_x
 _atom_site_fract_y
 _atom_site_fract_z
 _atom_site_occupancy
  C  C0  1  0.83172700  0.59973300  0.04171500  1
  C  C1  1  0.66853300  0.09843000  0.54577200  1
  C  C2  1  0.16853300  0.90157000  0.45422800  1
  C  C3  1  0.33172700  0.40026700  0.95828500  1
  C  C4  1  0.74565300  0.44874000  0.30968000  1
  C  C5  1  0.75566900  0.94425600  0.81116100  1
  C  C6  1  0.25566900  0.05574400  0.18883900  1
  C  C7  1  0.24565300  0.55126000  0.69032000  1
  C  C8  1  0.05616500  0.74898700  0.96463300  1
  C  C9  1  0.44651000  0.24086700  0.46151200  1
  C  C10  1  0.94651000  0.75913300  0.53848800  1
  C  C11  1  0.55616500  0.25101300  0.03536700  1
  C  C12  1  0.80781200  0.70782900  0.67375200  1
  C  C13  1  0.69519200  0.20933000  0.17297000  1
  C  C14  1  0.19519200  0.79067000  0.82703000  1
  C  C15  1  0.30781200  0.29217100  0.32624800  1
  C  C16  1  0.80659400  0.70644800  0.41518400  1
  C  C17  1  0.69554800  0.20315900  0.91330300  1
  C  C18  1  0.19554800  0.79684100  0.08669700  1
  C  C19  1  0.30659400  0.29355200  0.58481600  1
  C  C20  1  0.74176900  0.45214700  0.78258300  1
  C  C21  1  0.75730700  0.95049000  0.28352300  1
  C  C22  1  0.25730700  0.04951000  0.71647700  1
  C  C23  1  0.24176900  0.54785300  0.21741700  1
  C  C24  1  0.80171500  0.99519700  0.04761500  1
  C  C25  1  0.69881000  0.49993100  0.54447200  1
  C  C26  1  0.19881000  0.50006900  0.45552800  1
  C  C27  1  0.30171500  0.00480300  0.95238500  1
  Ni  Ni28  1  0.52515800  0.74050800  0.01342400  1
  Ni  Ni29  1  0.94861400  0.21825800  0.57649300  1
  Ni  Ni30  1  0.44861400  0.78174200  0.42350700  1
  Ni  Ni31  1  0.02515800  0.25949200  0.98657600  1
  Cu  Cu32  1  0.74862000  0.36202600  0.19271100  1
  Cu  Cu33  1  0.75287200  0.85845200  0.69366200  1
  Cu  Cu34  1  0.25287200  0.14154800  0.30633800  1
  Cu  Cu35  1  0.24862000  0.63797400  0.80728900  1
  Cu  Cu36  1  0.79208900  0.88735200  0.16559300  1
  Cu  Cu37  1  0.70377700  0.39582300  0.66467400  1
  Cu  Cu38  1  0.20377700  0.60417700  0.33532600  1
  Cu  Cu39  1  0.29208900  0.11264800  0.83440700  1
  Cu  Cu40  1  0.96698500  0.57119800  0.16825200  1
  Cu  Cu41  1  0.53492700  0.02152800  0.64956100  1
  Cu  Cu42  1  0.03492700  0.97847200  0.35043900  1
  Cu  Cu43  1  0.46698500  0.42880200  0.83174800  1
  Cu  Cu44  1  0.92702700  0.35737900  0.95086900  1
  Cu  Cu45  1  0.55536800  0.85482700  0.46984200  1
  Cu  Cu46  1  0.05536800  0.14517300  0.53015800  1
  Cu  Cu47  1  0.42702700  0.64262100  0.04913100  1
  Cu  Cu48  1  0.78482500  0.88307500  0.93296800  1
  Cu  Cu49  1  0.71170900  0.38883400  0.42997200  1
  Cu  Cu50  1  0.21170900  0.61116600  0.57002800  1
  Cu  Cu51  1  0.28482500  0.11692500  0.06703200  1
  Cu  Cu52  1  0.10000500  0.79359100  0.08145400  1
  Cu  Cu53  1  0.40191400  0.27733500  0.57997500  1
  Cu  Cu54  1  0.90191400  0.72266500  0.42002500  1
  Cu  Cu55  1  0.60000500  0.20640900  0.91854600  1
  Cu  Cu56  1  0.73173200  0.12878000  0.04480400  1
  Cu  Cu57  1  0.77242800  0.62681200  0.54562100  1
  Cu  Cu58  1  0.27242800  0.37318800  0.45437900  1
  Cu  Cu59  1  0.23173200  0.87122000  0.95519600  1
  Cu  Cu60  1  0.88990800  0.06566000  0.05784600  1
  Cu  Cu61  1  0.60873600  0.56815900  0.53184700  1
  Cu  Cu62  1  0.10873600  0.43184100  0.46815300  1
  Cu  Cu63  1  0.38990800  0.93434000  0.94215400  1
  Cu  Cu64  1  0.10120800  0.75316500  0.84292300  1
  Cu  Cu65  1  0.40150000  0.25242200  0.33999500  1
  Cu  Cu66  1  0.90150000  0.74757800  0.66000500  1
  Cu  Cu67  1  0.60120800  0.24683500  0.15707700  1
  Cu  Cu68  1  0.73601900  0.37035600  0.90288900  1
  Cu  Cu69  1  0.76028600  0.86911200  0.40409300  1
  Cu  Cu70  1  0.26028600  0.13088800  0.59590700  1
  Cu  Cu71  1  0.23601900  0.62964400  0.09711100  1
  Cu  Cu72  1  0.96730700  0.69977200  0.97174900  1
  Cu  Cu73  1  0.53543200  0.19196700  0.46539100  1
  Cu  Cu74  1  0.03543200  0.80803300  0.53460900  1
  Cu  Cu75  1  0.46730700  0.30022800  0.02825100  1
  Cu  Cu76  1  0.79156300  0.59390400  0.78780500  1
  Cu  Cu77  1  0.71214500  0.09731800  0.28782300  1
  Cu  Cu78  1  0.21214500  0.90268200  0.71217700  1
  Cu  Cu79  1  0.29156300  0.40609600  0.21219500  1
  Cu  Cu80  1  0.77969700  0.60415700  0.29977800  1
  Cu  Cu81  1  0.72608300  0.10376500  0.79858000  1
  Cu  Cu82  1  0.22608300  0.89623500  0.20142000  1
  Cu  Cu83  1  0.27969700  0.39584300  0.70022200  1
  Cu  Cu84  1  0.06076400  0.28567300  0.14473700  1
  Cu  Cu85  1  0.56076400  0.71432700  0.85526300  1
