# generated using pymatgen
data_Cu6Ni14C19
_symmetry_space_group_name_H-M   'P 1'
_cell_length_a   9.01424056
_cell_length_b   8.81810700
_cell_length_c   8.99704119
_cell_angle_alpha   73.02924589
_cell_angle_beta   107.77223836
_cell_angle_gamma   105.80633242
_symmetry_Int_Tables_number   1
_chemical_formula_structural   Cu6Ni14C19
_chemical_formula_sum   'Cu6 Ni14 C19'
_cell_volume   638.04970850
_cell_formula_units_Z   1
loop_
 _symmetry_equiv_pos_site_id
 _symmetry_equiv_pos_as_xyz
  1  'x, y, z'
loop_
 _atom_site_type_symbol
 _atom_site_label
 _atom_site_symmetry_multiplicity
 _atom_site_fract_x
 _atom_site_fract_y
 _atom_site_fract_z
 _atom_site_occupancy
  C  C0  1  0.61424634  0.58738027  0.40443378  1
  Ni  Ni1  1  0.85434614  0.18338331  0.67939140  1
  Ni  Ni2  1  0.18288379  0.35200870  0.83683758  1
  Ni  Ni3  1  0.67046330  0.83710422  0.84613400  1
  Ni  Ni4  1  0.49268802  0.97798840  0.51196821  1
  Ni  Ni5  1  0.08527219  0.94596654  0.90463607  1
  Ni  Ni6  1  0.24378429  0.76221767  0.75331026  1
  Ni  Ni7  1  0.39652235  0.59689006  0.62227353  1
  Ni  Ni8  1  0.34576143  0.17802380  0.17384662  1
  Ni  Ni9  1  0.76867483  0.24388591  0.24153194  1
  Ni  Ni10  1  0.94636331  0.09301708  0.07863759  1
  Ni  Ni11  1  0.00413372  0.50959383  0.50357358  1
  Ni  Ni12  1  0.83890161  0.66612748  0.16751115  1
  Ni  Ni13  1  0.16400973  0.85027410  0.32312785  1
  Ni  Ni14  1  0.51002363  0.50488041  0.01541309  1
  Cu  Cu15  1  0.51267201  0.17944714  0.83079314  1
  Cu  Cu16  1  0.84023921  0.50859728  0.83771074  1
  Cu  Cu17  1  0.18882369  0.18647268  0.50377191  1
  Cu  Cu18  1  0.85347707  0.87035694  0.51494443  1
  Cu  Cu19  1  0.17544221  0.51107003  0.17205496  1
  Cu  Cu20  1  0.48978457  0.85115350  0.15926726  1
  C  C21  1  0.78286803  0.23124416  0.86479258  1
  C  C22  1  0.57283145  0.45108196  0.82513662  1
  C  C23  1  0.92611847  0.15383016  0.48594223  1
  C  C24  1  0.24471323  0.16595760  0.77366103  1
  C  C25  1  0.86024097  0.77710469  0.79537293  1
  C  C26  1  0.48209172  0.90127981  0.89830332  1
  C  C27  1  0.11293985  0.53152362  0.90131086  1
  C  C28  1  0.44946007  0.18458410  0.56556875  1
  C  C29  1  0.81147807  0.55454526  0.57112823  1
  C  C30  1  0.53015402  0.12141364  0.10755706  1
  C  C31  1  0.19772787  0.45864090  0.44030950  1
  C  C32  1  0.90912351  0.48469765  0.10789026  1
  C  C33  1  0.54030145  0.78103493  0.43851212  1
  C  C34  1  0.15936388  0.23786414  0.23359655  1
  C  C35  1  0.73857397  0.79842655  0.25640173  1
  C  C36  1  0.44389425  0.55954411  0.20364366  1
  C  C37  1  0.12315790  0.91657829  0.51538815  1
  C  C38  1  0.22444287  0.78538610  0.13887535  1
