# generated using pymatgen
data_Cu8Ni2C
_symmetry_space_group_name_H-M   'P 1'
_cell_length_a   7.69764508
_cell_length_b   7.69764508
_cell_length_c   7.69764508
_cell_angle_alpha   115.25176663
_cell_angle_beta   115.25176663
_cell_angle_gamma   98.44191785
_symmetry_Int_Tables_number   1
_chemical_formula_structural   Cu8Ni2C
_chemical_formula_sum   'Cu16 Ni4 C2'
_cell_volume   341.64305426
_cell_formula_units_Z   2
loop_
 _symmetry_equiv_pos_site_id
 _symmetry_equiv_pos_as_xyz
  1  'x, y, z'
loop_
 _atom_site_type_symbol
 _atom_site_label
 _atom_site_symmetry_multiplicity
 _atom_site_fract_x
 _atom_site_fract_y
 _atom_site_fract_z
 _atom_site_occupancy
  C  C0  1  0.25000000  0.75000000  0.50000000  1
  C  C1  1  0.00000000  0.00000000  0.00000000  1
  Ni  Ni2  1  0.61887200  0.84946400  0.76940700  1
  Ni  Ni3  1  0.08005700  0.84946400  0.23059300  1
  Ni  Ni4  1  0.15053600  0.38112800  0.23059300  1
  Ni  Ni5  1  0.15053600  0.91994300  0.76940700  1
  Cu  Cu6  1  0.47993600  0.72859500  0.75134100  1
  Cu  Cu7  1  0.97725300  0.72859500  0.24865900  1
  Cu  Cu8  1  0.27140500  0.52006400  0.24865900  1
  Cu  Cu9  1  0.27140500  0.02274700  0.75134100  1
  Cu  Cu10  1  0.27216600  0.91495800  0.35720800  1
  Cu  Cu11  1  0.55774900  0.91495800  0.64279200  1
  Cu  Cu12  1  0.08504200  0.72783400  0.64279200  1
  Cu  Cu13  1  0.08504200  0.44225100  0.35720800  1
  Cu  Cu14  1  0.71820500  0.00218200  0.96701300  1
  Cu  Cu15  1  0.03516900  0.75119200  0.03298700  1
  Cu  Cu16  1  0.03516900  0.00218200  0.28397700  1
  Cu  Cu17  1  0.71820500  0.75119200  0.71602300  1
  Cu  Cu18  1  0.24880800  0.28179500  0.28397700  1
  Cu  Cu19  1  0.99781800  0.96483100  0.71602300  1
  Cu  Cu20  1  0.24880800  0.96483100  0.96701300  1
  Cu  Cu21  1  0.99781800  0.28179500  0.03298700  1
