# generated using pymatgen
data_Cu(NiC3)2
_symmetry_space_group_name_H-M   'P 1'
_cell_length_a   5.16158900
_cell_length_b   6.84790000
_cell_length_c   20.11896500
_cell_angle_alpha   90.00000000
_cell_angle_beta   90.00000000
_cell_angle_gamma   90.00000000
_symmetry_Int_Tables_number   1
_chemical_formula_structural   Cu(NiC3)2
_chemical_formula_sum   'Cu4 Ni8 C24'
_cell_volume   711.12584854
_cell_formula_units_Z   4
loop_
 _symmetry_equiv_pos_site_id
 _symmetry_equiv_pos_as_xyz
  1  'x, y, z'
loop_
 _atom_site_type_symbol
 _atom_site_label
 _atom_site_symmetry_multiplicity
 _atom_site_fract_x
 _atom_site_fract_y
 _atom_site_fract_z
 _atom_site_occupancy
  Ni  Ni0  1  0.35980300  0.82304600  0.12901500  1
  Ni  Ni1  1  0.85980300  0.67695400  0.87098500  1
  Ni  Ni2  1  0.14019700  0.17695400  0.62901500  1
  Ni  Ni3  1  0.64019700  0.32304600  0.37098500  1
  Ni  Ni4  1  0.33440100  0.78948000  0.77717100  1
  Ni  Ni5  1  0.83440100  0.71052000  0.22282900  1
  Ni  Ni6  1  0.16559900  0.21052000  0.27717100  1
  Ni  Ni7  1  0.66559900  0.28948000  0.72282900  1
  Cu  Cu8  1  0.81489800  0.40541900  0.07098800  1
  Cu  Cu9  1  0.31489800  0.09458100  0.92901200  1
  Cu  Cu10  1  0.68510200  0.59458100  0.57098800  1
  Cu  Cu11  1  0.18510200  0.90541900  0.42901200  1
  C  C12  1  0.38799200  0.95705700  0.95949400  1
  C  C13  1  0.88799200  0.54294300  0.04050600  1
  C  C14  1  0.11200800  0.04294300  0.45949400  1
  C  C15  1  0.61200800  0.45705700  0.54050600  1
  C  C16  1  0.90661200  0.74293400  0.06187400  1
  C  C17  1  0.40661200  0.75706600  0.93812600  1
  C  C18  1  0.59338800  0.25706600  0.56187400  1
  C  C19  1  0.09338800  0.24293400  0.43812600  1
  C  C20  1  0.41235400  0.58989400  0.11555600  1
  C  C21  1  0.91235400  0.91010600  0.88444400  1
  C  C22  1  0.08764600  0.41010600  0.61555600  1
  C  C23  1  0.58764600  0.08989400  0.38444400  1
  C  C24  1  0.31528400  0.71769800  0.70013900  1
  C  C25  1  0.81528400  0.78230200  0.29986100  1
  C  C26  1  0.18471600  0.28230200  0.20013900  1
  C  C27  1  0.68471600  0.21769800  0.79986100  1
  C  C28  1  0.14218100  0.83147200  0.20383800  1
  C  C29  1  0.64218100  0.66852800  0.79616200  1
  C  C30  1  0.35781900  0.16852800  0.70383800  1
  C  C31  1  0.85781900  0.33147200  0.29616200  1
  C  C32  1  0.12725900  0.59442100  0.81951500  1
  C  C33  1  0.62725900  0.90557900  0.18048500  1
  C  C34  1  0.37274100  0.40557900  0.31951500  1
  C  C35  1  0.87274100  0.09442100  0.68048500  1
