# generated using pymatgen
data_Cu12(Ni2C3)7
_symmetry_space_group_name_H-M   'P 1'
_cell_length_a   7.65209262
_cell_length_b   9.29038010
_cell_length_c   16.97967065
_cell_angle_alpha   90.54856493
_cell_angle_beta   94.35977630
_cell_angle_gamma   107.43106568
_symmetry_Int_Tables_number   1
_chemical_formula_structural   Cu12(Ni2C3)7
_chemical_formula_sum   'Cu24 Ni28 C42'
_cell_volume   1147.67035911
_cell_formula_units_Z   2
loop_
 _symmetry_equiv_pos_site_id
 _symmetry_equiv_pos_as_xyz
  1  'x, y, z'
loop_
 _atom_site_type_symbol
 _atom_site_label
 _atom_site_symmetry_multiplicity
 _atom_site_fract_x
 _atom_site_fract_y
 _atom_site_fract_z
 _atom_site_occupancy
  C  C0  1  0.10001200  0.38734600  0.82679400  1
  C  C1  1  0.89998800  0.61265400  0.17320600  1
  C  C2  1  0.58125200  0.27094900  0.94664800  1
  C  C3  1  0.41874800  0.72905100  0.05335200  1
  Ni  Ni4  1  0.13911400  0.84655800  0.86447100  1
  Ni  Ni5  1  0.86088600  0.15344200  0.13552900  1
  Ni  Ni6  1  0.67441100  0.35966700  0.60364300  1
  Ni  Ni7  1  0.32558900  0.64033300  0.39635700  1
  Ni  Ni8  1  0.68206700  0.76191800  0.69558500  1
  Ni  Ni9  1  0.31793300  0.23808200  0.30441500  1
  Ni  Ni10  1  0.98947700  0.59900800  0.61736500  1
  Ni  Ni11  1  0.01052300  0.40099200  0.38263500  1
  Ni  Ni12  1  0.07602400  0.86499600  0.77024100  1
  Ni  Ni13  1  0.92397600  0.13500400  0.22975900  1
  Ni  Ni14  1  0.76571300  0.94419200  0.72443400  1
  Ni  Ni15  1  0.23428700  0.05580800  0.27556600  1
  Ni  Ni16  1  0.68869100  0.22619900  0.66721600  1
  Ni  Ni17  1  0.31130900  0.77380100  0.33278400  1
  Ni  Ni18  1  0.07925500  0.99957900  0.83644300  1
  Ni  Ni19  1  0.92074500  0.00042100  0.16355700  1
  Ni  Ni20  1  0.63970100  0.18104800  0.57226800  1
  Ni  Ni21  1  0.36029900  0.81895200  0.42773200  1
  Ni  Ni22  1  0.06362800  0.59508800  0.53568900  1
  Ni  Ni23  1  0.93637200  0.40491200  0.46431100  1
  Ni  Ni24  1  0.55313600  0.84442300  0.74301100  1
  Ni  Ni25  1  0.44686400  0.15557700  0.25698900  1
  Ni  Ni26  1  0.36332200  0.32432500  0.48954000  1
  Ni  Ni27  1  0.63667800  0.67567500  0.51045900  1
  Ni  Ni28  1  0.15705400  0.19793600  0.49272300  1
  Ni  Ni29  1  0.84294600  0.80206400  0.50727700  1
  Ni  Ni30  1  0.33984800  0.14079900  0.47887200  1
  Ni  Ni31  1  0.66015200  0.85920100  0.52112800  1
  C  C32  1  0.77730000  0.77381000  0.85046700  1
  C  C33  1  0.22270000  0.22619000  0.14953300  1
  C  C34  1  0.33598500  0.20004400  0.63151800  1
  C  C35  1  0.66401500  0.79995600  0.36848200  1
  Cu  Cu36  1  0.37927500  0.43079000  0.64569300  1
  Cu  Cu37  1  0.62072500  0.56921000  0.35430700  1
  Cu  Cu38  1  0.29513000  0.21888600  0.50767400  1
  Cu  Cu39  1  0.70487000  0.78111400  0.49232600  1
  Cu  Cu40  1  0.50883000  0.66955700  0.86850200  1
  Cu  Cu41  1  0.49117000  0.33044300  0.13149800  1
  Cu  Cu42  1  0.05610000  0.15076000  0.63759100  1
  Cu  Cu43  1  0.94390000  0.84924000  0.36240900  1
  Cu  Cu44  1  0.05225600  0.88542400  0.82742500  1
  Cu  Cu45  1  0.94774400  0.11457600  0.17257500  1
  Cu  Cu46  1  0.80529800  0.58280700  0.79593300  1
  Cu  Cu47  1  0.19470200  0.41719300  0.20406700  1
  Cu  Cu48  1  0.30067900  0.97097000  0.61521600  1
  Cu  Cu49  1  0.69932100  0.02903000  0.38478400  1
  Cu  Cu50  1  0.39800800  0.17640800  0.74959900  1
  Cu  Cu51  1  0.60199200  0.82359200  0.25040100  1
  Cu  Cu52  1  0.68449200  0.83981200  0.73915100  1
  Cu  Cu53  1  0.31550800  0.16018800  0.26084900  1
  Cu  Cu54  1  0.87672200  0.71194600  0.95628000  1
  Cu  Cu55  1  0.12327800  0.28805400  0.04372000  1
  Cu  Cu56  1  0.76056700  0.97302800  0.90139400  1
  Cu  Cu57  1  0.23943300  0.02697200  0.09860600  1
  Cu  Cu58  1  0.61971700  0.24828000  0.61682100  1
  Cu  Cu59  1  0.38028300  0.75172000  0.38317900  1
  C  C60  1  0.33098300  0.22875400  0.80409600  1
  C  C61  1  0.66901700  0.77124600  0.19590400  1
  C  C62  1  0.87989100  0.59883000  0.73222900  1
  C  C63  1  0.12010900  0.40117000  0.26777100  1
  C  C64  1  0.51333200  0.10820500  0.76654200  1
  C  C65  1  0.48666800  0.89179500  0.23345800  1
  C  C66  1  0.49351000  0.51624900  0.60435000  1
  C  C67  1  0.50649000  0.48375100  0.39565000  1
  C  C68  1  0.65754000  0.97190200  0.95518900  1
  C  C69  1  0.34246000  0.02809800  0.04481100  1
  C  C70  1  0.95457500  0.10704300  0.57541700  1
  C  C71  1  0.04542500  0.89295700  0.42458300  1
  C  C72  1  0.76004900  0.45650900  0.82669100  1
  C  C73  1  0.23995100  0.54349100  0.17330900  1
  C  C74  1  0.46404400  0.55325500  0.90838100  1
  C  C75  1  0.53595600  0.44674500  0.09161900  1
  C  C76  1  0.38837100  0.72357200  0.83895700  1
  C  C77  1  0.61162900  0.27642800  0.16104300  1
  C  C78  1  0.18202400  0.87685400  0.65000600  1
  C  C79  1  0.81797600  0.12314600  0.34999400  1
  C  C80  1  0.29824700  0.48350800  0.69384900  1
  C  C81  1  0.70175300  0.51649200  0.30615100  1
  C  C82  1  0.85300300  0.09522600  0.87515600  1
  C  C83  1  0.14699700  0.90477400  0.12484400  1
  C  C84  1  0.02234900  0.67603900  0.95758000  1
  C  C85  1  0.97765100  0.32396100  0.04241900  1
  C  C86  1  0.40160900  0.93050800  0.57077500  1
  C  C87  1  0.59839100  0.06949200  0.42922500  1
  C  C88  1  0.94978300  0.57311400  0.56173600  1
  C  C89  1  0.05021700  0.42688600  0.43826400  1
  C  C90  1  0.79643600  0.71161600  0.01743400  1
  C  C91  1  0.20356400  0.28838400  0.98256600  1
  C  C92  1  0.98642300  0.15868200  0.70138500  1
  C  C93  1  0.01357700  0.84131800  0.29861500  1
