# generated using pymatgen
data_Cu3Ni15C14
_symmetry_space_group_name_H-M   'P 1'
_cell_length_a   10.65949000
_cell_length_b   8.14240200
_cell_length_c   17.62585003
_cell_angle_alpha   85.39833749
_cell_angle_beta   90.00000000
_cell_angle_gamma   90.00000000
_symmetry_Int_Tables_number   1
_chemical_formula_structural   Cu3Ni15C14
_chemical_formula_sum   'Cu12 Ni60 C56'
_cell_volume   1524.88414899
_cell_formula_units_Z   4
loop_
 _symmetry_equiv_pos_site_id
 _symmetry_equiv_pos_as_xyz
  1  'x, y, z'
loop_
 _atom_site_type_symbol
 _atom_site_label
 _atom_site_symmetry_multiplicity
 _atom_site_fract_x
 _atom_site_fract_y
 _atom_site_fract_z
 _atom_site_occupancy
  C  C0  1  0.19110200  0.77450700  0.93490900  1
  C  C1  1  0.69110200  0.22549300  0.56509100  1
  C  C2  1  0.80889800  0.22549300  0.06509100  1
  C  C3  1  0.30889800  0.77450700  0.43490900  1
  C  C4  1  0.40139400  0.72112500  0.80689700  1
  C  C5  1  0.90139400  0.27887500  0.69310300  1
  C  C6  1  0.59860600  0.27887500  0.19310300  1
  C  C7  1  0.09860600  0.72112500  0.30689700  1
  Ni  Ni8  1  0.33575200  0.64561500  0.68295600  1
  Ni  Ni9  1  0.83575200  0.35438500  0.81704400  1
  Ni  Ni10  1  0.66424800  0.35438500  0.31704400  1
  Ni  Ni11  1  0.16424800  0.64561500  0.18295600  1
  Ni  Ni12  1  0.25520800  0.29330300  0.61535400  1
  Ni  Ni13  1  0.75520800  0.70669700  0.88464600  1
  Ni  Ni14  1  0.74479200  0.70669700  0.38464600  1
  Ni  Ni15  1  0.24479200  0.29330300  0.11535400  1
  Ni  Ni16  1  0.41566600  0.24610800  0.60281000  1
  Ni  Ni17  1  0.91566600  0.75389200  0.89719000  1
  Ni  Ni18  1  0.58433400  0.75389200  0.39719000  1
  Ni  Ni19  1  0.08433400  0.24610800  0.10281000  1
  Ni  Ni20  1  0.08211900  0.04418800  0.83060500  1
  Ni  Ni21  1  0.58211900  0.95581200  0.66939500  1
  Ni  Ni22  1  0.91788100  0.95581200  0.16939500  1
  Ni  Ni23  1  0.41788100  0.04418800  0.33060500  1
  Ni  Ni24  1  0.64452200  0.77587800  0.72965800  1
  Ni  Ni25  1  0.14452200  0.22412200  0.77034200  1
  Ni  Ni26  1  0.35547800  0.22412200  0.27034200  1
  Ni  Ni27  1  0.85547800  0.77587800  0.22965800  1
  Ni  Ni28  1  0.34773100  0.42818500  0.55740500  1
  Ni  Ni29  1  0.84773100  0.57181500  0.94259500  1
  Ni  Ni30  1  0.65226900  0.57181500  0.44259500  1
  Ni  Ni31  1  0.15226900  0.42818500  0.05740500  1
  Ni  Ni32  1  0.60473400  0.93039000  0.49869000  1
  Ni  Ni33  1  0.10473400  0.06961000  0.00131000  1
  Ni  Ni34  1  0.39526600  0.06961000  0.50131000  1
  Ni  Ni35  1  0.89526600  0.93039000  0.99869000  1
  Ni  Ni36  1  0.79517900  0.54587000  0.64544400  1
  Ni  Ni37  1  0.29517900  0.45413000  0.85455600  1
  Ni  Ni38  1  0.20482100  0.45413000  0.35455600  1
  Ni  Ni39  1  0.70482100  0.54587000  0.14544400  1
  Ni  Ni40  1  0.09675800  0.17546700  0.65455300  1
  Ni  Ni41  1  0.59675800  0.82453300  0.84544700  1
  Ni  Ni42  1  0.90324200  0.82453300  0.34544700  1
  Ni  Ni43  1  0.40324200  0.17546700  0.15455300  1
  Ni  Ni44  1  0.09984300  0.79536000  0.60585600  1
  Ni  Ni45  1  0.59984300  0.20464000  0.89414400  1
  Ni  Ni46  1  0.90015700  0.20464000  0.39414400  1
  Ni  Ni47  1  0.40015700  0.79536000  0.10585600  1
  Ni  Ni48  1  0.15529500  0.67765500  0.79765900  1
  Ni  Ni49  1  0.65529500  0.32234500  0.70234100  1
  Ni  Ni50  1  0.84470500  0.32234500  0.20234100  1
  Ni  Ni51  1  0.34470500  0.67765500  0.29765900  1
  Ni  Ni52  1  0.88872600  0.62823400  0.69763500  1
  Ni  Ni53  1  0.38872600  0.37176600  0.80236500  1
  Ni  Ni54  1  0.11127400  0.37176600  0.30236500  1
  Ni  Ni55  1  0.61127400  0.62823400  0.19763500  1
  Ni  Ni56  1  0.41543300  0.28426000  0.93855500  1
  Ni  Ni57  1  0.91543300  0.71574000  0.56144500  1
  Ni  Ni58  1  0.58456700  0.71574000  0.06144500  1
  Ni  Ni59  1  0.08456700  0.28426000  0.43855500  1
  Ni  Ni60  1  0.38223000  0.11554500  0.98509300  1
  Ni  Ni61  1  0.88223000  0.88445500  0.51490700  1
  Ni  Ni62  1  0.61777000  0.88445500  0.01490700  1
  Ni  Ni63  1  0.11777000  0.11554500  0.48509300  1
  Ni  Ni64  1  0.55331200  0.24210300  0.04615000  1
  Ni  Ni65  1  0.05331200  0.75789700  0.45385000  1
  Ni  Ni66  1  0.44668800  0.75789700  0.95385000  1
  Ni  Ni67  1  0.94668800  0.24210300  0.54615000  1
  Cu  Cu68  1  0.34111000  0.32538900  0.59463900  1
  Cu  Cu69  1  0.84111000  0.67461100  0.90536100  1
  Cu  Cu70  1  0.65889000  0.67461100  0.40536100  1
  Cu  Cu71  1  0.15889000  0.32538900  0.09463900  1
  Cu  Cu72  1  0.65459100  0.87184800  0.68687600  1
  Cu  Cu73  1  0.15459100  0.12815200  0.81312400  1
  Cu  Cu74  1  0.34540900  0.12815200  0.31312400  1
  Cu  Cu75  1  0.84540900  0.87184800  0.18687600  1
  Cu  Cu76  1  0.14800800  0.75044000  0.65517000  1
  Cu  Cu77  1  0.64800800  0.24956000  0.84483000  1
  Cu  Cu78  1  0.85199200  0.24956000  0.34483000  1
  Cu  Cu79  1  0.35199200  0.75044000  0.15517000  1
  C  C80  1  0.06302100  0.87408100  0.89579000  1
  C  C81  1  0.56302100  0.12591900  0.60421000  1
  C  C82  1  0.93697900  0.12591900  0.10421000  1
  C  C83  1  0.43697900  0.87408100  0.39579000  1
  C  C84  1  0.21907600  0.65853400  0.83711600  1
  C  C85  1  0.71907600  0.34146600  0.66288400  1
  C  C86  1  0.78092400  0.34146600  0.16288400  1
  C  C87  1  0.28092400  0.65853400  0.33711600  1
  C  C88  1  0.15597000  0.00440400  0.03950500  1
  C  C89  1  0.65597000  0.99559600  0.46049500  1
  C  C90  1  0.84403000  0.99559600  0.96049500  1
  C  C91  1  0.34403000  0.00440400  0.53950500  1
  C  C92  1  0.25799100  0.94516500  0.99475100  1
  C  C93  1  0.75799100  0.05483500  0.50524900  1
  C  C94  1  0.74200900  0.05483500  0.00524900  1
  C  C95  1  0.24200900  0.94516500  0.49475100  1
  C  C96  1  0.38784100  0.59741200  0.72501700  1
  C  C97  1  0.88784100  0.40258800  0.77498300  1
  C  C98  1  0.61215900  0.40258800  0.27498300  1
  C  C99  1  0.11215900  0.59741200  0.22501700  1
  C  C100  1  0.38156000  0.41030800  0.85336900  1
  C  C101  1  0.88156000  0.58969200  0.64663100  1
  C  C102  1  0.61844000  0.58969200  0.14663100  1
  C  C103  1  0.11844000  0.41030800  0.35336900  1
  C  C104  1  0.38303300  0.90482800  0.76637900  1
  C  C105  1  0.88303300  0.09517200  0.73362100  1
  C  C106  1  0.61696700  0.09517200  0.23362100  1
  C  C107  1  0.11696700  0.90482800  0.26637900  1
  C  C108  1  0.25940400  0.09616700  0.84148400  1
  C  C109  1  0.75940400  0.90383300  0.65851600  1
  C  C110  1  0.74059600  0.90383300  0.15851600  1
  C  C111  1  0.24059600  0.09616700  0.34148400  1
  C  C112  1  0.14112700  0.62777300  0.99705700  1
  C  C113  1  0.64112700  0.37222700  0.50294300  1
  C  C114  1  0.85887300  0.37222700  0.00294300  1
  C  C115  1  0.35887300  0.62777300  0.49705700  1
  C  C116  1  0.57548300  0.71947900  0.82534400  1
  C  C117  1  0.07548300  0.28052100  0.67465600  1
  C  C118  1  0.42451700  0.28052100  0.17465600  1
  C  C119  1  0.92451700  0.71947900  0.32534400  1
  C  C120  1  0.44384500  0.20635800  0.98118200  1
  C  C121  1  0.94384500  0.79364200  0.51881800  1
  C  C122  1  0.55615500  0.79364200  0.01881800  1
  C  C123  1  0.05615500  0.20635800  0.48118200  1
  C  C124  1  0.37698000  0.74405200  0.91642200  1
  C  C125  1  0.87698000  0.25594800  0.58357800  1
  C  C126  1  0.62302000  0.25594800  0.08357800  1
  C  C127  1  0.12302000  0.74405200  0.41642200  1
