# generated using pymatgen
data_Cu(NiC4)2
_symmetry_space_group_name_H-M   'P 1'
_cell_length_a   5.89939168
_cell_length_b   5.89939168
_cell_length_c   6.71953705
_cell_angle_alpha   63.79932742
_cell_angle_beta   63.79932742
_cell_angle_gamma   59.85660142
_symmetry_Int_Tables_number   1
_chemical_formula_structural   Cu(NiC4)2
_chemical_formula_sum   'Cu1 Ni2 C8'
_cell_volume   174.02259185
_cell_formula_units_Z   1
loop_
 _symmetry_equiv_pos_site_id
 _symmetry_equiv_pos_as_xyz
  1  'x, y, z'
loop_
 _atom_site_type_symbol
 _atom_site_label
 _atom_site_symmetry_multiplicity
 _atom_site_fract_x
 _atom_site_fract_y
 _atom_site_fract_z
 _atom_site_occupancy
  Ni  Ni0  1  0.71753900  0.71753900  0.84679600  1
  Ni  Ni1  1  0.19137400  0.19137400  0.42963100  1
  C  C2  1  0.36585000  0.36585000  0.90163800  1
  Cu  Cu3  1  0.51675600  0.51675600  0.44922100  1
  C  C4  1  0.00296900  0.00296900  0.98948500  1
  C  C5  1  0.78003200  0.78003200  0.17416400  1
  C  C6  1  0.24179000  0.24179000  0.75293500  1
  C  C7  1  0.76305000  0.24194000  0.75230000  1
  C  C8  1  0.26439400  0.77889000  0.17368200  1
  C  C9  1  0.24194000  0.76305000  0.75230000  1
  C  C10  1  0.77889000  0.26439400  0.17368200  1
