# generated using pymatgen
data_Cu4Ni3C14
_symmetry_space_group_name_H-M   'P 1'
_cell_length_a   7.48214022
_cell_length_b   13.03384679
_cell_length_c   7.48249614
_cell_angle_alpha   89.43291820
_cell_angle_beta   60.56938673
_cell_angle_gamma   106.38476813
_symmetry_Int_Tables_number   1
_chemical_formula_structural   Cu4Ni3C14
_chemical_formula_sum   'Cu8 Ni6 C28'
_cell_volume   600.01746525
_cell_formula_units_Z   2
loop_
 _symmetry_equiv_pos_site_id
 _symmetry_equiv_pos_as_xyz
  1  'x, y, z'
loop_
 _atom_site_type_symbol
 _atom_site_label
 _atom_site_symmetry_multiplicity
 _atom_site_fract_x
 _atom_site_fract_y
 _atom_site_fract_z
 _atom_site_occupancy
  C  C0  1  0.50050400  0.74965200  0.25096600  1
  C  C1  1  0.50063600  0.24965100  0.75093700  1
  Ni  Ni2  1  0.99912200  0.24982800  0.75053300  1
  Ni  Ni3  1  0.99907700  0.74983900  0.25051300  1
  Ni  Ni4  1  0.50036200  0.00043900  0.99992000  1
  Ni  Ni5  1  0.50037800  0.50045100  0.49992300  1
  Ni  Ni6  1  0.50038500  0.24982800  0.24927400  1
  Ni  Ni7  1  0.50038600  0.74983100  0.74926800  1
  Cu  Cu8  1  0.00151400  0.49925600  0.00231800  1
  Cu  Cu9  1  0.00152600  0.99925500  0.50232800  1
  Cu  Cu10  1  0.49541800  0.49935500  0.00178200  1
  Cu  Cu11  1  0.49539600  0.99932500  0.50176700  1
  Cu  Cu12  1  0.00130400  0.25232600  0.24896400  1
  Cu  Cu13  1  0.00127900  0.75236200  0.74903000  1
  Cu  Cu14  1  0.00123600  0.49940800  0.49602200  1
  Cu  Cu15  1  0.00119600  0.99938300  0.99602200  1
  C  C16  1  0.87564000  0.06221300  0.31340000  1
  C  C17  1  0.87565200  0.56223500  0.81338900  1
  C  C18  1  0.17256800  0.21340800  0.85975500  1
  C  C19  1  0.17249500  0.71341700  0.35977500  1
  C  C20  1  0.57319400  0.41371000  0.65946700  1
  C  C21  1  0.57316100  0.91371000  0.15947200  1
  C  C22  1  0.57317200  0.21340600  0.45913700  1
  C  C23  1  0.57315800  0.71341600  0.95912800  1
  C  C24  1  0.57430800  0.41147800  0.26558800  1
  C  C25  1  0.57430600  0.91148000  0.76557500  1
  C  C26  1  0.17707800  0.21285500  0.46420900  1
  C  C27  1  0.17707600  0.71287100  0.96418900  1
  C  C28  1  0.17707300  0.41147200  0.66283400  1
  C  C29  1  0.17707300  0.91147700  0.16282800  1
  C  C30  1  0.82408700  0.28526300  0.64418900  1
  C  C31  1  0.82402900  0.78524400  0.14420200  1
  C  C32  1  0.42943900  0.08793700  0.84151200  1
  C  C33  1  0.42939900  0.58791500  0.34152500  1
  C  C34  1  0.42944400  0.28526300  0.03883000  1
  C  C35  1  0.42938900  0.78526200  0.53887900  1
  C  C36  1  0.42743100  0.08955400  0.23133400  1
  C  C37  1  0.42744600  0.58955000  0.73133200  1
  C  C38  1  0.82090700  0.28629500  0.03458700  1
  C  C39  1  0.82091800  0.78628400  0.53461100  1
  C  C40  1  0.82091500  0.08954800  0.83783800  1
  C  C41  1  0.82092600  0.58954700  0.33785000  1
