# generated using pymatgen
data_Cu5NiC14
_symmetry_space_group_name_H-M   'P 1'
_cell_length_a   9.98520773
_cell_length_b   9.98520773
_cell_length_c   9.98520773
_cell_angle_alpha   109.37968569
_cell_angle_beta   109.37968569
_cell_angle_gamma   109.65444604
_symmetry_Int_Tables_number   1
_chemical_formula_structural   Cu5NiC14
_chemical_formula_sum   'Cu20 Ni4 C56'
_cell_volume   766.38340036
_cell_formula_units_Z   4
loop_
 _symmetry_equiv_pos_site_id
 _symmetry_equiv_pos_as_xyz
  1  'x, y, z'
loop_
 _atom_site_type_symbol
 _atom_site_label
 _atom_site_symmetry_multiplicity
 _atom_site_fract_x
 _atom_site_fract_y
 _atom_site_fract_z
 _atom_site_occupancy
  C  C0  1  0.00064200  0.62500000  0.87564200  1
  C  C1  1  0.50064200  0.62500000  0.37564200  1
  C  C2  1  0.24935800  0.12500000  0.62435800  1
  C  C3  1  0.74935800  0.12500000  0.12435800  1
  C  C4  1  0.37500000  0.25064200  0.37564200  1
  C  C5  1  0.87500000  0.49935800  0.12435800  1
  C  C6  1  0.37500000  0.75064200  0.87564200  1
  C  C7  1  0.87500000  0.99935800  0.62435800  1
  Ni  Ni8  1  0.75000000  0.75000000  0.00000000  1
  Ni  Ni9  1  0.25000000  0.25000000  0.00000000  1
  Ni  Ni10  1  0.50000000  0.00000000  0.50000000  1
  Ni  Ni11  1  0.00000000  0.50000000  0.50000000  1
  Cu  Cu12  1  0.50000000  0.50000000  0.00000000  1
  Cu  Cu13  1  0.00000000  0.00000000  0.00000000  1
  Cu  Cu14  1  0.37500000  0.99945600  0.12445600  1
  Cu  Cu15  1  0.87500000  0.75054400  0.37554400  1
  Cu  Cu16  1  0.75000000  0.25000000  0.50000000  1
  Cu  Cu17  1  0.25000000  0.75000000  0.50000000  1
  Cu  Cu18  1  0.37500000  0.49945600  0.62445600  1
  Cu  Cu19  1  0.87500000  0.25054400  0.87554400  1
  Cu  Cu20  1  0.74945600  0.62500000  0.62445600  1
  Cu  Cu21  1  0.24945600  0.62500000  0.12445600  1
  Cu  Cu22  1  0.00054400  0.12500000  0.37554400  1
  Cu  Cu23  1  0.50054400  0.12500000  0.87554400  1
  Cu  Cu24  1  0.12500000  0.87500000  0.25000000  1
  Cu  Cu25  1  0.62500000  0.37500000  0.25000000  1
  Cu  Cu26  1  0.62500000  0.37500000  0.75000000  1
  Cu  Cu27  1  0.12500000  0.37500000  0.25000000  1
  Cu  Cu28  1  0.62500000  0.87500000  0.75000000  1
  Cu  Cu29  1  0.12500000  0.37500000  0.75000000  1
  Cu  Cu30  1  0.62500000  0.87500000  0.25000000  1
  Cu  Cu31  1  0.12500000  0.87500000  0.75000000  1
  C  C32  1  0.00445500  0.86453100  0.05898500  1
  C  C33  1  0.50445500  0.44547000  0.13992400  1
  C  C34  1  0.43678300  0.37000200  0.64218900  1
  C  C35  1  0.93678300  0.29459500  0.06678100  1
  C  C36  1  0.24554500  0.88546900  0.44101500  1
  C  C37  1  0.74554500  0.30453000  0.36007600  1
  C  C38  1  0.81321700  0.37999800  0.85781100  1
  C  C39  1  0.31321700  0.45540500  0.43321900  1
  C  C40  1  0.44445400  0.80453000  0.55898500  1
  C  C41  1  0.94445400  0.38546900  0.63992400  1
  C  C42  1  0.52218600  0.95540500  0.14218900  1
  C  C43  1  0.02218600  0.87999800  0.56678100  1
  C  C44  1  0.80554600  0.94547000  0.94101500  1
  C  C45  1  0.30554600  0.36453100  0.86007600  1
  C  C46  1  0.72781400  0.79459500  0.35781100  1
  C  C47  1  0.22781400  0.87000200  0.93321900  1
  C  C48  1  0.12000200  0.68678300  0.14218900  1
  C  C49  1  0.62000200  0.47781400  0.43321900  1
  C  C50  1  0.51468400  0.18498200  0.74165900  1
  C  C51  1  0.01468400  0.27302600  0.32970300  1
  C  C52  1  0.12999800  0.06321700  0.35781100  1
  C  C53  1  0.62999800  0.27218600  0.06678100  1
  C  C54  1  0.73531600  0.56501800  0.75834100  1
  C  C55  1  0.23531600  0.47697400  0.17029700  1
  C  C56  1  0.70540500  0.77218600  0.64218900  1
  C  C57  1  0.20540500  0.56321700  0.93321900  1
  C  C58  1  0.80667700  0.97697400  0.24165900  1
  C  C59  1  0.30667700  0.06501800  0.82970300  1
  C  C60  1  0.54459500  0.97781400  0.85781100  1
  C  C61  1  0.04459500  0.18678300  0.56678100  1
  C  C62  1  0.44332300  0.77302600  0.25834100  1
  C  C63  1  0.94332300  0.68498200  0.67029700  1
  C  C64  1  0.93498200  0.76468400  0.24165900  1
  C  C65  1  0.43498200  0.19332300  0.17029700  1
  C  C66  1  0.61453100  0.25445500  0.55898500  1
  C  C67  1  0.11453100  0.55554600  0.36007600  1
  C  C68  1  0.31501800  0.98531600  0.25834100  1
  C  C69  1  0.81501800  0.55667700  0.32970300  1
  C  C70  1  0.63546900  0.49554500  0.94101500  1
  C  C71  1  0.13546900  0.19445400  0.13992400  1
  C  C72  1  0.72697400  0.05667700  0.74165900  1
  C  C73  1  0.22697400  0.48531600  0.67029700  1
  C  C74  1  0.55453000  0.69445400  0.05898500  1
  C  C75  1  0.05453000  0.99554500  0.86007600  1
  C  C76  1  0.52302600  0.69332300  0.75834100  1
  C  C77  1  0.02302600  0.26468400  0.82970300  1
  C  C78  1  0.69547000  0.05554600  0.44101500  1
  C  C79  1  0.19547000  0.75445500  0.63992400  1
