# generated using pymatgen
data_CuNiC
_symmetry_space_group_name_H-M   'P 1'
_cell_length_a   4.17731800
_cell_length_b   7.07956100
_cell_length_c   7.98060000
_cell_angle_alpha   90.00000000
_cell_angle_beta   90.00000000
_cell_angle_gamma   90.00000000
_symmetry_Int_Tables_number   1
_chemical_formula_structural   CuNiC
_chemical_formula_sum   'Cu4 Ni4 C4'
_cell_volume   236.01489337
_cell_formula_units_Z   4
loop_
 _symmetry_equiv_pos_site_id
 _symmetry_equiv_pos_as_xyz
  1  'x, y, z'
loop_
 _atom_site_type_symbol
 _atom_site_label
 _atom_site_symmetry_multiplicity
 _atom_site_fract_x
 _atom_site_fract_y
 _atom_site_fract_z
 _atom_site_occupancy
  C  C0  1  0.25000000  0.52951700  0.30858400  1
  C  C1  1  0.25000000  0.02951700  0.19141600  1
  C  C2  1  0.75000000  0.47048300  0.69141600  1
  C  C3  1  0.75000000  0.97048300  0.80858400  1
  Ni  Ni4  1  0.25000000  0.25032800  0.88034200  1
  Ni  Ni5  1  0.25000000  0.75032800  0.61965800  1
  Ni  Ni6  1  0.75000000  0.74967200  0.11965800  1
  Ni  Ni7  1  0.75000000  0.24967200  0.38034200  1
  Cu  Cu8  1  0.25000000  0.64488700  0.93736800  1
  Cu  Cu9  1  0.25000000  0.14488700  0.56263200  1
  Cu  Cu10  1  0.75000000  0.35511300  0.06263200  1
  Cu  Cu11  1  0.75000000  0.85511300  0.43736800  1
