# generated using pymatgen
data_CuNi16C13
_symmetry_space_group_name_H-M   'P 1'
_cell_length_a   8.66707487
_cell_length_b   8.66707487
_cell_length_c   8.66707487
_cell_angle_alpha   95.62667275
_cell_angle_beta   95.62667275
_cell_angle_gamma   143.50488871
_symmetry_Int_Tables_number   1
_chemical_formula_structural   CuNi16C13
_chemical_formula_sum   'Cu1 Ni16 C13'
_cell_volume   367.74544969
_cell_formula_units_Z   1
loop_
 _symmetry_equiv_pos_site_id
 _symmetry_equiv_pos_as_xyz
  1  'x, y, z'
loop_
 _atom_site_type_symbol
 _atom_site_label
 _atom_site_symmetry_multiplicity
 _atom_site_fract_x
 _atom_site_fract_y
 _atom_site_fract_z
 _atom_site_occupancy
  C  C0  1  0.40358600  0.88784600  0.30577500  1
  C  C1  1  0.58207100  0.09781100  0.69422500  1
  C  C2  1  0.90218900  0.59641400  0.48426000  1
  C  C3  1  0.11215400  0.41792900  0.51574000  1
  C  C4  1  0.00000000  0.00000000  0.00000000  1
  C  C5  1  0.36155000  0.29459300  0.70204900  1
  C  C6  1  0.59254400  0.65950100  0.29795100  1
  C  C7  1  0.34049900  0.63845000  0.93304200  1
  C  C8  1  0.70540700  0.40745600  0.06695800  1
  C  C9  1  0.25748600  0.11465700  0.35014100  1
  C  C10  1  0.76451500  0.90734500  0.64985900  1
  C  C11  1  0.09265500  0.74251400  0.85717100  1
  C  C12  1  0.88534300  0.23548400  0.14282900  1
  Ni  Ni13  1  0.37461000  0.09719400  0.49716800  1
  Ni  Ni14  1  0.60002600  0.87744100  0.50283200  1
  Ni  Ni15  1  0.12255900  0.62539000  0.72258400  1
  Ni  Ni16  1  0.90280600  0.39997400  0.27741600  1
  Ni  Ni17  1  0.95137200  0.81303200  0.23577600  1
  Ni  Ni18  1  0.57725600  0.71559600  0.76422400  1
  Ni  Ni19  1  0.28440400  0.04862800  0.86166000  1
  Ni  Ni20  1  0.18696800  0.42274400  0.13834000  1
  Ni  Ni21  1  0.46309200  0.29196100  0.23838800  1
  Ni  Ni22  1  0.05357300  0.22470400  0.76161200  1
  Ni  Ni23  1  0.77529600  0.53690800  0.82886900  1
  Ni  Ni24  1  0.70803900  0.94642700  0.17113100  1
  Ni  Ni25  1  0.26880000  0.30212600  0.43962300  1
  Ni  Ni26  1  0.86250300  0.82917700  0.56037700  1
  Ni  Ni27  1  0.17082300  0.73120000  0.03332700  1
  Ni  Ni28  1  0.69787400  0.13749700  0.96667300  1
  Cu  Cu29  1  0.50000000  0.50000000  0.00000000  1
