# generated using pymatgen
data_CuNi14C17
_symmetry_space_group_name_H-M   'P 1'
_cell_length_a   8.74851779
_cell_length_b   8.64436934
_cell_length_c   4.40138939
_cell_angle_alpha   90.00000000
_cell_angle_beta   90.00000000
_cell_angle_gamma   90.00000000
_symmetry_Int_Tables_number   1
_chemical_formula_structural   CuNi14C17
_chemical_formula_sum   'Cu1 Ni14 C17'
_cell_volume   332.85691660
_cell_formula_units_Z   1
loop_
 _symmetry_equiv_pos_site_id
 _symmetry_equiv_pos_as_xyz
  1  'x, y, z'
loop_
 _atom_site_type_symbol
 _atom_site_label
 _atom_site_symmetry_multiplicity
 _atom_site_fract_x
 _atom_site_fract_y
 _atom_site_fract_z
 _atom_site_occupancy
  C  C0  1  0.00000000  0.00000000  0.00000000  1
  Ni  Ni1  1  0.50000000  0.00000000  0.00000000  1
  Ni  Ni2  1  0.50000000  0.50000000  0.00000000  1
  Ni  Ni3  1  0.00000000  0.25822645  0.50000000  1
  Ni  Ni4  1  0.00000000  0.74177355  0.50000000  1
  Ni  Ni5  1  0.50000000  0.25144496  0.50000000  1
  Ni  Ni6  1  0.50000000  0.74855504  0.50000000  1
  Ni  Ni7  1  0.26047336  0.00000000  0.50000000  1
  Ni  Ni8  1  0.25397852  0.50000000  0.50000000  1
  Ni  Ni9  1  0.73952664  0.00000000  0.50000000  1
  Ni  Ni10  1  0.74602148  0.50000000  0.50000000  1
  Ni  Ni11  1  0.25844291  0.25576310  0.00000000  1
  Ni  Ni12  1  0.25844291  0.74423690  0.00000000  1
  Ni  Ni13  1  0.74155709  0.25576310  0.00000000  1
  Ni  Ni14  1  0.74155709  0.74423690  0.00000000  1
  Cu  Cu15  1  0.00000000  0.50000000  0.00000000  1
  C  C16  1  0.27145224  0.00000000  0.00000000  1
  C  C17  1  0.26574714  0.50000000  0.00000000  1
  C  C18  1  0.72854776  0.00000000  0.00000000  1
  C  C19  1  0.73425286  0.50000000  0.00000000  1
  C  C20  1  0.24985563  0.25027979  0.50000000  1
  C  C21  1  0.24985563  0.74972021  0.50000000  1
  C  C22  1  0.75014437  0.25027979  0.50000000  1
  C  C23  1  0.75014437  0.74972021  0.50000000  1
  C  C24  1  0.00000000  0.00000000  0.50000000  1
  C  C25  1  0.00000000  0.50000000  0.50000000  1
  C  C26  1  0.50000000  0.00000000  0.50000000  1
  C  C27  1  0.50000000  0.50000000  0.50000000  1
  C  C28  1  0.00000000  0.26891451  0.00000000  1
  C  C29  1  0.00000000  0.73108549  0.00000000  1
  C  C30  1  0.50000000  0.25178064  0.00000000  1
  C  C31  1  0.50000000  0.74821936  0.00000000  1
