# generated using pymatgen
data_Cu2NiC4
_symmetry_space_group_name_H-M   'P 1'
_cell_length_a   3.18641400
_cell_length_b   9.89801700
_cell_length_c   10.81725900
_cell_angle_alpha   90.00000000
_cell_angle_beta   90.00000000
_cell_angle_gamma   90.00000000
_symmetry_Int_Tables_number   1
_chemical_formula_structural   Cu2NiC4
_chemical_formula_sum   'Cu8 Ni4 C16'
_cell_volume   341.16747807
_cell_formula_units_Z   4
loop_
 _symmetry_equiv_pos_site_id
 _symmetry_equiv_pos_as_xyz
  1  'x, y, z'
loop_
 _atom_site_type_symbol
 _atom_site_label
 _atom_site_symmetry_multiplicity
 _atom_site_fract_x
 _atom_site_fract_y
 _atom_site_fract_z
 _atom_site_occupancy
  Ni  Ni0  1  0.31490200  0.25000000  0.84880800  1
  Ni  Ni1  1  0.31490200  0.75000000  0.65119200  1
  Ni  Ni2  1  0.68509800  0.25000000  0.34880800  1
  Ni  Ni3  1  0.68509800  0.75000000  0.15119200  1
  Cu  Cu4  1  0.82320400  0.07060000  0.61548500  1
  Cu  Cu5  1  0.82320400  0.57060000  0.88451500  1
  Cu  Cu6  1  0.17679600  0.57060000  0.38451500  1
  Cu  Cu7  1  0.82320400  0.92940000  0.88451500  1
  Cu  Cu8  1  0.17679600  0.92940000  0.38451500  1
  Cu  Cu9  1  0.82320400  0.42940000  0.61548500  1
  Cu  Cu10  1  0.17679600  0.42940000  0.11548500  1
  Cu  Cu11  1  0.17679600  0.07060000  0.11548500  1
  C  C12  1  0.12522900  0.37616500  0.45145500  1
  C  C13  1  0.87477100  0.62383500  0.54854500  1
  C  C14  1  0.45407000  0.50000000  0.75000000  1
  C  C15  1  0.87477100  0.37616500  0.95145500  1
  C  C16  1  0.87477100  0.12383500  0.95145500  1
  C  C17  1  0.80273100  0.75000000  0.78469400  1
  C  C18  1  0.12522900  0.62383500  0.04854500  1
  C  C19  1  0.19726900  0.75000000  0.28469400  1
  C  C20  1  0.45407000  0.00000000  0.75000000  1
  C  C21  1  0.54593000  0.50000000  0.25000000  1
  C  C22  1  0.12522900  0.12383500  0.45145500  1
  C  C23  1  0.19726900  0.25000000  0.21530600  1
  C  C24  1  0.80273100  0.25000000  0.71530600  1
  C  C25  1  0.54593000  0.00000000  0.25000000  1
  C  C26  1  0.12522900  0.87616500  0.04854500  1
  C  C27  1  0.87477100  0.87616500  0.54854500  1
