# generated using pymatgen
data_Cu4(NiC8)3
_symmetry_space_group_name_H-M   'P 1'
_cell_length_a   10.98733358
_cell_length_b   10.98733358
_cell_length_c   10.98733358
_cell_angle_alpha   109.47122063
_cell_angle_beta   109.47122063
_cell_angle_gamma   109.47122063
_symmetry_Int_Tables_number   1
_chemical_formula_structural   Cu4(NiC8)3
_chemical_formula_sum   'Cu8 Ni6 C48'
_cell_volume   1021.06887867
_cell_formula_units_Z   2
loop_
 _symmetry_equiv_pos_site_id
 _symmetry_equiv_pos_as_xyz
  1  'x, y, z'
loop_
 _atom_site_type_symbol
 _atom_site_label
 _atom_site_symmetry_multiplicity
 _atom_site_fract_x
 _atom_site_fract_y
 _atom_site_fract_z
 _atom_site_occupancy
  Ni  Ni0  1  0.12500000  0.75000000  0.87500000  1
  Ni  Ni1  1  0.37500000  0.25000000  0.62500000  1
  Ni  Ni2  1  0.75000000  0.87500000  0.12500000  1
  Ni  Ni3  1  0.25000000  0.62500000  0.37500000  1
  Ni  Ni4  1  0.87500000  0.12500000  0.75000000  1
  Ni  Ni5  1  0.62500000  0.37500000  0.25000000  1
  Cu  Cu6  1  0.50000000  0.00000000  0.37681500  1
  Cu  Cu7  1  0.37681500  0.50000000  0.00000000  1
  Cu  Cu8  1  0.12318500  0.12318500  0.12318500  1
  Cu  Cu9  1  0.00000000  0.37681500  0.50000000  1
  Cu  Cu10  1  0.87681500  0.50000000  0.00000000  1
  Cu  Cu11  1  0.50000000  0.00000000  0.87681500  1
  Cu  Cu12  1  0.62318500  0.62318500  0.62318500  1
  Cu  Cu13  1  0.00000000  0.87681500  0.50000000  1
  C  C14  1  0.66988500  0.11244100  0.57721300  1
  C  C15  1  0.46477200  0.38755900  0.05744400  1
  C  C16  1  0.03522800  0.09267200  0.92278700  1
  C  C17  1  0.83011500  0.40732800  0.44255600  1
  C  C18  1  0.07721300  0.61244100  0.16988500  1
  C  C19  1  0.55744400  0.88755900  0.96477200  1
  C  C20  1  0.42278700  0.59267200  0.53522800  1
  C  C21  1  0.94255600  0.90732800  0.33011500  1
  C  C22  1  0.11244100  0.57721300  0.66988500  1
  C  C23  1  0.38755900  0.05744400  0.46477200  1
  C  C24  1  0.09267200  0.92278700  0.03522800  1
  C  C25  1  0.40732800  0.44255600  0.83011500  1
  C  C26  1  0.61244100  0.16988500  0.07721300  1
  C  C27  1  0.88755900  0.96477200  0.55744400  1
  C  C28  1  0.59267200  0.53522800  0.42278700  1
  C  C29  1  0.90732800  0.33011500  0.94255600  1
  C  C30  1  0.57721300  0.66988500  0.11244100  1
  C  C31  1  0.05744400  0.46477200  0.38755900  1
  C  C32  1  0.92278700  0.03522800  0.09267200  1
  C  C33  1  0.44255600  0.83011500  0.40732800  1
  C  C34  1  0.16988500  0.07721300  0.61244100  1
  C  C35  1  0.96477200  0.55744400  0.88755900  1
  C  C36  1  0.53522800  0.42278700  0.59267200  1
  C  C37  1  0.33011500  0.94255600  0.90732800  1
  C  C38  1  0.32877000  0.88156600  0.18272800  1
  C  C39  1  0.30116100  0.61843400  0.94720400  1
  C  C40  1  0.19883900  0.14604300  0.31727200  1
  C  C41  1  0.17123000  0.35395700  0.55279600  1
  C  C42  1  0.68272800  0.38156600  0.82877000  1
  C  C43  1  0.44720400  0.11843400  0.80116100  1
  C  C44  1  0.81727200  0.64604300  0.69883900  1
  C  C45  1  0.05279600  0.85395700  0.67123000  1
  C  C46  1  0.88156600  0.18272800  0.32877000  1
  C  C47  1  0.61843400  0.94720400  0.30116100  1
  C  C48  1  0.14604300  0.31727200  0.19883900  1
  C  C49  1  0.35395700  0.55279600  0.17123000  1
  C  C50  1  0.38156600  0.82877000  0.68272800  1
  C  C51  1  0.11843400  0.80116100  0.44720400  1
  C  C52  1  0.64604300  0.69883900  0.81727200  1
  C  C53  1  0.85395700  0.67123000  0.05279600  1
  C  C54  1  0.18272800  0.32877000  0.88156600  1
  C  C55  1  0.94720400  0.30116100  0.61843400  1
  C  C56  1  0.31727200  0.19883900  0.14604300  1
  C  C57  1  0.55279600  0.17123000  0.35395700  1
  C  C58  1  0.82877000  0.68272800  0.38156600  1
  C  C59  1  0.80116100  0.44720400  0.11843400  1
  C  C60  1  0.69883900  0.81727200  0.64604300  1
  C  C61  1  0.67123000  0.05279600  0.85395700  1
