# generated using pymatgen
data_Cu(NiC12)3
_symmetry_space_group_name_H-M   'P 1'
_cell_length_a   5.31873200
_cell_length_b   6.75535685
_cell_length_c   13.47387490
_cell_angle_alpha   90.55770385
_cell_angle_beta   101.14699595
_cell_angle_gamma   101.61969753
_symmetry_Int_Tables_number   1
_chemical_formula_structural   Cu(NiC12)3
_chemical_formula_sum   'Cu1 Ni3 C36'
_cell_volume   464.65096824
_cell_formula_units_Z   1
loop_
 _symmetry_equiv_pos_site_id
 _symmetry_equiv_pos_as_xyz
  1  'x, y, z'
loop_
 _atom_site_type_symbol
 _atom_site_label
 _atom_site_symmetry_multiplicity
 _atom_site_fract_x
 _atom_site_fract_y
 _atom_site_fract_z
 _atom_site_occupancy
  C  C0  1  0.10072900  0.70146500  0.85068200  1
  C  C1  1  0.60067500  0.70110300  0.35069300  1
  C  C2  1  0.39979700  0.29846700  0.64900100  1
  C  C3  1  0.89928500  0.29850400  0.14928100  1
  Ni  Ni4  1  0.29737700  0.09468100  0.04735900  1
  Ni  Ni5  1  0.70255700  0.90526700  0.95263100  1
  Ni  Ni6  1  0.20255100  0.90536300  0.45286400  1
  Cu  Cu7  1  0.79707700  0.09371400  0.54713400  1
  C  C8  1  0.86736500  0.62147400  0.59699200  1
  C  C9  1  0.36730200  0.62115600  0.09695200  1
  C  C10  1  0.04046300  0.19420800  0.81093500  1
  C  C11  1  0.54006300  0.19408000  0.31041700  1
  C  C12  1  0.63274100  0.37885400  0.90305900  1
  C  C13  1  0.13327200  0.37935800  0.40288800  1
  C  C14  1  0.45914600  0.80546000  0.68954900  1
  C  C15  1  0.95981100  0.80606900  0.18942600  1
  C  C16  1  0.86845000  0.79262500  0.51336000  1
  C  C17  1  0.36875800  0.79378400  0.01379700  1
  C  C18  1  0.04192800  0.02746600  0.89695200  1
  C  C19  1  0.54245900  0.02750000  0.39656800  1
  C  C20  1  0.63122900  0.20624800  0.98619200  1
  C  C21  1  0.13337100  0.20700900  0.48567500  1
  C  C22  1  0.45564000  0.97165000  0.60380400  1
  C  C23  1  0.95810900  0.97241200  0.10309400  1
  C  C24  1  0.73467800  0.39283300  0.55756200  1
  C  C25  1  0.23442300  0.39182000  0.05721000  1
  C  C26  1  0.01791200  0.11507000  0.69611600  1
  C  C27  1  0.51863400  0.11436200  0.19575200  1
  C  C28  1  0.76558500  0.60816200  0.94278300  1
  C  C29  1  0.26581300  0.60863000  0.44271400  1
  C  C30  1  0.48134100  0.88559500  0.80430800  1
  C  C31  1  0.98135800  0.88561100  0.30413300  1
  C  C32  1  0.17143100  0.63169300  0.66566500  1
  C  C33  1  0.67169700  0.63203100  0.16555100  1
  C  C34  1  0.80988300  0.33108200  0.81603400  1
  C  C35  1  0.31004100  0.33115200  0.31583700  1
  C  C36  1  0.32838300  0.36798100  0.83446000  1
  C  C37  1  0.82833800  0.36794000  0.33446700  1
  C  C38  1  0.69022600  0.66919400  0.68411100  1
  C  C39  1  0.19010300  0.66892600  0.18399100  1
