# generated using pymatgen
data_CuNi3C10
_symmetry_space_group_name_H-M   'P 1'
_cell_length_a   5.33506858
_cell_length_b   13.96928820
_cell_length_c   18.61023983
_cell_angle_alpha   90.00000000
_cell_angle_beta   90.00000000
_cell_angle_gamma   90.00000000
_symmetry_Int_Tables_number   1
_chemical_formula_structural   CuNi3C10
_chemical_formula_sum   'Cu8 Ni24 C80'
_cell_volume   1386.96740137
_cell_formula_units_Z   8
loop_
 _symmetry_equiv_pos_site_id
 _symmetry_equiv_pos_as_xyz
  1  'x, y, z'
loop_
 _atom_site_type_symbol
 _atom_site_label
 _atom_site_symmetry_multiplicity
 _atom_site_fract_x
 _atom_site_fract_y
 _atom_site_fract_z
 _atom_site_occupancy
  Ni  Ni0  1  0.99127296  0.21702742  0.99214751  1
  Ni  Ni1  1  0.00872704  0.78297258  0.49214751  1
  Ni  Ni2  1  0.00872704  0.71702742  0.99214751  1
  Ni  Ni3  1  0.99127296  0.28297258  0.49214751  1
  Ni  Ni4  1  0.99273704  0.95207882  0.64912355  1
  Ni  Ni5  1  0.00726296  0.04792118  0.14912355  1
  Ni  Ni6  1  0.00726296  0.45207882  0.64912355  1
  Ni  Ni7  1  0.99273704  0.54792118  0.14912355  1
  Ni  Ni8  1  0.99719004  0.86137400  0.82775993  1
  Ni  Ni9  1  0.00280996  0.13862600  0.32775993  1
  Ni  Ni10  1  0.00280996  0.36137400  0.82775993  1
  Ni  Ni11  1  0.99719004  0.63862600  0.32775993  1
  Ni  Ni12  1  0.48005588  0.79712790  0.72906229  1
  Ni  Ni13  1  0.51994412  0.20287210  0.22906229  1
  Ni  Ni14  1  0.51994412  0.29712790  0.72906229  1
  Ni  Ni15  1  0.48005588  0.70287210  0.22906229  1
  Ni  Ni16  1  0.53806397  0.96882544  0.88801449  1
  Ni  Ni17  1  0.46193603  0.03117456  0.38801449  1
  Ni  Ni18  1  0.46193603  0.46882544  0.88801449  1
  Ni  Ni19  1  0.53806397  0.53117456  0.38801449  1
  Ni  Ni20  1  0.50037226  0.88814229  0.54952497  1
  Ni  Ni21  1  0.49962774  0.11185771  0.04952497  1
  Ni  Ni22  1  0.49962774  0.38814229  0.54952497  1
  Ni  Ni23  1  0.50037226  0.61185771  0.04952497  1
  Cu  Cu24  1  0.92897369  0.61116217  0.80433071  1
  Cu  Cu25  1  0.07102631  0.38883783  0.30433071  1
  Cu  Cu26  1  0.07102631  0.11116217  0.80433071  1
  Cu  Cu27  1  0.92897369  0.88883783  0.30433071  1
  Cu  Cu28  1  0.55599058  0.63849466  0.57273513  1
  Cu  Cu29  1  0.44400942  0.36150534  0.07273513  1
  Cu  Cu30  1  0.44400942  0.13849466  0.57273513  1
  Cu  Cu31  1  0.55599058  0.86150534  0.07273513  1
  C  C32  1  0.96921504  0.47542158  0.98115209  1
  C  C33  1  0.03078496  0.52457842  0.48115209  1
  C  C34  1  0.03078496  0.97542158  0.98115209  1
  C  C35  1  0.96921504  0.02457842  0.48115209  1
  C  C36  1  0.99240701  0.22268934  0.65270055  1
  C  C37  1  0.00759299  0.77731066  0.15270055  1
  C  C38  1  0.00759299  0.72268934  0.65270055  1
  C  C39  1  0.99240701  0.27731066  0.15270055  1
  C  C40  1  0.48039973  0.52662792  0.72479890  1
  C  C41  1  0.51960027  0.47337208  0.22479890  1
  C  C42  1  0.51960027  0.02662792  0.72479890  1
  C  C43  1  0.48039973  0.97337208  0.22479890  1
  C  C44  1  0.46163059  0.72644088  0.89613751  1
  C  C45  1  0.53836941  0.27355912  0.39613751  1
  C  C46  1  0.53836941  0.22644088  0.89613751  1
  C  C47  1  0.46163059  0.77355912  0.39613751  1
  C  C48  1  0.57353341  0.80828517  0.85058037  1
  C  C49  1  0.42646659  0.19171483  0.35058037  1
  C  C50  1  0.42646659  0.30828517  0.85058037  1
  C  C51  1  0.57353341  0.69171483  0.35058037  1
  C  C52  1  0.69803696  0.47242505  0.76359977  1
  C  C53  1  0.30196304  0.52757495  0.26359977  1
  C  C54  1  0.30196304  0.97242505  0.76359977  1
  C  C55  1  0.69803696  0.02757495  0.26359977  1
  C  C56  1  0.87886754  0.88135209  0.99411959  1
  C  C57  1  0.12113246  0.11864791  0.49411959  1
  C  C58  1  0.12113246  0.38135209  0.99411959  1
  C  C59  1  0.87886754  0.61864791  0.49411959  1
  C  C60  1  0.79246853  0.77582520  0.61185513  1
  C  C61  1  0.20753147  0.22417480  0.11185513  1
  C  C62  1  0.20753147  0.27582520  0.61185513  1
  C  C63  1  0.79246853  0.72417480  0.11185513  1
  C  C64  1  0.68653451  0.45921090  0.00058396  1
  C  C65  1  0.31346549  0.54078910  0.50058396  1
  C  C66  1  0.31346549  0.95921090  0.00058396  1
  C  C67  1  0.68653451  0.04078910  0.50058396  1
  C  C68  1  0.91979586  0.44288561  0.52703586  1
  C  C69  1  0.08020414  0.55711439  0.02703586  1
  C  C70  1  0.08020414  0.94288561  0.52703586  1
  C  C71  1  0.91979586  0.05711439  0.02703586  1
  C  C72  1  0.77218615  0.99986293  0.76142365  1
  C  C73  1  0.22781385  0.00013707  0.26142365  1
  C  C74  1  0.22781385  0.49986293  0.76142365  1
  C  C75  1  0.77218615  0.50013707  0.26142365  1
  C  C76  1  0.61465608  0.63242677  0.88470597  1
  C  C77  1  0.38534392  0.36757323  0.38470597  1
  C  C78  1  0.38534392  0.13242677  0.88470597  1
  C  C79  1  0.61465608  0.86757323  0.38470597  1
  C  C80  1  0.53540670  0.63491128  0.73074963  1
  C  C81  1  0.46459330  0.36508872  0.23074963  1
  C  C82  1  0.46459330  0.13491128  0.73074963  1
  C  C83  1  0.53540670  0.86508872  0.23074963  1
  C  C84  1  0.95374648  0.61437913  0.64778471  1
  C  C85  1  0.04625352  0.38562087  0.14778471  1
  C  C86  1  0.04625352  0.11437913  0.64778471  1
  C  C87  1  0.95374648  0.88562087  0.14778471  1
  C  C88  1  0.81907042  0.20893252  0.87434651  1
  C  C89  1  0.18092958  0.79106748  0.37434651  1
  C  C90  1  0.18092958  0.70893252  0.87434651  1
  C  C91  1  0.81907042  0.29106748  0.37434651  1
  C  C92  1  0.99184448  0.25364643  0.73313471  1
  C  C93  1  0.00815552  0.74635357  0.23313471  1
  C  C94  1  0.00815552  0.75364643  0.73313471  1
  C  C95  1  0.99184448  0.24635357  0.23313471  1
  C  C96  1  0.52658258  0.99744172  0.64401355  1
  C  C97  1  0.47341742  0.00255828  0.14401355  1
  C  C98  1  0.47341742  0.49744172  0.64401355  1
  C  C99  1  0.52658258  0.50255828  0.14401355  1
  C  C100  1  0.00702313  0.99801087  0.89923022  1
  C  C101  1  0.99297687  0.00198913  0.39923022  1
  C  C102  1  0.99297687  0.49801087  0.89923022  1
  C  C103  1  0.00702313  0.50198913  0.39923022  1
  C  C104  1  0.26245931  0.74949365  0.61779913  1
  C  C105  1  0.73754069  0.25050635  0.11779913  1
  C  C106  1  0.73754069  0.24949365  0.61779913  1
  C  C107  1  0.26245931  0.75050635  0.11779913  1
  C  C108  1  0.46831259  0.74940827  0.97814962  1
  C  C109  1  0.53168741  0.25059173  0.47814962  1
  C  C110  1  0.53168741  0.24940827  0.97814962  1
  C  C111  1  0.46831259  0.75059173  0.47814962  1
