# generated using pymatgen
data_Cu3Ni5C2
_symmetry_space_group_name_H-M   'P 1'
_cell_length_a   7.95696805
_cell_length_b   7.95696805
_cell_length_c   7.95696805
_cell_angle_alpha   137.71617026
_cell_angle_beta   106.11422761
_cell_angle_gamma   89.00447986
_symmetry_Int_Tables_number   1
_chemical_formula_structural   Cu3Ni5C2
_chemical_formula_sum   'Cu6 Ni10 C4'
_cell_volume   311.55681168
_cell_formula_units_Z   2
loop_
 _symmetry_equiv_pos_site_id
 _symmetry_equiv_pos_as_xyz
  1  'x, y, z'
loop_
 _atom_site_type_symbol
 _atom_site_label
 _atom_site_symmetry_multiplicity
 _atom_site_fract_x
 _atom_site_fract_y
 _atom_site_fract_z
 _atom_site_occupancy
  C  C0  1  0.89209400  0.62992200  0.26217200  1
  C  C1  1  0.10790600  0.37007800  0.73782800  1
  C  C2  1  0.63225000  0.87007800  0.76217200  1
  C  C3  1  0.36775000  0.12992200  0.23782800  1
  Ni  Ni4  1  0.24309800  0.89089200  0.35220600  1
  Ni  Ni5  1  0.75690300  0.10910800  0.64779400  1
  Ni  Ni6  1  0.46131400  0.60910800  0.85220600  1
  Ni  Ni7  1  0.53868600  0.39089200  0.14779400  1
  Ni  Ni8  1  0.73561700  0.98561700  0.25000000  1
  Ni  Ni9  1  0.26438300  0.51438300  0.25000000  1
  Ni  Ni10  1  0.26438300  0.01438300  0.75000000  1
  Ni  Ni11  1  0.73561700  0.48561700  0.75000000  1
  Ni  Ni12  1  0.00000000  0.75000000  0.75000000  1
  Ni  Ni13  1  0.00000000  0.25000000  0.25000000  1
  Cu  Cu14  1  0.97812900  0.86662900  0.11150000  1
  Cu  Cu15  1  0.02187100  0.13337100  0.88850000  1
  Cu  Cu16  1  0.24487100  0.63337100  0.61150000  1
  Cu  Cu17  1  0.75512900  0.36662900  0.38850000  1
  Cu  Cu18  1  0.50000000  0.75000000  0.25000000  1
  Cu  Cu19  1  0.50000000  0.25000000  0.75000000  1
