# generated using pymatgen
data_Cu5NiC17
_symmetry_space_group_name_H-M   'P 1'
_cell_length_a   5.40567500
_cell_length_b   8.60772343
_cell_length_c   8.60772343
_cell_angle_alpha   119.99999565
_cell_angle_beta   90.00000000
_cell_angle_gamma   90.00000000
_symmetry_Int_Tables_number   1
_chemical_formula_structural   Cu5NiC17
_chemical_formula_sum   'Cu5 Ni1 C17'
_cell_volume   346.86237356
_cell_formula_units_Z   1
loop_
 _symmetry_equiv_pos_site_id
 _symmetry_equiv_pos_as_xyz
  1  'x, y, z'
loop_
 _atom_site_type_symbol
 _atom_site_label
 _atom_site_symmetry_multiplicity
 _atom_site_fract_x
 _atom_site_fract_y
 _atom_site_fract_z
 _atom_site_occupancy
  C  C0  1  0.18076800  0.66663900  0.91833600  1
  C  C1  1  0.18076800  0.25169700  0.33336100  1
  C  C2  1  0.18076800  0.08166400  0.74830300  1
  Ni  Ni3  1  0.18015000  0.66666700  0.33333300  1
  Cu  Cu4  1  0.67649900  0.00000000  0.00000000  1
  Cu  Cu5  1  0.68554200  0.33333300  0.66666700  1
  Cu  Cu6  1  0.68087200  0.91401300  0.33350900  1
  Cu  Cu7  1  0.68087200  0.41949700  0.08598700  1
  Cu  Cu8  1  0.68087200  0.66649100  0.58050300  1
  C  C9  1  0.83257400  0.50574800  0.63809800  1
  C  C10  1  0.83257400  0.13234900  0.49425200  1
  C  C11  1  0.83257400  0.36190200  0.86765100  1
  C  C12  1  0.43112900  0.89520300  0.44925900  1
  C  C13  1  0.43112900  0.55405600  0.10479700  1
  C  C14  1  0.43112900  0.55074100  0.44594400  1
  C  C15  1  0.36758600  0.33333300  0.66666700  1
  C  C16  1  0.92974000  0.77852100  0.21693000  1
  C  C17  1  0.92974000  0.43840900  0.22147900  1
  C  C18  1  0.92974000  0.78307000  0.56159100  1
  C  C19  1  0.99474700  0.00000000  0.00000000  1
  C  C20  1  0.52927600  0.97222900  0.17299100  1
  C  C21  1  0.52927600  0.20076200  0.02777100  1
  C  C22  1  0.52927600  0.82700900  0.79923800  1
