# generated using pymatgen
data_CuNi4C5
_symmetry_space_group_name_H-M   'P 1'
_cell_length_a   6.53956200
_cell_length_b   8.35518600
_cell_length_c   9.72050500
_cell_angle_alpha   90.00000000
_cell_angle_beta   90.00000000
_cell_angle_gamma   90.00000000
_symmetry_Int_Tables_number   1
_chemical_formula_structural   CuNi4C5
_chemical_formula_sum   'Cu2 Ni8 C10'
_cell_volume   531.12116959
_cell_formula_units_Z   2
loop_
 _symmetry_equiv_pos_site_id
 _symmetry_equiv_pos_as_xyz
  1  'x, y, z'
loop_
 _atom_site_type_symbol
 _atom_site_label
 _atom_site_symmetry_multiplicity
 _atom_site_fract_x
 _atom_site_fract_y
 _atom_site_fract_z
 _atom_site_occupancy
  C  C0  1  0.89434300  0.74443300  0.77258800  1
  C  C1  1  0.89434300  0.74443300  0.22741200  1
  C  C2  1  0.10565700  0.24443300  0.72741200  1
  C  C3  1  0.10565700  0.24443300  0.27258800  1
  C  C4  1  0.50315500  0.49665200  0.50000000  1
  C  C5  1  0.49684500  0.99665200  0.00000000  1
  C  C6  1  0.11339000  0.65961700  0.50000000  1
  C  C7  1  0.88661000  0.15961700  0.00000000  1
  C  C8  1  0.49808300  0.99114900  0.50000000  1
  C  C9  1  0.50191700  0.49114900  0.00000000  1
  Ni  Ni10  1  0.40553600  0.85122700  0.68683600  1
  Ni  Ni11  1  0.40553600  0.85122700  0.31316400  1
  Ni  Ni12  1  0.59446400  0.35122700  0.81316400  1
  Ni  Ni13  1  0.59446400  0.35122700  0.18683600  1
  Ni  Ni14  1  0.83792300  0.02266200  0.50000000  1
  Ni  Ni15  1  0.16207700  0.52266200  0.00000000  1
  Ni  Ni16  1  0.00060500  0.52376800  0.50000000  1
  Ni  Ni17  1  0.99939500  0.02376800  0.00000000  1
  Cu  Cu18  1  0.37009200  0.18139100  0.50000000  1
  Cu  Cu19  1  0.62990800  0.68139100  0.00000000  1
