# generated using pymatgen
data_Cu2Ni5C
_symmetry_space_group_name_H-M   'P 1'
_cell_length_a   9.08736600
_cell_length_b   9.36923800
_cell_length_c   14.63936100
_cell_angle_alpha   90.00000000
_cell_angle_beta   90.00000000
_cell_angle_gamma   90.00000000
_symmetry_Int_Tables_number   1
_chemical_formula_structural   Cu2Ni5C
_chemical_formula_sum   'Cu8 Ni20 C4'
_cell_volume   1246.42000702
_cell_formula_units_Z   4
loop_
 _symmetry_equiv_pos_site_id
 _symmetry_equiv_pos_as_xyz
  1  'x, y, z'
loop_
 _atom_site_type_symbol
 _atom_site_label
 _atom_site_symmetry_multiplicity
 _atom_site_fract_x
 _atom_site_fract_y
 _atom_site_fract_z
 _atom_site_occupancy
  C  C0  1  0.25000000  0.02123800  0.53427100  1
  C  C1  1  0.25000000  0.47876200  0.03427100  1
  C  C2  1  0.75000000  0.97876200  0.46572900  1
  C  C3  1  0.75000000  0.52123800  0.96572900  1
  Ni  Ni4  1  0.25000000  0.03452300  0.20505600  1
  Ni  Ni5  1  0.25000000  0.46547700  0.70505600  1
  Ni  Ni6  1  0.75000000  0.96547700  0.79494400  1
  Ni  Ni7  1  0.75000000  0.53452300  0.29494400  1
  Ni  Ni8  1  0.25000000  0.86098500  0.69166400  1
  Ni  Ni9  1  0.25000000  0.63901500  0.19166400  1
  Ni  Ni10  1  0.75000000  0.13901500  0.30833600  1
  Ni  Ni11  1  0.75000000  0.36098500  0.80833600  1
  Ni  Ni12  1  0.54972500  0.11410900  0.60076900  1
  Ni  Ni13  1  0.95027500  0.38589100  0.10076900  1
  Ni  Ni14  1  0.04972500  0.88589100  0.39923100  1
  Ni  Ni15  1  0.45027500  0.61410900  0.89923100  1
  Ni  Ni16  1  0.45027500  0.88589100  0.39923100  1
  Ni  Ni17  1  0.04972500  0.61410900  0.89923100  1
  Ni  Ni18  1  0.95027500  0.11410900  0.60076900  1
  Ni  Ni19  1  0.54972500  0.38589100  0.10076900  1
  Ni  Ni20  1  0.25000000  0.33289700  0.48088400  1
  Ni  Ni21  1  0.25000000  0.16710300  0.98088400  1
  Ni  Ni22  1  0.75000000  0.66710300  0.51911600  1
  Ni  Ni23  1  0.75000000  0.83289700  0.01911600  1
  Cu  Cu24  1  0.09238300  0.42652900  0.62573800  1
  Cu  Cu25  1  0.40761700  0.07347100  0.12573800  1
  Cu  Cu26  1  0.59238300  0.57347100  0.37426200  1
  Cu  Cu27  1  0.90761700  0.92652900  0.87426200  1
  Cu  Cu28  1  0.90761700  0.57347100  0.37426200  1
  Cu  Cu29  1  0.59238300  0.92652900  0.87426200  1
  Cu  Cu30  1  0.40761700  0.42652900  0.62573800  1
  Cu  Cu31  1  0.09238300  0.07347100  0.12573800  1
