# generated using pymatgen
data_CuNi10C7
_symmetry_space_group_name_H-M   'P 1'
_cell_length_a   7.15780133
_cell_length_b   9.04578817
_cell_length_c   9.67527702
_cell_angle_alpha   82.80779713
_cell_angle_beta   90.77160578
_cell_angle_gamma   76.03011148
_symmetry_Int_Tables_number   1
_chemical_formula_structural   CuNi10C7
_chemical_formula_sum   'Cu1 Ni10 C7'
_cell_volume   602.52092593
_cell_formula_units_Z   1
loop_
 _symmetry_equiv_pos_site_id
 _symmetry_equiv_pos_as_xyz
  1  'x, y, z'
loop_
 _atom_site_type_symbol
 _atom_site_label
 _atom_site_symmetry_multiplicity
 _atom_site_fract_x
 _atom_site_fract_y
 _atom_site_fract_z
 _atom_site_occupancy
  C  C0  1  0.39935600  0.69636000  0.33794600  1
  C  C1  1  0.54168100  0.61631700  0.64946600  1
  C  C2  1  0.49171100  0.33828600  0.37931800  1
  C  C3  1  0.10455600  0.96622800  0.18353200  1
  C  C4  1  0.06084700  0.21638500  0.96208000  1
  C  C5  1  0.90998200  0.81914100  0.02165400  1
  C  C6  1  0.81497000  0.08531900  0.83083300  1
  Ni  Ni7  1  0.45151500  0.19520100  0.19441600  1
  Ni  Ni8  1  0.40568700  0.46847400  0.81443300  1
  Ni  Ni9  1  0.80319800  0.19783400  0.44076200  1
  Ni  Ni10  1  0.17248300  0.52919700  0.29862300  1
  Ni  Ni11  1  0.60646100  0.52119600  0.19532400  1
  Ni  Ni12  1  0.33498900  0.20506700  0.53849700  1
  Ni  Ni13  1  0.86324700  0.47259200  0.70247800  1
  Ni  Ni14  1  0.65561900  0.78197300  0.44593500  1
  Ni  Ni15  1  0.22046600  0.77807000  0.55144400  1
  Ni  Ni16  1  0.55901000  0.81037400  0.79188500  1
  Cu  Cu17  1  0.51163000  0.49484500  0.49708600  1
