# generated using pymatgen
data_Cu5Ni2C21
_symmetry_space_group_name_H-M   'P 1'
_cell_length_a   9.15092246
_cell_length_b   9.29977663
_cell_length_c   16.75411338
_cell_angle_alpha   90.00000000
_cell_angle_beta   90.00000000
_cell_angle_gamma   110.78593782
_symmetry_Int_Tables_number   1
_chemical_formula_structural   Cu5Ni2C21
_chemical_formula_sum   'Cu20 Ni8 C84'
_cell_volume   1332.99938777
_cell_formula_units_Z   4
loop_
 _symmetry_equiv_pos_site_id
 _symmetry_equiv_pos_as_xyz
  1  'x, y, z'
loop_
 _atom_site_type_symbol
 _atom_site_label
 _atom_site_symmetry_multiplicity
 _atom_site_fract_x
 _atom_site_fract_y
 _atom_site_fract_z
 _atom_site_occupancy
  C  C0  1  0.67084609  0.30545135  0.06460931  1
  C  C1  1  0.82915391  0.69454865  0.56460931  1
  C  C2  1  0.32915391  0.69454865  0.93539069  1
  C  C3  1  0.17084609  0.30545135  0.43539069  1
  Ni  Ni4  1  0.12456861  0.29517265  0.72836510  1
  Ni  Ni5  1  0.37543139  0.70482735  0.22836510  1
  Ni  Ni6  1  0.87543139  0.70482735  0.27163490  1
  Ni  Ni7  1  0.62456861  0.29517265  0.77163490  1
  Ni  Ni8  1  0.89099127  0.86543666  0.87324204  1
  Ni  Ni9  1  0.60900873  0.13456334  0.37324204  1
  Ni  Ni10  1  0.10900873  0.13456334  0.12675796  1
  Ni  Ni11  1  0.39099127  0.86543666  0.62675796  1
  Cu  Cu12  1  0.77711741  0.52261124  0.18325968  1
  Cu  Cu13  1  0.72288259  0.47738876  0.68325968  1
  Cu  Cu14  1  0.22288259  0.47738876  0.81674032  1
  Cu  Cu15  1  0.27711741  0.52261124  0.31674032  1
  Cu  Cu16  1  0.85348131  0.70519202  0.40090403  1
  Cu  Cu17  1  0.64651869  0.29480798  0.90090403  1
  Cu  Cu18  1  0.14651869  0.29480798  0.59909597  1
  Cu  Cu19  1  0.35348131  0.70519202  0.09909597  1
  Cu  Cu20  1  0.97654386  0.07289472  0.79036434  1
  Cu  Cu21  1  0.52345614  0.92710528  0.29036434  1
  Cu  Cu22  1  0.02345614  0.92710528  0.20963566  1
  Cu  Cu23  1  0.47654386  0.07289472  0.70963566  1
  Cu  Cu24  1  0.08550126  0.79602410  0.91177774  1
  Cu  Cu25  1  0.41449874  0.20397590  0.41177774  1
  Cu  Cu26  1  0.91449874  0.20397590  0.08822226  1
  Cu  Cu27  1  0.58550126  0.79602410  0.58822226  1
  Cu  Cu28  1  0.13946461  0.77513134  0.60347824  1
  Cu  Cu29  1  0.36053539  0.22486866  0.10347824  1
  Cu  Cu30  1  0.86053539  0.22486866  0.39652176  1
  Cu  Cu31  1  0.63946461  0.77513134  0.89652176  1
  C  C32  1  0.91585411  0.56349808  0.20839562  1
  C  C33  1  0.58414589  0.43650192  0.70839562  1
  C  C34  1  0.08414589  0.43650192  0.79160438  1
  C  C35  1  0.41585411  0.56349808  0.29160438  1
  C  C36  1  0.71734356  0.38857167  0.20142215  1
  C  C37  1  0.78265644  0.61142833  0.70142215  1
  C  C38  1  0.28265644  0.61142833  0.79857785  1
  C  C39  1  0.21734356  0.38857167  0.29857785  1
  C  C40  1  0.69583197  0.59098547  0.21496085  1
  C  C41  1  0.80416803  0.40901453  0.71496085  1
  C  C42  1  0.30416803  0.40901453  0.78503915  1
  C  C43  1  0.19583197  0.59098547  0.28503915  1
  C  C44  1  0.78813406  0.55764417  0.11315108  1
  C  C45  1  0.71186594  0.44235583  0.61315108  1
  C  C46  1  0.21186594  0.44235583  0.88684892  1
  C  C47  1  0.28813406  0.55764417  0.38684892  1
  C  C48  1  0.92249044  0.81910036  0.43980395  1
  C  C49  1  0.57750956  0.18089964  0.93980395  1
  C  C50  1  0.07750956  0.18089964  0.56019605  1
  C  C51  1  0.42249044  0.81910036  0.06019605  1
  C  C52  1  0.76392056  0.74328932  0.35552316  1
  C  C53  1  0.73607944  0.25671068  0.85552316  1
  C  C54  1  0.23607944  0.25671068  0.64447684  1
  C  C55  1  0.26392056  0.74328932  0.14447684  1
  C  C56  1  0.95790363  0.66932471  0.36607387  1
  C  C57  1  0.54209637  0.33067529  0.86607387  1
  C  C58  1  0.04209637  0.33067529  0.63392613  1
  C  C59  1  0.45790363  0.66932471  0.13392613  1
  C  C60  1  0.77200309  0.58976074  0.43481738  1
  C  C61  1  0.72799691  0.41023926  0.93481738  1
  C  C62  1  0.22799691  0.41023926  0.56518262  1
  C  C63  1  0.27200309  0.58976074  0.06518262  1
  C  C64  1  0.93170506  0.94370234  0.76080343  1
  C  C65  1  0.56829494  0.05629766  0.26080343  1
  C  C66  1  0.06829494  0.05629766  0.23919657  1
  C  C67  1  0.43170506  0.94370234  0.73919657  1
  C  C68  1  0.94836642  0.08629361  0.86161510  1
  C  C69  1  0.55163358  0.91370639  0.36161510  1
  C  C70  1  0.05163358  0.91370639  0.13838490  1
  C  C71  1  0.44836642  0.08629361  0.63838490  1
  C  C72  1  0.12096473  0.11998918  0.78485815  1
  C  C73  1  0.37903527  0.88001082  0.28485815  1
  C  C74  1  0.87903527  0.88001082  0.21514185  1
  C  C75  1  0.62096473  0.11998918  0.71514185  1
  C  C76  1  0.90662521  0.14308463  0.75372167  1
  C  C77  1  0.59337479  0.85691537  0.25372167  1
  C  C78  1  0.09337479  0.85691537  0.24627833  1
  C  C79  1  0.40662521  0.14308463  0.74627833  1
  C  C80  1  0.99628232  0.73803842  0.85337943  1
  C  C81  1  0.50371768  0.26196158  0.35337943  1
  C  C82  1  0.00371768  0.26196158  0.14662057  1
  C  C83  1  0.49628232  0.73803842  0.64662057  1
  C  C84  1  0.21379112  0.86181059  0.88285856  1
  C  C85  1  0.28620888  0.13818941  0.38285856  1
  C  C86  1  0.78620888  0.13818941  0.11714144  1
  C  C87  1  0.71379112  0.86181059  0.61714144  1
  C  C88  1  0.05223158  0.89398595  0.95207504  1
  C  C89  1  0.44776842  0.10601405  0.45207504  1
  C  C90  1  0.94776842  0.10601405  0.04792496  1
  C  C91  1  0.55223158  0.89398595  0.54792496  1
  C  C92  1  0.07002804  0.68767769  0.95494775  1
  C  C93  1  0.42997196  0.31232231  0.45494775  1
  C  C94  1  0.92997196  0.31232231  0.04505225  1
  C  C95  1  0.57002804  0.68767769  0.54505225  1
  C  C96  1  0.07357472  0.65488914  0.56946470  1
  C  C97  1  0.42642528  0.34511086  0.06946470  1
  C  C98  1  0.92642528  0.34511086  0.43053530  1
  C  C99  1  0.57357472  0.65488914  0.93053530  1
  C  C100  1  0.19651997  0.74052285  0.66545452  1
  C  C101  1  0.30348003  0.25947715  0.16545452  1
  C  C102  1  0.80348003  0.25947715  0.33454548  1
  C  C103  1  0.69651997  0.74052285  0.83454548  1
  C  C104  1  0.23784299  0.85789249  0.55423668  1
  C  C105  1  0.26215701  0.14210751  0.05423668  1
  C  C106  1  0.76215701  0.14210751  0.44576332  1
  C  C107  1  0.73784299  0.85789249  0.94576332  1
  C  C108  1  0.06298275  0.85129863  0.62531310  1
  C  C109  1  0.43701725  0.14870137  0.12531310  1
  C  C110  1  0.93701725  0.14870137  0.37468690  1
  C  C111  1  0.56298275  0.85129863  0.87468690  1
