# generated using pymatgen
data_CuNi4C19
_symmetry_space_group_name_H-M   'P 1'
_cell_length_a   2.88382706
_cell_length_b   29.13950197
_cell_length_c   5.18861001
_cell_angle_alpha   88.00387145
_cell_angle_beta   90.01933732
_cell_angle_gamma   89.99454053
_symmetry_Int_Tables_number   1
_chemical_formula_structural   CuNi4C19
_chemical_formula_sum   'Cu2 Ni8 C38'
_cell_volume   435.75133082
_cell_formula_units_Z   2
loop_
 _symmetry_equiv_pos_site_id
 _symmetry_equiv_pos_as_xyz
  1  'x, y, z'
loop_
 _atom_site_type_symbol
 _atom_site_label
 _atom_site_symmetry_multiplicity
 _atom_site_fract_x
 _atom_site_fract_y
 _atom_site_fract_z
 _atom_site_occupancy
  C  C0  1  0.00124500  0.08256900  0.66288900  1
  C  C1  1  0.99989100  0.58828200  0.68481200  1
  C  C2  1  0.49319300  0.32640300  0.14607100  1
  C  C3  1  0.49999400  0.83402300  0.16788500  1
  C  C4  1  0.50180500  0.08396300  0.17004100  1
  C  C5  1  0.50038900  0.58310600  0.16423600  1
  C  C6  1  0.50059000  0.00430600  0.51143700  1
  C  C7  1  0.50061900  0.50540200  0.49258800  1
  C  C8  1  0.50216200  0.16215000  0.83564300  1
  C  C9  1  0.50006000  0.66339800  0.82208100  1
  C  C10  1  0.99844000  0.24911200  0.98127600  1
  C  C11  1  0.99999800  0.75132300  0.98617500  1
  C  C12  1  0.99699500  0.41587700  0.35468500  1
  C  C13  1  0.99996200  0.91767200  0.35175000  1
  Ni  Ni14  1  0.00120100  0.50309900  0.00938700  1
  Ni  Ni15  1  0.00363300  0.16340000  0.31120200  1
  Ni  Ni16  1  0.49970800  0.25037500  0.49123600  1
  Ni  Ni17  1  0.49779600  0.41741800  0.84804900  1
  Ni  Ni18  1  0.00051100  0.00407200  0.03864400  1
  Ni  Ni19  1  0.00007000  0.66231700  0.29464800  1
  Ni  Ni20  1  0.49985700  0.74897400  0.47914500  1
  Ni  Ni21  1  0.49985700  0.91733000  0.85544300  1
  Cu  Cu22  1  0.99998000  0.83316100  0.66739500  1
  Cu  Cu23  1  0.99758300  0.33337100  0.67150100  1
  C  C24  1  0.50038100  0.46152100  0.14135800  1
  C  C25  1  0.50044200  0.96443000  0.18163800  1
  C  C26  1  0.50333300  0.20327200  0.17197800  1
  C  C27  1  0.50001300  0.70127000  0.15122400  1
  C  C28  1  0.00079000  0.03911500  0.32148400  1
  C  C29  1  0.00056700  0.53585400  0.29702800  1
  C  C30  1  0.00249400  0.12881800  0.02668800  1
  C  C31  1  0.00008300  0.62672800  0.01071800  1
  C  C32  1  0.50365700  0.12984300  0.48308600  1
  C  C33  1  0.50010900  0.62848500  0.46856200  1
  C  C34  1  0.50050200  0.03725300  0.86484700  1
  C  C35  1  0.50135200  0.53669600  0.84309600  1
  C  C36  1  0.00525800  0.20986200  0.61923900  1
  C  C37  1  0.00001700  0.70783500  0.60460300  1
  C  C38  1  0.00144600  0.45684500  0.70788400  1
  C  C39  1  0.99994200  0.95742000  0.72477500  1
  C  C40  1  0.99474900  0.38192800  0.00961500  1
  C  C41  1  0.99985900  0.87855500  0.99919000  1
  C  C42  1  0.99453300  0.28898400  0.33765800  1
  C  C43  1  0.99989500  0.78692600  0.33229500  1
  C  C44  1  0.49758100  0.29133300  0.81777800  1
  C  C45  1  0.49980300  0.79488600  0.81355000  1
  C  C46  1  0.49748000  0.38044200  0.55503400  1
  C  C47  1  0.50017400  0.87059300  0.51845500  1
