# generated using pymatgen
data_Cu3(NiC16)2
_symmetry_space_group_name_H-M   'P 1'
_cell_length_a   8.76347100
_cell_length_b   9.95996378
_cell_length_c   9.98595576
_cell_angle_alpha   89.80296772
_cell_angle_beta   84.09149603
_cell_angle_gamma   89.84012328
_symmetry_Int_Tables_number   1
_chemical_formula_structural   Cu3(NiC16)2
_chemical_formula_sum   'Cu6 Ni4 C64'
_cell_volume   866.97457474
_cell_formula_units_Z   2
loop_
 _symmetry_equiv_pos_site_id
 _symmetry_equiv_pos_as_xyz
  1  'x, y, z'
loop_
 _atom_site_type_symbol
 _atom_site_label
 _atom_site_symmetry_multiplicity
 _atom_site_fract_x
 _atom_site_fract_y
 _atom_site_fract_z
 _atom_site_occupancy
  C  C0  1  0.49696700  0.86556800  0.47465500  1
  C  C1  1  0.73735000  0.36768800  0.34088800  1
  C  C2  1  0.49407100  0.25854700  0.85941900  1
  C  C3  1  0.73636300  0.74946300  0.94789400  1
  C  C4  1  0.10873300  0.37887500  0.55670200  1
  C  C5  1  0.94104600  0.45208700  0.61454200  1
  C  C6  1  0.05028300  0.38308600  0.72316900  1
  C  C7  1  0.21522600  0.49992700  0.01105200  1
  C  C8  1  0.25568600  0.66371300  0.02683500  1
  C  C9  1  0.08033900  0.60842700  0.07798700  1
  C  C10  1  0.03195400  0.14487000  0.01693800  1
  C  C11  1  0.95701800  0.00556600  0.08845500  1
  C  C12  1  0.12875800  0.99874400  0.99931100  1
  C  C13  1  0.96532900  0.90318700  0.51324000  1
  C  C14  1  0.00330700  0.86667800  0.67103800  1
  C  C15  1  0.13994000  0.93132100  0.55942600  1
  C  C16  1  0.25529200  0.54695700  0.66109400  1
  C  C17  1  0.07961400  0.62555900  0.72734200  1
  C  C18  1  0.13442300  0.62238600  0.54864100  1
  C  C19  1  0.19048500  0.45610300  0.24380600  1
  C  C20  1  0.20483000  0.63254100  0.27816600  1
  C  C21  1  0.36735700  0.54236000  0.20168400  1
  C  C22  1  0.24869200  0.13029800  0.15918500  1
  C  C23  1  0.15238900  0.98975700  0.24167900  1
  C  C24  1  0.06643700  0.15361000  0.25522800  1
  C  C25  1  0.99106000  0.14201200  0.55863300  1
  C  C26  1  0.05443900  0.09982500  0.71934600  1
  C  C27  1  0.86027700  0.06914900  0.68727800  1
  Ni  Ni28  1  0.13633500  0.56737000  0.64360200  1
  Ni  Ni29  1  0.24259300  0.55137700  0.20898300  1
  Ni  Ni30  1  0.13704800  0.08498700  0.18964100  1
  Ni  Ni31  1  0.97945600  0.07130400  0.64308600  1
  Cu  Cu32  1  0.38390400  0.21848500  0.51887500  1
  Cu  Cu33  1  0.38604400  0.90453800  0.83684300  1
  Cu  Cu34  1  0.84006400  0.71978500  0.29188200  1
  Cu  Cu35  1  0.62106200  0.56114400  0.65749800  1
  Cu  Cu36  1  0.84944400  0.39752800  0.98049700  1
  Cu  Cu37  1  0.61990700  0.05962800  0.15589700  1
  C  C38  1  0.05397600  0.43719200  0.63382100  1
  C  C39  1  0.19530000  0.58312400  0.07245900  1
  C  C40  1  0.05884300  0.05713000  0.06593000  1
  C  C41  1  0.02476700  0.93454700  0.59275600  1
  C  C42  1  0.72325900  0.46838700  0.57168800  1
  C  C43  1  0.88013600  0.39061000  0.12513600  1
  C  C44  1  0.86814600  0.57970800  0.33796700  1
  C  C45  1  0.54777400  0.24345800  0.46626000  1
  C  C46  1  0.72082400  0.15834400  0.21497500  1
  C  C47  1  0.90347000  0.29133300  0.40359100  1
  C  C48  1  0.57934300  0.45121400  0.27539600  1
  C  C49  1  0.87549300  0.72287400  0.14069800  1
  C  C50  1  0.87830700  0.53885400  0.93157600  1
  C  C51  1  0.72027900  0.65195000  0.72937300  1
  C  C52  1  0.67321100  0.75164900  0.32345700  1
  C  C53  1  0.93961800  0.81408100  0.35222600  1
  C  C54  1  0.51963800  0.48220500  0.75691600  1
  C  C55  1  0.52569700  0.64166400  0.57259400  1
  C  C56  1  0.66269200  0.93502600  0.54063700  1
  C  C57  1  0.51898000  0.99163800  0.26339200  1
  C  C58  1  0.32278600  0.79887900  0.41811600  1
  C  C59  1  0.35799800  0.06971300  0.51334300  1
  C  C60  1  0.35928400  0.85970400  0.69851900  1
  C  C61  1  0.28024800  0.83600300  0.93785900  1
  C  C62  1  0.35677500  0.05258300  0.84778400  1
  C  C63  1  0.55128200  0.87920300  0.85561300  1
  C  C64  1  0.68456500  0.36540400  0.97119900  1
  C  C65  1  0.95442700  0.30586400  0.90108300  1
  C  C66  1  0.57402300  0.66350500  0.03272900  1
  C  C67  1  0.90460900  0.82980100  0.86054700  1
  C  C68  1  0.32678900  0.33340800  0.95398000  1
  C  C69  1  0.65363800  0.18414300  0.75951600  1
  C  C70  1  0.36211000  0.26154500  0.66355400  1
  C  C71  1  0.52205300  0.12736100  0.06316900  1
  C  C72  1  0.72284700  0.95957800  0.07952900  1
  C  C73  1  0.27436100  0.28984900  0.44418500  1
