# generated using pymatgen
data_Cu2NiC6
_symmetry_space_group_name_H-M   'P 1'
_cell_length_a   3.47989571
_cell_length_b   3.47989571
_cell_length_c   32.05690800
_cell_angle_alpha   90.00000000
_cell_angle_beta   90.00000000
_cell_angle_gamma   119.99999443
_symmetry_Int_Tables_number   1
_chemical_formula_structural   Cu2NiC6
_chemical_formula_sum   'Cu2 Ni1 C6'
_cell_volume   336.18996303
_cell_formula_units_Z   1
loop_
 _symmetry_equiv_pos_site_id
 _symmetry_equiv_pos_as_xyz
  1  'x, y, z'
loop_
 _atom_site_type_symbol
 _atom_site_label
 _atom_site_symmetry_multiplicity
 _atom_site_fract_x
 _atom_site_fract_y
 _atom_site_fract_z
 _atom_site_occupancy
  C  C0  1  0.00000000  0.00000000  0.40454100  1
  C  C1  1  0.33333300  0.66666700  0.52074300  1
  C  C2  1  0.33333300  0.66666700  0.63591900  1
  C  C3  1  0.00000000  0.00000000  0.28933500  1
  Ni  Ni4  1  0.00000000  0.00000000  0.11566500  1
  Cu  Cu5  1  0.00000000  0.00000000  0.57838000  1
  Cu  Cu6  1  0.33333300  0.66666700  0.34696000  1
  C  C7  1  0.33333300  0.66666700  0.06505800  1
  C  C8  1  0.33333300  0.66666700  0.16624100  1
