# generated using pymatgen
data_Cu8Ni8C3
_symmetry_space_group_name_H-M   'P 1'
_cell_length_a   9.83526300
_cell_length_b   9.87164270
_cell_length_c   15.90173659
_cell_angle_alpha   100.48610084
_cell_angle_beta   97.72507380
_cell_angle_gamma   119.19315676
_symmetry_Int_Tables_number   1
_chemical_formula_structural   Cu8Ni8C3
_chemical_formula_sum   'Cu32 Ni32 C12'
_cell_volume   1279.70655040
_cell_formula_units_Z   4
loop_
 _symmetry_equiv_pos_site_id
 _symmetry_equiv_pos_as_xyz
  1  'x, y, z'
loop_
 _atom_site_type_symbol
 _atom_site_label
 _atom_site_symmetry_multiplicity
 _atom_site_fract_x
 _atom_site_fract_y
 _atom_site_fract_z
 _atom_site_occupancy
  C  C0  1  0.41469300  0.16721100  0.74925600  1
  C  C1  1  0.51701000  0.53843100  0.21405200  1
  C  C2  1  0.25154100  0.73144800  0.28559900  1
  C  C3  1  0.41784900  0.72476000  0.12177300  1
  C  C4  1  0.58530700  0.83278900  0.25074400  1
  C  C5  1  0.34849400  0.54270500  0.37836800  1
  C  C6  1  0.65150600  0.45729500  0.62163200  1
  C  C7  1  0.74845900  0.26855200  0.71440100  1
  C  C8  1  0.58215100  0.27524000  0.87822700  1
  C  C9  1  0.18210200  0.43313000  0.25098500  1
  C  C10  1  0.48299000  0.46156900  0.78594800  1
  C  C11  1  0.81789800  0.56687000  0.74901500  1
  Ni  Ni12  1  0.50003800  0.66106100  0.73976400  1
  Ni  Ni13  1  0.28641000  0.38813200  0.87314100  1
  Ni  Ni14  1  0.36872300  0.63406700  0.47639300  1
  Ni  Ni15  1  0.99662400  0.60359900  0.79469000  1
  Ni  Ni16  1  0.53395000  0.07138400  0.82265300  1
  Ni  Ni17  1  0.90134400  0.24232000  0.76083700  1
  Ni  Ni18  1  0.63127700  0.36593300  0.52360700  1
  Ni  Ni19  1  0.39365700  0.35985200  0.67737300  1
  Ni  Ni20  1  0.23808300  0.84136400  0.37300200  1
  Ni  Ni21  1  0.10005700  0.49013000  0.37158300  1
  Ni  Ni22  1  0.79766900  0.96421900  0.17034600  1
  Ni  Ni23  1  0.49996200  0.33893900  0.26023600  1
  Ni  Ni24  1  0.60634200  0.64014800  0.32262700  1
  Ni  Ni25  1  0.76191700  0.15863600  0.62699800  1
  Ni  Ni26  1  0.09865600  0.75768000  0.23916300  1
  Ni  Ni27  1  0.10303900  0.21156700  0.29350600  1
  Ni  Ni28  1  0.63346500  0.96842700  0.32894100  1
  Ni  Ni29  1  0.27015100  0.33215900  0.44692500  1
  Ni  Ni30  1  0.36653500  0.03157300  0.67105900  1
  Ni  Ni31  1  0.89994300  0.50987000  0.62841700  1
  Ni  Ni32  1  0.27557100  0.71864300  0.05367800  1
  Ni  Ni33  1  0.71359000  0.61186800  0.12685900  1
  Ni  Ni34  1  0.20233100  0.03578100  0.82965400  1
  Ni  Ni35  1  0.46605000  0.92861600  0.17734700  1
  Ni  Ni36  1  0.72984900  0.66784100  0.55307500  1
  Ni  Ni37  1  0.00337600  0.39640100  0.20531000  1
  Ni  Ni38  1  0.38912000  0.15584600  0.97682000  1
  Ni  Ni39  1  0.89696100  0.78843300  0.70649400  1
  Ni  Ni40  1  0.61088000  0.84415400  0.02318000  1
  Ni  Ni41  1  0.64157700  0.52762400  0.87112500  1
  Ni  Ni42  1  0.72442900  0.28135700  0.94632300  1
  Ni  Ni43  1  0.35842300  0.47237600  0.12887500  1
  Cu  Cu44  1  0.29341100  0.35806800  0.64420000  1
  Cu  Cu45  1  0.05817600  0.07627400  0.31723600  1
  Cu  Cu46  1  0.94182400  0.92372600  0.68276400  1
  Cu  Cu47  1  0.02983600  0.57944700  0.57310900  1
  Cu  Cu48  1  0.18596700  0.70899600  0.01312700  1
  Cu  Cu49  1  0.38984900  0.69711700  0.53307500  1
  Cu  Cu50  1  0.70658900  0.64193200  0.35580000  1
  Cu  Cu51  1  0.77367500  0.09434100  0.57378100  1
  Cu  Cu52  1  0.49583400  0.93685600  0.85488000  1
  Cu  Cu53  1  0.07424300  0.95785500  0.87947100  1
  Cu  Cu54  1  0.89407600  0.37318500  0.18043400  1
  Cu  Cu55  1  0.50487800  0.77749100  0.70947100  1
  Cu  Cu56  1  0.61015100  0.30288300  0.46692500  1
  Cu  Cu57  1  0.83327200  0.65964700  0.07103900  1
  Cu  Cu58  1  0.21529900  0.20089400  0.48691900  1
  Cu  Cu59  1  0.33761000  0.95616800  0.62004300  1
  Cu  Cu60  1  0.10592400  0.62681500  0.81956600  1
  Cu  Cu61  1  0.22632500  0.90565900  0.42621900  1
  Cu  Cu62  1  0.78470100  0.79910600  0.51308100  1
  Cu  Cu63  1  0.50416600  0.06314400  0.14512000  1
  Cu  Cu64  1  0.66239000  0.04383200  0.37995700  1
  Cu  Cu65  1  0.65754300  0.60110800  0.92602100  1
  Cu  Cu66  1  0.27077500  0.07729800  0.03464600  1
  Cu  Cu67  1  0.72922500  0.92270200  0.96535400  1
  Cu  Cu68  1  0.34245700  0.39889200  0.07397900  1
  Cu  Cu69  1  0.97016400  0.42055300  0.42689100  1
  Cu  Cu70  1  0.16672800  0.34035300  0.92896100  1
  Cu  Cu71  1  0.81403300  0.29100400  0.98687300  1
  Cu  Cu72  1  0.00993700  0.77836500  0.20969400  1
  Cu  Cu73  1  0.92575700  0.04214500  0.12052900  1
  Cu  Cu74  1  0.49512200  0.22250900  0.29052900  1
  Cu  Cu75  1  0.99006300  0.22163500  0.79030600  1
