# generated using pymatgen
data_CuNiC10
_symmetry_space_group_name_H-M   'P 1'
_cell_length_a   9.98141169
_cell_length_b   9.98141169
_cell_length_c   6.02208800
_cell_angle_alpha   90.00000000
_cell_angle_beta   90.00000000
_cell_angle_gamma   119.99999795
_symmetry_Int_Tables_number   1
_chemical_formula_structural   CuNiC10
_chemical_formula_sum   'Cu2 Ni2 C20'
_cell_volume   519.59106670
_cell_formula_units_Z   2
loop_
 _symmetry_equiv_pos_site_id
 _symmetry_equiv_pos_as_xyz
  1  'x, y, z'
loop_
 _atom_site_type_symbol
 _atom_site_label
 _atom_site_symmetry_multiplicity
 _atom_site_fract_x
 _atom_site_fract_y
 _atom_site_fract_z
 _atom_site_occupancy
  C  C0  1  0.85837700  0.22972000  0.25912600  1
  C  C1  1  0.77028000  0.62865700  0.25912600  1
  C  C2  1  0.37134300  0.14162300  0.25912600  1
  C  C3  1  0.14162300  0.77028000  0.75912600  1
  C  C4  1  0.22972000  0.37134300  0.75912600  1
  C  C5  1  0.62865700  0.85837700  0.75912600  1
  Ni  Ni6  1  0.66666700  0.33333300  0.83523300  1
  Ni  Ni7  1  0.33333300  0.66666700  0.33523300  1
  Cu  Cu8  1  0.00000000  0.00000000  0.47229100  1
  Cu  Cu9  1  0.00000000  0.00000000  0.97229100  1
  C  C10  1  0.91552400  0.13487700  0.71243500  1
  C  C11  1  0.86512300  0.78064600  0.71243500  1
  C  C12  1  0.21935400  0.08447600  0.71243500  1
  C  C13  1  0.08447600  0.86512300  0.21243500  1
  C  C14  1  0.13487700  0.21935400  0.21243500  1
  C  C15  1  0.78064600  0.91552400  0.21243500  1
  C  C16  1  0.57945000  0.09658400  0.98250000  1
  C  C17  1  0.90341600  0.48286600  0.98250000  1
  C  C18  1  0.51713400  0.42055000  0.98250000  1
  C  C19  1  0.42055000  0.90341600  0.48250000  1
  C  C20  1  0.09658400  0.51713400  0.48250000  1
  C  C21  1  0.48286600  0.57945000  0.48250000  1
  C  C22  1  0.66666700  0.33333300  0.46642800  1
  C  C23  1  0.33333300  0.66666700  0.96642800  1
