# generated using pymatgen
data_Cu8Ni4C19
_symmetry_space_group_name_H-M   'P 1'
_cell_length_a   7.06322528
_cell_length_b   7.45435284
_cell_length_c   7.72314762
_cell_angle_alpha   82.25250014
_cell_angle_beta   73.08388938
_cell_angle_gamma   86.65682448
_symmetry_Int_Tables_number   1
_chemical_formula_structural   Cu8Ni4C19
_chemical_formula_sum   'Cu8 Ni4 C19'
_cell_volume   385.41350539
_cell_formula_units_Z   1
loop_
 _symmetry_equiv_pos_site_id
 _symmetry_equiv_pos_as_xyz
  1  'x, y, z'
loop_
 _atom_site_type_symbol
 _atom_site_label
 _atom_site_symmetry_multiplicity
 _atom_site_fract_x
 _atom_site_fract_y
 _atom_site_fract_z
 _atom_site_occupancy
  C  C0  1  0.89682000  0.28798700  0.20551800  1
  C  C1  1  0.10318000  0.71201300  0.79448200  1
  C  C2  1  0.50000000  0.50000000  0.00000000  1
  Ni  Ni3  1  0.24607900  0.79854800  0.25115100  1
  Ni  Ni4  1  0.75392100  0.20145200  0.74884900  1
  Ni  Ni5  1  0.65421900  0.73556600  0.26410500  1
  Ni  Ni6  1  0.34578100  0.26443400  0.73589500  1
  Cu  Cu7  1  0.93205100  0.73298800  0.41336500  1
  Cu  Cu8  1  0.06794900  0.26701200  0.58663500  1
  Cu  Cu9  1  0.73191300  0.96565700  0.04366200  1
  Cu  Cu10  1  0.26808700  0.03434300  0.95633800  1
  Cu  Cu11  1  0.37943000  0.31519500  0.33969500  1
  Cu  Cu12  1  0.62057000  0.68480500  0.66030500  1
  Cu  Cu13  1  0.39111100  0.17896100  0.19442800  1
  Cu  Cu14  1  0.60888900  0.82103900  0.80557200  1
  C  C15  1  0.26813700  0.99044500  0.15088300  1
  C  C16  1  0.73186300  0.00955500  0.84911700  1
  C  C17  1  0.06231500  0.78324600  0.42475100  1
  C  C18  1  0.93768500  0.21675400  0.57524900  1
  C  C19  1  0.25339900  0.64883700  0.13468300  1
  C  C20  1  0.74660100  0.35116300  0.86531700  1
  C  C21  1  0.41884800  0.76514200  0.35439600  1
  C  C22  1  0.58115200  0.23485800  0.64560400  1
  C  C23  1  0.73569900  0.66891700  0.42290900  1
  C  C24  1  0.26430100  0.33108300  0.57709100  1
  C  C25  1  0.74045400  0.92814500  0.17627900  1
  C  C26  1  0.25954600  0.07185500  0.82372100  1
  C  C27  1  0.68663000  0.61095000  0.11766000  1
  C  C28  1  0.31337000  0.38905000  0.88234000  1
  C  C29  1  0.45076000  0.28903800  0.21458800  1
  C  C30  1  0.54924000  0.71096200  0.78541200  1
