# generated using pymatgen
data_Cu7Ni3C4
_symmetry_space_group_name_H-M   'P 1'
_cell_length_a   5.91424200
_cell_length_b   15.83023500
_cell_length_c   7.32904772
_cell_angle_alpha   90.00000000
_cell_angle_beta   102.59363790
_cell_angle_gamma   90.00000000
_symmetry_Int_Tables_number   1
_chemical_formula_structural   Cu7Ni3C4
_chemical_formula_sum   'Cu28 Ni12 C16'
_cell_volume   669.66493065
_cell_formula_units_Z   4
loop_
 _symmetry_equiv_pos_site_id
 _symmetry_equiv_pos_as_xyz
  1  'x, y, z'
loop_
 _atom_site_type_symbol
 _atom_site_label
 _atom_site_symmetry_multiplicity
 _atom_site_fract_x
 _atom_site_fract_y
 _atom_site_fract_z
 _atom_site_occupancy
  C  C0  1  0.46886100  0.17911900  0.29670300  1
  C  C1  1  0.53113900  0.67911900  0.20329700  1
  C  C2  1  0.53113900  0.82088100  0.70329700  1
  C  C3  1  0.46886100  0.32088100  0.79670300  1
  C  C4  1  0.27700700  0.39840400  0.21753100  1
  C  C5  1  0.72299300  0.89840400  0.28246900  1
  C  C6  1  0.72299300  0.60159600  0.78246900  1
  C  C7  1  0.27700700  0.10159600  0.71753100  1
  C  C8  1  0.17428600  0.46972800  0.87654300  1
  C  C9  1  0.82571400  0.96972800  0.62345700  1
  C  C10  1  0.82571400  0.53027200  0.12345700  1
  C  C11  1  0.17428600  0.03027200  0.37654300  1
  C  C12  1  0.05051200  0.37829700  0.86457800  1
  C  C13  1  0.94948800  0.87829700  0.63542200  1
  C  C14  1  0.94948800  0.62170300  0.13542200  1
  C  C15  1  0.05051200  0.12170300  0.36457800  1
  Ni  Ni16  1  0.49668600  0.53572000  0.42755000  1
  Ni  Ni17  1  0.50331400  0.03572000  0.07245000  1
  Ni  Ni18  1  0.50331400  0.46428000  0.57245000  1
  Ni  Ni19  1  0.49668600  0.96428000  0.92755000  1
  Ni  Ni20  1  0.80409300  0.35141600  0.21558400  1
  Ni  Ni21  1  0.19590700  0.85141600  0.28441600  1
  Ni  Ni22  1  0.19590700  0.64858400  0.78441600  1
  Ni  Ni23  1  0.80409300  0.14858400  0.71558400  1
  Ni  Ni24  1  0.95234200  0.26885100  0.24932600  1
  Ni  Ni25  1  0.04765800  0.76885100  0.25067400  1
  Ni  Ni26  1  0.04765800  0.73114900  0.75067400  1
  Ni  Ni27  1  0.95234200  0.23114900  0.74932600  1
  Cu  Cu28  1  0.39113300  0.52139200  0.26036800  1
  Cu  Cu29  1  0.60886700  0.02139200  0.23963200  1
  Cu  Cu30  1  0.60886700  0.47860800  0.73963200  1
  Cu  Cu31  1  0.39113300  0.97860800  0.76036800  1
  Cu  Cu32  1  0.59907200  0.60385700  0.48778200  1
  Cu  Cu33  1  0.40092800  0.10385700  0.01221800  1
  Cu  Cu34  1  0.40092800  0.39614300  0.51221800  1
  Cu  Cu35  1  0.59907200  0.89614300  0.98778200  1
  Cu  Cu36  1  0.58649200  0.34233900  0.18714100  1
  Cu  Cu37  1  0.41350800  0.84233900  0.31285900  1
  Cu  Cu38  1  0.41350800  0.65766100  0.81285900  1
  Cu  Cu39  1  0.58649200  0.15766100  0.68714100  1
  Cu  Cu40  1  0.91637300  0.41996100  0.21837300  1
  Cu  Cu41  1  0.08362700  0.91996100  0.28162700  1
  Cu  Cu42  1  0.08362700  0.58003900  0.78162700  1
  Cu  Cu43  1  0.91637300  0.08003900  0.71837300  1
  Cu  Cu44  1  0.16304700  0.27657500  0.23734600  1
  Cu  Cu45  1  0.83695300  0.77657500  0.26265400  1
  Cu  Cu46  1  0.83695300  0.72342500  0.76265400  1
  Cu  Cu47  1  0.16304700  0.22342500  0.73734600  1
  Cu  Cu48  1  0.85729500  0.20180900  0.28669300  1
  Cu  Cu49  1  0.14270500  0.70180900  0.21330700  1
  Cu  Cu50  1  0.14270500  0.79819100  0.71330700  1
  Cu  Cu51  1  0.85729500  0.29819100  0.78669300  1
  Cu  Cu52  1  0.19073700  0.41159300  0.92717400  1
  Cu  Cu53  1  0.80926300  0.91159300  0.57282600  1
  Cu  Cu54  1  0.80926300  0.58840700  0.07282600  1
  Cu  Cu55  1  0.19073700  0.08840700  0.42717400  1
