# generated using pymatgen
data_Cu(Ni5C)8
_symmetry_space_group_name_H-M   'P 1'
_cell_length_a   9.60042712
_cell_length_b   9.60042712
_cell_length_c   9.60042731
_cell_angle_alpha   94.64739596
_cell_angle_beta   94.64739596
_cell_angle_gamma   94.64739149
_symmetry_Int_Tables_number   1
_chemical_formula_structural   Cu(Ni5C)8
_chemical_formula_sum   'Cu1 Ni40 C8'
_cell_volume   875.62196756
_cell_formula_units_Z   1
loop_
 _symmetry_equiv_pos_site_id
 _symmetry_equiv_pos_as_xyz
  1  'x, y, z'
loop_
 _atom_site_type_symbol
 _atom_site_label
 _atom_site_symmetry_multiplicity
 _atom_site_fract_x
 _atom_site_fract_y
 _atom_site_fract_z
 _atom_site_occupancy
  Ni  Ni0  1  0.50000000  0.50000000  0.50000000  1
  Ni  Ni1  1  0.50000000  0.50000000  0.00000000  1
  Ni  Ni2  1  0.50000000  0.00000000  0.50000000  1
  Ni  Ni3  1  0.00000000  0.50000000  0.50000000  1
  Ni  Ni4  1  0.38864700  0.36554100  0.73430400  1
  Ni  Ni5  1  0.36554100  0.73430400  0.38864700  1
  Ni  Ni6  1  0.73430400  0.38864700  0.36554100  1
  Ni  Ni7  1  0.61135300  0.63445900  0.26569600  1
  Ni  Ni8  1  0.63445900  0.26569600  0.61135300  1
  Ni  Ni9  1  0.26569600  0.61135300  0.63445900  1
  Ni  Ni10  1  0.46192200  0.22103500  0.32471400  1
  Ni  Ni11  1  0.22103500  0.32471400  0.46192200  1
  Ni  Ni12  1  0.32471400  0.46192200  0.22103500  1
  Ni  Ni13  1  0.53807800  0.77896500  0.67528600  1
  Ni  Ni14  1  0.77896500  0.67528600  0.53807800  1
  Ni  Ni15  1  0.67528600  0.53807800  0.77896500  1
  Ni  Ni16  1  0.55051000  0.92556200  0.22158300  1
  Ni  Ni17  1  0.92556200  0.22158300  0.55051000  1
  Ni  Ni18  1  0.22158300  0.55051000  0.92556200  1
  Ni  Ni19  1  0.44949000  0.07443800  0.77841700  1
  Ni  Ni20  1  0.07443800  0.77841700  0.44949000  1
  Ni  Ni21  1  0.77841700  0.44949000  0.07443800  1
  Ni  Ni22  1  0.40055200  0.21330300  0.03153300  1
  Ni  Ni23  1  0.21330300  0.03153300  0.40055200  1
  Ni  Ni24  1  0.03153300  0.40055200  0.21330300  1
  Ni  Ni25  1  0.59944800  0.78669700  0.96846700  1
  Ni  Ni26  1  0.78669700  0.96846700  0.59944800  1
  Ni  Ni27  1  0.96846700  0.59944800  0.78669700  1
  Ni  Ni28  1  0.12690400  0.26043200  0.94477300  1
  Ni  Ni29  1  0.26043200  0.94477300  0.12690400  1
  Ni  Ni30  1  0.94477300  0.12690400  0.26043200  1
  Ni  Ni31  1  0.87309600  0.73956800  0.05522700  1
  Ni  Ni32  1  0.73956800  0.05522700  0.87309600  1
  Ni  Ni33  1  0.05522700  0.87309600  0.73956800  1
  Ni  Ni34  1  0.32087000  0.82327500  0.87501600  1
  Ni  Ni35  1  0.82327500  0.87501600  0.32087000  1
  Ni  Ni36  1  0.87501600  0.32087000  0.82327500  1
  Ni  Ni37  1  0.67913000  0.17672500  0.12498400  1
  Ni  Ni38  1  0.17672500  0.12498400  0.67913000  1
  Ni  Ni39  1  0.12498400  0.67913000  0.17672500  1
  Cu  Cu40  1  0.00000000  0.00000000  0.00000000  1
  C  C41  1  0.20023600  0.20023600  0.20023600  1
  C  C42  1  0.79976400  0.79976400  0.79976400  1
  C  C43  1  0.11228700  0.38763500  0.70834100  1
  C  C44  1  0.38763500  0.70834100  0.11228700  1
  C  C45  1  0.70834100  0.11228700  0.38763500  1
  C  C46  1  0.88771300  0.61236500  0.29165900  1
  C  C47  1  0.61236500  0.29165900  0.88771300  1
  C  C48  1  0.29165900  0.88771300  0.61236500  1
