# generated using pymatgen
data_CuNi3C4
_symmetry_space_group_name_H-M   'P 1'
_cell_length_a   5.57633266
_cell_length_b   11.36007159
_cell_length_c   8.39148947
_cell_angle_alpha   81.22830408
_cell_angle_beta   80.89570859
_cell_angle_gamma   77.88250233
_symmetry_Int_Tables_number   1
_chemical_formula_structural   CuNi3C4
_chemical_formula_sum   'Cu4 Ni12 C16'
_cell_volume   509.25618727
_cell_formula_units_Z   4
loop_
 _symmetry_equiv_pos_site_id
 _symmetry_equiv_pos_as_xyz
  1  'x, y, z'
loop_
 _atom_site_type_symbol
 _atom_site_label
 _atom_site_symmetry_multiplicity
 _atom_site_fract_x
 _atom_site_fract_y
 _atom_site_fract_z
 _atom_site_occupancy
  C  C0  1  0.65425400  0.24597700  0.17977600  1
  C  C1  1  0.34574600  0.75402300  0.82022400  1
  Ni  Ni2  1  0.39048800  0.89768800  0.28931600  1
  Ni  Ni3  1  0.60951200  0.10231200  0.71068400  1
  Ni  Ni4  1  0.14744700  0.28274900  0.28102000  1
  Ni  Ni5  1  0.85255300  0.71725100  0.71898000  1
  Ni  Ni6  1  0.37189200  0.08835000  0.96334500  1
  Ni  Ni7  1  0.62810800  0.91165000  0.03665500  1
  Ni  Ni8  1  0.96331900  0.16213900  0.81480000  1
  Ni  Ni9  1  0.03668100  0.83786100  0.18520000  1
  Ni  Ni10  1  0.37354000  0.80351600  0.06261300  1
  Ni  Ni11  1  0.62646000  0.19648400  0.93738800  1
  Ni  Ni12  1  0.20105200  0.15786500  0.56862900  1
  Ni  Ni13  1  0.79894800  0.84213500  0.43137100  1
  C  C14  1  0.26705100  0.06214000  0.76633600  1
  C  C15  1  0.73294900  0.93786000  0.23366400  1
  C  C16  1  0.22928800  0.95444200  0.08685300  1
  C  C17  1  0.77071200  0.04555800  0.91314700  1
  C  C18  1  0.25668500  0.02544500  0.43291000  1
  C  C19  1  0.74331500  0.97455500  0.56709000  1
  Cu  Cu20  1  0.39951000  0.63578200  0.42596000  1
  Cu  Cu21  1  0.60049000  0.36421800  0.57404000  1
  Cu  Cu22  1  0.13524000  0.34544400  0.16254700  1
  Cu  Cu23  1  0.86476000  0.65455600  0.83745300  1
  C  C24  1  0.32834000  0.38507600  0.10067800  1
  C  C25  1  0.67166000  0.61492400  0.89932200  1
  C  C26  1  0.93129700  0.36453300  0.10732300  1
  C  C27  1  0.06870300  0.63546700  0.89267700  1
  C  C28  1  0.44642500  0.57192000  0.32374400  1
  C  C29  1  0.55357500  0.42808000  0.67625600  1
  C  C30  1  0.64740200  0.30137400  0.46924400  1
  C  C31  1  0.35259800  0.69862600  0.53075600  1
