# generated using pymatgen
data_Cu(NiC17)2
_symmetry_space_group_name_H-M   'P 1'
_cell_length_a   8.54144408
_cell_length_b   8.75197562
_cell_length_c   8.76987047
_cell_angle_alpha   60.11376925
_cell_angle_beta   59.80589943
_cell_angle_gamma   59.46875589
_symmetry_Int_Tables_number   1
_chemical_formula_structural   Cu(NiC17)2
_chemical_formula_sum   'Cu1 Ni2 C34'
_cell_volume   461.39550043
_cell_formula_units_Z   1
loop_
 _symmetry_equiv_pos_site_id
 _symmetry_equiv_pos_as_xyz
  1  'x, y, z'
loop_
 _atom_site_type_symbol
 _atom_site_label
 _atom_site_symmetry_multiplicity
 _atom_site_fract_x
 _atom_site_fract_y
 _atom_site_fract_z
 _atom_site_occupancy
  C  C0  1  0.47812700  0.52967600  0.50671800  1
  C  C1  1  0.05396500  0.65181600  0.65331400  1
  C  C2  1  0.41187000  0.86946500  0.86630900  1
  C  C3  1  0.92978900  0.37947900  0.34825200  1
  Ni  Ni4  1  0.98929700  0.01312000  0.98932400  1
  Ni  Ni5  1  0.74760200  0.14055900  0.37001600  1
  Cu  Cu6  1  0.55045500  0.15668400  0.14895800  1
  C  C7  1  0.25850300  0.26127700  0.54527200  1
  C  C8  1  0.22905500  0.96588500  0.25761300  1
  C  C9  1  0.23743600  0.56089200  0.95686600  1
  C  C10  1  0.73683700  0.47025800  0.04767100  1
  C  C11  1  0.73021000  0.05550700  0.75796800  1
  C  C12  1  0.73538500  0.75377500  0.47220400  1
  C  C13  1  0.02997600  0.12148100  0.31888800  1
  C  C14  1  0.04794700  0.52413500  0.11004200  1
  C  C15  1  0.09700800  0.31790300  0.47692200  1
  C  C16  1  0.22307900  0.10596900  0.73987600  1
  C  C17  1  0.45931300  0.19629200  0.40333500  1
  C  C18  1  0.26150500  0.42406200  0.57126900  1
  C  C19  1  0.21443600  0.94709800  0.09723400  1
  C  C20  1  0.24661700  0.77165900  0.41795300  1
  C  C21  1  0.55606500  0.62254600  0.00333900  1
  C  C22  1  0.25480100  0.58229800  0.76111300  1
  C  C23  1  0.77004000  0.26508500  0.07394100  1
  C  C24  1  0.54609700  0.01279500  0.83353000  1
  C  C25  1  0.39792400  0.01487300  0.20565800  1
  C  C26  1  0.20836700  0.75855300  0.94409000  1
  C  C27  1  0.70747800  0.45235100  0.24828000  1
  C  C28  1  0.41341100  0.40734600  0.00206000  1
  C  C29  1  0.70718800  0.24296500  0.58367900  1
  C  C30  1  0.76329300  0.07529900  0.90266000  1
  C  C31  1  0.71052100  0.60421900  0.44669300  1
  C  C32  1  0.55490800  0.82228600  0.62747200  1
  C  C33  1  0.76813500  0.92155100  0.28708000  1
  C  C34  1  0.91618800  0.66851100  0.52537100  1
  C  C35  1  0.91894000  0.51219600  0.89670400  1
  C  C36  1  0.90385000  0.89870900  0.68089400  1
