# generated using pymatgen
data_CuNiC8
_symmetry_space_group_name_H-M   'P 1'
_cell_length_a   5.18643900
_cell_length_b   5.38244200
_cell_length_c   7.41010600
_cell_angle_alpha   90.00000000
_cell_angle_beta   90.00000000
_cell_angle_gamma   90.00000000
_symmetry_Int_Tables_number   1
_chemical_formula_structural   CuNiC8
_chemical_formula_sum   'Cu2 Ni2 C16'
_cell_volume   206.85834871
_cell_formula_units_Z   2
loop_
 _symmetry_equiv_pos_site_id
 _symmetry_equiv_pos_as_xyz
  1  'x, y, z'
loop_
 _atom_site_type_symbol
 _atom_site_label
 _atom_site_symmetry_multiplicity
 _atom_site_fract_x
 _atom_site_fract_y
 _atom_site_fract_z
 _atom_site_occupancy
  Ni  Ni0  1  0.26326100  0.55722000  0.00000000  1
  Ni  Ni1  1  0.73673900  0.05722000  0.00000000  1
  Cu  Cu2  1  0.23717700  0.44007500  0.50000000  1
  Cu  Cu3  1  0.76282300  0.94007500  0.50000000  1
  C  C4  1  0.74963100  0.49979100  0.74856000  1
  C  C5  1  0.25036900  0.99979100  0.25144000  1
  C  C6  1  0.74963100  0.49979100  0.25144000  1
  C  C7  1  0.25036900  0.99979100  0.74856000  1
  C  C8  1  0.54805000  0.79753900  0.79357700  1
  C  C9  1  0.45195000  0.29753900  0.20642300  1
  C  C10  1  0.95204300  0.20217200  0.29801100  1
  C  C11  1  0.04795700  0.70217200  0.70198900  1
  C  C12  1  0.95204300  0.20217200  0.70198900  1
  C  C13  1  0.04795700  0.70217200  0.29801100  1
  C  C14  1  0.54805000  0.79753900  0.20642300  1
  C  C15  1  0.45195000  0.29753900  0.79357700  1
  C  C16  1  0.16540900  0.97745800  0.00000000  1
  C  C17  1  0.83459100  0.47745800  0.00000000  1
  C  C18  1  0.34018700  0.02624200  0.50000000  1
  C  C19  1  0.65981300  0.52624200  0.50000000  1
