# generated using pymatgen
data_Cu2NiC11
_symmetry_space_group_name_H-M   'P 1'
_cell_length_a   12.01336700
_cell_length_b   6.71366300
_cell_length_c   9.60481459
_cell_angle_alpha   83.45654108
_cell_angle_beta   90.00000000
_cell_angle_gamma   90.00000000
_symmetry_Int_Tables_number   1
_chemical_formula_structural   Cu2NiC11
_chemical_formula_sum   'Cu8 Ni4 C44'
_cell_volume   769.61742267
_cell_formula_units_Z   4
loop_
 _symmetry_equiv_pos_site_id
 _symmetry_equiv_pos_as_xyz
  1  'x, y, z'
loop_
 _atom_site_type_symbol
 _atom_site_label
 _atom_site_symmetry_multiplicity
 _atom_site_fract_x
 _atom_site_fract_y
 _atom_site_fract_z
 _atom_site_occupancy
  C  C0  1  0.84672900  0.76759800  0.63081200  1
  C  C1  1  0.34672900  0.23240200  0.86918800  1
  C  C2  1  0.15327100  0.23240200  0.36918800  1
  C  C3  1  0.65327100  0.76759800  0.13081200  1
  C  C4  1  0.91866400  0.09724000  0.21384300  1
  C  C5  1  0.41866400  0.90276000  0.28615700  1
  C  C6  1  0.08133600  0.90276000  0.78615700  1
  C  C7  1  0.58133600  0.09724000  0.71384300  1
  C  C8  1  0.39518800  0.37600200  0.52295200  1
  C  C9  1  0.89518800  0.62399800  0.97704800  1
  C  C10  1  0.60481200  0.62399800  0.47704800  1
  C  C11  1  0.10481200  0.37600200  0.02295200  1
  Ni  Ni12  1  0.14639200  0.71931700  0.43851100  1
  Ni  Ni13  1  0.64639200  0.28068300  0.06148900  1
  Ni  Ni14  1  0.85360800  0.28068300  0.56148900  1
  Ni  Ni15  1  0.35360800  0.71931700  0.93851100  1
  Cu  Cu16  1  0.67391700  0.13621900  0.37779300  1
  Cu  Cu17  1  0.17391700  0.86378100  0.12220700  1
  Cu  Cu18  1  0.32608300  0.86378100  0.62220700  1
  Cu  Cu19  1  0.82608300  0.13621900  0.87779300  1
  Cu  Cu20  1  0.41608300  0.39558500  0.17785800  1
  Cu  Cu21  1  0.91608300  0.60441500  0.32214200  1
  Cu  Cu22  1  0.58391700  0.60441500  0.82214200  1
  Cu  Cu23  1  0.08391700  0.39558500  0.67785800  1
  C  C24  1  0.59651100  0.27187300  0.47961300  1
  C  C25  1  0.09651100  0.72812700  0.02038700  1
  C  C26  1  0.40348900  0.72812700  0.52038700  1
  C  C27  1  0.90348900  0.27187300  0.97961300  1
  C  C28  1  0.80296200  0.08709300  0.46481600  1
  C  C29  1  0.30296200  0.91290700  0.03518400  1
  C  C30  1  0.19703800  0.91290700  0.53518400  1
  C  C31  1  0.69703800  0.08709300  0.96481600  1
  C  C32  1  0.48929100  0.59116400  0.22694500  1
  C  C33  1  0.98929100  0.40883600  0.27305500  1
  C  C34  1  0.51070900  0.40883600  0.77305500  1
  C  C35  1  0.01070900  0.59116400  0.72694500  1
  C  C36  1  0.00353300  0.76876600  0.40210800  1
  C  C37  1  0.50353300  0.23123400  0.09789200  1
  C  C38  1  0.99646700  0.23123400  0.59789200  1
  C  C39  1  0.49646700  0.76876600  0.90210800  1
  C  C40  1  0.61773400  0.92094600  0.33541300  1
  C  C41  1  0.11773400  0.07905400  0.16458700  1
  C  C42  1  0.38226600  0.07905400  0.66458700  1
  C  C43  1  0.88226600  0.92094600  0.83541300  1
  C  C44  1  0.32824700  0.47931400  0.03446500  1
  C  C45  1  0.82824700  0.52068600  0.46553500  1
  C  C46  1  0.67175300  0.52068600  0.96553500  1
  C  C47  1  0.17175300  0.47931400  0.53446500  1
  C  C48  1  0.34432900  0.25284900  0.30310000  1
  C  C49  1  0.84432900  0.74715100  0.19690000  1
  C  C50  1  0.65567100  0.74715100  0.69690000  1
  C  C51  1  0.15567100  0.25284900  0.80310000  1
  C  C52  1  0.71923100  0.27590200  0.22268300  1
  C  C53  1  0.21923100  0.72409800  0.27731700  1
  C  C54  1  0.28076900  0.72409800  0.77731700  1
  C  C55  1  0.78076900  0.27590200  0.72268300  1
