# generated using pymatgen
data_Cu2Ni2C
_symmetry_space_group_name_H-M   'P 1'
_cell_length_a   4.13357300
_cell_length_b   11.47033200
_cell_length_c   11.89988700
_cell_angle_alpha   90.00000000
_cell_angle_beta   90.00000000
_cell_angle_gamma   90.00000000
_symmetry_Int_Tables_number   1
_chemical_formula_structural   Cu2Ni2C
_chemical_formula_sum   'Cu8 Ni8 C4'
_cell_volume   564.21475269
_cell_formula_units_Z   4
loop_
 _symmetry_equiv_pos_site_id
 _symmetry_equiv_pos_as_xyz
  1  'x, y, z'
loop_
 _atom_site_type_symbol
 _atom_site_label
 _atom_site_symmetry_multiplicity
 _atom_site_fract_x
 _atom_site_fract_y
 _atom_site_fract_z
 _atom_site_occupancy
  Ni  Ni0  1  0.25000000  0.16553900  0.51583000  1
  Ni  Ni1  1  0.25000000  0.33446100  0.01583000  1
  Ni  Ni2  1  0.75000000  0.83446100  0.48417000  1
  Ni  Ni3  1  0.75000000  0.66553900  0.98417000  1
  Ni  Ni4  1  0.75000000  0.46398100  0.65782000  1
  Ni  Ni5  1  0.75000000  0.03601900  0.15782000  1
  Ni  Ni6  1  0.25000000  0.53601900  0.34218000  1
  Ni  Ni7  1  0.25000000  0.96398100  0.84218000  1
  Cu  Cu8  1  0.25000000  0.63468500  0.55261200  1
  Cu  Cu9  1  0.25000000  0.86531500  0.05261200  1
  Cu  Cu10  1  0.75000000  0.36531500  0.44738800  1
  Cu  Cu11  1  0.75000000  0.13468500  0.94738800  1
  Cu  Cu12  1  0.25000000  0.30299200  0.72000300  1
  Cu  Cu13  1  0.25000000  0.19700800  0.22000300  1
  Cu  Cu14  1  0.75000000  0.69700800  0.27999700  1
  Cu  Cu15  1  0.75000000  0.80299200  0.77999700  1
  C  C16  1  0.75000000  0.05430000  0.61710400  1
  C  C17  1  0.75000000  0.44570000  0.11710400  1
  C  C18  1  0.25000000  0.94570000  0.38289600  1
  C  C19  1  0.25000000  0.55430000  0.88289600  1
