# generated using pymatgen
data_CuNi5C3
_symmetry_space_group_name_H-M   'P 1'
_cell_length_a   7.16975900
_cell_length_b   9.64388900
_cell_length_c   13.58680700
_cell_angle_alpha   90.00000000
_cell_angle_beta   90.00000000
_cell_angle_gamma   90.00000000
_symmetry_Int_Tables_number   1
_chemical_formula_structural   CuNi5C3
_chemical_formula_sum   'Cu4 Ni20 C12'
_cell_volume   939.45107382
_cell_formula_units_Z   4
loop_
 _symmetry_equiv_pos_site_id
 _symmetry_equiv_pos_as_xyz
  1  'x, y, z'
loop_
 _atom_site_type_symbol
 _atom_site_label
 _atom_site_symmetry_multiplicity
 _atom_site_fract_x
 _atom_site_fract_y
 _atom_site_fract_z
 _atom_site_occupancy
  C  C0  1  0.35111300  0.49946900  0.14694500  1
  C  C1  1  0.14888700  0.00053100  0.64694500  1
  C  C2  1  0.64888700  0.99946900  0.85305500  1
  C  C3  1  0.85111300  0.50053100  0.35305500  1
  C  C4  1  0.64888700  0.50053100  0.85305500  1
  C  C5  1  0.85111300  0.99946900  0.35305500  1
  C  C6  1  0.35111300  0.00053100  0.14694500  1
  C  C7  1  0.14888700  0.49946900  0.64694500  1
  C  C8  1  0.82706100  0.75000000  0.09542800  1
  C  C9  1  0.67293900  0.75000000  0.59542800  1
  C  C10  1  0.17293900  0.25000000  0.90457200  1
  C  C11  1  0.32706100  0.25000000  0.40457200  1
  Ni  Ni12  1  0.54238200  0.75000000  0.00138900  1
  Ni  Ni13  1  0.95761800  0.75000000  0.50138900  1
  Ni  Ni14  1  0.45761800  0.25000000  0.99861100  1
  Ni  Ni15  1  0.04238200  0.25000000  0.49861100  1
  Ni  Ni16  1  0.61646900  0.75000000  0.24312700  1
  Ni  Ni17  1  0.88353100  0.75000000  0.74312700  1
  Ni  Ni18  1  0.38353100  0.25000000  0.75687300  1
  Ni  Ni19  1  0.11646900  0.25000000  0.25687300  1
  Ni  Ni20  1  0.07892100  0.75000000  0.21123300  1
  Ni  Ni21  1  0.42107900  0.75000000  0.71123300  1
  Ni  Ni22  1  0.92107900  0.25000000  0.78876700  1
  Ni  Ni23  1  0.57892100  0.25000000  0.28876700  1
  Ni  Ni24  1  0.81245800  0.50574200  0.10685700  1
  Ni  Ni25  1  0.68754200  0.99425800  0.60685700  1
  Ni  Ni26  1  0.18754200  0.00574200  0.89314300  1
  Ni  Ni27  1  0.31245800  0.49425800  0.39314300  1
  Ni  Ni28  1  0.18754200  0.49425800  0.89314300  1
  Ni  Ni29  1  0.31245800  0.00574200  0.39314300  1
  Ni  Ni30  1  0.81245800  0.99425800  0.10685700  1
  Ni  Ni31  1  0.68754200  0.50574200  0.60685700  1
  Cu  Cu32  1  0.96626100  0.75000000  0.99225000  1
  Cu  Cu33  1  0.53373900  0.75000000  0.49225000  1
  Cu  Cu34  1  0.03373900  0.25000000  0.00775000  1
  Cu  Cu35  1  0.46626100  0.25000000  0.50775000  1
