# generated using pymatgen
data_Cu5NiC78
_symmetry_space_group_name_H-M   'P 1'
_cell_length_a   8.75570815
_cell_length_b   15.50922903
_cell_length_c   15.50922903
_cell_angle_alpha   117.36057947
_cell_angle_beta   90.00000000
_cell_angle_gamma   90.00000000
_symmetry_Int_Tables_number   1
_chemical_formula_structural   Cu5NiC78
_chemical_formula_sum   'Cu10 Ni2 C156'
_cell_volume   1870.46297738
_cell_formula_units_Z   2
loop_
 _symmetry_equiv_pos_site_id
 _symmetry_equiv_pos_as_xyz
  1  'x, y, z'
loop_
 _atom_site_type_symbol
 _atom_site_label
 _atom_site_symmetry_multiplicity
 _atom_site_fract_x
 _atom_site_fract_y
 _atom_site_fract_z
 _atom_site_occupancy
  C  C0  1  0.25000000  0.99321384  0.38694552  1
  C  C1  1  0.75000000  0.61305448  0.00678616  1
  C  C2  1  0.75000000  0.00678616  0.61305448  1
  C  C3  1  0.25000000  0.38694552  0.99321384  1
  C  C4  1  0.25000000  0.00301792  0.00301792  1
  C  C5  1  0.75000000  0.99698208  0.99698208  1
  Ni  Ni6  1  0.75000000  0.39132373  0.39132373  1
  Ni  Ni7  1  0.25000000  0.60867627  0.60867627  1
  Cu  Cu8  1  0.75000000  0.33603861  0.66906211  1
  Cu  Cu9  1  0.25000000  0.33093789  0.66396139  1
  Cu  Cu10  1  0.25000000  0.66396139  0.33093789  1
  Cu  Cu11  1  0.75000000  0.66906211  0.33603861  1
  Cu  Cu12  1  0.25000000  0.28346476  0.28346476  1
  Cu  Cu13  1  0.75000000  0.71653524  0.71653524  1
  Cu  Cu14  1  0.75000000  0.99708372  0.28898750  1
  Cu  Cu15  1  0.25000000  0.71101250  0.00291628  1
  Cu  Cu16  1  0.25000000  0.00291628  0.71101250  1
  Cu  Cu17  1  0.75000000  0.28898750  0.99708372  1
  C  C18  1  0.25000000  0.14912159  0.14912159  1
  C  C19  1  0.75000000  0.85087841  0.85087841  1
  C  C20  1  0.02119069  0.34521237  0.34521237  1
  C  C21  1  0.97880931  0.65478763  0.65478763  1
  C  C22  1  0.47880931  0.34521237  0.34521237  1
  C  C23  1  0.52119069  0.65478763  0.65478763  1
  C  C24  1  0.75000000  0.18566534  0.64596206  1
  C  C25  1  0.25000000  0.35403794  0.81433466  1
  C  C26  1  0.25000000  0.81433466  0.35403794  1
  C  C27  1  0.75000000  0.64596206  0.18566534  1
  C  C28  1  0.75000000  0.47148150  0.80591111  1
  C  C29  1  0.25000000  0.19408889  0.52851850  1
  C  C30  1  0.25000000  0.52851850  0.19408889  1
  C  C31  1  0.75000000  0.80591111  0.47148150  1
  C  C32  1  0.75000000  0.35716939  0.53026198  1
  C  C33  1  0.25000000  0.46973802  0.64283061  1
  C  C34  1  0.25000000  0.64283061  0.46973802  1
  C  C35  1  0.75000000  0.53026198  0.35716939  1
  C  C36  1  0.75000000  0.99707490  0.14559688  1
  C  C37  1  0.25000000  0.85440312  0.00292510  1
  C  C38  1  0.25000000  0.00292510  0.85440312  1
  C  C39  1  0.75000000  0.14559688  0.99707490  1
  C  C40  1  0.98010171  0.00057392  0.34767875  1
  C  C41  1  0.01989829  0.65232125  0.99942608  1
  C  C42  1  0.51989829  0.00057392  0.34767875  1
  C  C43  1  0.48010171  0.65232125  0.99942608  1
  C  C44  1  0.01989829  0.99942608  0.65232125  1
  C  C45  1  0.98010171  0.34767875  0.00057392  1
  C  C46  1  0.48010171  0.99942608  0.65232125  1
  C  C47  1  0.51989829  0.34767875  0.00057392  1
  C  C48  1  0.36894456  0.11075029  0.11075029  1
  C  C49  1  0.63105544  0.88924971  0.88924971  1
  C  C50  1  0.13105544  0.11075029  0.11075029  1
  C  C51  1  0.86894456  0.88924971  0.88924971  1
  C  C52  1  0.25000000  0.23059620  0.15006576  1
  C  C53  1  0.75000000  0.84993424  0.76940380  1
  C  C54  1  0.75000000  0.76940380  0.84993424  1
  C  C55  1  0.25000000  0.15006576  0.23059620  1
  C  C56  1  0.91358263  0.29637577  0.29637577  1
  C  C57  1  0.08641737  0.70362423  0.70362423  1
  C  C58  1  0.58641737  0.29637577  0.29637577  1
  C  C59  1  0.41358263  0.70362423  0.70362423  1
  C  C60  1  0.98950725  0.41897017  0.41897017  1
  C  C61  1  0.01049275  0.58102983  0.58102983  1
  C  C62  1  0.51049275  0.41897017  0.41897017  1
  C  C63  1  0.48950725  0.58102983  0.58102983  1
  C  C64  1  0.09208957  0.29367688  0.37363993  1
  C  C65  1  0.90791043  0.62636007  0.70632312  1
  C  C66  1  0.40791043  0.29367688  0.37363993  1
  C  C67  1  0.59208957  0.62636007  0.70632312  1
  C  C68  1  0.90791043  0.70632312  0.62636007  1
  C  C69  1  0.09208957  0.37363993  0.29367688  1
  C  C70  1  0.59208957  0.70632312  0.62636007  1
  C  C71  1  0.40791043  0.37363993  0.29367688  1
  C  C72  1  0.75000000  0.29142193  0.44667617  1
  C  C73  1  0.25000000  0.55332383  0.70857807  1
  C  C74  1  0.25000000  0.70857807  0.55332383  1
  C  C75  1  0.75000000  0.44667617  0.29142193  1
  C  C76  1  0.75000000  0.55232744  0.81249437  1
  C  C77  1  0.25000000  0.18750563  0.44767256  1
  C  C78  1  0.25000000  0.44767256  0.18750563  1
  C  C79  1  0.75000000  0.81249437  0.55232744  1
  C  C80  1  0.75000000  0.16696968  0.71369545  1
  C  C81  1  0.25000000  0.28630455  0.83303032  1
  C  C82  1  0.25000000  0.83303032  0.28630455  1
  C  C83  1  0.75000000  0.71369545  0.16696968  1
  C  C84  1  0.75000000  0.11860466  0.56459396  1
  C  C85  1  0.25000000  0.43540604  0.88139534  1
  C  C86  1  0.25000000  0.88139534  0.43540604  1
  C  C87  1  0.75000000  0.56459396  0.11860466  1
  C  C88  1  0.75000000  0.46393346  0.88025260  1
  C  C89  1  0.25000000  0.11974740  0.53606654  1
  C  C90  1  0.25000000  0.53606654  0.11974740  1
  C  C91  1  0.75000000  0.88025260  0.46393346  1
  C  C92  1  0.75000000  0.44035976  0.53948708  1
  C  C93  1  0.25000000  0.46051292  0.55964024  1
  C  C94  1  0.25000000  0.55964024  0.46051292  1
  C  C95  1  0.75000000  0.53948708  0.44035976  1
  C  C96  1  0.63010515  0.34809715  0.56698235  1
  C  C97  1  0.36989485  0.43301765  0.65190285  1
  C  C98  1  0.86989485  0.34809715  0.56698235  1
  C  C99  1  0.13010515  0.43301765  0.65190285  1
  C  C100  1  0.36989485  0.65190285  0.43301765  1
  C  C101  1  0.63010515  0.56698235  0.34809715  1
  C  C102  1  0.13010515  0.65190285  0.43301765  1
  C  C103  1  0.86989485  0.56698235  0.34809715  1
  C  C104  1  0.87092244  0.43139485  0.76133658  1
  C  C105  1  0.12907756  0.23866342  0.56860515  1
  C  C106  1  0.62907756  0.43139485  0.76133658  1
  C  C107  1  0.37092244  0.23866342  0.56860515  1
  C  C108  1  0.12907756  0.56860515  0.23866342  1
  C  C109  1  0.87092244  0.76133658  0.43139485  1
  C  C110  1  0.37092244  0.56860515  0.23866342  1
  C  C111  1  0.62907756  0.76133658  0.43139485  1
  C  C112  1  0.62888116  0.23242687  0.65359013  1
  C  C113  1  0.37111884  0.34640987  0.76757313  1
  C  C114  1  0.87111884  0.23242687  0.65359013  1
  C  C115  1  0.12888116  0.34640987  0.76757313  1
  C  C116  1  0.37111884  0.76757313  0.34640987  1
  C  C117  1  0.62888116  0.65359013  0.23242687  1
  C  C118  1  0.12888116  0.76757313  0.34640987  1
  C  C119  1  0.87111884  0.65359013  0.23242687  1
  C  C120  1  0.63145138  0.99647215  0.10447991  1
  C  C121  1  0.36854862  0.89552009  0.00352785  1
  C  C122  1  0.86854862  0.99647215  0.10447991  1
  C  C123  1  0.13145138  0.89552009  0.00352785  1
  C  C124  1  0.36854862  0.00352785  0.89552009  1
  C  C125  1  0.63145138  0.10447991  0.99647215  1
  C  C126  1  0.13145138  0.00352785  0.89552009  1
  C  C127  1  0.86854862  0.10447991  0.99647215  1
  C  C128  1  0.75000000  0.92080412  0.15384546  1
  C  C129  1  0.25000000  0.84615454  0.07919588  1
  C  C130  1  0.25000000  0.07919588  0.84615454  1
  C  C131  1  0.75000000  0.15384546  0.92080412  1
  C  C132  1  0.75000000  0.07416546  0.22311448  1
  C  C133  1  0.25000000  0.77688552  0.92583454  1
  C  C134  1  0.25000000  0.92583454  0.77688552  1
  C  C135  1  0.75000000  0.22311448  0.07416546  1
  C  C136  1  0.08251497  0.00142631  0.29524142  1
  C  C137  1  0.91748503  0.70475858  0.99857369  1
  C  C138  1  0.41748503  0.00142631  0.29524142  1
  C  C139  1  0.58251497  0.70475858  0.99857369  1
  C  C140  1  0.91748503  0.99857369  0.70475858  1
  C  C141  1  0.08251497  0.29524142  0.00142631  1
  C  C142  1  0.58251497  0.99857369  0.70475858  1
  C  C143  1  0.41748503  0.29524142  0.00142631  1
  C  C144  1  0.01606603  0.00047866  0.42319632  1
  C  C145  1  0.98393397  0.57680368  0.99952134  1
  C  C146  1  0.48393397  0.00047866  0.42319632  1
  C  C147  1  0.51606603  0.57680368  0.99952134  1
  C  C148  1  0.98393397  0.99952134  0.57680368  1
  C  C149  1  0.01606603  0.42319632  0.00047866  1
  C  C150  1  0.51606603  0.99952134  0.57680368  1
  C  C151  1  0.48393397  0.42319632  0.00047866  1
  C  C152  1  0.90350365  0.07651073  0.37285847  1
  C  C153  1  0.09649635  0.62714153  0.92348927  1
  C  C154  1  0.59649635  0.07651073  0.37285847  1
  C  C155  1  0.40350365  0.62714153  0.92348927  1
  C  C156  1  0.09649635  0.92348927  0.62714153  1
  C  C157  1  0.90350365  0.37285847  0.07651073  1
  C  C158  1  0.40350365  0.92348927  0.62714153  1
  C  C159  1  0.59649635  0.37285847  0.07651073  1
  C  C160  1  0.59336363  0.92318782  0.30196188  1
  C  C161  1  0.40663637  0.69803812  0.07681218  1
  C  C162  1  0.90663637  0.92318782  0.30196188  1
  C  C163  1  0.09336363  0.69803812  0.07681218  1
  C  C164  1  0.40663637  0.07681218  0.69803812  1
  C  C165  1  0.59336363  0.30196188  0.92318782  1
  C  C166  1  0.09336363  0.07681218  0.69803812  1
  C  C167  1  0.90663637  0.30196188  0.92318782  1
