# generated using pymatgen
data_CuNi3C2
_symmetry_space_group_name_H-M   'P 1'
_cell_length_a   3.50007983
_cell_length_b   3.50007983
_cell_length_c   39.62501300
_cell_angle_alpha   90.00000000
_cell_angle_beta   90.00000000
_cell_angle_gamma   119.99999680
_symmetry_Int_Tables_number   1
_chemical_formula_structural   CuNi3C2
_chemical_formula_sum   'Cu2 Ni6 C4'
_cell_volume   420.39347182
_cell_formula_units_Z   2
loop_
 _symmetry_equiv_pos_site_id
 _symmetry_equiv_pos_as_xyz
  1  'x, y, z'
loop_
 _atom_site_type_symbol
 _atom_site_label
 _atom_site_symmetry_multiplicity
 _atom_site_fract_x
 _atom_site_fract_y
 _atom_site_fract_z
 _atom_site_occupancy
  Ni  Ni0  1  0.00000000  0.00000000  0.32805800  1
  Ni  Ni1  1  0.00000000  0.00000000  0.70379500  1
  Ni  Ni2  1  0.33333300  0.66666700  0.42339600  1
  Ni  Ni3  1  0.33333300  0.66666700  0.51592400  1
  Ni  Ni4  1  0.00000000  0.00000000  0.23551400  1
  Ni  Ni5  1  0.00000000  0.00000000  0.61126000  1
  C  C6  1  0.00000000  0.00000000  0.09392500  1
  C  C7  1  0.00000000  0.00000000  0.46965600  1
  C  C8  1  0.33333300  0.66666700  0.28177000  1
  C  C9  1  0.33333300  0.66666700  0.65754700  1
  Cu  Cu10  1  0.33333300  0.66666700  0.05307200  1
  Cu  Cu11  1  0.33333300  0.66666700  0.13483100  1
