# generated using pymatgen
data_Cu(Ni10C11)3
_symmetry_space_group_name_H-M   'P 1'
_cell_length_a   8.50418616
_cell_length_b   8.50881024
_cell_length_c   8.50881024
_cell_angle_alpha   90.00000000
_cell_angle_beta   90.00000000
_cell_angle_gamma   90.00000000
_symmetry_Int_Tables_number   1
_chemical_formula_structural   Cu(Ni10C11)3
_chemical_formula_sum   'Cu1 Ni30 C33'
_cell_volume   615.70181682
_cell_formula_units_Z   1
loop_
 _symmetry_equiv_pos_site_id
 _symmetry_equiv_pos_as_xyz
  1  'x, y, z'
loop_
 _atom_site_type_symbol
 _atom_site_label
 _atom_site_symmetry_multiplicity
 _atom_site_fract_x
 _atom_site_fract_y
 _atom_site_fract_z
 _atom_site_occupancy
  C  C0  1  0.00000000  0.00000000  0.00000000  1
  Ni  Ni1  1  0.00000000  0.00000000  0.50000000  1
  Ni  Ni2  1  0.00000000  0.50000000  0.00000000  1
  Ni  Ni3  1  0.50000000  0.00000000  0.00000000  1
  Ni  Ni4  1  0.50000000  0.00000000  0.50000000  1
  Ni  Ni5  1  0.50000000  0.50000000  0.00000000  1
  Ni  Ni6  1  0.50000000  0.50000000  0.50000000  1
  Ni  Ni7  1  0.00000000  0.24481624  0.24481624  1
  Ni  Ni8  1  0.00000000  0.24481624  0.75518376  1
  Ni  Ni9  1  0.00000000  0.75518376  0.24481624  1
  Ni  Ni10  1  0.00000000  0.75518376  0.75518376  1
  Ni  Ni11  1  0.50000000  0.24867803  0.24867803  1
  Ni  Ni12  1  0.50000000  0.24867803  0.75132197  1
  Ni  Ni13  1  0.50000000  0.75132197  0.24867803  1
  Ni  Ni14  1  0.50000000  0.75132197  0.75132197  1
  Ni  Ni15  1  0.24727161  0.00000000  0.24614526  1
  Ni  Ni16  1  0.24727161  0.00000000  0.75385474  1
  Ni  Ni17  1  0.25092147  0.50000000  0.24753373  1
  Ni  Ni18  1  0.25092147  0.50000000  0.75246627  1
  Ni  Ni19  1  0.75272839  0.00000000  0.24614526  1
  Ni  Ni20  1  0.75272839  0.00000000  0.75385474  1
  Ni  Ni21  1  0.74907853  0.50000000  0.24753373  1
  Ni  Ni22  1  0.74907853  0.50000000  0.75246627  1
  Ni  Ni23  1  0.24727161  0.24614526  0.00000000  1
  Ni  Ni24  1  0.25092147  0.24753373  0.50000000  1
  Ni  Ni25  1  0.24727161  0.75385474  0.00000000  1
  Ni  Ni26  1  0.25092147  0.75246627  0.50000000  1
  Ni  Ni27  1  0.75272839  0.24614526  0.00000000  1
  Ni  Ni28  1  0.74907853  0.24753373  0.50000000  1
  Ni  Ni29  1  0.75272839  0.75385474  0.00000000  1
  Ni  Ni30  1  0.74907853  0.75246627  0.50000000  1
  Cu  Cu31  1  0.00000000  0.50000000  0.50000000  1
  C  C32  1  0.25582594  0.00000000  0.00000000  1
  C  C33  1  0.24952937  0.00000000  0.50000000  1
  C  C34  1  0.24952937  0.50000000  0.00000000  1
  C  C35  1  0.24282599  0.50000000  0.50000000  1
  C  C36  1  0.74417406  0.00000000  0.00000000  1
  C  C37  1  0.75047063  0.00000000  0.50000000  1
  C  C38  1  0.75047063  0.50000000  0.00000000  1
  C  C39  1  0.75717401  0.50000000  0.50000000  1
  C  C40  1  0.24962248  0.25093054  0.25093054  1
  C  C41  1  0.24962248  0.25093054  0.74906946  1
  C  C42  1  0.24962248  0.74906946  0.25093054  1
  C  C43  1  0.24962248  0.74906946  0.74906946  1
  C  C44  1  0.75037752  0.25093054  0.25093054  1
  C  C45  1  0.75037752  0.25093054  0.74906946  1
  C  C46  1  0.75037752  0.74906946  0.25093054  1
  C  C47  1  0.75037752  0.74906946  0.74906946  1
  C  C48  1  0.00000000  0.00000000  0.25852751  1
  C  C49  1  0.00000000  0.00000000  0.74147249  1
  C  C50  1  0.00000000  0.50000000  0.25858838  1
  C  C51  1  0.00000000  0.50000000  0.74141162  1
  C  C52  1  0.50000000  0.00000000  0.25188365  1
  C  C53  1  0.50000000  0.00000000  0.74811635  1
  C  C54  1  0.50000000  0.50000000  0.25252844  1
  C  C55  1  0.50000000  0.50000000  0.74747156  1
  C  C56  1  0.00000000  0.25852751  0.00000000  1
  C  C57  1  0.00000000  0.25858838  0.50000000  1
  C  C58  1  0.00000000  0.74147249  0.00000000  1
  C  C59  1  0.00000000  0.74141162  0.50000000  1
  C  C60  1  0.50000000  0.25188365  0.00000000  1
  C  C61  1  0.50000000  0.25252844  0.50000000  1
  C  C62  1  0.50000000  0.74811635  0.00000000  1
  C  C63  1  0.50000000  0.74747156  0.50000000  1
