# generated using pymatgen
data_CuNi149
_symmetry_space_group_name_H-M   'P 1'
_cell_length_a   15.96150659
_cell_length_b   15.96151213
_cell_length_c   15.63120047
_cell_angle_alpha   90.00000000
_cell_angle_beta   90.00000000
_cell_angle_gamma   120.00001372
_symmetry_Int_Tables_number   1
_chemical_formula_structural   CuNi149
_chemical_formula_sum   'Cu1 Ni149'
_cell_volume   3448.82230394
_cell_formula_units_Z   1
loop_
 _symmetry_equiv_pos_site_id
 _symmetry_equiv_pos_as_xyz
  1  'x, y, z'
loop_
 _atom_site_type_symbol
 _atom_site_label
 _atom_site_symmetry_multiplicity
 _atom_site_fract_x
 _atom_site_fract_y
 _atom_site_fract_z
 _atom_site_occupancy
  Ni  Ni0  1  0.19706758  0.00095252  -0.00000000  1
  Ni  Ni1  1  0.80388494  0.00095252  -0.00000000  1
  Ni  Ni2  1  0.19706758  0.19611506  -0.00000000  1
  Ni  Ni3  1  0.99904748  0.19611506  -0.00000000  1
  Ni  Ni4  1  0.39904439  0.19952270  -0.00000000  1
  Ni  Ni5  1  0.80047730  0.19952270  -0.00000000  1
  Ni  Ni6  1  0.59985769  0.19971639  -0.00000000  1
  Ni  Ni7  1  0.19916515  0.39833129  -0.00000000  1
  Ni  Ni8  1  0.39933011  0.39938516  -0.00000000  1
  Ni  Ni9  1  0.00005505  0.39938516  -0.00000000  1
  Ni  Ni10  1  0.59985769  0.40014131  -0.00000000  1
  Ni  Ni11  1  0.80028361  0.40014131  -0.00000000  1
  Ni  Ni12  1  0.19981130  0.59990565  -0.00000000  1
  Ni  Ni13  1  0.40009435  0.59990565  -0.00000000  1
  Ni  Ni14  1  0.60061484  0.60066889  -0.00000000  1
  Ni  Ni15  1  0.00005505  0.60066989  -0.00000000  1
  Ni  Ni16  1  0.80047730  0.60095561  -0.00000000  1
  Ni  Ni17  1  0.40009435  0.80018870  -0.00000000  1
  Ni  Ni18  1  0.19916515  0.80083385  -0.00000000  1
  Ni  Ni19  1  0.60166871  0.80083385  -0.00000000  1
  Ni  Ni20  1  0.80388494  0.80293242  -0.00000000  1
  Ni  Ni21  1  0.99904748  0.80293242  -0.00000000  1
  Ni  Ni22  1  0.60061484  0.99994595  -0.00000000  1
  Ni  Ni23  1  0.39933011  0.99994595  -0.00000000  1
  Ni  Ni24  1  0.06547307  0.13094515  0.16379022  1
  Ni  Ni25  1  0.06547307  0.93452693  0.16379022  1
  Ni  Ni26  1  0.86905485  0.93452693  0.16379022  1
  Ni  Ni27  1  0.06622802  0.33220557  0.16607900  1
  Ni  Ni28  1  0.26597755  0.33220557  0.16607900  1
  Ni  Ni29  1  0.66779443  0.73402245  0.16607900  1
  Ni  Ni30  1  0.06622802  0.73402245  0.16607900  1
  Ni  Ni31  1  0.66779443  0.93377198  0.16607900  1
  Ni  Ni32  1  0.26597755  0.93377198  0.16607900  1
  Ni  Ni33  1  0.26643863  0.53287826  0.16639968  1
  Ni  Ni34  1  0.26643863  0.73356037  0.16639968  1
  Ni  Ni35  1  0.46712174  0.73356137  0.16639968  1
  Ni  Ni36  1  0.46668943  0.53330957  0.16637816  1
  Ni  Ni37  1  0.06662014  0.53331057  0.16637816  1
  Ni  Ni38  1  0.46668943  0.93337886  0.16637816  1
  Ni  Ni39  1  0.66666700  0.33333300  0.16658001  1
  Ni  Ni40  1  0.46675062  0.13332462  0.16651790  1
  Ni  Ni41  1  0.66657400  0.13332462  0.16651790  1
  Ni  Ni42  1  0.46675062  0.33342600  0.16651790  1
  Ni  Ni43  1  0.86667538  0.33342600  0.16651790  1
  Ni  Ni44  1  0.66657400  0.53324938  0.16651790  1
  Ni  Ni45  1  0.86667538  0.53324938  0.16651790  1
  Ni  Ni46  1  0.26725067  0.13362583  0.16702748  1
  Ni  Ni47  1  0.86637517  0.13362583  0.16702748  1
  Ni  Ni48  1  0.86637517  0.73274933  0.16702748  1
  Ni  Ni49  1  0.00000000  -0.00000000  0.33223049  1
  Ni  Ni50  1  0.80043241  0.99981884  0.33291602  1
  Ni  Ni51  1  0.19938643  0.99981984  0.33291602  1
  Ni  Ni52  1  0.00018016  0.19956759  0.33291602  1
  Ni  Ni53  1  0.19938643  0.19956759  0.33291602  1
  Ni  Ni54  1  0.80043241  0.80061257  0.33291602  1
  Ni  Ni55  1  0.00018016  0.80061357  0.33291602  1
  Ni  Ni56  1  0.60025076  0.99993163  0.33304444  1
  Ni  Ni57  1  0.39967987  0.99993163  0.33304444  1
  Ni  Ni58  1  0.00006937  0.39974824  0.33304444  1
  Ni  Ni59  1  0.39967987  0.39974824  0.33304444  1
  Ni  Ni60  1  0.00006937  0.60032013  0.33304444  1
  Ni  Ni61  1  0.60025076  0.60032013  0.33304444  1
  Ni  Ni62  1  0.19988910  0.39977819  0.33302182  1
  Ni  Ni63  1  0.60022081  0.80011090  0.33302182  1
  Ni  Ni64  1  0.19988910  0.80011090  0.33302182  1
  Ni  Ni65  1  0.59997712  0.19995423  0.33317660  1
  Ni  Ni66  1  0.59997712  0.40002288  0.33317660  1
  Ni  Ni67  1  0.80004577  0.40002288  0.33317660  1
  Ni  Ni68  1  0.20001353  0.60000676  0.33319480  1
  Ni  Ni69  1  0.39999324  0.60000676  0.33319480  1
  Ni  Ni70  1  0.39999324  0.79998547  0.33319480  1
  Ni  Ni71  1  0.80009057  0.19990843  0.33338168  1
  Ni  Ni72  1  0.39981886  0.19990943  0.33338168  1
  Ni  Ni73  1  0.80009057  0.60018214  0.33338168  1
  Ni  Ni74  1  0.06649854  0.13299709  0.50000000  1
  Ni  Ni75  1  0.86680371  0.13319629  0.50000000  1
  Ni  Ni76  1  0.26639258  0.13319629  0.50000000  1
  Ni  Ni77  1  0.66659184  0.13326021  0.50000000  1
  Ni  Ni78  1  0.46666937  0.13326121  0.50000000  1
  Ni  Ni79  1  0.06640264  0.33297216  0.50000000  1
  Ni  Ni80  1  0.26656952  0.33297216  0.50000000  1
  Ni  Ni81  1  0.66666700  0.33333300  0.50000000  1
  Ni  Ni82  1  0.86673879  0.33340816  0.50000000  1
  Ni  Ni83  1  0.46666937  0.33340816  0.50000000  1
  Ni  Ni84  1  0.26652607  0.53305314  0.50000000  1
  Ni  Ni85  1  0.46677292  0.53322708  0.50000000  1
  Ni  Ni86  1  0.06645416  0.53322708  0.50000000  1
  Ni  Ni87  1  0.86673879  0.53333163  0.50000000  1
  Ni  Ni88  1  0.66659184  0.53333163  0.50000000  1
  Ni  Ni89  1  0.26652607  0.73347393  0.50000000  1
  Ni  Ni90  1  0.46694686  0.73347393  0.50000000  1
  Ni  Ni91  1  0.06640264  0.73343048  0.50000000  1
  Ni  Ni92  1  0.66702784  0.73343048  0.50000000  1
  Ni  Ni93  1  0.86680371  0.73360742  0.50000000  1
  Ni  Ni94  1  0.06649854  0.93350146  0.50000000  1
  Ni  Ni95  1  0.86700291  0.93350146  0.50000000  1
  Ni  Ni96  1  0.46677292  0.93354584  0.50000000  1
  Ni  Ni97  1  0.26656952  0.93359736  0.50000000  1
  Ni  Ni98  1  0.66702784  0.93359736  0.50000000  1
  Ni  Ni99  1  0.80009057  0.19990843  0.66661732  1
  Ni  Ni100  1  0.39981886  0.19990943  0.66661732  1
  Ni  Ni101  1  0.80009057  0.60018214  0.66661732  1
  Ni  Ni102  1  0.20001353  0.60000676  0.66680520  1
  Ni  Ni103  1  0.39999324  0.60000676  0.66680520  1
  Ni  Ni104  1  0.39999324  0.79998547  0.66680520  1
  Ni  Ni105  1  0.59997712  0.19995423  0.66682340  1
  Ni  Ni106  1  0.59997712  0.40002288  0.66682340  1
  Ni  Ni107  1  0.80004577  0.40002288  0.66682340  1
  Ni  Ni108  1  0.19988910  0.39977819  0.66697818  1
  Ni  Ni109  1  0.60022081  0.80011090  0.66697818  1
  Ni  Ni110  1  0.19988910  0.80011090  0.66697818  1
  Ni  Ni111  1  0.60025076  0.99993163  0.66695556  1
  Ni  Ni112  1  0.39967987  0.99993163  0.66695556  1
  Ni  Ni113  1  0.00006937  0.39974824  0.66695556  1
  Ni  Ni114  1  0.39967987  0.39974824  0.66695556  1
  Ni  Ni115  1  0.00006937  0.60032013  0.66695556  1
  Ni  Ni116  1  0.60025076  0.60032013  0.66695556  1
  Ni  Ni117  1  0.80043241  0.99981884  0.66708398  1
  Ni  Ni118  1  0.19938643  0.99981984  0.66708398  1
  Ni  Ni119  1  0.00018016  0.19956759  0.66708398  1
  Ni  Ni120  1  0.19938643  0.19956759  0.66708398  1
  Ni  Ni121  1  0.80043241  0.80061257  0.66708398  1
  Ni  Ni122  1  0.00018016  0.80061357  0.66708398  1
  Ni  Ni123  1  0.00000000  -0.00000000  0.66776851  1
  Ni  Ni124  1  0.26725067  0.13362583  0.83297252  1
  Ni  Ni125  1  0.86637517  0.13362583  0.83297252  1
  Ni  Ni126  1  0.86637517  0.73274933  0.83297252  1
  Ni  Ni127  1  0.46675062  0.13332462  0.83348210  1
  Ni  Ni128  1  0.66657400  0.13332462  0.83348210  1
  Ni  Ni129  1  0.46675062  0.33342600  0.83348210  1
  Ni  Ni130  1  0.86667538  0.33342600  0.83348210  1
  Ni  Ni131  1  0.66657400  0.53324938  0.83348210  1
  Ni  Ni132  1  0.86667538  0.53324938  0.83348210  1
  Ni  Ni133  1  0.66666700  0.33333300  0.83341999  1
  Ni  Ni134  1  0.46668943  0.53330957  0.83362184  1
  Ni  Ni135  1  0.06662014  0.53331057  0.83362184  1
  Ni  Ni136  1  0.46668943  0.93337886  0.83362184  1
  Ni  Ni137  1  0.26643863  0.53287826  0.83360032  1
  Ni  Ni138  1  0.26643863  0.73356037  0.83360032  1
  Ni  Ni139  1  0.46712174  0.73356137  0.83360032  1
  Ni  Ni140  1  0.06622802  0.33220557  0.83392000  1
  Ni  Ni141  1  0.26597755  0.33220557  0.83392000  1
  Ni  Ni142  1  0.66779443  0.73402245  0.83392000  1
  Ni  Ni143  1  0.06622802  0.73402245  0.83392000  1
  Ni  Ni144  1  0.66779443  0.93377198  0.83392000  1
  Ni  Ni145  1  0.26597755  0.93377198  0.83392000  1
  Ni  Ni146  1  0.06547307  0.13094515  0.83620978  1
  Ni  Ni147  1  0.06547307  0.93452693  0.83620978  1
  Ni  Ni148  1  0.86905485  0.93452693  0.83620978  1
  Cu  Cu149  1  0.00000000  -0.00000000  -0.00000000  1
