# generated using pymatgen
data_Cu6Ni2C3
_symmetry_space_group_name_H-M   'P 1'
_cell_length_a   12.81591433
_cell_length_b   12.81591433
_cell_length_c   14.85990396
_cell_angle_alpha   54.59346325
_cell_angle_beta   54.59346325
_cell_angle_gamma   43.57001012
_symmetry_Int_Tables_number   1
_chemical_formula_structural   Cu6Ni2C3
_chemical_formula_sum   'Cu24 Ni8 C12'
_cell_volume   1314.62625715
_cell_formula_units_Z   4
loop_
 _symmetry_equiv_pos_site_id
 _symmetry_equiv_pos_as_xyz
  1  'x, y, z'
loop_
 _atom_site_type_symbol
 _atom_site_label
 _atom_site_symmetry_multiplicity
 _atom_site_fract_x
 _atom_site_fract_y
 _atom_site_fract_z
 _atom_site_occupancy
  C  C0  1  0.27048300  0.27048300  0.23462000  1
  C  C1  1  0.72951700  0.72951700  0.76538000  1
  C  C2  1  0.00057900  0.00057900  0.16293600  1
  C  C3  1  0.99942100  0.99942100  0.83706400  1
  Ni  Ni4  1  0.43560200  0.43560200  0.96277800  1
  Ni  Ni5  1  0.56439800  0.56439800  0.03722200  1
  Ni  Ni6  1  0.17560900  0.17560900  0.77085600  1
  Ni  Ni7  1  0.82439100  0.82439100  0.22914400  1
  Ni  Ni8  1  0.38944900  0.38944900  0.82636300  1
  Ni  Ni9  1  0.61055100  0.61055100  0.17363700  1
  Ni  Ni10  1  0.69292700  0.69292700  0.43415300  1
  Ni  Ni11  1  0.30707300  0.30707300  0.56584700  1
  Cu  Cu12  1  0.82724500  0.82724500  0.55067600  1
  Cu  Cu13  1  0.17275500  0.17275500  0.44932400  1
  Cu  Cu14  1  0.09065900  0.09065900  0.19986900  1
  Cu  Cu15  1  0.90934100  0.90934100  0.80013100  1
  Cu  Cu16  1  0.70441000  0.18615400  0.27717000  1
  Cu  Cu17  1  0.18615400  0.70441000  0.27717000  1
  Cu  Cu18  1  0.29559000  0.81384600  0.72283000  1
  Cu  Cu19  1  0.81384600  0.29559000  0.72283000  1
  Cu  Cu20  1  0.63912900  0.13182300  0.34170000  1
  Cu  Cu21  1  0.13182300  0.63912900  0.34170000  1
  Cu  Cu22  1  0.36087100  0.86817700  0.65830000  1
  Cu  Cu23  1  0.86817700  0.36087100  0.65830000  1
  Cu  Cu24  1  0.05212900  0.42650500  0.16083200  1
  Cu  Cu25  1  0.42650500  0.05212900  0.16083200  1
  Cu  Cu26  1  0.94787100  0.57349500  0.83916800  1
  Cu  Cu27  1  0.57349500  0.94787100  0.83916800  1
  Cu  Cu28  1  0.99747600  0.99747600  0.04113500  1
  Cu  Cu29  1  0.00252400  0.00252400  0.95886500  1
  Cu  Cu30  1  0.92491700  0.47974300  0.21039000  1
  Cu  Cu31  1  0.47974300  0.92491700  0.21039000  1
  Cu  Cu32  1  0.07508300  0.52025700  0.78961000  1
  Cu  Cu33  1  0.52025700  0.07508300  0.78961000  1
  Cu  Cu34  1  0.36544800  0.36544800  0.12929900  1
  Cu  Cu35  1  0.63455200  0.63455200  0.87070100  1
  C  C36  1  0.10705100  0.10705100  0.09967400  1
  C  C37  1  0.89294900  0.89294900  0.90032600  1
  C  C38  1  0.02269300  0.02269300  0.27963400  1
  C  C39  1  0.97730700  0.97730700  0.72036600  1
  C  C40  1  0.76051400  0.76051400  0.59814500  1
  C  C41  1  0.23948600  0.23948600  0.40185500  1
  C  C42  1  0.83746300  0.83746300  0.62606700  1
  C  C43  1  0.16253700  0.16253700  0.37393300  1
