# generated using pymatgen
data_CuNiC17
_symmetry_space_group_name_H-M   'P 1'
_cell_length_a   11.47376500
_cell_length_b   9.70258700
_cell_length_c   8.31640300
_cell_angle_alpha   90.00000000
_cell_angle_beta   90.00000000
_cell_angle_gamma   90.00000000
_symmetry_Int_Tables_number   1
_chemical_formula_structural   CuNiC17
_chemical_formula_sum   'Cu4 Ni4 C68'
_cell_volume   925.82525329
_cell_formula_units_Z   4
loop_
 _symmetry_equiv_pos_site_id
 _symmetry_equiv_pos_as_xyz
  1  'x, y, z'
loop_
 _atom_site_type_symbol
 _atom_site_label
 _atom_site_symmetry_multiplicity
 _atom_site_fract_x
 _atom_site_fract_y
 _atom_site_fract_z
 _atom_site_occupancy
  Ni  Ni0  1  0.47347300  0.75000000  0.05459800  1
  Ni  Ni1  1  0.97347300  0.75000000  0.44540200  1
  Ni  Ni2  1  0.52652700  0.25000000  0.94540200  1
  Ni  Ni3  1  0.02652700  0.25000000  0.55459800  1
  Cu  Cu4  1  0.49897900  0.75000000  0.80551000  1
  Cu  Cu5  1  0.99897900  0.75000000  0.69449000  1
  Cu  Cu6  1  0.50102100  0.25000000  0.19449000  1
  Cu  Cu7  1  0.00102100  0.25000000  0.30551000  1
  C  C8  1  0.52073700  0.85515100  0.10158500  1
  C  C9  1  0.02073700  0.64484900  0.39841500  1
  C  C10  1  0.47926300  0.35515100  0.89841500  1
  C  C11  1  0.97926300  0.14484900  0.60158500  1
  C  C12  1  0.47926300  0.14484900  0.89841500  1
  C  C13  1  0.97926300  0.35515100  0.60158500  1
  C  C14  1  0.52073700  0.64484900  0.10158500  1
  C  C15  1  0.02073700  0.85515100  0.39841500  1
  C  C16  1  0.41580400  0.86479500  0.74839100  1
  C  C17  1  0.91580400  0.63520500  0.75160900  1
  C  C18  1  0.58419600  0.36479500  0.25160900  1
  C  C19  1  0.08419600  0.13520500  0.24839100  1
  C  C20  1  0.58419600  0.13520500  0.25160900  1
  C  C21  1  0.08419600  0.36479500  0.24839100  1
  C  C22  1  0.41580400  0.63520500  0.74839100  1
  C  C23  1  0.91580400  0.86479500  0.75160900  1
  C  C24  1  0.27186700  0.75000000  0.36999100  1
  C  C25  1  0.77186700  0.75000000  0.13000900  1
  C  C26  1  0.72813300  0.25000000  0.63000900  1
  C  C27  1  0.22813300  0.25000000  0.86999100  1
  C  C28  1  0.40689500  0.84211100  0.34771600  1
  C  C29  1  0.90689500  0.65788900  0.15228400  1
  C  C30  1  0.59310500  0.34211100  0.65228400  1
  C  C31  1  0.09310500  0.15788900  0.84771600  1
  C  C32  1  0.59310500  0.15788900  0.65228400  1
  C  C33  1  0.09310500  0.34211100  0.84771600  1
  C  C34  1  0.40689500  0.65788900  0.34771600  1
  C  C35  1  0.90689500  0.84211100  0.15228400  1
  C  C36  1  0.32593600  0.53297600  0.12142800  1
  C  C37  1  0.82593600  0.96702400  0.37857200  1
  C  C38  1  0.67406400  0.03297600  0.87857200  1
  C  C39  1  0.17406400  0.46702400  0.62142800  1
  C  C40  1  0.67406400  0.46702400  0.87857200  1
  C  C41  1  0.17406400  0.03297600  0.62142800  1
  C  C42  1  0.32593600  0.96702400  0.12142800  1
  C  C43  1  0.82593600  0.53297600  0.37857200  1
  C  C44  1  0.26114900  0.62679400  0.95840600  1
  C  C45  1  0.76114900  0.87320600  0.54159400  1
  C  C46  1  0.73885100  0.12679400  0.04159400  1
  C  C47  1  0.23885100  0.37320600  0.45840600  1
  C  C48  1  0.73885100  0.37320600  0.04159400  1
  C  C49  1  0.23885100  0.12679400  0.45840600  1
  C  C50  1  0.26114900  0.87320600  0.95840600  1
  C  C51  1  0.76114900  0.62679400  0.54159400  1
  C  C52  1  0.19214200  0.62618100  0.15271900  1
  C  C53  1  0.69214200  0.87381900  0.34728100  1
  C  C54  1  0.80785800  0.12618100  0.84728100  1
  C  C55  1  0.30785800  0.37381900  0.65271900  1
  C  C56  1  0.80785800  0.37381900  0.84728100  1
  C  C57  1  0.30785800  0.12618100  0.65271900  1
  C  C58  1  0.19214200  0.87381900  0.15271900  1
  C  C59  1  0.69214200  0.62618100  0.34728100  1
  C  C60  1  0.35800500  0.75000000  0.31281600  1
  C  C61  1  0.85800500  0.75000000  0.18718400  1
  C  C62  1  0.64199500  0.25000000  0.68718400  1
  C  C63  1  0.14199500  0.25000000  0.81281600  1
  C  C64  1  0.27579700  0.62533600  0.08861900  1
  C  C65  1  0.77579700  0.87466400  0.41138100  1
  C  C66  1  0.72420300  0.12533600  0.91138100  1
  C  C67  1  0.22420300  0.37466400  0.58861900  1
  C  C68  1  0.72420300  0.37466400  0.91138100  1
  C  C69  1  0.22420300  0.12533600  0.58861900  1
  C  C70  1  0.27579700  0.87466400  0.08861900  1
  C  C71  1  0.77579700  0.62533600  0.41138100  1
  C  C72  1  0.34413200  0.75000000  0.13400400  1
  C  C73  1  0.84413200  0.75000000  0.36599600  1
  C  C74  1  0.65586800  0.25000000  0.86599600  1
  C  C75  1  0.15586800  0.25000000  0.63400400  1
