# generated using pymatgen
data_Cu2NiC8
_symmetry_space_group_name_H-M   'P 1'
_cell_length_a   7.12572928
_cell_length_b   7.44785561
_cell_length_c   9.77430507
_cell_angle_alpha   83.33365182
_cell_angle_beta   83.09303097
_cell_angle_gamma   85.86440568
_symmetry_Int_Tables_number   1
_chemical_formula_structural   Cu2NiC8
_chemical_formula_sum   'Cu8 Ni4 C32'
_cell_volume   510.59931101
_cell_formula_units_Z   4
loop_
 _symmetry_equiv_pos_site_id
 _symmetry_equiv_pos_as_xyz
  1  'x, y, z'
loop_
 _atom_site_type_symbol
 _atom_site_label
 _atom_site_symmetry_multiplicity
 _atom_site_fract_x
 _atom_site_fract_y
 _atom_site_fract_z
 _atom_site_occupancy
  Ni  Ni0  1  0.16325400  0.65850100  0.49101100  1
  Ni  Ni1  1  0.66299300  0.65872300  0.99102200  1
  Ni  Ni2  1  0.83688700  0.34128900  0.50901300  1
  Ni  Ni3  1  0.33669400  0.34156000  0.00898600  1
  C  C4  1  0.44988100  0.20213200  0.70720200  1
  C  C5  1  0.05014600  0.79777100  0.79288800  1
  C  C6  1  0.94975200  0.20227100  0.20721200  1
  C  C7  1  0.55026500  0.79778400  0.29282500  1
  Cu  Cu8  1  0.24742400  0.09274500  0.43687000  1
  Cu  Cu9  1  0.74725400  0.09289700  0.93695200  1
  Cu  Cu10  1  0.75280500  0.90705800  0.56310400  1
  Cu  Cu11  1  0.25260300  0.90730400  0.06312100  1
  Cu  Cu12  1  0.98803000  0.61474600  0.21026900  1
  Cu  Cu13  1  0.48803500  0.61463100  0.71029200  1
  Cu  Cu14  1  0.01193600  0.38530300  0.78968300  1
  Cu  Cu15  1  0.51194900  0.38531300  0.28970500  1
  C  C16  1  0.29176200  0.89840100  0.39796600  1
  C  C17  1  0.79156700  0.89849200  0.89811800  1
  C  C18  1  0.70838800  0.10147700  0.60188000  1
  C  C19  1  0.20817700  0.10165100  0.10197600  1
  C  C20  1  0.28057500  0.11406400  0.58410700  1
  C  C21  1  0.78019700  0.11434700  0.08420700  1
  C  C22  1  0.71995300  0.88560700  0.41582400  1
  C  C23  1  0.21957900  0.88593200  0.91586900  1
  C  C24  1  0.04958300  0.16766000  0.40103300  1
  C  C25  1  0.54943600  0.16781300  0.90107300  1
  C  C26  1  0.95063000  0.83216500  0.59898700  1
  C  C27  1  0.45042700  0.83239500  0.09903300  1
  C  C28  1  0.01327900  0.42439900  0.63138300  1
  C  C29  1  0.51317200  0.42467200  0.13142900  1
  C  C30  1  0.98683800  0.57537300  0.36853200  1
  C  C31  1  0.48669000  0.57557100  0.86859800  1
  C  C32  1  0.08201400  0.45628000  0.13402000  1
  C  C33  1  0.58215000  0.45609800  0.63422200  1
  C  C34  1  0.91785200  0.54383000  0.86576700  1
  C  C35  1  0.41797500  0.54377700  0.36596900  1
  C  C36  1  0.10440100  0.79256100  0.17042200  1
  C  C37  1  0.60459000  0.79231900  0.67037800  1
  C  C38  1  0.89538900  0.20760900  0.82958500  1
  C  C39  1  0.39553400  0.20751500  0.32949300  1
  C  C40  1  0.71174300  0.33008200  0.33082000  1
  C  C41  1  0.21172200  0.33005000  0.83084500  1
  C  C42  1  0.28825700  0.66990900  0.66913500  1
  C  C43  1  0.78820700  0.66992600  0.16917300  1
