# generated using pymatgen
data_Cu(Ni5C3)2
_symmetry_space_group_name_H-M   'P 1'
_cell_length_a   12.00212500
_cell_length_b   12.67609100
_cell_length_c   14.20922800
_cell_angle_alpha   90.00000000
_cell_angle_beta   90.00000000
_cell_angle_gamma   90.00000000
_symmetry_Int_Tables_number   1
_chemical_formula_structural   Cu(Ni5C3)2
_chemical_formula_sum   'Cu4 Ni40 C24'
_cell_volume   2161.79235563
_cell_formula_units_Z   4
loop_
 _symmetry_equiv_pos_site_id
 _symmetry_equiv_pos_as_xyz
  1  'x, y, z'
loop_
 _atom_site_type_symbol
 _atom_site_label
 _atom_site_symmetry_multiplicity
 _atom_site_fract_x
 _atom_site_fract_y
 _atom_site_fract_z
 _atom_site_occupancy
  C  C0  1  0.28761300  0.89552300  0.86324600  1
  C  C1  1  0.21238700  0.39552300  0.13675400  1
  C  C2  1  0.78761300  0.10447700  0.63675400  1
  C  C3  1  0.71238700  0.60447700  0.36324600  1
  C  C4  1  0.71238700  0.10447700  0.13675400  1
  C  C5  1  0.78761300  0.60447700  0.86324600  1
  C  C6  1  0.21238700  0.89552300  0.36324600  1
  C  C7  1  0.28761300  0.39552300  0.63675400  1
  C  C8  1  0.02087700  0.78359200  0.63961900  1
  C  C9  1  0.47912300  0.28359200  0.36038100  1
  C  C10  1  0.52087700  0.21640800  0.86038100  1
  C  C11  1  0.97912300  0.71640800  0.13961900  1
  C  C12  1  0.97912300  0.21640800  0.36038100  1
  C  C13  1  0.52087700  0.71640800  0.63961900  1
  C  C14  1  0.47912300  0.78359200  0.13961900  1
  C  C15  1  0.02087700  0.28359200  0.86038100  1
  C  C16  1  0.41387600  0.55444800  0.90635400  1
  C  C17  1  0.08612400  0.05444800  0.09364600  1
  C  C18  1  0.91387600  0.44555200  0.59364600  1
  C  C19  1  0.58612400  0.94555200  0.40635400  1
  C  C20  1  0.58612400  0.44555200  0.09364600  1
  C  C21  1  0.91387600  0.94555200  0.90635400  1
  C  C22  1  0.08612400  0.55444800  0.40635400  1
  C  C23  1  0.41387600  0.05444800  0.59364600  1
  Ni  Ni24  1  0.30278500  0.62635100  0.78381900  1
  Ni  Ni25  1  0.19721500  0.12635100  0.21618100  1
  Ni  Ni26  1  0.80278500  0.37364900  0.71618100  1
  Ni  Ni27  1  0.69721500  0.87364900  0.28381900  1
  Ni  Ni28  1  0.69721500  0.37364900  0.21618100  1
  Ni  Ni29  1  0.80278500  0.87364900  0.78381900  1
  Ni  Ni30  1  0.19721500  0.62635100  0.28381900  1
  Ni  Ni31  1  0.30278500  0.12635100  0.71618100  1
  Ni  Ni32  1  0.01890700  0.78411600  0.89913800  1
  Ni  Ni33  1  0.48109300  0.28411600  0.10086200  1
  Ni  Ni34  1  0.51890700  0.21588400  0.60086200  1
  Ni  Ni35  1  0.98109300  0.71588400  0.39913800  1
  Ni  Ni36  1  0.98109300  0.21588400  0.10086200  1
  Ni  Ni37  1  0.51890700  0.71588400  0.89913800  1
  Ni  Ni38  1  0.48109300  0.78411600  0.39913800  1
  Ni  Ni39  1  0.01890700  0.28411600  0.60086200  1
  Ni  Ni40  1  0.21641100  0.63459200  0.51211200  1
  Ni  Ni41  1  0.28358900  0.13459200  0.48788800  1
  Ni  Ni42  1  0.71641100  0.36540800  0.98788800  1
  Ni  Ni43  1  0.78358900  0.86540800  0.01211200  1
  Ni  Ni44  1  0.78358900  0.36540800  0.48788800  1
  Ni  Ni45  1  0.71641100  0.86540800  0.51211200  1
  Ni  Ni46  1  0.28358900  0.63459200  0.01211200  1
  Ni  Ni47  1  0.21641100  0.13459200  0.98788800  1
  Ni  Ni48  1  0.02928700  0.51677700  0.71658400  1
  Ni  Ni49  1  0.47071300  0.01677700  0.28341600  1
  Ni  Ni50  1  0.52928700  0.48322300  0.78341600  1
  Ni  Ni51  1  0.97071300  0.98322300  0.21658400  1
  Ni  Ni52  1  0.97071300  0.48322300  0.28341600  1
  Ni  Ni53  1  0.52928700  0.98322300  0.71658400  1
  Ni  Ni54  1  0.47071300  0.51677700  0.21658400  1
  Ni  Ni55  1  0.02928700  0.01677700  0.78341600  1
  Ni  Ni56  1  0.29762100  0.90084100  0.60389300  1
  Ni  Ni57  1  0.20237900  0.40084100  0.39610700  1
  Ni  Ni58  1  0.79762100  0.09915900  0.89610700  1
  Ni  Ni59  1  0.70237900  0.59915900  0.10389300  1
  Ni  Ni60  1  0.70237900  0.09915900  0.39610700  1
  Ni  Ni61  1  0.79762100  0.59915900  0.60389300  1
  Ni  Ni62  1  0.20237900  0.90084100  0.10389300  1
  Ni  Ni63  1  0.29762100  0.40084100  0.89610700  1
  Cu  Cu64  1  0.00000000  0.50000000  0.50000000  1
  Cu  Cu65  1  0.50000000  0.00000000  0.50000000  1
  Cu  Cu66  1  0.50000000  0.50000000  0.00000000  1
  Cu  Cu67  1  0.00000000  0.00000000  0.00000000  1
