# generated using pymatgen
data_CuNiC8
_symmetry_space_group_name_H-M   'P 1'
_cell_length_a   7.83618317
_cell_length_b   7.94299753
_cell_length_c   7.85265804
_cell_angle_alpha   90.00000000
_cell_angle_beta   90.00000000
_cell_angle_gamma   90.00000000
_symmetry_Int_Tables_number   1
_chemical_formula_structural   CuNiC8
_chemical_formula_sum   'Cu4 Ni4 C32'
_cell_volume   488.77129479
_cell_formula_units_Z   4
loop_
 _symmetry_equiv_pos_site_id
 _symmetry_equiv_pos_as_xyz
  1  'x, y, z'
loop_
 _atom_site_type_symbol
 _atom_site_label
 _atom_site_symmetry_multiplicity
 _atom_site_fract_x
 _atom_site_fract_y
 _atom_site_fract_z
 _atom_site_occupancy
  Ni  Ni0  1  0.25000000  0.25000000  0.25000000  1
  Ni  Ni1  1  0.75000000  0.75000000  0.25000000  1
  Ni  Ni2  1  0.75000000  0.25000000  0.75000000  1
  Ni  Ni3  1  0.25000000  0.75000000  0.75000000  1
  C  C4  1  0.50000000  -0.00000000  0.50000000  1
  C  C5  1  0.50000000  0.50000000  0.00000000  1
  C  C6  1  -0.00000000  0.50000000  0.00000000  1
  C  C7  1  -0.00000000  -0.00000000  0.50000000  1
  Cu  Cu8  1  -0.00000000  0.50000000  0.50000000  1
  Cu  Cu9  1  0.50000000  -0.00000000  0.00000000  1
  Cu  Cu10  1  -0.00000000  -0.00000000  0.00000000  1
  Cu  Cu11  1  0.50000000  0.50000000  0.50000000  1
  C  C12  1  0.75000000  0.75000000  0.75000000  1
  C  C13  1  0.25000000  0.25000000  0.75000000  1
  C  C14  1  0.25000000  0.75000000  0.25000000  1
  C  C15  1  0.75000000  0.25000000  0.25000000  1
  C  C16  1  0.98629253  0.20755724  0.27747451  1
  C  C17  1  0.01370747  0.79244276  0.27747451  1
  C  C18  1  0.01370747  0.20755724  0.72252549  1
  C  C19  1  0.98629253  0.79244276  0.72252549  1
  C  C20  1  0.28115837  0.98734729  0.20456525  1
  C  C21  1  0.28115837  0.01265271  0.79543475  1
  C  C22  1  0.71884163  0.01265271  0.20456525  1
  C  C23  1  0.71884163  0.98734729  0.79543475  1
  C  C24  1  0.20735853  0.27881224  0.98834457  1
  C  C25  1  0.79264147  0.27881224  0.01165543  1
  C  C26  1  0.20735853  0.72118776  0.01165543  1
  C  C27  1  0.79264147  0.72118776  0.98834457  1
  C  C28  1  0.51370747  0.29244276  0.22252549  1
  C  C29  1  0.48629253  0.70755724  0.22252549  1
  C  C30  1  0.48629253  0.29244276  0.77747451  1
  C  C31  1  0.51370747  0.70755724  0.77747451  1
  C  C32  1  0.21884163  0.51265271  0.29543475  1
  C  C33  1  0.21884163  0.48734729  0.70456525  1
  C  C34  1  0.78115837  0.48734729  0.29543475  1
  C  C35  1  0.78115837  0.51265271  0.70456525  1
  C  C36  1  0.29264147  0.22118776  0.51165543  1
  C  C37  1  0.70735853  0.22118776  0.48834457  1
  C  C38  1  0.29264147  0.77881224  0.48834457  1
  C  C39  1  0.70735853  0.77881224  0.51165543  1
