# generated using pymatgen
data_Cu3NiC2
_symmetry_space_group_name_H-M   'P 1'
_cell_length_a   5.03469200
_cell_length_b   5.03469185
_cell_length_c   6.82510700
_cell_angle_alpha   90.00000000
_cell_angle_beta   90.00000000
_cell_angle_gamma   120.00000098
_symmetry_Int_Tables_number   1
_chemical_formula_structural   Cu3NiC2
_chemical_formula_sum   'Cu6 Ni2 C4'
_cell_volume   149.82555458
_cell_formula_units_Z   2
loop_
 _symmetry_equiv_pos_site_id
 _symmetry_equiv_pos_as_xyz
  1  'x, y, z'
loop_
 _atom_site_type_symbol
 _atom_site_label
 _atom_site_symmetry_multiplicity
 _atom_site_fract_x
 _atom_site_fract_y
 _atom_site_fract_z
 _atom_site_occupancy
  C  C0  1  0.00000000  0.00000000  0.00000000  1
  C  C1  1  0.00000000  0.00000000  0.50000000  1
  Ni  Ni2  1  0.66666700  0.33333300  0.00000000  1
  Ni  Ni3  1  0.33333300  0.66666700  0.00000000  1
  Cu  Cu4  1  0.50000000  0.50000000  0.71395800  1
  Cu  Cu5  1  0.50000000  0.00000000  0.71395800  1
  Cu  Cu6  1  0.00000000  0.50000000  0.71395800  1
  Cu  Cu7  1  0.50000000  0.50000000  0.28604200  1
  Cu  Cu8  1  0.50000000  0.00000000  0.28604200  1
  Cu  Cu9  1  0.00000000  0.50000000  0.28604200  1
  C  C10  1  0.66666700  0.33333300  0.50000000  1
  C  C11  1  0.33333300  0.66666700  0.50000000  1
