# generated using pymatgen
data_Cu16NiC15
_symmetry_space_group_name_H-M   'P 1'
_cell_length_a   8.73564091
_cell_length_b   8.73564091
_cell_length_c   4.36217417
_cell_angle_alpha   90.00000000
_cell_angle_beta   90.00000000
_cell_angle_gamma   90.00000000
_symmetry_Int_Tables_number   1
_chemical_formula_structural   Cu16NiC15
_chemical_formula_sum   'Cu16 Ni1 C15'
_cell_volume   332.88371440
_cell_formula_units_Z   1
loop_
 _symmetry_equiv_pos_site_id
 _symmetry_equiv_pos_as_xyz
  1  'x, y, z'
loop_
 _atom_site_type_symbol
 _atom_site_label
 _atom_site_symmetry_multiplicity
 _atom_site_fract_x
 _atom_site_fract_y
 _atom_site_fract_z
 _atom_site_occupancy
  C  C0  1  0.00000000  0.50000000  0.00000000  1
  C  C1  1  0.50000000  0.00000000  0.00000000  1
  C  C2  1  0.00000000  0.24289446  0.50000000  1
  C  C3  1  0.00000000  0.75710554  0.50000000  1
  C  C4  1  0.50000000  0.23257382  0.50000000  1
  C  C5  1  0.50000000  0.76742618  0.50000000  1
  C  C6  1  0.24289446  0.00000000  0.50000000  1
  C  C7  1  0.23257382  0.50000000  0.50000000  1
  C  C8  1  0.75710554  -0.00000000  0.50000000  1
  C  C9  1  0.76742618  0.50000000  0.50000000  1
  C  C10  1  0.23579956  0.23579956  0.00000000  1
  C  C11  1  0.23579956  0.76420044  0.00000000  1
  C  C12  1  0.76420044  0.23579956  -0.00000000  1
  C  C13  1  0.76420044  0.76420044  0.00000000  1
  C  C14  1  0.50000000  0.50000000  0.00000000  1
  Ni  Ni15  1  0.00000000  0.00000000  0.00000000  1
  Cu  Cu16  1  0.26583621  -0.00000000  0.00000000  1
  Cu  Cu17  1  0.23457321  0.50000000  0.00000000  1
  Cu  Cu18  1  0.73416379  0.00000000  -0.00000000  1
  Cu  Cu19  1  0.76542679  0.50000000  0.00000000  1
  Cu  Cu20  1  0.25045519  0.25045519  0.50000000  1
  Cu  Cu21  1  0.25045519  0.74954481  0.50000000  1
  Cu  Cu22  1  0.74954481  0.25045519  0.50000000  1
  Cu  Cu23  1  0.74954481  0.74954481  0.50000000  1
  Cu  Cu24  1  0.00000000  0.00000000  0.50000000  1
  Cu  Cu25  1  0.00000000  0.50000000  0.50000000  1
  Cu  Cu26  1  0.50000000  0.00000000  0.50000000  1
  Cu  Cu27  1  0.50000000  0.50000000  0.50000000  1
  Cu  Cu28  1  0.00000000  0.26583621  0.00000000  1
  Cu  Cu29  1  0.00000000  0.73416379  0.00000000  1
  Cu  Cu30  1  0.50000000  0.23457321  0.00000000  1
  Cu  Cu31  1  0.50000000  0.76542679  0.00000000  1
