# generated using pymatgen
data_Cu2NiC8
_symmetry_space_group_name_H-M   'P 1'
_cell_length_a   8.53268700
_cell_length_b   10.89895300
_cell_length_c   10.93287615
_cell_angle_alpha   84.87274128
_cell_angle_beta   90.00000000
_cell_angle_gamma   90.00000000
_symmetry_Int_Tables_number   1
_chemical_formula_structural   Cu2NiC8
_chemical_formula_sum   'Cu12 Ni6 C48'
_cell_volume   1012.66028364
_cell_formula_units_Z   6
loop_
 _symmetry_equiv_pos_site_id
 _symmetry_equiv_pos_as_xyz
  1  'x, y, z'
loop_
 _atom_site_type_symbol
 _atom_site_label
 _atom_site_symmetry_multiplicity
 _atom_site_fract_x
 _atom_site_fract_y
 _atom_site_fract_z
 _atom_site_occupancy
  C  C0  1  0.43173700  0.87929800  0.56645000  1
  C  C1  1  0.93557100  0.50000000  0.75000000  1
  C  C2  1  0.43173700  0.12070200  0.93355000  1
  C  C3  1  0.06442900  0.50000000  0.25000000  1
  C  C4  1  0.56826300  0.12070200  0.43355000  1
  C  C5  1  0.56826300  0.87929800  0.06645000  1
  Ni  Ni6  1  0.92888600  0.17564300  0.40780200  1
  Ni  Ni7  1  0.07111400  0.82435700  0.59219800  1
  Ni  Ni8  1  0.43157300  0.50000000  0.25000000  1
  Ni  Ni9  1  0.92888600  0.82435700  0.09219800  1
  Ni  Ni10  1  0.56842700  0.50000000  0.75000000  1
  Ni  Ni11  1  0.07111400  0.17564300  0.90780200  1
  Cu  Cu12  1  0.23719900  0.83171600  0.28518000  1
  Cu  Cu13  1  0.75877800  0.83919000  0.36850100  1
  Cu  Cu14  1  0.24122200  0.83919000  0.86850200  1
  Cu  Cu15  1  0.76280100  0.83171600  0.78518000  1
  Cu  Cu16  1  0.27141100  0.51759000  0.96115200  1
  Cu  Cu17  1  0.75877800  0.16081000  0.13149900  1
  Cu  Cu18  1  0.72858900  0.51759000  0.46115200  1
  Cu  Cu19  1  0.24122200  0.16081000  0.63149800  1
  Cu  Cu20  1  0.27141100  0.48241000  0.53884800  1
  Cu  Cu21  1  0.72858900  0.48241000  0.03884800  1
  Cu  Cu22  1  0.76280100  0.16828400  0.71482000  1
  Cu  Cu23  1  0.23719900  0.16828400  0.21482000  1
  C  C24  1  0.71567600  0.80059100  0.94610300  1
  C  C25  1  0.75425900  0.14699100  0.30456000  1
  C  C26  1  0.82707000  0.00000000  0.75000000  1
  C  C27  1  0.90596200  0.52571500  0.11766100  1
  C  C28  1  0.40314300  0.06515000  0.56335000  1
  C  C29  1  0.91144400  0.73117500  0.73502300  1
  C  C30  1  0.34139000  0.68709100  0.93018700  1
  C  C31  1  0.09403800  0.52571500  0.61766100  1
  C  C32  1  0.75006400  0.51532600  0.86861600  1
  C  C33  1  0.40314300  0.93485000  0.93665000  1
  C  C34  1  0.75006400  0.48467400  0.63138400  1
  C  C35  1  0.43166200  0.44217900  0.88277700  1
  C  C36  1  0.94054900  0.14708300  0.04594500  1
  C  C37  1  0.08855600  0.73117500  0.23502300  1
  C  C38  1  0.65861000  0.31290900  0.06981300  1
  C  C39  1  0.34139000  0.31290900  0.56981300  1
  C  C40  1  0.91144400  0.26882500  0.76497700  1
  C  C41  1  0.59685700  0.93485000  0.43665000  1
  C  C42  1  0.28432400  0.80059100  0.44610300  1
  C  C43  1  0.56833800  0.55782100  0.11722300  1
  C  C44  1  0.41077300  0.18482500  0.30333700  1
  C  C45  1  0.24993600  0.48467400  0.13138400  1
  C  C46  1  0.05945100  0.14708300  0.54594500  1
  C  C47  1  0.24993600  0.51532600  0.36861600  1
  C  C48  1  0.90596200  0.47428500  0.38233900  1
  C  C49  1  0.56833800  0.44217900  0.38277700  1
  C  C50  1  0.09403800  0.47428500  0.88233900  1
  C  C51  1  0.58922700  0.18482500  0.80333700  1
  C  C52  1  0.58922700  0.81517500  0.69666300  1
  C  C53  1  0.05945100  0.85291700  0.95405500  1
  C  C54  1  0.08855600  0.26882500  0.26497700  1
  C  C55  1  0.71567600  0.19940900  0.55389700  1
  C  C56  1  0.17293000  0.00000000  0.25000000  1
  C  C57  1  0.24574100  0.14699100  0.80456000  1
  C  C58  1  0.59685700  0.06515000  0.06335000  1
  C  C59  1  0.94054900  0.85291700  0.45405500  1
  C  C60  1  0.28432400  0.19940900  0.05389700  1
  C  C61  1  0.75425900  0.85300900  0.19544000  1
  C  C62  1  0.43166200  0.55782100  0.61722300  1
  C  C63  1  0.65861000  0.68709100  0.43018700  1
  C  C64  1  0.24574100  0.85300900  0.69544000  1
  C  C65  1  0.41077300  0.81517500  0.19666300  1
