# generated using pymatgen
data_Cu3(NiC3)4
_symmetry_space_group_name_H-M   'P 1'
_cell_length_a   7.25642552
_cell_length_b   7.25642552
_cell_length_c   39.67041600
_cell_angle_alpha   90.00000000
_cell_angle_beta   90.00000000
_cell_angle_gamma   91.98614082
_symmetry_Int_Tables_number   1
_chemical_formula_structural   Cu3(NiC3)4
_chemical_formula_sum   'Cu12 Ni16 C48'
_cell_volume   2087.61906121
_cell_formula_units_Z   4
loop_
 _symmetry_equiv_pos_site_id
 _symmetry_equiv_pos_as_xyz
  1  'x, y, z'
loop_
 _atom_site_type_symbol
 _atom_site_label
 _atom_site_symmetry_multiplicity
 _atom_site_fract_x
 _atom_site_fract_y
 _atom_site_fract_z
 _atom_site_occupancy
  Ni  Ni0  1  0.00000000  0.50000000  0.41332800  1
  Ni  Ni1  1  0.00000000  0.50000000  0.73350100  1
  Ni  Ni2  1  0.00000000  0.50000000  0.48859400  1
  Ni  Ni3  1  0.00000000  0.50000000  0.15711900  1
  Ni  Ni4  1  0.00000000  0.50000000  0.91332800  1
  Ni  Ni5  1  0.00000000  0.50000000  0.23350100  1
  Ni  Ni6  1  0.50000000  0.00000000  0.01140600  1
  Ni  Ni7  1  0.50000000  0.00000000  0.34288100  1
  Ni  Ni8  1  0.50000000  0.00000000  0.58667200  1
  Ni  Ni9  1  0.50000000  0.00000000  0.26649900  1
  Ni  Ni10  1  0.50000000  0.00000000  0.76649900  1
  Ni  Ni11  1  0.50000000  0.00000000  0.08667200  1
  Ni  Ni12  1  0.00000000  0.50000000  0.65711900  1
  Ni  Ni13  1  0.00000000  0.50000000  0.98859400  1
  Ni  Ni14  1  0.50000000  0.00000000  0.51140600  1
  Ni  Ni15  1  0.50000000  0.00000000  0.84288100  1
  Cu  Cu16  1  0.50000000  0.50000000  0.70944800  1
  Cu  Cu17  1  0.50000000  0.50000000  0.04096800  1
  Cu  Cu18  1  0.50000000  0.50000000  0.36948700  1
  Cu  Cu19  1  0.00000000  0.00000000  0.45903200  1
  Cu  Cu20  1  0.00000000  0.00000000  0.79055200  1
  Cu  Cu21  1  0.00000000  0.00000000  0.13051300  1
  Cu  Cu22  1  0.50000000  0.50000000  0.63051300  1
  Cu  Cu23  1  0.50000000  0.50000000  0.95903200  1
  Cu  Cu24  1  0.50000000  0.50000000  0.29055200  1
  Cu  Cu25  1  0.00000000  0.00000000  0.54096800  1
  Cu  Cu26  1  0.00000000  0.00000000  0.86948700  1
  Cu  Cu27  1  0.00000000  0.00000000  0.20944800  1
  C  C28  1  0.82285700  0.33306800  0.45306500  1
  C  C29  1  0.80764200  0.32995100  0.76989500  1
  C  C30  1  0.80575800  0.30490800  0.13165900  1
  C  C31  1  0.68759400  0.79501800  0.61015300  1
  C  C32  1  0.70550000  0.83113800  0.97914400  1
  C  C33  1  0.67637400  0.84370800  0.30158500  1
  C  C34  1  0.33306800  0.82285700  0.54693500  1
  C  C35  1  0.30490800  0.80575800  0.86834100  1
  C  C36  1  0.32995100  0.80764200  0.23010500  1
  C  C37  1  0.84370800  0.67637400  0.69841500  1
  C  C38  1  0.83113800  0.70550000  0.02085600  1
  C  C39  1  0.79501800  0.68759400  0.38984700  1
  C  C40  1  0.31240600  0.20498200  0.61015300  1
  C  C41  1  0.29450000  0.16886200  0.97914400  1
  C  C42  1  0.32362600  0.15629200  0.30158500  1
  C  C43  1  0.17714300  0.66693200  0.45306500  1
  C  C44  1  0.19235800  0.67004900  0.76989500  1
  C  C45  1  0.19424200  0.69509200  0.13165900  1
  C  C46  1  0.80490800  0.30575800  0.63165900  1
  C  C47  1  0.83306800  0.32285700  0.95306500  1
  C  C48  1  0.82995100  0.30764200  0.26989500  1
  C  C49  1  0.66693200  0.17714300  0.54693500  1
  C  C50  1  0.69509200  0.19424200  0.86834100  1
  C  C51  1  0.67004900  0.19235800  0.23010500  1
  C  C52  1  0.69235800  0.17004900  0.73010500  1
  C  C53  1  0.67714300  0.16693200  0.04693500  1
  C  C54  1  0.69424200  0.19509200  0.36834100  1
  C  C55  1  0.15629200  0.32362600  0.69841500  1
  C  C56  1  0.16886200  0.29450000  0.02085600  1
  C  C57  1  0.20498200  0.31240600  0.38984700  1
  C  C58  1  0.66886200  0.79450000  0.47914400  1
  C  C59  1  0.65629200  0.82362600  0.80158500  1
  C  C60  1  0.70498200  0.81240600  0.11015300  1
  C  C61  1  0.33113800  0.20550000  0.47914400  1
  C  C62  1  0.34370800  0.17637400  0.80158500  1
  C  C63  1  0.29501800  0.18759400  0.11015300  1
  C  C64  1  0.19509200  0.69424200  0.63165900  1
  C  C65  1  0.16693200  0.67714300  0.95306500  1
  C  C66  1  0.17004900  0.69235800  0.26989500  1
  C  C67  1  0.20550000  0.33113800  0.52085600  1
  C  C68  1  0.18759400  0.29501800  0.88984700  1
  C  C69  1  0.17637400  0.34370800  0.19841500  1
  C  C70  1  0.79450000  0.66886200  0.52085600  1
  C  C71  1  0.81240600  0.70498200  0.88984700  1
  C  C72  1  0.82362600  0.65629200  0.19841500  1
  C  C73  1  0.30764200  0.82995100  0.73010500  1
  C  C74  1  0.32285700  0.83306800  0.04693500  1
  C  C75  1  0.30575800  0.80490800  0.36834100  1
