# generated using pymatgen
data_Cu4(NiC3)3
_symmetry_space_group_name_H-M   'P 1'
_cell_length_a   9.11345394
_cell_length_b   9.11345394
_cell_length_c   9.11345371
_cell_angle_alpha   38.93567821
_cell_angle_beta   38.93567821
_cell_angle_gamma   38.93567995
_symmetry_Int_Tables_number   1
_chemical_formula_structural   Cu4(NiC3)3
_chemical_formula_sum   'Cu4 Ni3 C9'
_cell_volume   268.81082744
_cell_formula_units_Z   1
loop_
 _symmetry_equiv_pos_site_id
 _symmetry_equiv_pos_as_xyz
  1  'x, y, z'
loop_
 _atom_site_type_symbol
 _atom_site_label
 _atom_site_symmetry_multiplicity
 _atom_site_fract_x
 _atom_site_fract_y
 _atom_site_fract_z
 _atom_site_occupancy
  Ni  Ni0  1  0.00046100  0.00046100  0.00046100  1
  Ni  Ni1  1  0.83616100  0.83616100  0.83616100  1
  Ni  Ni2  1  0.42133200  0.42133200  0.42133200  1
  Cu  Cu3  1  0.57502400  0.57502400  0.57502400  1
  Cu  Cu4  1  0.13623100  0.13623100  0.13623100  1
  Cu  Cu5  1  0.26142900  0.26142900  0.26142900  1
  Cu  Cu6  1  0.69983200  0.69983200  0.69983200  1
  C  C7  1  0.53294800  0.42871100  0.95950800  1
  C  C8  1  0.42871100  0.95950800  0.53294800  1
  C  C9  1  0.95950800  0.53294800  0.42871100  1
  C  C10  1  0.39900100  0.31150600  0.87377200  1
  C  C11  1  0.31150600  0.87377200  0.39900100  1
  C  C12  1  0.87377200  0.39900100  0.31150600  1
  C  C13  1  0.96972200  0.41910700  0.86575600  1
  C  C14  1  0.86575600  0.96972200  0.41910700  1
  C  C15  1  0.41910700  0.86575600  0.96972200  1
