# generated using pymatgen
data_Cu3Ni3C11
_symmetry_space_group_name_H-M   'P 1'
_cell_length_a   7.11930500
_cell_length_b   8.41220500
_cell_length_c   14.89649700
_cell_angle_alpha   90.00000000
_cell_angle_beta   90.00000000
_cell_angle_gamma   90.00000000
_symmetry_Int_Tables_number   1
_chemical_formula_structural   Cu3Ni3C11
_chemical_formula_sum   'Cu12 Ni12 C44'
_cell_volume   892.13710010
_cell_formula_units_Z   4
loop_
 _symmetry_equiv_pos_site_id
 _symmetry_equiv_pos_as_xyz
  1  'x, y, z'
loop_
 _atom_site_type_symbol
 _atom_site_label
 _atom_site_symmetry_multiplicity
 _atom_site_fract_x
 _atom_site_fract_y
 _atom_site_fract_z
 _atom_site_occupancy
  C  C0  1  0.34677000  0.29906100  0.42578700  1
  C  C1  1  0.15323000  0.79906100  0.07421300  1
  C  C2  1  0.65323000  0.70093900  0.92578700  1
  C  C3  1  0.84677000  0.20093900  0.57421300  1
  C  C4  1  0.65323000  0.70093900  0.57421300  1
  C  C5  1  0.84677000  0.20093900  0.92578700  1
  C  C6  1  0.34677000  0.29906100  0.07421300  1
  C  C7  1  0.15323000  0.79906100  0.42578700  1
  Ni  Ni8  1  0.33674800  0.04814900  0.59935500  1
  Ni  Ni9  1  0.16325200  0.54814900  0.90064500  1
  Ni  Ni10  1  0.66325200  0.95185100  0.09935500  1
  Ni  Ni11  1  0.83674800  0.45185100  0.40064500  1
  Ni  Ni12  1  0.66325200  0.95185100  0.40064500  1
  Ni  Ni13  1  0.83674800  0.45185100  0.09935500  1
  Ni  Ni14  1  0.33674800  0.04814900  0.90064500  1
  Ni  Ni15  1  0.16325200  0.54814900  0.59935500  1
  Ni  Ni16  1  0.11504000  0.03195000  0.25000000  1
  Ni  Ni17  1  0.38496000  0.53195000  0.25000000  1
  Ni  Ni18  1  0.88496000  0.96805000  0.75000000  1
  Ni  Ni19  1  0.61504000  0.46805000  0.75000000  1
  Cu  Cu20  1  0.26594500  0.09800300  0.68276700  1
  Cu  Cu21  1  0.23405500  0.59800300  0.81723300  1
  Cu  Cu22  1  0.73405500  0.90199700  0.18276700  1
  Cu  Cu23  1  0.76594500  0.40199700  0.31723300  1
  Cu  Cu24  1  0.73405500  0.90199700  0.31723300  1
  Cu  Cu25  1  0.76594500  0.40199700  0.18276700  1
  Cu  Cu26  1  0.26594500  0.09800300  0.81723300  1
  Cu  Cu27  1  0.23405500  0.59800300  0.68276700  1
  Cu  Cu28  1  0.94148000  0.11388300  0.25000000  1
  Cu  Cu29  1  0.55852000  0.61388300  0.25000000  1
  Cu  Cu30  1  0.05852000  0.88611700  0.75000000  1
  Cu  Cu31  1  0.44148000  0.38611700  0.75000000  1
  C  C32  1  0.21456100  0.07311900  0.33871100  1
  C  C33  1  0.28543900  0.57311900  0.16128900  1
  C  C34  1  0.78543900  0.92688100  0.83871100  1
  C  C35  1  0.71456100  0.42688100  0.66128900  1
  C  C36  1  0.78543900  0.92688100  0.66128900  1
  C  C37  1  0.71456100  0.42688100  0.83871100  1
  C  C38  1  0.21456100  0.07311900  0.16128900  1
  C  C39  1  0.28543900  0.57311900  0.33871100  1
  C  C40  1  0.10652000  0.37443100  0.89139900  1
  C  C41  1  0.39348000  0.87443100  0.60860100  1
  C  C42  1  0.89348000  0.62556900  0.39139900  1
  C  C43  1  0.60652000  0.12556900  0.10860100  1
  C  C44  1  0.89348000  0.62556900  0.10860100  1
  C  C45  1  0.60652000  0.12556900  0.39139900  1
  C  C46  1  0.10652000  0.37443100  0.60860100  1
  C  C47  1  0.39348000  0.87443100  0.89139900  1
  C  C48  1  0.49520400  0.16351200  0.57102300  1
  C  C49  1  0.00479600  0.66351200  0.92897700  1
  C  C50  1  0.50479600  0.83648800  0.07102300  1
  C  C51  1  0.99520400  0.33648800  0.42897700  1
  C  C52  1  0.50479600  0.83648800  0.42897700  1
  C  C53  1  0.99520400  0.33648800  0.07102300  1
  C  C54  1  0.49520400  0.16351200  0.92897700  1
  C  C55  1  0.00479600  0.66351200  0.57102300  1
  C  C56  1  0.17391200  0.06446400  0.52932700  1
  C  C57  1  0.32608800  0.56446400  0.97067300  1
  C  C58  1  0.82608800  0.93553600  0.02932700  1
  C  C59  1  0.67391200  0.43553600  0.47067300  1
  C  C60  1  0.82608800  0.93553600  0.47067300  1
  C  C61  1  0.67391200  0.43553600  0.02932700  1
  C  C62  1  0.17391200  0.06446400  0.97067300  1
  C  C63  1  0.32608800  0.56446400  0.52932700  1
  C  C64  1  0.07993600  0.85090800  0.25000000  1
  C  C65  1  0.42006400  0.35090800  0.25000000  1
  C  C66  1  0.92006400  0.14909200  0.75000000  1
  C  C67  1  0.57993600  0.64909200  0.75000000  1
