# generated using pymatgen
data_Cu2Ni2C13
_symmetry_space_group_name_H-M   'P 1'
_cell_length_a   10.05989000
_cell_length_b   6.36846300
_cell_length_c   6.79913011
_cell_angle_alpha   75.78818511
_cell_angle_beta   90.00000000
_cell_angle_gamma   90.00000000
_symmetry_Int_Tables_number   1
_chemical_formula_structural   Cu2Ni2C13
_chemical_formula_sum   'Cu4 Ni4 C26'
_cell_volume   422.26187822
_cell_formula_units_Z   2
loop_
 _symmetry_equiv_pos_site_id
 _symmetry_equiv_pos_as_xyz
  1  'x, y, z'
loop_
 _atom_site_type_symbol
 _atom_site_label
 _atom_site_symmetry_multiplicity
 _atom_site_fract_x
 _atom_site_fract_y
 _atom_site_fract_z
 _atom_site_occupancy
  Ni  Ni0  1  0.61105600  0.41479600  0.16436100  1
  Ni  Ni1  1  0.11105600  0.58520400  0.33563900  1
  Ni  Ni2  1  0.38894400  0.58520400  0.83563900  1
  Ni  Ni3  1  0.88894400  0.41479600  0.66436100  1
  Cu  Cu4  1  0.83376100  0.87309900  0.02354500  1
  Cu  Cu5  1  0.33376100  0.12690100  0.47645500  1
  Cu  Cu6  1  0.16623900  0.12690100  0.97645500  1
  Cu  Cu7  1  0.66623900  0.87309900  0.52354500  1
  C  C8  1  0.40026300  0.66346400  0.37300400  1
  C  C9  1  0.90026300  0.33653600  0.12699600  1
  C  C10  1  0.59973700  0.33653600  0.62699600  1
  C  C11  1  0.09973700  0.66346400  0.87300400  1
  C  C12  1  0.50000000  0.00000000  0.00000000  1
  C  C13  1  0.00000000  0.00000000  0.50000000  1
  C  C14  1  0.82722500  0.51875700  0.05679200  1
  C  C15  1  0.32722500  0.48124300  0.44320800  1
  C  C16  1  0.17277500  0.48124300  0.94320800  1
  C  C17  1  0.67277500  0.51875700  0.55679200  1
  C  C18  1  0.65026200  0.00620600  0.17738600  1
  C  C19  1  0.15026200  0.99379400  0.32261400  1
  C  C20  1  0.34973800  0.99379400  0.82261400  1
  C  C21  1  0.84973800  0.00620600  0.67738600  1
  C  C22  1  0.43919800  0.70896900  0.16524300  1
  C  C23  1  0.93919800  0.29103100  0.33475700  1
  C  C24  1  0.56080200  0.29103100  0.83475700  1
  C  C25  1  0.06080200  0.70896900  0.66524300  1
  C  C26  1  0.93832200  0.20036500  0.00774700  1
  C  C27  1  0.43832200  0.79963500  0.49225300  1
  C  C28  1  0.06167800  0.79963500  0.99225300  1
  C  C29  1  0.56167800  0.20036500  0.50774700  1
  C  C30  1  0.38381800  0.16155900  0.13513400  1
  C  C31  1  0.88381800  0.83844100  0.36486600  1
  C  C32  1  0.61618200  0.83844100  0.86486600  1
  C  C33  1  0.11618200  0.16155900  0.63513400  1
