# generated using pymatgen
data_Cu3Ni18C19
_symmetry_space_group_name_H-M   'P 1'
_cell_length_a   12.03973803
_cell_length_b   12.03973803
_cell_length_c   6.85573100
_cell_angle_alpha   90.00000000
_cell_angle_beta   90.00000000
_cell_angle_gamma   120.00000018
_symmetry_Int_Tables_number   1
_chemical_formula_structural   Cu3Ni18C19
_chemical_formula_sum   'Cu6 Ni36 C38'
_cell_volume   860.63395086
_cell_formula_units_Z   2
loop_
 _symmetry_equiv_pos_site_id
 _symmetry_equiv_pos_as_xyz
  1  'x, y, z'
loop_
 _atom_site_type_symbol
 _atom_site_label
 _atom_site_symmetry_multiplicity
 _atom_site_fract_x
 _atom_site_fract_y
 _atom_site_fract_z
 _atom_site_occupancy
  C  C0  1  0.66666700  0.33333300  0.74934200  1
  C  C1  1  0.33333300  0.66666700  0.24934200  1
  Ni  Ni2  1  0.62896200  0.12639600  0.42991900  1
  Ni  Ni3  1  0.49743400  0.37103800  0.42991900  1
  Ni  Ni4  1  0.87360400  0.50256600  0.42991900  1
  Ni  Ni5  1  0.49743400  0.12639600  0.42991900  1
  Ni  Ni6  1  0.87360400  0.37103800  0.42991900  1
  Ni  Ni7  1  0.62896200  0.50256600  0.42991900  1
  Ni  Ni8  1  0.37096200  0.87344800  0.57019100  1
  Ni  Ni9  1  0.50248500  0.62903800  0.57019100  1
  Ni  Ni10  1  0.12655200  0.49751500  0.57019100  1
  Ni  Ni11  1  0.50248500  0.87344800  0.57019100  1
  Ni  Ni12  1  0.12655200  0.62903800  0.57019100  1
  Ni  Ni13  1  0.37096200  0.49751500  0.57019100  1
  Ni  Ni14  1  0.37103800  0.87360400  0.92991900  1
  Ni  Ni15  1  0.50256600  0.62896200  0.92991900  1
  Ni  Ni16  1  0.12639600  0.49743400  0.92991900  1
  Ni  Ni17  1  0.50256600  0.87360400  0.92991900  1
  Ni  Ni18  1  0.12639600  0.62896200  0.92991900  1
  Ni  Ni19  1  0.37103800  0.49743400  0.92991900  1
  Ni  Ni20  1  0.62903800  0.12655200  0.07019100  1
  Ni  Ni21  1  0.49751500  0.37096200  0.07019100  1
  Ni  Ni22  1  0.87344800  0.50248500  0.07019100  1
  Ni  Ni23  1  0.49751500  0.12655200  0.07019100  1
  Ni  Ni24  1  0.87344800  0.37096200  0.07019100  1
  Ni  Ni25  1  0.62903800  0.50248500  0.07019100  1
  Ni  Ni26  1  0.88360300  0.63316500  0.75416500  1
  Ni  Ni27  1  0.74956300  0.11639700  0.75416500  1
  Ni  Ni28  1  0.36683500  0.25043700  0.75416500  1
  Ni  Ni29  1  0.74956300  0.63316500  0.75416500  1
  Ni  Ni30  1  0.36683500  0.11639700  0.75416500  1
  Ni  Ni31  1  0.88360300  0.25043700  0.75416500  1
  Ni  Ni32  1  0.11639700  0.36683500  0.25416500  1
  Ni  Ni33  1  0.25043700  0.88360300  0.25416500  1
  Ni  Ni34  1  0.63316500  0.74956300  0.25416500  1
  Ni  Ni35  1  0.25043700  0.36683500  0.25416500  1
  Ni  Ni36  1  0.63316500  0.88360300  0.25416500  1
  Ni  Ni37  1  0.11639700  0.74956300  0.25416500  1
  Cu  Cu38  1  0.13122100  0.26244100  0.75802300  1
  Cu  Cu39  1  0.13122100  0.86877900  0.75802300  1
  Cu  Cu40  1  0.73755900  0.86877900  0.75802300  1
  Cu  Cu41  1  0.86877900  0.73755900  0.25802300  1
  Cu  Cu42  1  0.86877900  0.13122100  0.25802300  1
  Cu  Cu43  1  0.26244100  0.13122100  0.25802300  1
  C  C44  1  0.78973500  0.57946900  0.74253200  1
  C  C45  1  0.78973500  0.21026500  0.74253200  1
  C  C46  1  0.42053100  0.21026500  0.74253200  1
  C  C47  1  0.21026500  0.42053100  0.24253200  1
  C  C48  1  0.21026500  0.78973500  0.24253200  1
  C  C49  1  0.57946900  0.78973500  0.24253200  1
  C  C50  1  0.06898700  0.36293500  0.75015500  1
  C  C51  1  0.29394900  0.93101300  0.75015500  1
  C  C52  1  0.63706500  0.70605100  0.75015500  1
  C  C53  1  0.29394900  0.36293500  0.75015500  1
  C  C54  1  0.63706500  0.93101300  0.75015500  1
  C  C55  1  0.06898700  0.70605100  0.75015500  1
  C  C56  1  0.93101300  0.63706500  0.25015500  1
  C  C57  1  0.70605100  0.06898700  0.25015500  1
  C  C58  1  0.36293500  0.29394900  0.25015500  1
  C  C59  1  0.70605100  0.63706500  0.25015500  1
  C  C60  1  0.36293500  0.06898700  0.25015500  1
  C  C61  1  0.93101300  0.29394900  0.25015500  1
  C  C62  1  0.57786900  0.15573700  0.50366400  1
  C  C63  1  0.57786900  0.42213100  0.50366400  1
  C  C64  1  0.84426300  0.42213100  0.50366400  1
  C  C65  1  0.42217700  0.84435400  0.49601700  1
  C  C66  1  0.42217700  0.57782300  0.49601700  1
  C  C67  1  0.15564600  0.57782300  0.49601700  1
  C  C68  1  0.42213100  0.84426300  0.00366400  1
  C  C69  1  0.42213100  0.57786900  0.00366400  1
  C  C70  1  0.15573700  0.57786900  0.00366400  1
  C  C71  1  0.57782300  0.15564600  0.99601700  1
  C  C72  1  0.57782300  0.42217700  0.99601700  1
  C  C73  1  0.84435400  0.42217700  0.99601700  1
  C  C74  1  0.09348200  0.18696400  0.54572700  1
  C  C75  1  0.09348200  0.90651800  0.54572700  1
  C  C76  1  0.81303600  0.90651800  0.54572700  1
  C  C77  1  0.90651800  0.81303600  0.04572700  1
  C  C78  1  0.90651800  0.09348200  0.04572700  1
  C  C79  1  0.18696400  0.09348200  0.04572700  1
