# generated using pymatgen
data_Cu5(Ni3C2)2
_symmetry_space_group_name_H-M   'P 1'
_cell_length_a   10.63582060
_cell_length_b   10.63582060
_cell_length_c   5.54716800
_cell_angle_alpha   90.00000000
_cell_angle_beta   90.00000000
_cell_angle_gamma   120.00000372
_symmetry_Int_Tables_number   1
_chemical_formula_structural   Cu5(Ni3C2)2
_chemical_formula_sum   'Cu5 Ni6 C4'
_cell_volume   543.43041392
_cell_formula_units_Z   1
loop_
 _symmetry_equiv_pos_site_id
 _symmetry_equiv_pos_as_xyz
  1  'x, y, z'
loop_
 _atom_site_type_symbol
 _atom_site_label
 _atom_site_symmetry_multiplicity
 _atom_site_fract_x
 _atom_site_fract_y
 _atom_site_fract_z
 _atom_site_occupancy
  C  C0  1  0.00000000  0.00000000  0.13725200  1
  C  C1  1  0.00000000  0.59127900  0.45204300  1
  C  C2  1  0.40872100  0.40872100  0.45204300  1
  C  C3  1  0.59127900  0.00000000  0.45204300  1
  Ni  Ni4  1  0.71394900  0.54451800  0.92308900  1
  Ni  Ni5  1  0.45548200  0.16943100  0.92308900  1
  Ni  Ni6  1  0.83056900  0.28605100  0.92308900  1
  Ni  Ni7  1  0.54451800  0.71394900  0.92308900  1
  Ni  Ni8  1  0.28605100  0.83056900  0.92308900  1
  Ni  Ni9  1  0.16943100  0.45548200  0.92308900  1
  Cu  Cu10  1  0.33333300  0.66666700  0.13007300  1
  Cu  Cu11  1  0.66666700  0.33333300  0.13007300  1
  Cu  Cu12  1  0.74873800  0.74873800  0.71331000  1
  Cu  Cu13  1  0.25126200  0.00000000  0.71331000  1
  Cu  Cu14  1  0.00000000  0.25126200  0.71331000  1
