# generated using pymatgen
data_Cu6Ni2C
_symmetry_space_group_name_H-M   'P 1'
_cell_length_a   4.96579300
_cell_length_b   5.66459500
_cell_length_c   11.46054753
_cell_angle_alpha   60.89788150
_cell_angle_beta   90.00000000
_cell_angle_gamma   90.00000000
_symmetry_Int_Tables_number   1
_chemical_formula_structural   Cu6Ni2C
_chemical_formula_sum   'Cu12 Ni4 C2'
_cell_volume   281.67748837
_cell_formula_units_Z   2
loop_
 _symmetry_equiv_pos_site_id
 _symmetry_equiv_pos_as_xyz
  1  'x, y, z'
loop_
 _atom_site_type_symbol
 _atom_site_label
 _atom_site_symmetry_multiplicity
 _atom_site_fract_x
 _atom_site_fract_y
 _atom_site_fract_z
 _atom_site_occupancy
  C  C0  1  0.00000000  0.00000000  0.00000000  1
  C  C1  1  0.50000000  0.00000000  0.50000000  1
  Ni  Ni2  1  0.80636000  0.65590500  0.33453000  1
  Ni  Ni3  1  0.19364000  0.34409500  0.66547000  1
  Ni  Ni4  1  0.30636000  0.34409500  0.16547000  1
  Ni  Ni5  1  0.69364000  0.65590500  0.83453000  1
  Cu  Cu6  1  0.77250500  0.38581300  0.34944600  1
  Cu  Cu7  1  0.22749500  0.61418700  0.65055400  1
  Cu  Cu8  1  0.27250500  0.61418700  0.15055400  1
  Cu  Cu9  1  0.72749500  0.38581300  0.84944600  1
  Cu  Cu10  1  0.76369500  0.88694800  0.20141600  1
  Cu  Cu11  1  0.23630500  0.11305200  0.79858400  1
  Cu  Cu12  1  0.26369500  0.11305200  0.29858400  1
  Cu  Cu13  1  0.73630500  0.88694800  0.70141600  1
  Cu  Cu14  1  0.73055500  0.68875900  0.44910000  1
  Cu  Cu15  1  0.26944500  0.31124100  0.55090000  1
  Cu  Cu16  1  0.23055500  0.31124100  0.05090000  1
  Cu  Cu17  1  0.76944500  0.68875900  0.94910000  1
