# generated using pymatgen
data_CuNi149
_symmetry_space_group_name_H-M   'P 1'
_cell_length_a   15.93370551
_cell_length_b   15.93371047
_cell_length_c   15.64406526
_cell_angle_alpha   90.00000000
_cell_angle_beta   90.00000000
_cell_angle_gamma   120.00001028
_symmetry_Int_Tables_number   1
_chemical_formula_structural   CuNi149
_chemical_formula_sum   'Cu1 Ni149'
_cell_volume   3439.64730630
_cell_formula_units_Z   1
loop_
 _symmetry_equiv_pos_site_id
 _symmetry_equiv_pos_as_xyz
  1  'x, y, z'
loop_
 _atom_site_type_symbol
 _atom_site_label
 _atom_site_symmetry_multiplicity
 _atom_site_fract_x
 _atom_site_fract_y
 _atom_site_fract_z
 _atom_site_occupancy
  Ni  Ni0  1  0.60179581  0.00015243  -0.00000000  1
  Ni  Ni1  1  0.39835762  0.00015243  -0.00000000  1
  Ni  Ni2  1  0.19169051  0.00201566  -0.00000000  1
  Ni  Ni3  1  0.81032615  0.00201566  -0.00000000  1
  Ni  Ni4  1  0.19169051  0.18967385  -0.00000000  1
  Ni  Ni5  1  0.99798434  0.18967485  -0.00000000  1
  Ni  Ni6  1  0.80114371  0.19885529  -0.00000000  1
  Ni  Ni7  1  0.39771158  0.19885629  -0.00000000  1
  Ni  Ni8  1  0.59979637  0.19959274  0.00000000  1
  Ni  Ni9  1  0.19826230  0.39652359  -0.00000000  1
  Ni  Ni10  1  0.99984757  0.39820419  0.00000000  1
  Ni  Ni11  1  0.39835762  0.39820519  0.00000000  1
  Ni  Ni12  1  0.80040726  0.40020363  -0.00000000  1
  Ni  Ni13  1  0.59979637  0.40020363  0.00000000  1
  Ni  Ni14  1  0.40018886  0.59981114  0.00000000  1
  Ni  Ni15  1  0.19962227  0.59981114  0.00000000  1
  Ni  Ni16  1  0.99984757  0.60164238  0.00000000  1
  Ni  Ni17  1  0.60179581  0.60164238  -0.00000000  1
  Ni  Ni18  1  0.80114371  0.60228842  -0.00000000  1
  Ni  Ni19  1  0.40018886  0.80037873  0.00000000  1
  Ni  Ni20  1  0.60347641  0.80173870  -0.00000000  1
  Ni  Ni21  1  0.19826230  0.80173870  -0.00000000  1
  Ni  Ni22  1  0.99798434  0.80830949  -0.00000000  1
  Ni  Ni23  1  0.81032615  0.80830949  -0.00000000  1
  Ni  Ni24  1  0.06356628  0.12713155  0.15842937  1
  Ni  Ni25  1  0.87286745  0.93643372  0.15842937  1
  Ni  Ni26  1  0.06356628  0.93643472  0.15842937  1
  Ni  Ni27  1  0.26483037  0.33064744  0.16536549  1
  Ni  Ni28  1  0.06581708  0.33064744  0.16536549  1
  Ni  Ni29  1  0.66935256  0.73516963  0.16536549  1
  Ni  Ni30  1  0.06581708  0.73516963  0.16536549  1
  Ni  Ni31  1  0.66935256  0.93418292  0.16536549  1
  Ni  Ni32  1  0.26483037  0.93418292  0.16536549  1
  Ni  Ni33  1  0.06658109  0.53329055  0.16607333  1
  Ni  Ni34  1  0.46670945  0.53329055  0.16607333  1
  Ni  Ni35  1  0.46670945  0.93341891  0.16607333  1
  Ni  Ni36  1  0.26621181  0.53242261  0.16605596  1
  Ni  Ni37  1  0.26621181  0.73378819  0.16605596  1
  Ni  Ni38  1  0.46757739  0.73378819  0.16605596  1
  Ni  Ni39  1  0.46717563  0.13359947  0.16660808  1
  Ni  Ni40  1  0.66642384  0.13359947  0.16660808  1
  Ni  Ni41  1  0.86639953  0.33357616  0.16660808  1
  Ni  Ni42  1  0.46717563  0.33357616  0.16660808  1
  Ni  Ni43  1  0.86639953  0.53282337  0.16660808  1
  Ni  Ni44  1  0.66642384  0.53282437  0.16660808  1
  Ni  Ni45  1  0.66666700  0.33333300  0.16671205  1
  Ni  Ni46  1  0.86572601  0.13427499  0.16748603  1
  Ni  Ni47  1  0.26854899  0.13427499  0.16748603  1
  Ni  Ni48  1  0.86572601  0.73145101  0.16748603  1
  Ni  Ni49  1  0.00000000  0.00000000  0.33102636  1
  Ni  Ni50  1  0.00036427  0.19910562  0.33174979  1
  Ni  Ni51  1  0.19874136  0.19910662  0.33174979  1
  Ni  Ni52  1  0.00036427  0.80125764  0.33174979  1
  Ni  Ni53  1  0.80089438  0.80125764  0.33174979  1
  Ni  Ni54  1  0.80089438  0.99963573  0.33174979  1
  Ni  Ni55  1  0.19874136  0.99963573  0.33174979  1
  Ni  Ni56  1  0.60038147  0.99980940  0.33272310  1
  Ni  Ni57  1  0.39942893  0.99980940  0.33272310  1
  Ni  Ni58  1  0.00018960  0.39961853  0.33272310  1
  Ni  Ni59  1  0.39942893  0.39961853  0.33272310  1
  Ni  Ni60  1  0.00018960  0.60057207  0.33272310  1
  Ni  Ni61  1  0.60038147  0.60057207  0.33272310  1
  Ni  Ni62  1  0.19985289  0.39970379  0.33279156  1
  Ni  Ni63  1  0.19985289  0.80014811  0.33279156  1
  Ni  Ni64  1  0.60029621  0.80014811  0.33279156  1
  Ni  Ni65  1  0.20002365  0.60001233  0.33310824  1
  Ni  Ni66  1  0.39998867  0.60001233  0.33310824  1
  Ni  Ni67  1  0.39998867  0.79997635  0.33310824  1
  Ni  Ni68  1  0.59988064  0.19976128  0.33340657  1
  Ni  Ni69  1  0.59988064  0.40011936  0.33340657  1
  Ni  Ni70  1  0.80023872  0.40011936  0.33340657  1
  Ni  Ni71  1  0.39983096  0.19991598  0.33359895  1
  Ni  Ni72  1  0.80008402  0.19991598  0.33359895  1
  Ni  Ni73  1  0.80008402  0.60016804  0.33359895  1
  Ni  Ni74  1  0.06651777  0.13303655  0.50000000  1
  Ni  Ni75  1  0.86691839  0.13308061  0.50000000  1
  Ni  Ni76  1  0.26616223  0.13308161  0.50000000  1
  Ni  Ni77  1  0.46666913  0.13321217  0.50000000  1
  Ni  Ni78  1  0.66654304  0.13321217  0.50000000  1
  Ni  Ni79  1  0.26642703  0.33279251  0.50000000  1
  Ni  Ni80  1  0.06636548  0.33279251  0.50000000  1
  Ni  Ni81  1  0.66666700  0.33333300  0.50000000  1
  Ni  Ni82  1  0.46666913  0.33345696  0.50000000  1
  Ni  Ni83  1  0.86678783  0.33345796  0.50000000  1
  Ni  Ni84  1  0.26649105  0.53298211  0.50000000  1
  Ni  Ni85  1  0.46674836  0.53325164  0.50000000  1
  Ni  Ni86  1  0.06650327  0.53325164  0.50000000  1
  Ni  Ni87  1  0.66654304  0.53332987  0.50000000  1
  Ni  Ni88  1  0.86678783  0.53332987  0.50000000  1
  Ni  Ni89  1  0.26649105  0.73350895  0.50000000  1
  Ni  Ni90  1  0.46701789  0.73350895  0.50000000  1
  Ni  Ni91  1  0.06636548  0.73357297  0.50000000  1
  Ni  Ni92  1  0.66720749  0.73357297  0.50000000  1
  Ni  Ni93  1  0.86691839  0.73383777  0.50000000  1
  Ni  Ni94  1  0.46674836  0.93349673  0.50000000  1
  Ni  Ni95  1  0.06651777  0.93348223  0.50000000  1
  Ni  Ni96  1  0.86696345  0.93348223  0.50000000  1
  Ni  Ni97  1  0.26642703  0.93363452  0.50000000  1
  Ni  Ni98  1  0.66720749  0.93363452  0.50000000  1
  Ni  Ni99  1  0.39983096  0.19991598  0.66640105  1
  Ni  Ni100  1  0.80008402  0.19991598  0.66640105  1
  Ni  Ni101  1  0.80008402  0.60016804  0.66640105  1
  Ni  Ni102  1  0.59988064  0.19976128  0.66659243  1
  Ni  Ni103  1  0.59988064  0.40011936  0.66659243  1
  Ni  Ni104  1  0.80023872  0.40011936  0.66659243  1
  Ni  Ni105  1  0.20002365  0.60001233  0.66689076  1
  Ni  Ni106  1  0.39998867  0.60001233  0.66689076  1
  Ni  Ni107  1  0.39998867  0.79997635  0.66689076  1
  Ni  Ni108  1  0.19985289  0.39970379  0.66720744  1
  Ni  Ni109  1  0.19985289  0.80014811  0.66720744  1
  Ni  Ni110  1  0.60029621  0.80014811  0.66720744  1
  Ni  Ni111  1  0.60038147  0.99980940  0.66727690  1
  Ni  Ni112  1  0.39942893  0.99980940  0.66727690  1
  Ni  Ni113  1  0.00018960  0.39961853  0.66727690  1
  Ni  Ni114  1  0.39942893  0.39961853  0.66727690  1
  Ni  Ni115  1  0.00018960  0.60057207  0.66727690  1
  Ni  Ni116  1  0.60038147  0.60057207  0.66727690  1
  Ni  Ni117  1  0.00036427  0.19910562  0.66825021  1
  Ni  Ni118  1  0.19874136  0.19910662  0.66825021  1
  Ni  Ni119  1  0.00036427  0.80125764  0.66825021  1
  Ni  Ni120  1  0.80089438  0.80125764  0.66825021  1
  Ni  Ni121  1  0.80089438  0.99963573  0.66825021  1
  Ni  Ni122  1  0.19874136  0.99963573  0.66825021  1
  Ni  Ni123  1  0.00000000  0.00000000  0.66897364  1
  Ni  Ni124  1  0.86572601  0.13427499  0.83251397  1
  Ni  Ni125  1  0.26854899  0.13427499  0.83251397  1
  Ni  Ni126  1  0.86572601  0.73145101  0.83251397  1
  Ni  Ni127  1  0.66666700  0.33333300  0.83328895  1
  Ni  Ni128  1  0.46717563  0.13359947  0.83339192  1
  Ni  Ni129  1  0.66642384  0.13359947  0.83339192  1
  Ni  Ni130  1  0.86639953  0.33357616  0.83339192  1
  Ni  Ni131  1  0.46717563  0.33357616  0.83339192  1
  Ni  Ni132  1  0.86639953  0.53282337  0.83339192  1
  Ni  Ni133  1  0.66642384  0.53282437  0.83339192  1
  Ni  Ni134  1  0.26621181  0.53242261  0.83394304  1
  Ni  Ni135  1  0.26621181  0.73378819  0.83394304  1
  Ni  Ni136  1  0.46757739  0.73378819  0.83394304  1
  Ni  Ni137  1  0.06658109  0.53329055  0.83392567  1
  Ni  Ni138  1  0.46670945  0.53329055  0.83392567  1
  Ni  Ni139  1  0.46670945  0.93341891  0.83392567  1
  Ni  Ni140  1  0.26483037  0.33064744  0.83463351  1
  Ni  Ni141  1  0.06581708  0.33064744  0.83463351  1
  Ni  Ni142  1  0.66935256  0.73516963  0.83463351  1
  Ni  Ni143  1  0.06581708  0.73516963  0.83463351  1
  Ni  Ni144  1  0.66935256  0.93418292  0.83463351  1
  Ni  Ni145  1  0.26483037  0.93418292  0.83463351  1
  Ni  Ni146  1  0.06356628  0.12713155  0.84157063  1
  Ni  Ni147  1  0.87286745  0.93643372  0.84157063  1
  Ni  Ni148  1  0.06356628  0.93643472  0.84157063  1
  Cu  Cu149  1  0.00000000  0.00000000  0.00000000  1
