# generated using pymatgen
data_Cu5(NiC)2
_symmetry_space_group_name_H-M   'P 1'
_cell_length_a   7.54788609
_cell_length_b   7.54788609
_cell_length_c   7.54788609
_cell_angle_alpha   129.24679375
_cell_angle_beta   120.84984303
_cell_angle_gamma   81.63655173
_symmetry_Int_Tables_number   1
_chemical_formula_structural   Cu5(NiC)2
_chemical_formula_sum   'Cu10 Ni4 C4'
_cell_volume   275.34076275
_cell_formula_units_Z   2
loop_
 _symmetry_equiv_pos_site_id
 _symmetry_equiv_pos_as_xyz
  1  'x, y, z'
loop_
 _atom_site_type_symbol
 _atom_site_label
 _atom_site_symmetry_multiplicity
 _atom_site_fract_x
 _atom_site_fract_y
 _atom_site_fract_z
 _atom_site_occupancy
  C  C0  1  0.50000000  0.50000000  0.00000000  1
  C  C1  1  0.00000000  0.00000000  0.00000000  1
  C  C2  1  0.00000000  0.00000000  0.50000000  1
  C  C3  1  0.50000000  0.00000000  0.00000000  1
  Ni  Ni4  1  0.03640700  0.28706100  0.25065400  1
  Ni  Ni5  1  0.96359300  0.71293900  0.74934600  1
  Ni  Ni6  1  0.46359300  0.71424800  0.25065400  1
  Ni  Ni7  1  0.53640700  0.28575200  0.74934600  1
  Cu  Cu8  1  0.83088800  0.69255100  0.25651900  1
  Cu  Cu9  1  0.16911200  0.30744900  0.74348100  1
  Cu  Cu10  1  0.66911200  0.92563100  0.86166300  1
  Cu  Cu11  1  0.93603200  0.07436900  0.74348100  1
  Cu  Cu12  1  0.33088800  0.07436900  0.13833700  1
  Cu  Cu13  1  0.06396800  0.92563100  0.25651900  1
  Cu  Cu14  1  0.56396800  0.30744900  0.13833700  1
  Cu  Cu15  1  0.43603200  0.69255100  0.86166300  1
  Cu  Cu16  1  0.75000000  0.09221200  0.34221200  1
  Cu  Cu17  1  0.25000000  0.90778800  0.65778800  1
