# generated using pymatgen
data_Cu16Ni4C13
_symmetry_space_group_name_H-M   'P 1'
_cell_length_a   8.57591000
_cell_length_b   11.87926745
_cell_length_c   13.01810315
_cell_angle_alpha   116.49917203
_cell_angle_beta   90.00000000
_cell_angle_gamma   111.15924024
_symmetry_Int_Tables_number   1
_chemical_formula_structural   Cu16Ni4C13
_chemical_formula_sum   'Cu32 Ni8 C26'
_cell_volume   1086.06993105
_cell_formula_units_Z   2
loop_
 _symmetry_equiv_pos_site_id
 _symmetry_equiv_pos_as_xyz
  1  'x, y, z'
loop_
 _atom_site_type_symbol
 _atom_site_label
 _atom_site_symmetry_multiplicity
 _atom_site_fract_x
 _atom_site_fract_y
 _atom_site_fract_z
 _atom_site_occupancy
  C  C0  1  0.07846500  0.32826900  0.19130100  1
  C  C1  1  0.75019600  0.67173100  0.30869900  1
  C  C2  1  0.92153500  0.67173100  0.80869900  1
  C  C3  1  0.24980400  0.32826900  0.69130100  1
  C  C4  1  0.95312800  0.51327700  0.12394900  1
  C  C5  1  0.43985200  0.48672300  0.37605100  1
  C  C6  1  0.04687200  0.48672300  0.87605100  1
  C  C7  1  0.56014800  0.51327700  0.62394900  1
  C  C8  1  0.00000000  0.00000000  0.00000000  1
  C  C9  1  0.00000000  0.00000000  0.50000000  1
  C  C10  1  0.68038400  0.04613300  0.92433300  1
  C  C11  1  0.63425100  0.95386700  0.57566700  1
  C  C12  1  0.31961600  0.95386700  0.07566700  1
  C  C13  1  0.36574900  0.04613300  0.42433300  1
  C  C14  1  0.74134100  0.36147400  0.28921900  1
  C  C15  1  0.37986600  0.63852600  0.21078100  1
  C  C16  1  0.25865900  0.63852600  0.71078100  1
  C  C17  1  0.62013400  0.36147400  0.78921900  1
  C  C18  1  0.60051100  0.76772900  0.90014500  1
  C  C19  1  0.83278200  0.23227100  0.59985500  1
  C  C20  1  0.39948900  0.23227100  0.09985500  1
  C  C21  1  0.16721800  0.76772900  0.40014500  1
  C  C22  1  0.91051800  0.19751100  0.90026700  1
  C  C23  1  0.71300700  0.80248900  0.59973300  1
  C  C24  1  0.08948200  0.80248900  0.09973300  1
  C  C25  1  0.28699300  0.19751100  0.40026700  1
  Ni  Ni26  1  0.95038600  0.11923100  0.19742000  1
  Ni  Ni27  1  0.83115500  0.88076900  0.30258000  1
  Ni  Ni28  1  0.04961400  0.88076900  0.80258000  1
  Ni  Ni29  1  0.16884500  0.11923100  0.69742000  1
  Ni  Ni30  1  0.16091800  0.47738900  0.40315700  1
  Ni  Ni31  1  0.68353000  0.52261100  0.09684300  1
  Ni  Ni32  1  0.83908200  0.52261100  0.59684300  1
  Ni  Ni33  1  0.31647000  0.47738900  0.90315700  1
  Cu  Cu34  1  0.86492700  0.37315000  0.18816100  1
  Cu  Cu35  1  0.49177700  0.62685000  0.31183900  1
  Cu  Cu36  1  0.13507300  0.62685000  0.81183900  1
  Cu  Cu37  1  0.50822300  0.37315000  0.68816100  1
  Cu  Cu38  1  0.74348200  0.93030000  0.94709800  1
  Cu  Cu39  1  0.81318200  0.06970000  0.55290200  1
  Cu  Cu40  1  0.25651800  0.06970000  0.05290200  1
  Cu  Cu41  1  0.18681800  0.93030000  0.44709800  1
  Cu  Cu42  1  0.02661000  0.19688100  0.00830000  1
  Cu  Cu43  1  0.82972900  0.80311900  0.49170000  1
  Cu  Cu44  1  0.97339000  0.80311900  0.99170000  1
  Cu  Cu45  1  0.17027100  0.19688100  0.50830000  1
  Cu  Cu46  1  0.67837200  0.49416000  0.33020600  1
  Cu  Cu47  1  0.18421200  0.50584000  0.16979400  1
  Cu  Cu48  1  0.32162800  0.50584000  0.66979400  1
  Cu  Cu49  1  0.81578800  0.49416000  0.83020600  1
  Cu  Cu50  1  0.31775500  0.32993100  0.20853700  1
  Cu  Cu51  1  0.98782300  0.67006900  0.29146300  1
  Cu  Cu52  1  0.68224500  0.67006900  0.79146300  1
  Cu  Cu53  1  0.01217700  0.32993100  0.70853700  1
  Cu  Cu54  1  0.54366100  0.21674000  0.19356700  1
  Cu  Cu55  1  0.32692100  0.78326000  0.30643300  1
  Cu  Cu56  1  0.45633900  0.78326000  0.80643300  1
  Cu  Cu57  1  0.67307900  0.21674000  0.69356700  1
  Cu  Cu58  1  0.07115400  0.63582600  0.04649700  1
  Cu  Cu59  1  0.43532800  0.36417400  0.45350300  1
  Cu  Cu60  1  0.92884600  0.36417400  0.95350300  1
  Cu  Cu61  1  0.56467200  0.63582600  0.54649700  1
  Cu  Cu62  1  0.69555300  0.13209700  0.92168300  1
  Cu  Cu63  1  0.56345600  0.86790300  0.57831700  1
  Cu  Cu64  1  0.30444700  0.86790300  0.07831700  1
  Cu  Cu65  1  0.43654400  0.13209700  0.42168300  1
