# generated using pymatgen
data_Cu12Ni2C13
_symmetry_space_group_name_H-M   'P 1'
_cell_length_a   6.60468500
_cell_length_b   6.57160200
_cell_length_c   14.48922819
_cell_angle_alpha   77.82496994
_cell_angle_beta   90.00000000
_cell_angle_gamma   90.00000000
_symmetry_Int_Tables_number   1
_chemical_formula_structural   Cu12Ni2C13
_chemical_formula_sum   'Cu24 Ni4 C26'
_cell_volume   614.73634417
_cell_formula_units_Z   2
loop_
 _symmetry_equiv_pos_site_id
 _symmetry_equiv_pos_as_xyz
  1  'x, y, z'
loop_
 _atom_site_type_symbol
 _atom_site_label
 _atom_site_symmetry_multiplicity
 _atom_site_fract_x
 _atom_site_fract_y
 _atom_site_fract_z
 _atom_site_occupancy
  C  C0  1  0.50000000  0.00000000  0.00000000  1
  C  C1  1  0.00000000  0.00000000  0.50000000  1
  C  C2  1  0.47884000  0.40917400  0.91790700  1
  C  C3  1  0.97884000  0.59082600  0.58209300  1
  C  C4  1  0.52116000  0.59082600  0.08209300  1
  C  C5  1  0.02116000  0.40917400  0.41790700  1
  C  C6  1  0.71338400  0.34516300  0.91770500  1
  C  C7  1  0.21338400  0.65483700  0.58229500  1
  C  C8  1  0.28661600  0.65483700  0.08229500  1
  C  C9  1  0.78661600  0.34516300  0.41770500  1
  C  C10  1  0.12405700  0.17797600  0.97277200  1
  C  C11  1  0.62405700  0.82202400  0.52722800  1
  C  C12  1  0.87594300  0.82202400  0.02722800  1
  C  C13  1  0.37594300  0.17797600  0.47277200  1
  C  C14  1  0.65437700  0.15953300  0.14407100  1
  C  C15  1  0.15437700  0.84046700  0.35592900  1
  C  C16  1  0.34562300  0.84046700  0.85592900  1
  C  C17  1  0.84562300  0.15953300  0.64407100  1
  C  C18  1  0.58767400  0.92691500  0.19294100  1
  C  C19  1  0.08767400  0.07308500  0.30705900  1
  C  C20  1  0.41232600  0.07308500  0.80705900  1
  C  C21  1  0.91232600  0.92691500  0.69294100  1
  C  C22  1  0.17640700  0.16241600  0.07945900  1
  C  C23  1  0.67640700  0.83758400  0.42054100  1
  C  C24  1  0.82359300  0.83758400  0.92054100  1
  C  C25  1  0.32359300  0.16241600  0.57945900  1
  Ni  Ni26  1  0.56160300  0.46513000  0.68785300  1
  Ni  Ni27  1  0.06160300  0.53487000  0.81214700  1
  Ni  Ni28  1  0.43839700  0.53487000  0.31214700  1
  Ni  Ni29  1  0.93839700  0.46513000  0.18785300  1
  Cu  Cu30  1  0.42103700  0.28255000  0.69143600  1
  Cu  Cu31  1  0.92103700  0.71745000  0.80856400  1
  Cu  Cu32  1  0.57896300  0.71745000  0.30856400  1
  Cu  Cu33  1  0.07896300  0.28255000  0.19143600  1
  Cu  Cu34  1  0.46698300  0.65040700  0.62276000  1
  Cu  Cu35  1  0.96698300  0.34959300  0.87724000  1
  Cu  Cu36  1  0.53301700  0.34959300  0.37724000  1
  Cu  Cu37  1  0.03301700  0.65040700  0.12276000  1
  Cu  Cu38  1  0.75555000  0.41874700  0.64089300  1
  Cu  Cu39  1  0.25555000  0.58125300  0.85910700  1
  Cu  Cu40  1  0.24445000  0.58125300  0.35910700  1
  Cu  Cu41  1  0.74445000  0.41874700  0.14089300  1
  Cu  Cu42  1  0.58007900  0.30672700  0.94717200  1
  Cu  Cu43  1  0.08007900  0.69327300  0.55282800  1
  Cu  Cu44  1  0.41992100  0.69327300  0.05282800  1
  Cu  Cu45  1  0.91992100  0.30672700  0.44717200  1
  Cu  Cu46  1  0.58815500  0.03204400  0.13357000  1
  Cu  Cu47  1  0.08815500  0.96795600  0.36643000  1
  Cu  Cu48  1  0.41184500  0.96795600  0.86643000  1
  Cu  Cu49  1  0.91184500  0.03204400  0.63357000  1
  Cu  Cu50  1  0.20865400  0.10240700  0.02473800  1
  Cu  Cu51  1  0.70865400  0.89759300  0.47526200  1
  Cu  Cu52  1  0.79134600  0.89759300  0.97526200  1
  Cu  Cu53  1  0.29134600  0.10240700  0.52473800  1
