# generated using pymatgen
data_Cu8Ni6C5
_symmetry_space_group_name_H-M   'P 1'
_cell_length_a   6.50994993
_cell_length_b   8.53235826
_cell_length_c   11.68113800
_cell_angle_alpha   90.00000000
_cell_angle_beta   90.00000000
_cell_angle_gamma   108.96202779
_symmetry_Int_Tables_number   1
_chemical_formula_structural   Cu8Ni6C5
_chemical_formula_sum   'Cu16 Ni12 C10'
_cell_volume   613.62203992
_cell_formula_units_Z   2
loop_
 _symmetry_equiv_pos_site_id
 _symmetry_equiv_pos_as_xyz
  1  'x, y, z'
loop_
 _atom_site_type_symbol
 _atom_site_label
 _atom_site_symmetry_multiplicity
 _atom_site_fract_x
 _atom_site_fract_y
 _atom_site_fract_z
 _atom_site_occupancy
  C  C0  1  0.86009400  0.58350600  0.13867900  1
  C  C1  1  0.13990600  0.41649400  0.86132100  1
  C  C2  1  0.13990600  0.91649400  0.63867900  1
  C  C3  1  0.86009400  0.08350600  0.36132100  1
  C  C4  1  0.75497600  0.59352100  0.83416400  1
  C  C5  1  0.24502400  0.40647900  0.16583600  1
  C  C6  1  0.24502400  0.90647900  0.33416400  1
  C  C7  1  0.75497600  0.09352100  0.66583600  1
  C  C8  1  0.50000000  0.00000000  0.00000000  1
  C  C9  1  0.50000000  0.50000000  0.50000000  1
  Ni  Ni10  1  0.26895700  0.87654600  0.87164200  1
  Ni  Ni11  1  0.73104300  0.12345400  0.12835800  1
  Ni  Ni12  1  0.73104300  0.62345400  0.37164200  1
  Ni  Ni13  1  0.26895700  0.37654600  0.62835800  1
  Ni  Ni14  1  0.42717400  0.65706600  0.63520900  1
  Ni  Ni15  1  0.57282600  0.34293400  0.36479100  1
  Ni  Ni16  1  0.57282600  0.84293400  0.13520900  1
  Ni  Ni17  1  0.42717400  0.15706600  0.86479100  1
  Ni  Ni18  1  0.85633400  0.96659200  0.95125500  1
  Ni  Ni19  1  0.14366600  0.03340800  0.04874500  1
  Ni  Ni20  1  0.14366600  0.53340800  0.45125500  1
  Ni  Ni21  1  0.85633400  0.46659200  0.54874500  1
  Cu  Cu22  1  0.54717900  0.63658500  0.80329600  1
  Cu  Cu23  1  0.45282100  0.36341500  0.19670400  1
  Cu  Cu24  1  0.45282100  0.86341500  0.30329600  1
  Cu  Cu25  1  0.54717900  0.13658500  0.69670400  1
  Cu  Cu26  1  0.70874800  0.94042500  0.58838800  1
  Cu  Cu27  1  0.29125200  0.05957500  0.41161200  1
  Cu  Cu28  1  0.29125200  0.55957500  0.08838800  1
  Cu  Cu29  1  0.70874800  0.44042500  0.91161200  1
  Cu  Cu30  1  0.90362300  0.73828900  0.92104100  1
  Cu  Cu31  1  0.09637700  0.26171100  0.07895900  1
  Cu  Cu32  1  0.09637700  0.76171100  0.42104100  1
  Cu  Cu33  1  0.90362300  0.23828900  0.57895900  1
  Cu  Cu34  1  0.89979000  0.59315200  0.72981900  1
  Cu  Cu35  1  0.10021000  0.40684800  0.27018100  1
  Cu  Cu36  1  0.10021000  0.90684800  0.22981900  1
  Cu  Cu37  1  0.89979000  0.09315200  0.77018100  1
