# generated using pymatgen
data_Cu4NiC5
_symmetry_space_group_name_H-M   'P 1'
_cell_length_a   3.33398231
_cell_length_b   13.83091967
_cell_length_c   11.57506514
_cell_angle_alpha   98.17697781
_cell_angle_beta   89.99999296
_cell_angle_gamma   90.00003528
_symmetry_Int_Tables_number   1
_chemical_formula_structural   Cu4NiC5
_chemical_formula_sum   'Cu16 Ni4 C20'
_cell_volume   528.32349523
_cell_formula_units_Z   4
loop_
 _symmetry_equiv_pos_site_id
 _symmetry_equiv_pos_as_xyz
  1  'x, y, z'
loop_
 _atom_site_type_symbol
 _atom_site_label
 _atom_site_symmetry_multiplicity
 _atom_site_fract_x
 _atom_site_fract_y
 _atom_site_fract_z
 _atom_site_occupancy
  Ni  Ni0  1  0.50001900  0.00008700  0.75041800  1
  Ni  Ni1  1  0.00004100  0.00000100  0.49901200  1
  Ni  Ni2  1  0.49983600  0.00014400  0.25050100  1
  Ni  Ni3  1  0.99995300  0.00010200  0.99964600  1
  Cu  Cu4  1  0.00000800  0.19337300  0.69840900  1
  Cu  Cu5  1  0.99999800  0.19345900  0.19838100  1
  Cu  Cu6  1  0.50000800  0.19378500  0.44870300  1
  Cu  Cu7  1  0.50000700  0.19371800  0.94867100  1
  Cu  Cu8  1  0.50000300  0.80648900  0.05155500  1
  Cu  Cu9  1  0.50000800  0.80653200  0.55161800  1
  Cu  Cu10  1  0.00000500  0.80627100  0.80134500  1
  Cu  Cu11  1  0.99999900  0.80620800  0.30130300  1
  Cu  Cu12  1  0.00000500  0.39784700  0.89957100  1
  Cu  Cu13  1  0.00000600  0.39786000  0.39956700  1
  Cu  Cu14  1  0.50000600  0.39790500  0.64969900  1
  Cu  Cu15  1  0.50000500  0.39790500  0.14967800  1
  Cu  Cu16  1  0.50000500  0.60209400  0.85047300  1
  Cu  Cu17  1  0.50000500  0.60209500  0.35048500  1
  Cu  Cu18  1  0.00000600  0.60205800  0.60037400  1
  Cu  Cu19  1  0.00000300  0.60204500  0.10035700  1
  C  C20  1  0.00000400  0.50004000  0.75013500  1
  C  C21  1  0.00000400  0.50004300  0.25013600  1
  C  C22  1  0.50000400  0.49989700  0.50003500  1
  C  C23  1  0.50000400  0.49989300  0.00003300  1
  C  C24  1  0.50000300  0.91146000  0.90316700  1
  C  C25  1  0.50001200  0.91137300  0.40301200  1
  C  C26  1  0.00000500  0.91211700  0.65353400  1
  C  C27  1  0.99999700  0.91209200  0.15348300  1
  C  C28  1  0.00000400  0.08842800  0.84674200  1
  C  C29  1  0.99999800  0.08845000  0.34659300  1
  C  C30  1  0.50000500  0.08820400  0.59670300  1
  C  C31  1  0.50000100  0.08823600  0.09676800  1
  C  C32  1  0.00000400  0.70464500  0.95099500  1
  C  C33  1  0.00000400  0.70465800  0.45100600  1
  C  C34  1  0.50000400  0.70494100  0.70116700  1
  C  C35  1  0.50000400  0.70491400  0.20106600  1
  C  C36  1  0.50000500  0.29498300  0.79882100  1
  C  C37  1  0.50000400  0.29499000  0.29882300  1
  C  C38  1  0.00000400  0.29533100  0.54901300  1
  C  C39  1  0.00000400  0.29532700  0.04900200  1
