# generated using pymatgen
data_Cu3Ni3C19
_symmetry_space_group_name_H-M   'P 1'
_cell_length_a   16.29949000
_cell_length_b   7.60056700
_cell_length_c   16.80371031
_cell_angle_alpha   87.55437942
_cell_angle_beta   90.00000000
_cell_angle_gamma   90.00000000
_symmetry_Int_Tables_number   1
_chemical_formula_structural   Cu3Ni3C19
_chemical_formula_sum   'Cu12 Ni12 C76'
_cell_volume   2079.83769481
_cell_formula_units_Z   4
loop_
 _symmetry_equiv_pos_site_id
 _symmetry_equiv_pos_as_xyz
  1  'x, y, z'
loop_
 _atom_site_type_symbol
 _atom_site_label
 _atom_site_symmetry_multiplicity
 _atom_site_fract_x
 _atom_site_fract_y
 _atom_site_fract_z
 _atom_site_occupancy
  C  C0  1  0.65274100  0.70684300  0.72405500  1
  C  C1  1  0.15274100  0.29315700  0.77594500  1
  C  C2  1  0.34725900  0.29315700  0.27594500  1
  C  C3  1  0.84725900  0.70684300  0.22405500  1
  Ni  Ni4  1  0.72908400  0.11428800  0.52228200  1
  Ni  Ni5  1  0.22908400  0.88571200  0.97771800  1
  Ni  Ni6  1  0.27091600  0.88571200  0.47771800  1
  Ni  Ni7  1  0.77091600  0.11428800  0.02228200  1
  Ni  Ni8  1  0.84270000  0.80451700  0.86736300  1
  Ni  Ni9  1  0.34270000  0.19548300  0.63263700  1
  Ni  Ni10  1  0.15730000  0.19548300  0.13263700  1
  Ni  Ni11  1  0.65730000  0.80451700  0.36736300  1
  Ni  Ni12  1  0.89636200  0.54524400  0.64841900  1
  Ni  Ni13  1  0.39636200  0.45475600  0.85158100  1
  Ni  Ni14  1  0.10363800  0.45475600  0.35158100  1
  Ni  Ni15  1  0.60363800  0.54524400  0.14841900  1
  Cu  Cu16  1  0.74026800  0.08907400  0.67710400  1
  Cu  Cu17  1  0.24026800  0.91092600  0.82289600  1
  Cu  Cu18  1  0.25973200  0.91092600  0.32289600  1
  Cu  Cu19  1  0.75973200  0.08907400  0.17710400  1
  Cu  Cu20  1  0.86831200  0.00657100  0.72885400  1
  Cu  Cu21  1  0.36831200  0.99342900  0.77114600  1
  Cu  Cu22  1  0.13168800  0.99342900  0.27114600  1
  Cu  Cu23  1  0.63168800  0.00657100  0.22885400  1
  Cu  Cu24  1  0.80026100  0.65589700  0.52911000  1
  Cu  Cu25  1  0.30026100  0.34410300  0.97089000  1
  Cu  Cu26  1  0.19973900  0.34410300  0.47089000  1
  Cu  Cu27  1  0.69973900  0.65589700  0.02911000  1
  C  C28  1  0.77318500  0.08212200  0.58566900  1
  C  C29  1  0.27318500  0.91787800  0.91433100  1
  C  C30  1  0.22681500  0.91787800  0.41433100  1
  C  C31  1  0.72681500  0.08212200  0.08566900  1
  C  C32  1  0.69737300  0.13841700  0.45902500  1
  C  C33  1  0.19737300  0.86158300  0.04097500  1
  C  C34  1  0.30262700  0.86158300  0.54097500  1
  C  C35  1  0.80262700  0.13841700  0.95902500  1
  C  C36  1  0.82661900  0.70911300  0.92301400  1
  C  C37  1  0.32661900  0.29088700  0.57698600  1
  C  C38  1  0.17338100  0.29088700  0.07698600  1
  C  C39  1  0.67338100  0.70911300  0.42301400  1
  C  C40  1  0.86624100  0.90349000  0.80885100  1
  C  C41  1  0.36624100  0.09651000  0.69114900  1
  C  C42  1  0.13375900  0.09651000  0.19114900  1
  C  C43  1  0.63375900  0.90349000  0.30885100  1
  C  C44  1  0.87837400  0.62976100  0.58290500  1
  C  C45  1  0.37837400  0.37023900  0.91709500  1
  C  C46  1  0.12162600  0.37023900  0.41709500  1
  C  C47  1  0.62162600  0.62976100  0.08290500  1
  C  C48  1  0.91080700  0.46723600  0.70949100  1
  C  C49  1  0.41080700  0.53276400  0.79050900  1
  C  C50  1  0.08919300  0.53276400  0.29050900  1
  C  C51  1  0.58919300  0.46723600  0.20949100  1
  C  C52  1  0.51697400  0.69384200  0.58750000  1
  C  C53  1  0.01697400  0.30615800  0.91250000  1
  C  C54  1  0.48302600  0.30615800  0.41250000  1
  C  C55  1  0.98302600  0.69384200  0.08750000  1
  C  C56  1  0.56687700  0.86609800  0.85003200  1
  C  C57  1  0.06687700  0.13390200  0.64996800  1
  C  C58  1  0.43312300  0.13390200  0.14996800  1
  C  C59  1  0.93312300  0.86609800  0.35003200  1
  C  C60  1  0.64610300  0.38999200  0.82110200  1
  C  C61  1  0.14610300  0.61000800  0.67889800  1
  C  C62  1  0.35389700  0.61000800  0.17889800  1
  C  C63  1  0.85389700  0.38999200  0.32110200  1
  C  C64  1  0.60321300  0.69098400  0.60279300  1
  C  C65  1  0.10321300  0.30901600  0.89720700  1
  C  C66  1  0.39678700  0.30901600  0.39720700  1
  C  C67  1  0.89678700  0.69098400  0.10279300  1
  C  C68  1  0.49855300  0.69810700  0.51747100  1
  C  C69  1  0.99855300  0.30189300  0.98252900  1
  C  C70  1  0.50144700  0.30189300  0.48252900  1
  C  C71  1  0.00144700  0.69810700  0.01747100  1
  C  C72  1  0.47251700  0.69229300  0.64637000  1
  C  C73  1  0.97251700  0.30770700  0.85363000  1
  C  C74  1  0.52748300  0.30770700  0.35363000  1
  C  C75  1  0.02748300  0.69229300  0.14637000  1
  C  C76  1  0.55326600  0.88907100  0.77153500  1
  C  C77  1  0.05326600  0.11092900  0.72846500  1
  C  C78  1  0.44673400  0.11092900  0.22846500  1
  C  C79  1  0.94673400  0.88907100  0.27153500  1
  C  C80  1  0.63341300  0.78557000  0.86841400  1
  C  C81  1  0.13341300  0.21443000  0.63158600  1
  C  C82  1  0.36658700  0.21443000  0.13158600  1
  C  C83  1  0.86658700  0.78557000  0.36841400  1
  C  C84  1  0.51716100  0.91895500  0.89723200  1
  C  C85  1  0.01716100  0.08104500  0.60276800  1
  C  C86  1  0.48283900  0.08104500  0.10276800  1
  C  C87  1  0.98283900  0.91895500  0.39723200  1
  C  C88  1  0.58545600  0.47167500  0.77875600  1
  C  C89  1  0.08545600  0.52832500  0.72124400  1
  C  C90  1  0.41454400  0.52832500  0.22124400  1
  C  C91  1  0.91454400  0.47167500  0.27875600  1
  C  C92  1  0.71832200  0.44395900  0.80650800  1
  C  C93  1  0.21832200  0.55604100  0.69349200  1
  C  C94  1  0.28167800  0.55604100  0.19349200  1
  C  C95  1  0.78167800  0.44395900  0.30650800  1
  C  C96  1  0.62740000  0.27224800  0.86906600  1
  C  C97  1  0.12740000  0.72775200  0.63093400  1
  C  C98  1  0.37260000  0.72775200  0.13093400  1
  C  C99  1  0.87260000  0.27224800  0.36906600  1
