# generated using pymatgen
data_CuNiC8
_symmetry_space_group_name_H-M   'P 1'
_cell_length_a   10.57372600
_cell_length_b   7.53892200
_cell_length_c   7.73782790
_cell_angle_alpha   85.15874168
_cell_angle_beta   90.00000000
_cell_angle_gamma   90.00000000
_symmetry_Int_Tables_number   1
_chemical_formula_structural   CuNiC8
_chemical_formula_sum   'Cu4 Ni4 C32'
_cell_volume   614.61645741
_cell_formula_units_Z   4
loop_
 _symmetry_equiv_pos_site_id
 _symmetry_equiv_pos_as_xyz
  1  'x, y, z'
loop_
 _atom_site_type_symbol
 _atom_site_label
 _atom_site_symmetry_multiplicity
 _atom_site_fract_x
 _atom_site_fract_y
 _atom_site_fract_z
 _atom_site_occupancy
  Ni  Ni0  1  0.91696700  0.98106600  0.31647300  1
  Ni  Ni1  1  0.41696700  0.51893400  0.68352700  1
  Ni  Ni2  1  0.08303300  0.01893400  0.68352700  1
  Ni  Ni3  1  0.58303300  0.48106600  0.31647300  1
  Cu  Cu4  1  0.94466500  0.51013800  0.26069400  1
  Cu  Cu5  1  0.44466500  0.98986200  0.73930600  1
  Cu  Cu6  1  0.05533500  0.48986200  0.73930600  1
  Cu  Cu7  1  0.55533500  0.01013800  0.26069400  1
  C  C8  1  0.10869400  0.18912100  0.04863600  1
  C  C9  1  0.60869400  0.31087900  0.95136400  1
  C  C10  1  0.89130600  0.81087900  0.95136400  1
  C  C11  1  0.39130600  0.68912100  0.04863600  1
  C  C12  1  0.78095000  0.25532300  0.56747400  1
  C  C13  1  0.28095000  0.24467700  0.43252600  1
  C  C14  1  0.21905000  0.74467700  0.43252600  1
  C  C15  1  0.71905000  0.75532300  0.56747400  1
  C  C16  1  0.01506500  0.15842000  0.86702000  1
  C  C17  1  0.51506500  0.34158000  0.13298000  1
  C  C18  1  0.98493500  0.84158000  0.13298000  1
  C  C19  1  0.48493500  0.65842000  0.86702000  1
  C  C20  1  0.14286600  0.41251700  0.00426600  1
  C  C21  1  0.64286600  0.08748300  0.99573400  1
  C  C22  1  0.85713400  0.58748300  0.99573400  1
  C  C23  1  0.35713400  0.91251700  0.00426600  1
  C  C24  1  0.99210600  0.20631800  0.20835100  1
  C  C25  1  0.49210600  0.29368200  0.79164900  1
  C  C26  1  0.00789400  0.79368200  0.79164900  1
  C  C27  1  0.50789400  0.70631800  0.20835100  1
  C  C28  1  0.88286900  0.08014700  0.53807300  1
  C  C29  1  0.38286900  0.41985300  0.46192700  1
  C  C30  1  0.11713100  0.91985300  0.46192700  1
  C  C31  1  0.61713100  0.58014700  0.53807300  1
  C  C32  1  0.71080300  0.28763300  0.36386100  1
  C  C33  1  0.21080300  0.21236700  0.63613900  1
  C  C34  1  0.28919700  0.71236700  0.63613900  1
  C  C35  1  0.78919700  0.78763300  0.36386100  1
  C  C36  1  0.88433800  0.43695200  0.55019300  1
  C  C37  1  0.38433800  0.06304800  0.44980700  1
  C  C38  1  0.11566200  0.56304800  0.44980700  1
  C  C39  1  0.61566200  0.93695200  0.55019300  1
