# generated using pymatgen
data_Cu4Ni7C27
_symmetry_space_group_name_H-M   'P 1'
_cell_length_a   15.80182646
_cell_length_b   15.80182646
_cell_length_c   20.47392379
_cell_angle_alpha   50.24453341
_cell_angle_beta   50.24453341
_cell_angle_gamma   42.69289559
_symmetry_Int_Tables_number   1
_chemical_formula_structural   Cu4Ni7C27
_chemical_formula_sum   'Cu16 Ni28 C108'
_cell_volume   2520.20213551
_cell_formula_units_Z   4
loop_
 _symmetry_equiv_pos_site_id
 _symmetry_equiv_pos_as_xyz
  1  'x, y, z'
loop_
 _atom_site_type_symbol
 _atom_site_label
 _atom_site_symmetry_multiplicity
 _atom_site_fract_x
 _atom_site_fract_y
 _atom_site_fract_z
 _atom_site_occupancy
  C  C0  1  0.80232000  0.55960600  0.99527800  1
  C  C1  1  0.44039400  0.19768000  0.50472200  1
  C  C2  1  0.19768000  0.44039400  0.00472200  1
  C  C3  1  0.55960600  0.80232000  0.49527800  1
  C  C4  1  0.12303800  0.37703400  0.24560700  1
  C  C5  1  0.62296600  0.87696200  0.25439300  1
  C  C6  1  0.87696200  0.62296600  0.75439300  1
  C  C7  1  0.37703400  0.12303800  0.74560700  1
  C  C8  1  0.04007500  0.77410000  0.15936900  1
  C  C9  1  0.22590000  0.95992500  0.34063100  1
  C  C10  1  0.95992500  0.22590000  0.84063100  1
  C  C11  1  0.77410000  0.04007500  0.65936900  1
  Ni  Ni12  1  0.13145200  0.86854800  0.25000000  1
  Ni  Ni13  1  0.86854800  0.13145200  0.75000000  1
  Ni  Ni14  1  0.62424000  0.37576000  0.25000000  1
  Ni  Ni15  1  0.37576000  0.62424000  0.75000000  1
  Ni  Ni16  1  0.29677600  0.03675900  0.01294700  1
  Ni  Ni17  1  0.96324100  0.70322400  0.48705300  1
  Ni  Ni18  1  0.70322400  0.96324100  0.98705300  1
  Ni  Ni19  1  0.03675900  0.29677600  0.51294700  1
  Ni  Ni20  1  0.26016600  0.51307200  0.32464400  1
  Ni  Ni21  1  0.48692800  0.73983400  0.17535600  1
  Ni  Ni22  1  0.73983400  0.48692800  0.67535600  1
  Ni  Ni23  1  0.51307200  0.26016600  0.82464400  1
  Ni  Ni24  1  0.53873600  0.29552800  0.17005200  1
  Ni  Ni25  1  0.70447200  0.46126400  0.32994800  1
  Ni  Ni26  1  0.46126400  0.70447200  0.82994800  1
  Ni  Ni27  1  0.29552800  0.53873600  0.67005200  1
  Ni  Ni28  1  0.41511600  0.65651900  0.09366000  1
  Ni  Ni29  1  0.34348100  0.58488400  0.40634000  1
  Ni  Ni30  1  0.58488400  0.34348100  0.90634000  1
  Ni  Ni31  1  0.65651900  0.41511600  0.59366000  1
  Ni  Ni32  1  0.90944600  0.16543800  0.09449700  1
  Ni  Ni33  1  0.83456200  0.09055400  0.40550300  1
  Ni  Ni34  1  0.09055400  0.83456200  0.90550300  1
  Ni  Ni35  1  0.16543800  0.90944600  0.59449700  1
  Ni  Ni36  1  0.76499800  0.00770400  0.32381700  1
  Ni  Ni37  1  0.99229600  0.23500200  0.17618300  1
  Ni  Ni38  1  0.23500200  0.99229600  0.67618300  1
  Ni  Ni39  1  0.00770400  0.76499800  0.82381700  1
  Cu  Cu40  1  0.38714600  0.14902900  0.37958700  1
  Cu  Cu41  1  0.85097100  0.61285400  0.12041300  1
  Cu  Cu42  1  0.61285400  0.85097100  0.62041300  1
  Cu  Cu43  1  0.14902900  0.38714600  0.87958700  1
  Cu  Cu44  1  0.35588800  0.09635300  0.11790100  1
  Cu  Cu45  1  0.90364700  0.64411200  0.38209900  1
  Cu  Cu46  1  0.64411200  0.90364700  0.88209900  1
  Cu  Cu47  1  0.09635300  0.35588800  0.61790100  1
  Cu  Cu48  1  0.29555500  0.52900700  0.05724600  1
  Cu  Cu49  1  0.47099300  0.70444500  0.44275400  1
  Cu  Cu50  1  0.70444500  0.47099300  0.94275400  1
  Cu  Cu51  1  0.52900700  0.29555500  0.55724600  1
  Cu  Cu52  1  0.77705300  0.04322100  0.06731200  1
  Cu  Cu53  1  0.95677900  0.22294700  0.43268800  1
  Cu  Cu54  1  0.22294700  0.95677900  0.93268800  1
  Cu  Cu55  1  0.04322100  0.77705300  0.56731200  1
  C  C56  1  0.44210100  0.23392700  0.32961500  1
  C  C57  1  0.76607300  0.55789900  0.17038500  1
  C  C58  1  0.55789900  0.76607300  0.67038500  1
  C  C59  1  0.23392700  0.44210100  0.82961500  1
  C  C60  1  0.49441300  0.03104400  0.35100200  1
  C  C61  1  0.96895600  0.50558700  0.14899800  1
  C  C62  1  0.50558700  0.96895600  0.64899800  1
  C  C63  1  0.03104400  0.49441300  0.85100200  1
  C  C64  1  0.34964400  0.11575800  0.47702700  1
  C  C65  1  0.88424200  0.65035600  0.02297300  1
  C  C66  1  0.65035600  0.88424200  0.52297300  1
  C  C67  1  0.11575800  0.34964400  0.97702700  1
  C  C68  1  0.27022400  0.23089100  0.35465600  1
  C  C69  1  0.76910900  0.72977600  0.14534400  1
  C  C70  1  0.72977600  0.76910900  0.64534400  1
  C  C71  1  0.23089100  0.27022400  0.85465600  1
  C  C72  1  0.29450400  0.04260900  0.12904400  1
  C  C73  1  0.95739100  0.70549600  0.37095600  1
  C  C74  1  0.70549600  0.95739100  0.87095600  1
  C  C75  1  0.04260900  0.29450400  0.62904400  1
  C  C76  1  0.24551900  0.20875600  0.15275000  1
  C  C77  1  0.79124400  0.75448100  0.34725000  1
  C  C78  1  0.75448100  0.79124400  0.84725000  1
  C  C79  1  0.20875600  0.24551900  0.65275000  1
  C  C80  1  0.44865500  0.98676200  0.16981700  1
  C  C81  1  0.01323800  0.55134500  0.33018300  1
  C  C82  1  0.55134500  0.01323800  0.83018300  1
  C  C83  1  0.98676200  0.44865500  0.66981700  1
  C  C84  1  0.42727900  0.13871300  0.01995400  1
  C  C85  1  0.86128700  0.57272100  0.48004600  1
  C  C86  1  0.57272100  0.86128700  0.98004600  1
  C  C87  1  0.13871300  0.42727900  0.51995400  1
  C  C88  1  0.15317500  0.61551000  0.06789100  1
  C  C89  1  0.38449000  0.84682500  0.43210900  1
  C  C90  1  0.84682500  0.38449000  0.93210900  1
  C  C91  1  0.61551000  0.15317500  0.56789100  1
  C  C92  1  0.35049900  0.39046600  0.07844800  1
  C  C93  1  0.60953400  0.64950100  0.42155200  1
  C  C94  1  0.64950100  0.60953400  0.92155200  1
  C  C95  1  0.39046600  0.35049900  0.57844800  1
  C  C96  1  0.31486300  0.53529100  0.11612300  1
  C  C97  1  0.46470900  0.68513700  0.38387700  1
  C  C98  1  0.68513700  0.46470900  0.88387700  1
  C  C99  1  0.53529100  0.31486300  0.61612300  1
  C  C100  1  0.37115200  0.57448400  0.95948600  1
  C  C101  1  0.42551600  0.62884800  0.54051400  1
  C  C102  1  0.62884800  0.42551600  0.04051400  1
  C  C103  1  0.57448400  0.37115200  0.45948600  1
  C  C104  1  0.68050400  0.04553900  0.06540800  1
  C  C105  1  0.95446100  0.31949600  0.43459200  1
  C  C106  1  0.31949600  0.95446100  0.93459200  1
  C  C107  1  0.04553900  0.68050400  0.56540800  1
  C  C108  1  0.91383400  0.93452900  0.03577900  1
  C  C109  1  0.06547100  0.08616600  0.46422100  1
  C  C110  1  0.08616600  0.06547100  0.96422100  1
  C  C111  1  0.93452900  0.91383400  0.53577900  1
  C  C112  1  0.74245400  0.01946400  0.16170000  1
  C  C113  1  0.98053600  0.25754600  0.33830000  1
  C  C114  1  0.25754600  0.98053600  0.83830000  1
  C  C115  1  0.01946400  0.74245400  0.66170000  1
  C  C116  1  0.76282100  0.17294700  0.00789900  1
  C  C117  1  0.82705300  0.23717900  0.49210100  1
  C  C118  1  0.23717900  0.82705300  0.99210100  1
  C  C119  1  0.17294700  0.76282100  0.50789900  1
  C  C120  1  0.40629800  0.44532600  0.36280200  1
  C  C121  1  0.55467400  0.59370200  0.13719800  1
  C  C122  1  0.59370200  0.55467400  0.63719800  1
  C  C123  1  0.44532600  0.40629800  0.86280200  1
  C  C124  1  0.23420900  0.69339700  0.21000500  1
  C  C125  1  0.30660300  0.76579100  0.28999500  1
  C  C126  1  0.76579100  0.30660300  0.78999500  1
  C  C127  1  0.69339700  0.23420900  0.71000500  1
  C  C128  1  0.33626900  0.84453000  0.11237700  1
  C  C129  1  0.15547000  0.66373100  0.38762300  1
  C  C130  1  0.66373100  0.15547000  0.88762300  1
  C  C131  1  0.84453000  0.33626900  0.61237700  1
  C  C132  1  0.94429200  0.98305700  0.21106500  1
  C  C133  1  0.01694300  0.05570800  0.28893500  1
  C  C134  1  0.05570800  0.01694300  0.78893500  1
  C  C135  1  0.98305700  0.94429200  0.71106500  1
  C  C136  1  0.69464200  0.15705600  0.36058200  1
  C  C137  1  0.84294400  0.30535800  0.13941800  1
  C  C138  1  0.30535800  0.84294400  0.63941800  1
  C  C139  1  0.15705600  0.69464200  0.86058200  1
  C  C140  1  0.45407600  0.45322100  0.20405000  1
  C  C141  1  0.54677900  0.54592400  0.29595000  1
  C  C142  1  0.54592400  0.54677900  0.79595000  1
  C  C143  1  0.45322100  0.45407600  0.70405000  1
  C  C144  1  0.69841800  0.20518200  0.20355700  1
  C  C145  1  0.79481800  0.30158200  0.29644300  1
  C  C146  1  0.30158200  0.79481800  0.79644300  1
  C  C147  1  0.20518200  0.69841800  0.70355700  1
  C  C148  1  0.09446300  0.09758800  0.10184000  1
  C  C149  1  0.90241200  0.90553700  0.39816000  1
  C  C150  1  0.90553700  0.90241200  0.89816000  1
  C  C151  1  0.09758800  0.09446300  0.60184000  1
