# generated using pymatgen
data_Cu4NiC11
_symmetry_space_group_name_H-M   'P 1'
_cell_length_a   7.44542900
_cell_length_b   7.44542900
_cell_length_c   15.92885200
_cell_angle_alpha   90.00000000
_cell_angle_beta   90.00000000
_cell_angle_gamma   90.00000000
_symmetry_Int_Tables_number   1
_chemical_formula_structural   Cu4NiC11
_chemical_formula_sum   'Cu16 Ni4 C44'
_cell_volume   883.00656029
_cell_formula_units_Z   4
loop_
 _symmetry_equiv_pos_site_id
 _symmetry_equiv_pos_as_xyz
  1  'x, y, z'
loop_
 _atom_site_type_symbol
 _atom_site_label
 _atom_site_symmetry_multiplicity
 _atom_site_fract_x
 _atom_site_fract_y
 _atom_site_fract_z
 _atom_site_occupancy
  C  C0  1  0.50000000  0.50000000  0.50000000  1
  C  C1  1  0.00000000  0.00000000  0.50000000  1
  C  C2  1  0.00000000  0.00000000  0.00000000  1
  C  C3  1  0.50000000  0.50000000  0.00000000  1
  Ni  Ni4  1  0.50000000  0.00000000  0.59034500  1
  Ni  Ni5  1  0.00000000  0.50000000  0.90965500  1
  Ni  Ni6  1  0.00000000  0.50000000  0.40965500  1
  Ni  Ni7  1  0.50000000  0.00000000  0.09034500  1
  Cu  Cu8  1  0.18022300  0.25763600  0.65137400  1
  Cu  Cu9  1  0.81977700  0.74236400  0.65137400  1
  Cu  Cu10  1  0.25763600  0.18022300  0.84862600  1
  Cu  Cu11  1  0.75763600  0.31977700  0.65137400  1
  Cu  Cu12  1  0.24236400  0.68022300  0.65137400  1
  Cu  Cu13  1  0.31977700  0.75763600  0.84862600  1
  Cu  Cu14  1  0.68022300  0.24236400  0.84862600  1
  Cu  Cu15  1  0.74236400  0.81977700  0.84862600  1
  Cu  Cu16  1  0.31977700  0.24236400  0.34862600  1
  Cu  Cu17  1  0.68022300  0.75763600  0.34862600  1
  Cu  Cu18  1  0.24236400  0.31977700  0.15137400  1
  Cu  Cu19  1  0.74236400  0.18022300  0.34862600  1
  Cu  Cu20  1  0.25763600  0.81977700  0.34862600  1
  Cu  Cu21  1  0.18022300  0.74236400  0.15137400  1
  Cu  Cu22  1  0.81977700  0.25763600  0.15137400  1
  Cu  Cu23  1  0.75763600  0.68022300  0.15137400  1
  C  C24  1  0.26399600  0.11381000  0.58715300  1
  C  C25  1  0.73600400  0.88619000  0.58715300  1
  C  C26  1  0.11381000  0.26399600  0.91284700  1
  C  C27  1  0.61381000  0.23600400  0.58715300  1
  C  C28  1  0.38619000  0.76399600  0.58715300  1
  C  C29  1  0.23600400  0.61381000  0.91284700  1
  C  C30  1  0.76399600  0.38619000  0.91284700  1
  C  C31  1  0.88619000  0.73600400  0.91284700  1
  C  C32  1  0.23600400  0.38619000  0.41284700  1
  C  C33  1  0.76399600  0.61381000  0.41284700  1
  C  C34  1  0.38619000  0.23600400  0.08715300  1
  C  C35  1  0.88619000  0.26399600  0.41284700  1
  C  C36  1  0.11381000  0.73600400  0.41284700  1
  C  C37  1  0.26399600  0.88619000  0.08715300  1
  C  C38  1  0.73600400  0.11381000  0.08715300  1
  C  C39  1  0.24868600  0.03748300  0.36859300  1
  C  C40  1  0.61381000  0.76399600  0.08715300  1
  C  C41  1  0.74868600  0.53748300  0.63140700  1
  C  C42  1  0.46251700  0.25131400  0.86859300  1
  C  C43  1  0.96251700  0.24868600  0.63140700  1
  C  C44  1  0.03748300  0.75131400  0.63140700  1
  C  C45  1  0.24868600  0.96251700  0.86859300  1
  C  C46  1  0.75131400  0.03748300  0.86859300  1
  C  C47  1  0.53748300  0.74868600  0.86859300  1
  C  C48  1  0.71530200  0.71530200  0.25000000  1
  C  C49  1  0.78469800  0.21530200  0.25000000  1
  C  C50  1  0.21530200  0.78469800  0.25000000  1
  C  C51  1  0.28469800  0.28469800  0.25000000  1
  C  C52  1  0.78469800  0.78469800  0.75000000  1
  C  C53  1  0.71530200  0.28469800  0.75000000  1
  C  C54  1  0.28469800  0.71530200  0.75000000  1
  C  C55  1  0.21530200  0.21530200  0.75000000  1
  C  C56  1  0.96251700  0.75131400  0.13140700  1
  C  C57  1  0.74868600  0.46251700  0.13140700  1
  C  C58  1  0.25131400  0.53748300  0.13140700  1
  C  C59  1  0.46251700  0.74868600  0.36859300  1
  C  C60  1  0.53748300  0.25131400  0.36859300  1
  C  C61  1  0.03748300  0.24868600  0.13140700  1
  C  C62  1  0.75131400  0.96251700  0.36859300  1
  C  C63  1  0.25131400  0.46251700  0.63140700  1
