# generated using pymatgen
data_Cu4NiC2
_symmetry_space_group_name_H-M   'P 1'
_cell_length_a   14.80998835
_cell_length_b   12.25379237
_cell_length_c   12.04080265
_cell_angle_alpha   75.11546411
_cell_angle_beta   53.09549848
_cell_angle_gamma   51.78903741
_symmetry_Int_Tables_number   1
_chemical_formula_structural   Cu4NiC2
_chemical_formula_sum   'Cu32 Ni8 C16'
_cell_volume   1349.92571395
_cell_formula_units_Z   8
loop_
 _symmetry_equiv_pos_site_id
 _symmetry_equiv_pos_as_xyz
  1  'x, y, z'
loop_
 _atom_site_type_symbol
 _atom_site_label
 _atom_site_symmetry_multiplicity
 _atom_site_fract_x
 _atom_site_fract_y
 _atom_site_fract_z
 _atom_site_occupancy
  C  C0  1  0.48959300  0.75981300  0.73706900  1
  C  C1  1  0.75981300  0.48959300  0.01352500  1
  C  C2  1  0.73706900  0.01352500  0.48959300  1
  C  C3  1  0.01352500  0.73706900  0.75981300  1
  C  C4  1  0.76040700  0.49018700  0.51293100  1
  C  C5  1  0.49018700  0.76040700  0.23647500  1
  C  C6  1  0.51293100  0.23647500  0.76040700  1
  C  C7  1  0.23647500  0.51293100  0.49018700  1
  C  C8  1  0.98491600  0.26491600  0.65539800  1
  C  C9  1  0.26491600  0.98491600  0.09477000  1
  C  C10  1  0.65539800  0.09477000  0.98491600  1
  C  C11  1  0.09477000  0.65539800  0.26491600  1
  C  C12  1  0.26508400  0.98508400  0.59460200  1
  C  C13  1  0.98508400  0.26508400  0.15523000  1
  C  C14  1  0.59460200  0.15523000  0.26508400  1
  C  C15  1  0.15523000  0.59460200  0.98508400  1
  Ni  Ni16  1  0.49642700  0.49642700  0.00357300  1
  Ni  Ni17  1  0.00357400  0.00357400  0.49642600  1
  Ni  Ni18  1  0.75357400  0.75357400  0.24642600  1
  Ni  Ni19  1  0.24642700  0.24642700  0.75357400  1
  Ni  Ni20  1  0.25000000  0.25000000  0.25000000  1
  Ni  Ni21  1  0.00000000  0.00000000  0.00000000  1
  Ni  Ni22  1  0.75000000  0.75000000  0.75000000  1
  Ni  Ni23  1  0.50000000  0.50000000  0.50000000  1
  Cu  Cu24  1  0.47178000  0.27620400  0.96613000  1
  Cu  Cu25  1  0.27620400  0.47178000  0.28588500  1
  Cu  Cu26  1  0.96613000  0.28588500  0.47178000  1
  Cu  Cu27  1  0.28588500  0.96613000  0.27620400  1
  Cu  Cu28  1  0.77822000  0.97379600  0.28387000  1
  Cu  Cu29  1  0.97379600  0.77822000  0.96411500  1
  Cu  Cu30  1  0.28387000  0.96411500  0.77822000  1
  Cu  Cu31  1  0.96411500  0.28387000  0.97379600  1
  Cu  Cu32  1  0.46824300  0.77962900  0.93950200  1
  Cu  Cu33  1  0.77962800  0.46824300  0.81262600  1
  Cu  Cu34  1  0.93950200  0.81262600  0.46824300  1
  Cu  Cu35  1  0.81262600  0.93950200  0.77962800  1
  Cu  Cu36  1  0.78175700  0.47037200  0.31049800  1
  Cu  Cu37  1  0.47037200  0.78175700  0.43737400  1
  Cu  Cu38  1  0.31049800  0.43737400  0.78175700  1
  Cu  Cu39  1  0.43737400  0.31049800  0.47037100  1
  Cu  Cu40  1  0.04204900  0.54354900  0.70812500  1
  Cu  Cu41  1  0.54354900  0.04204900  0.70627800  1
  Cu  Cu42  1  0.70812500  0.70627800  0.04204900  1
  Cu  Cu43  1  0.70627800  0.70812500  0.54354900  1
  Cu  Cu44  1  0.20795100  0.70645100  0.54187500  1
  Cu  Cu45  1  0.70645100  0.20795100  0.54372200  1
  Cu  Cu46  1  0.54187500  0.54372200  0.20795100  1
  Cu  Cu47  1  0.54372200  0.54187500  0.70645100  1
  Cu  Cu48  1  0.20786300  0.70602800  0.04214000  1
  Cu  Cu49  1  0.70602800  0.20786300  0.04396900  1
  Cu  Cu50  1  0.04214000  0.04396900  0.20786300  1
  Cu  Cu51  1  0.04396900  0.04214000  0.70602800  1
  Cu  Cu52  1  0.04213700  0.54397200  0.20786000  1
  Cu  Cu53  1  0.54397200  0.04213700  0.20603100  1
  Cu  Cu54  1  0.20786000  0.20603100  0.04213700  1
  Cu  Cu55  1  0.20603100  0.20786000  0.54397200  1
