# generated using pymatgen
data_CuNiC
_symmetry_space_group_name_H-M   'P 1'
_cell_length_a   3.89476500
_cell_length_b   6.39763400
_cell_length_c   7.20185700
_cell_angle_alpha   90.00000000
_cell_angle_beta   90.00000000
_cell_angle_gamma   90.00000000
_symmetry_Int_Tables_number   1
_chemical_formula_structural   CuNiC
_chemical_formula_sum   'Cu4 Ni4 C4'
_cell_volume   179.45069449
_cell_formula_units_Z   4
loop_
 _symmetry_equiv_pos_site_id
 _symmetry_equiv_pos_as_xyz
  1  'x, y, z'
loop_
 _atom_site_type_symbol
 _atom_site_label
 _atom_site_symmetry_multiplicity
 _atom_site_fract_x
 _atom_site_fract_y
 _atom_site_fract_z
 _atom_site_occupancy
  Ni  Ni0  1  0.25000000  0.48389800  0.18675500  1
  Ni  Ni1  1  0.75000000  0.51610200  0.81324500  1
  Ni  Ni2  1  0.75000000  0.01610200  0.68675500  1
  Ni  Ni3  1  0.25000000  0.98389800  0.31324500  1
  Cu  Cu4  1  0.25000000  0.85020600  0.93837600  1
  Cu  Cu5  1  0.75000000  0.14979400  0.06162400  1
  Cu  Cu6  1  0.75000000  0.64979400  0.43837600  1
  Cu  Cu7  1  0.25000000  0.35020600  0.56162400  1
  C  C8  1  0.25000000  0.72231900  0.61691100  1
  C  C9  1  0.75000000  0.27768100  0.38308900  1
  C  C10  1  0.75000000  0.77768100  0.11691100  1
  C  C11  1  0.25000000  0.22231900  0.88308900  1
