# generated using pymatgen
data_Cu(Ni5C)2
_symmetry_space_group_name_H-M   'P 1'
_cell_length_a   13.45576583
_cell_length_b   13.45576583
_cell_length_c   13.45576583
_cell_angle_alpha   161.09437761
_cell_angle_beta   161.09437761
_cell_angle_gamma   26.86076521
_symmetry_Int_Tables_number   1
_chemical_formula_structural   Cu(Ni5C)2
_chemical_formula_sum   'Cu1 Ni10 C2'
_cell_volume   255.66768754
_cell_formula_units_Z   1
loop_
 _symmetry_equiv_pos_site_id
 _symmetry_equiv_pos_as_xyz
  1  'x, y, z'
loop_
 _atom_site_type_symbol
 _atom_site_label
 _atom_site_symmetry_multiplicity
 _atom_site_fract_x
 _atom_site_fract_y
 _atom_site_fract_z
 _atom_site_occupancy
  C  C0  1  0.64423900  0.64423900  0.00000000  1
  C  C1  1  0.35576100  0.35576100  0.00000000  1
  Ni  Ni2  1  0.80238200  0.80238200  0.00000000  1
  Ni  Ni3  1  0.19761800  0.19761800  0.00000000  1
  Ni  Ni4  1  0.89455100  0.89455100  0.00000000  1
  Ni  Ni5  1  0.25000000  0.75000000  0.50000000  1
  Ni  Ni6  1  0.75000000  0.25000000  0.50000000  1
  Ni  Ni7  1  0.94796300  0.44796300  0.50000000  1
  Ni  Ni8  1  0.44796300  0.94796300  0.50000000  1
  Ni  Ni9  1  0.05203700  0.55203700  0.50000000  1
  Ni  Ni10  1  0.55203700  0.05203700  0.50000000  1
  Ni  Ni11  1  0.10544900  0.10544900  0.00000000  1
  Cu  Cu12  1  0.50000000  0.50000000  0.00000000  1
