# generated using pymatgen
data_Cu2NiC9
_symmetry_space_group_name_H-M   'P 1'
_cell_length_a   11.04231938
_cell_length_b   13.26226681
_cell_length_c   13.25998738
_cell_angle_alpha   80.03336650
_cell_angle_beta   65.41174568
_cell_angle_gamma   65.41766550
_symmetry_Int_Tables_number   1
_chemical_formula_structural   Cu2NiC9
_chemical_formula_sum   'Cu16 Ni8 C72'
_cell_volume   1605.74491767
_cell_formula_units_Z   8
loop_
 _symmetry_equiv_pos_site_id
 _symmetry_equiv_pos_as_xyz
  1  'x, y, z'
loop_
 _atom_site_type_symbol
 _atom_site_label
 _atom_site_symmetry_multiplicity
 _atom_site_fract_x
 _atom_site_fract_y
 _atom_site_fract_z
 _atom_site_occupancy
  C  C0  1  0.17913700  0.41375300  0.28960500  1
  C  C1  1  0.09286200  0.28967100  0.08621300  1
  C  C2  1  0.53120300  0.78962900  0.58621400  1
  C  C3  1  0.90713800  0.71032900  0.91378700  1
  C  C4  1  0.82086300  0.58624700  0.71039500  1
  C  C5  1  0.11738200  0.91381400  0.78965100  1
  C  C6  1  0.46879700  0.21037100  0.41378600  1
  C  C7  1  0.88261800  0.08618600  0.21034900  1
  Ni  Ni8  1  0.29877500  0.61276500  0.73401100  1
  Ni  Ni9  1  0.64558500  0.88721800  0.76597600  1
  Ni  Ni10  1  0.70122500  0.38723500  0.26598900  1
  Ni  Ni11  1  0.96722500  0.23406600  0.38720500  1
  Ni  Ni12  1  0.35441500  0.11278200  0.23402400  1
  Ni  Ni13  1  0.03277500  0.76593400  0.61279500  1
  Ni  Ni14  1  0.58857500  0.26592400  0.11266200  1
  Ni  Ni15  1  0.41142500  0.73407600  0.88733800  1
  Cu  Cu16  1  0.62879100  0.43139700  0.83721000  1
  Cu  Cu17  1  0.89843900  0.58274000  0.21605800  1
  Cu  Cu18  1  0.30277900  0.08272200  0.71608900  1
  Cu  Cu19  1  0.46620100  0.66256900  0.43132500  1
  Cu  Cu20  1  0.11456500  0.28388100  0.58263600  1
  Cu  Cu21  1  0.89758300  0.06852200  0.66261600  1
  Cu  Cu22  1  0.43977100  0.16268900  0.93136200  1
  Cu  Cu23  1  0.88543500  0.71611900  0.41736400  1
  Cu  Cu24  1  0.56022900  0.83731100  0.06863800  1
  Cu  Cu25  1  0.10241700  0.93147800  0.33738400  1
  Cu  Cu26  1  0.10156100  0.41726000  0.78394200  1
  Cu  Cu27  1  0.98112600  0.21603700  0.91728200  1
  Cu  Cu28  1  0.37120900  0.56860300  0.16279000  1
  Cu  Cu29  1  0.69722100  0.91727800  0.28391100  1
  Cu  Cu30  1  0.01887400  0.78396300  0.08271800  1
  Cu  Cu31  1  0.53379900  0.33743100  0.56867500  1
  C  C32  1  0.75522100  0.48542800  0.48655400  1
  C  C33  1  0.72728600  0.01473400  0.01339700  1
  C  C34  1  0.75808700  0.98655100  0.51456400  1
  C  C35  1  0.74064700  0.48660200  0.01477300  1
  C  C36  1  0.24191300  0.01344900  0.48543600  1
  C  C37  1  0.24477900  0.51457200  0.51344600  1
  C  C38  1  0.25935300  0.51339800  0.98522700  1
  C  C39  1  0.27271400  0.98526600  0.98660300  1
  C  C40  1  0.97468300  0.84897800  0.96883100  1
  C  C41  1  0.10781600  0.11232200  0.80357900  1
  C  C42  1  0.65129600  0.90054000  0.60739600  1
  C  C43  1  0.12005900  0.98314900  0.20584800  1
  C  C44  1  0.05191300  0.60743100  0.59935100  1
  C  C45  1  0.74136300  0.10739600  0.09955500  1
  C  C46  1  0.42174700  0.51459300  0.86476800  1
  C  C47  1  0.69106900  0.48326000  0.70581200  1
  C  C48  1  0.10770000  0.74098400  0.73339500  1
  C  C49  1  0.32563100  0.29418100  0.98320700  1
  C  C50  1  0.65134600  0.26660900  0.24098200  1
  C  C51  1  0.39690300  0.79413500  0.48302600  1
  C  C52  1  0.89218400  0.88767800  0.19642100  1
  C  C53  1  0.25863700  0.89260400  0.90044500  1
  C  C54  1  0.94353700  0.53112600  0.84897900  1
  C  C55  1  0.07885900  0.96457600  0.59739700  1
  C  C56  1  0.97626200  0.61244500  0.30364100  1
  C  C57  1  0.19875500  0.01465500  0.36489300  1
  C  C58  1  0.05646300  0.46887400  0.15102100  1
  C  C59  1  0.02531700  0.15102200  0.03116900  1
  C  C60  1  0.56371400  0.13514500  0.01455200  1
  C  C61  1  0.02373800  0.38755500  0.69635900  1
  C  C62  1  0.87994100  0.01685100  0.79415200  1
  C  C63  1  0.20754000  0.34901200  0.46877900  1
  C  C64  1  0.35910500  0.46478400  0.09747500  1
  C  C65  1  0.34865400  0.73339100  0.75901800  1
  C  C66  1  0.58201100  0.75895600  0.76666300  1
  C  C67  1  0.54340300  0.59738800  0.53539600  1
  C  C68  1  0.15895900  0.23340100  0.25892800  1
  C  C69  1  0.91140500  0.69641100  0.11233200  1
  C  C70  1  0.89230000  0.25901600  0.26660500  1
  C  C71  1  0.43628600  0.86485500  0.98544800  1
  C  C72  1  0.45659700  0.40261200  0.46460400  1
  C  C73  1  0.72016800  0.80357600  0.38762100  1
  C  C74  1  0.60309700  0.20586500  0.51697400  1
  C  C75  1  0.71337800  0.36482700  0.48546100  1
  C  C76  1  0.34870400  0.09946000  0.39260400  1
  C  C77  1  0.32385800  0.09745000  0.03530900  1
  C  C78  1  0.67614200  0.90255000  0.96469100  1
  C  C79  1  0.84082600  0.40049600  0.10742500  1
  C  C80  1  0.57825300  0.48540700  0.13523200  1
  C  C81  1  0.15917400  0.59950400  0.89257500  1
  C  C82  1  0.84104100  0.76659900  0.74107200  1
  C  C83  1  0.28662200  0.63517300  0.51453900  1
  C  C84  1  0.92114100  0.03542400  0.40260300  1
  C  C85  1  0.79246000  0.65098800  0.53122100  1
  C  C86  1  0.64089500  0.53521600  0.90252500  1
  C  C87  1  0.27983200  0.19642400  0.61237900  1
  C  C88  1  0.30893100  0.51674000  0.29418800  1
  C  C89  1  0.80124500  0.98534500  0.63510700  1
  C  C90  1  0.32373300  0.96881700  0.65095800  1
  C  C91  1  0.67626700  0.03118300  0.34904200  1
  C  C92  1  0.94808700  0.39256900  0.40064900  1
  C  C93  1  0.08859500  0.30358900  0.88766800  1
  C  C94  1  0.41798900  0.24104400  0.23333700  1
  C  C95  1  0.67436900  0.70581900  0.01679300  1
