# generated using pymatgen
data_Cu2(NiC3)3
_symmetry_space_group_name_H-M   'P 1'
_cell_length_a   13.39607482
_cell_length_b   13.39607482
_cell_length_c   13.39607482
_cell_angle_alpha   162.41089532
_cell_angle_beta   162.41089532
_cell_angle_gamma   24.97443070
_symmetry_Int_Tables_number   1
_chemical_formula_structural   Cu2(NiC3)3
_chemical_formula_sum   'Cu2 Ni3 C9'
_cell_volume   219.46460362
_cell_formula_units_Z   1
loop_
 _symmetry_equiv_pos_site_id
 _symmetry_equiv_pos_as_xyz
  1  'x, y, z'
loop_
 _atom_site_type_symbol
 _atom_site_label
 _atom_site_symmetry_multiplicity
 _atom_site_fract_x
 _atom_site_fract_y
 _atom_site_fract_z
 _atom_site_occupancy
  Ni  Ni0  1  0.50000000  0.50000000  0.00000000  1
  Ni  Ni1  1  0.64488100  0.64488100  0.00000000  1
  Ni  Ni2  1  0.35511900  0.35511900  0.00000000  1
  Cu  Cu3  1  0.92370900  0.92370900  0.00000000  1
  Cu  Cu4  1  0.07629100  0.07629100  0.00000000  1
  C  C5  1  0.75000000  0.25000000  0.50000000  1
  C  C6  1  0.25000000  0.75000000  0.50000000  1
  C  C7  1  0.80081900  0.80081900  0.00000000  1
  C  C8  1  0.19918100  0.19918100  0.00000000  1
  C  C9  1  0.00000000  0.00000000  0.00000000  1
  C  C10  1  0.91328100  0.41328100  0.50000000  1
  C  C11  1  0.41328100  0.91328100  0.50000000  1
  C  C12  1  0.58671900  0.08671900  0.50000000  1
  C  C13  1  0.08671900  0.58671900  0.50000000  1
