# generated using pymatgen
data_CuNi
_symmetry_space_group_name_H-M   'P 1'
_cell_length_a   18.15187844
_cell_length_b   18.15187844
_cell_length_c   18.15187754
_cell_angle_alpha   15.41584848
_cell_angle_beta   15.41584848
_cell_angle_gamma   15.41584995
_symmetry_Int_Tables_number   1
_chemical_formula_structural   CuNi
_chemical_formula_sum   'Cu13 Ni13'
_cell_volume   368.20661829
_cell_formula_units_Z   13
loop_
 _symmetry_equiv_pos_site_id
 _symmetry_equiv_pos_as_xyz
  1  'x, y, z'
loop_
 _atom_site_type_symbol
 _atom_site_label
 _atom_site_symmetry_multiplicity
 _atom_site_fract_x
 _atom_site_fract_y
 _atom_site_fract_z
 _atom_site_occupancy
  Ni  Ni0  1  0.77442200  0.77442200  0.77442200  1
  Ni  Ni1  1  0.27494800  0.27494800  0.27494800  1
  Ni  Ni2  1  0.72505200  0.72505200  0.72505200  1
  Ni  Ni3  1  0.22557800  0.22557800  0.22557800  1
  Ni  Ni4  1  0.82647600  0.82647600  0.82647600  1
  Ni  Ni5  1  0.32630900  0.32630900  0.32630900  1
  Ni  Ni6  1  0.67369100  0.67369100  0.67369100  1
  Ni  Ni7  1  0.17352400  0.17352400  0.17352400  1
  Ni  Ni8  1  0.41646200  0.41646200  0.41646200  1
  Ni  Ni9  1  0.91737500  0.91737500  0.91737500  1
  Ni  Ni10  1  0.08262500  0.08262500  0.08262500  1
  Ni  Ni11  1  0.58353800  0.58353800  0.58353800  1
  Ni  Ni12  1  0.50000000  0.50000000  0.50000000  1
  Cu  Cu13  1  0.70210500  0.20500900  0.20500900  1
  Cu  Cu14  1  0.19788100  0.70970100  0.70970100  1
  Cu  Cu15  1  0.20500900  0.70210500  0.20500900  1
  Cu  Cu16  1  0.70970100  0.19788100  0.70970100  1
  Cu  Cu17  1  0.20500900  0.20500900  0.70210500  1
  Cu  Cu18  1  0.70970100  0.70970100  0.19788100  1
  Cu  Cu19  1  0.80211900  0.29029900  0.29029900  1
  Cu  Cu20  1  0.29789500  0.79499100  0.79499100  1
  Cu  Cu21  1  0.29029900  0.80211900  0.29029900  1
  Cu  Cu22  1  0.79499100  0.29789500  0.79499100  1
  Cu  Cu23  1  0.29029900  0.29029900  0.80211900  1
  Cu  Cu24  1  0.79499100  0.79499100  0.29789500  1
  Cu  Cu25  1  0.00000000  0.00000000  0.00000000  1
