# generated using pymatgen
data_Cu5Ni2C25
_symmetry_space_group_name_H-M   'P 1'
_cell_length_a   5.06243100
_cell_length_b   5.12368667
_cell_length_c   11.47492611
_cell_angle_alpha   80.08464676
_cell_angle_beta   84.50505095
_cell_angle_gamma   80.18205975
_symmetry_Int_Tables_number   1
_chemical_formula_structural   Cu5Ni2C25
_chemical_formula_sum   'Cu5 Ni2 C25'
_cell_volume   288.22374276
_cell_formula_units_Z   1
loop_
 _symmetry_equiv_pos_site_id
 _symmetry_equiv_pos_as_xyz
  1  'x, y, z'
loop_
 _atom_site_type_symbol
 _atom_site_label
 _atom_site_symmetry_multiplicity
 _atom_site_fract_x
 _atom_site_fract_y
 _atom_site_fract_z
 _atom_site_occupancy
  C  C0  1  0.75186300  0.56410800  0.93697300  1
  C  C1  1  0.74455300  0.80778800  0.67531700  1
  C  C2  1  0.24742900  0.69137300  0.80768500  1
  C  C3  1  0.24534600  0.93974400  0.55695700  1
  C  C4  1  0.76126300  0.06322200  0.43831500  1
  C  C5  1  0.74324300  0.31323900  0.19613800  1
  C  C6  1  0.24903000  0.43764900  0.06536400  1
  C  C7  1  0.25804400  0.19016300  0.32371600  1
  C  C8  1  0.00074900  0.49926000  0.49917600  1
  Ni  Ni9  1  0.99957500  0.99805700  0.99930800  1
  Ni  Ni10  1  0.50079800  0.37045400  0.62157000  1
  Cu  Cu11  1  0.99964000  0.25689600  0.74170900  1
  Cu  Cu12  1  0.99877900  0.74294700  0.25930800  1
  Cu  Cu13  1  0.49638800  0.63232600  0.38026900  1
  Cu  Cu14  1  0.50586800  0.87856600  0.12713500  1
  Cu  Cu15  1  0.49637700  0.12209300  0.87260200  1
  C  C16  1  0.86739700  0.68642200  0.09121600  1
  C  C17  1  0.87854800  0.92587900  0.85321700  1
  C  C18  1  0.35605800  0.80637300  0.96231200  1
  C  C19  1  0.37491200  0.05105700  0.71832900  1
  C  C20  1  0.85276000  0.16282000  0.60342900  1
  C  C21  1  0.86917200  0.43469800  0.33822900  1
  C  C22  1  0.38087800  0.56611700  0.21447700  1
  C  C23  1  0.39414800  0.29098400  0.47970600  1
  C  C24  1  0.61167200  0.44294800  0.77668700  1
  C  C25  1  0.61041500  0.68814000  0.53667800  1
  C  C26  1  0.13653800  0.56309300  0.66267600  1
  C  C27  1  0.14500100  0.83938300  0.39883600  1
  C  C28  1  0.63448000  0.96361200  0.28074200  1
  C  C29  1  0.63761300  0.18919400  0.03007400  1
  C  C30  1  0.11654400  0.31545600  0.90868500  1
  C  C31  1  0.13492200  0.06594100  0.14316000  1
