# generated using pymatgen
data_Cu2NiC7
_symmetry_space_group_name_H-M   'P 1'
_cell_length_a   3.82987925
_cell_length_b   3.82987925
_cell_length_c   9.96227493
_cell_angle_alpha   88.58629150
_cell_angle_beta   88.58629150
_cell_angle_gamma   89.37260941
_symmetry_Int_Tables_number   1
_chemical_formula_structural   Cu2NiC7
_chemical_formula_sum   'Cu2 Ni1 C7'
_cell_volume   146.02963837
_cell_formula_units_Z   1
loop_
 _symmetry_equiv_pos_site_id
 _symmetry_equiv_pos_as_xyz
  1  'x, y, z'
loop_
 _atom_site_type_symbol
 _atom_site_label
 _atom_site_symmetry_multiplicity
 _atom_site_fract_x
 _atom_site_fract_y
 _atom_site_fract_z
 _atom_site_occupancy
  C  C0  1  0.48842700  0.48842700  0.76495200  1
  Ni  Ni1  1  0.47934800  0.47934800  0.27966100  1
  Cu  Cu2  1  0.05956500  0.05956500  0.54870100  1
  Cu  Cu3  1  0.99076400  0.99076400  0.07995200  1
  C  C4  1  0.98170300  0.48123400  0.19921400  1
  C  C5  1  0.48123400  0.98170300  0.19921400  1
  C  C6  1  0.98072700  0.46450400  0.70608700  1
  C  C7  1  0.46450400  0.98072700  0.70608700  1
  C  C8  1  0.44413100  0.44413100  0.47861400  1
  C  C9  1  0.48659600  0.48659600  0.93651800  1
