# generated using pymatgen
data_Cu12Ni3C2
_symmetry_space_group_name_H-M   'P 1'
_cell_length_a   9.17373122
_cell_length_b   9.17373122
_cell_length_c   9.17373024
_cell_angle_alpha   57.69112150
_cell_angle_beta   57.69112150
_cell_angle_gamma   57.69112413
_symmetry_Int_Tables_number   1
_chemical_formula_structural   Cu12Ni3C2
_chemical_formula_sum   'Cu24 Ni6 C4'
_cell_volume   516.95172123
_cell_formula_units_Z   2
loop_
 _symmetry_equiv_pos_site_id
 _symmetry_equiv_pos_as_xyz
  1  'x, y, z'
loop_
 _atom_site_type_symbol
 _atom_site_label
 _atom_site_symmetry_multiplicity
 _atom_site_fract_x
 _atom_site_fract_y
 _atom_site_fract_z
 _atom_site_occupancy
  C  C0  1  0.14414300  0.14414300  0.14414300  1
  C  C1  1  0.85585700  0.85585700  0.85585700  1
  C  C2  1  0.35585700  0.35585700  0.35585700  1
  C  C3  1  0.64414300  0.64414300  0.64414300  1
  Ni  Ni4  1  0.03645400  0.46354600  0.75000000  1
  Ni  Ni5  1  0.46354600  0.75000000  0.03645400  1
  Ni  Ni6  1  0.75000000  0.03645400  0.46354600  1
  Ni  Ni7  1  0.96354600  0.53645400  0.25000000  1
  Ni  Ni8  1  0.25000000  0.96354600  0.53645400  1
  Ni  Ni9  1  0.53645400  0.25000000  0.96354600  1
  Cu  Cu10  1  0.22757000  0.99138800  0.37407500  1
  Cu  Cu11  1  0.37407500  0.22757000  0.99138800  1
  Cu  Cu12  1  0.99138800  0.37407500  0.22757000  1
  Cu  Cu13  1  0.77243000  0.00861200  0.62592500  1
  Cu  Cu14  1  0.62592500  0.77243000  0.00861200  1
  Cu  Cu15  1  0.00861200  0.62592500  0.77243000  1
  Cu  Cu16  1  0.27243000  0.12592500  0.50861200  1
  Cu  Cu17  1  0.50861200  0.27243000  0.12592500  1
  Cu  Cu18  1  0.12592500  0.50861200  0.27243000  1
  Cu  Cu19  1  0.72757000  0.87407500  0.49138800  1
  Cu  Cu20  1  0.06386800  0.29803200  0.91404200  1
  Cu  Cu21  1  0.29803200  0.91404200  0.06386800  1
  Cu  Cu22  1  0.91404200  0.06386800  0.29803200  1
  Cu  Cu23  1  0.93613200  0.70196800  0.08595800  1
  Cu  Cu24  1  0.70196800  0.08595800  0.93613200  1
  Cu  Cu25  1  0.08595800  0.93613200  0.70196800  1
  Cu  Cu26  1  0.20196800  0.43613200  0.58595800  1
  Cu  Cu27  1  0.43613200  0.58595800  0.20196800  1
  Cu  Cu28  1  0.58595800  0.20196800  0.43613200  1
  Cu  Cu29  1  0.79803200  0.56386800  0.41404200  1
  Cu  Cu30  1  0.56386800  0.41404200  0.79803200  1
  Cu  Cu31  1  0.41404200  0.79803200  0.56386800  1
  Cu  Cu32  1  0.87407500  0.49138800  0.72757000  1
  Cu  Cu33  1  0.49138800  0.72757000  0.87407500  1
