# generated using pymatgen
data_Cu3NiC15
_symmetry_space_group_name_H-M   'P 1'
_cell_length_a   5.19890200
_cell_length_b   10.62310700
_cell_length_c   20.60664682
_cell_angle_alpha   59.80970994
_cell_angle_beta   90.00000000
_cell_angle_gamma   90.00000000
_symmetry_Int_Tables_number   1
_chemical_formula_structural   Cu3NiC15
_chemical_formula_sum   'Cu12 Ni4 C60'
_cell_volume   983.70571349
_cell_formula_units_Z   4
loop_
 _symmetry_equiv_pos_site_id
 _symmetry_equiv_pos_as_xyz
  1  'x, y, z'
loop_
 _atom_site_type_symbol
 _atom_site_label
 _atom_site_symmetry_multiplicity
 _atom_site_fract_x
 _atom_site_fract_y
 _atom_site_fract_z
 _atom_site_occupancy
  C  C0  1  0.50205200  0.44853800  0.80262900  1
  C  C1  1  0.00559500  0.54296200  0.70018000  1
  C  C2  1  0.99440500  0.54296200  0.20018000  1
  C  C3  1  0.49794800  0.44853800  0.30262900  1
  C  C4  1  0.49847300  0.11043600  0.97111200  1
  C  C5  1  0.50644000  0.45289400  0.47217000  1
  C  C6  1  0.00416100  0.53968000  0.02904300  1
  C  C7  1  0.50152700  0.11043600  0.47111200  1
  C  C8  1  0.99583900  0.53968000  0.52904300  1
  C  C9  1  0.49356000  0.45289400  0.97217000  1
  C  C10  1  0.14363100  0.00352800  0.74804400  1
  C  C11  1  0.85636900  0.00352800  0.24804400  1
  Ni  Ni12  1  0.99870900  0.90343000  0.52546600  1
  Ni  Ni13  1  0.00129100  0.90343000  0.02546600  1
  Ni  Ni14  1  0.64742100  0.00154700  0.74979900  1
  Ni  Ni15  1  0.35257900  0.00154700  0.24979900  1
  Cu  Cu16  1  0.46776300  0.81649500  0.65514600  1
  Cu  Cu17  1  0.96789400  0.18276000  0.84370500  1
  Cu  Cu18  1  0.02812400  0.63330600  0.34282600  1
  Cu  Cu19  1  0.52532500  0.37011300  0.15645600  1
  Cu  Cu20  1  0.03210600  0.18276000  0.34370500  1
  Cu  Cu21  1  0.53223700  0.81649500  0.15514600  1
  Cu  Cu22  1  0.47467500  0.37011300  0.65645600  1
  Cu  Cu23  1  0.97187600  0.63330600  0.84282600  1
  Cu  Cu24  1  0.96642000  0.19096400  0.55828900  1
  Cu  Cu25  1  0.46828400  0.80720500  0.94319300  1
  Cu  Cu26  1  0.53171600  0.80720500  0.44319300  1
  Cu  Cu27  1  0.03358000  0.19096400  0.05828900  1
  C  C28  1  0.16741400  0.33968600  0.53871200  1
  C  C29  1  0.65823400  0.65578200  0.96369500  1
  C  C30  1  0.32040600  0.91654800  0.46539800  1
  C  C31  1  0.84184200  0.06737200  0.03849600  1
  C  C32  1  0.34176600  0.65578200  0.46369500  1
  C  C33  1  0.83258600  0.33968600  0.03871200  1
  C  C34  1  0.15815800  0.06737200  0.53849600  1
  C  C35  1  0.67959400  0.91654800  0.96539800  1
  C  C36  1  0.87598700  0.09190700  0.65775200  1
  C  C37  1  0.40889500  0.90891500  0.84275400  1
  C  C38  1  0.59110500  0.90891500  0.34275400  1
  C  C39  1  0.12401300  0.09190700  0.15775200  1
  C  C40  1  0.66065200  0.66527800  0.71078600  1
  C  C41  1  0.17011500  0.33266200  0.78886800  1
  C  C42  1  0.83136000  0.59521800  0.28348500  1
  C  C43  1  0.32899700  0.41297100  0.21353200  1
  C  C44  1  0.82988500  0.33266200  0.28886800  1
  C  C45  1  0.33934800  0.66527800  0.21078600  1
  C  C46  1  0.67100300  0.41297100  0.71353200  1
  C  C47  1  0.16864000  0.59521800  0.78348500  1
  C  C48  1  0.40592000  0.91353500  0.70515700  1
  C  C49  1  0.88493800  0.08633900  0.79398200  1
  C  C50  1  0.11838700  0.82886000  0.29298800  1
  C  C51  1  0.59169000  0.17007600  0.20747800  1
  C  C52  1  0.11506200  0.08633900  0.29398200  1
  C  C53  1  0.59408000  0.91353500  0.20515700  1
  C  C54  1  0.40831000  0.17007600  0.70747800  1
  C  C55  1  0.88161300  0.82886000  0.79298800  1
  C  C56  1  0.70036700  0.25340700  0.49563100  1
  C  C57  1  0.18685300  0.75653400  0.00661100  1
  C  C58  1  0.81314700  0.75653400  0.50661100  1
  C  C59  1  0.29963300  0.25340700  0.99563100  1
  C  C60  1  0.17824000  0.76597100  0.62191000  1
  C  C61  1  0.69192700  0.23951900  0.87257500  1
  C  C62  1  0.30118100  0.51583000  0.37200000  1
  C  C63  1  0.80433700  0.48405900  0.12809600  1
  C  C64  1  0.30807300  0.23951900  0.37257500  1
  C  C65  1  0.82176000  0.76597100  0.12191000  1
  C  C66  1  0.19566300  0.48405900  0.62809600  1
  C  C67  1  0.69881900  0.51583000  0.87200000  1
  C  C68  1  0.67554500  0.92808900  0.57551600  1
  C  C69  1  0.15929800  0.05897300  0.92757600  1
  C  C70  1  0.83705400  0.59363500  0.42322700  1
  C  C71  1  0.33543400  0.41497600  0.07571700  1
  C  C72  1  0.84070200  0.05897300  0.42757600  1
  C  C73  1  0.32445500  0.92808900  0.07551600  1
  C  C74  1  0.66456600  0.41497600  0.57571700  1
  C  C75  1  0.16294600  0.59363500  0.92322700  1
