# generated using pymatgen
data_Cu9(NiC)2
_symmetry_space_group_name_H-M   'P 1'
_cell_length_a   8.16852000
_cell_length_b   10.25931389
_cell_length_c   10.10865024
_cell_angle_alpha   120.15192355
_cell_angle_beta   90.00000000
_cell_angle_gamma   90.00000000
_symmetry_Int_Tables_number   1
_chemical_formula_structural   Cu9(NiC)2
_chemical_formula_sum   'Cu36 Ni8 C8'
_cell_volume   732.51851170
_cell_formula_units_Z   4
loop_
 _symmetry_equiv_pos_site_id
 _symmetry_equiv_pos_as_xyz
  1  'x, y, z'
loop_
 _atom_site_type_symbol
 _atom_site_label
 _atom_site_symmetry_multiplicity
 _atom_site_fract_x
 _atom_site_fract_y
 _atom_site_fract_z
 _atom_site_occupancy
  C  C0  1  0.34909900  0.95923400  0.71158000  1
  C  C1  1  0.65090100  0.04076600  0.28842000  1
  C  C2  1  0.84909900  0.54076600  0.78842000  1
  C  C3  1  0.15090100  0.45923400  0.21158000  1
  C  C4  1  0.36191900  0.68798200  0.94764200  1
  C  C5  1  0.63808100  0.31201800  0.05235800  1
  C  C6  1  0.86191900  0.81201800  0.55235800  1
  C  C7  1  0.13808100  0.18798200  0.44764200  1
  Ni  Ni8  1  0.12310200  0.31746500  0.87058200  1
  Ni  Ni9  1  0.87689800  0.68253500  0.12941800  1
  Ni  Ni10  1  0.62310200  0.18253500  0.62941800  1
  Ni  Ni11  1  0.37689800  0.81746500  0.37058200  1
  Ni  Ni12  1  0.20113100  0.59564300  0.59878700  1
  Ni  Ni13  1  0.79886900  0.40435700  0.40121300  1
  Ni  Ni14  1  0.70113100  0.90435700  0.90121300  1
  Ni  Ni15  1  0.29886900  0.09564300  0.09878700  1
  Cu  Cu16  1  0.78732900  0.05048300  0.96995200  1
  Cu  Cu17  1  0.21267100  0.94951700  0.03004800  1
  Cu  Cu18  1  0.28732900  0.44951700  0.53004800  1
  Cu  Cu19  1  0.71267100  0.55048300  0.46995200  1
  Cu  Cu20  1  0.19666800  0.16875500  0.76209500  1
  Cu  Cu21  1  0.80333200  0.83124500  0.23790500  1
  Cu  Cu22  1  0.69666800  0.33124500  0.73790500  1
  Cu  Cu23  1  0.30333200  0.66875500  0.26209500  1
  Cu  Cu24  1  0.31899600  0.72362900  0.67333200  1
  Cu  Cu25  1  0.68100400  0.27637100  0.32666800  1
  Cu  Cu26  1  0.81899600  0.77637100  0.82666800  1
  Cu  Cu27  1  0.18100400  0.22362900  0.17333200  1
  Cu  Cu28  1  0.38712200  0.10765200  0.97430600  1
  Cu  Cu29  1  0.61287800  0.89234800  0.02569400  1
  Cu  Cu30  1  0.88712200  0.39234800  0.52569400  1
  Cu  Cu31  1  0.11287800  0.60765200  0.47430600  1
  Cu  Cu32  1  0.07700600  0.93758000  0.72819600  1
  Cu  Cu33  1  0.92299400  0.06242000  0.27180400  1
  Cu  Cu34  1  0.57700600  0.56242000  0.77180400  1
  Cu  Cu35  1  0.42299400  0.43758000  0.22819600  1
  Cu  Cu36  1  0.25321500  0.42551800  0.97113100  1
  Cu  Cu37  1  0.74678500  0.57448200  0.02886900  1
  Cu  Cu38  1  0.75321500  0.07448200  0.52886900  1
  Cu  Cu39  1  0.24678500  0.92551800  0.47113100  1
  Cu  Cu40  1  0.00656500  0.30897200  0.97885500  1
  Cu  Cu41  1  0.99343500  0.69102800  0.02114500  1
  Cu  Cu42  1  0.50656500  0.19102800  0.52114500  1
  Cu  Cu43  1  0.49343500  0.80897200  0.47885500  1
  Cu  Cu44  1  0.04229500  0.37244600  0.77584100  1
  Cu  Cu45  1  0.95770500  0.62755400  0.22415900  1
  Cu  Cu46  1  0.54229500  0.12755400  0.72415900  1
  Cu  Cu47  1  0.45770500  0.87244600  0.27584100  1
  Cu  Cu48  1  0.58700300  0.88634800  0.77902500  1
  Cu  Cu49  1  0.41299700  0.11365200  0.22097500  1
  Cu  Cu50  1  0.08700300  0.61365200  0.72097500  1
  Cu  Cu51  1  0.91299700  0.38634800  0.27902500  1
