# generated using pymatgen
data_Cu4(Ni2C)3
_symmetry_space_group_name_H-M   'P 1'
_cell_length_a   6.90788100
_cell_length_b   12.86481900
_cell_length_c   15.91106600
_cell_angle_alpha   90.00000000
_cell_angle_beta   90.00000000
_cell_angle_gamma   90.00000000
_symmetry_Int_Tables_number   1
_chemical_formula_structural   Cu4(Ni2C)3
_chemical_formula_sum   'Cu16 Ni24 C12'
_cell_volume   1413.99477630
_cell_formula_units_Z   4
loop_
 _symmetry_equiv_pos_site_id
 _symmetry_equiv_pos_as_xyz
  1  'x, y, z'
loop_
 _atom_site_type_symbol
 _atom_site_label
 _atom_site_symmetry_multiplicity
 _atom_site_fract_x
 _atom_site_fract_y
 _atom_site_fract_z
 _atom_site_occupancy
  C  C0  1  0.25000000  0.80267000  0.77407400  1
  C  C1  1  0.25000000  0.30267000  0.72592600  1
  C  C2  1  0.75000000  0.19733000  0.22592600  1
  C  C3  1  0.75000000  0.69733000  0.27407400  1
  Ni  Ni4  1  0.58223200  0.52349500  0.77103800  1
  Ni  Ni5  1  0.91776800  0.02349500  0.72896200  1
  Ni  Ni6  1  0.08223200  0.47650500  0.22896200  1
  Ni  Ni7  1  0.41776800  0.97650500  0.27103800  1
  Ni  Ni8  1  0.41776800  0.47650500  0.22896200  1
  Ni  Ni9  1  0.08223200  0.97650500  0.27103800  1
  Ni  Ni10  1  0.91776800  0.52349500  0.77103800  1
  Ni  Ni11  1  0.58223200  0.02349500  0.72896200  1
  Ni  Ni12  1  0.75000000  0.43335500  0.87993400  1
  Ni  Ni13  1  0.75000000  0.93335500  0.62006600  1
  Ni  Ni14  1  0.25000000  0.56664500  0.12006600  1
  Ni  Ni15  1  0.25000000  0.06664500  0.37993400  1
  Ni  Ni16  1  0.58564500  0.59271300  0.91211900  1
  Ni  Ni17  1  0.91435500  0.09271300  0.58788100  1
  Ni  Ni18  1  0.08564500  0.40728700  0.08788100  1
  Ni  Ni19  1  0.41435500  0.90728700  0.41211900  1
  Ni  Ni20  1  0.41435500  0.40728700  0.08788100  1
  Ni  Ni21  1  0.08564500  0.90728700  0.41211900  1
  Ni  Ni22  1  0.91435500  0.59271300  0.91211900  1
  Ni  Ni23  1  0.58564500  0.09271300  0.58788100  1
  Ni  Ni24  1  0.75000000  0.67563500  0.80478600  1
  Ni  Ni25  1  0.75000000  0.17563500  0.69521400  1
  Ni  Ni26  1  0.25000000  0.32436500  0.19521400  1
  Ni  Ni27  1  0.25000000  0.82436500  0.30478600  1
  C  C28  1  0.25000000  0.86051500  0.93102100  1
  C  C29  1  0.25000000  0.36051500  0.56897900  1
  C  C30  1  0.75000000  0.13948500  0.06897900  1
  C  C31  1  0.75000000  0.63948500  0.43102100  1
  C  C32  1  0.25000000  0.72761200  0.62130300  1
  C  C33  1  0.25000000  0.22761200  0.87869700  1
  C  C34  1  0.75000000  0.27238800  0.37869700  1
  C  C35  1  0.75000000  0.77238800  0.12130300  1
  Cu  Cu36  1  0.58243800  0.61378600  0.82363200  1
  Cu  Cu37  1  0.91756200  0.11378600  0.67636800  1
  Cu  Cu38  1  0.08243800  0.38621400  0.17636800  1
  Cu  Cu39  1  0.41756200  0.88621400  0.32363200  1
  Cu  Cu40  1  0.41756200  0.38621400  0.17636800  1
  Cu  Cu41  1  0.08243800  0.88621400  0.32363200  1
  Cu  Cu42  1  0.91756200  0.61378600  0.82363200  1
  Cu  Cu43  1  0.58243800  0.11378600  0.67636800  1
  Cu  Cu44  1  0.75000000  0.46731500  0.79558400  1
  Cu  Cu45  1  0.75000000  0.96731500  0.70441600  1
  Cu  Cu46  1  0.25000000  0.53268500  0.20441600  1
  Cu  Cu47  1  0.25000000  0.03268500  0.29558400  1
  Cu  Cu48  1  0.75000000  0.52921600  0.92565400  1
  Cu  Cu49  1  0.75000000  0.02921600  0.57434600  1
  Cu  Cu50  1  0.25000000  0.47078400  0.07434600  1
  Cu  Cu51  1  0.25000000  0.97078400  0.42565400  1
