# generated using pymatgen
data_CuNiC9
_symmetry_space_group_name_H-M   'P 1'
_cell_length_a   8.57307300
_cell_length_b   7.12649900
_cell_length_c   9.23810141
_cell_angle_alpha   67.38450182
_cell_angle_beta   90.00000000
_cell_angle_gamma   90.00000000
_symmetry_Int_Tables_number   1
_chemical_formula_structural   CuNiC9
_chemical_formula_sum   'Cu4 Ni4 C36'
_cell_volume   521.01132017
_cell_formula_units_Z   4
loop_
 _symmetry_equiv_pos_site_id
 _symmetry_equiv_pos_as_xyz
  1  'x, y, z'
loop_
 _atom_site_type_symbol
 _atom_site_label
 _atom_site_symmetry_multiplicity
 _atom_site_fract_x
 _atom_site_fract_y
 _atom_site_fract_z
 _atom_site_occupancy
  Ni  Ni0  1  0.06947600  0.76344000  0.60879600  1
  Ni  Ni1  1  0.93052400  0.23656000  0.39120400  1
  Ni  Ni2  1  0.56947600  0.23656000  0.89120400  1
  Ni  Ni3  1  0.43052400  0.76344000  0.10879600  1
  Cu  Cu4  1  0.94123000  0.30106300  0.81679400  1
  Cu  Cu5  1  0.44123000  0.69893700  0.68320600  1
  Cu  Cu6  1  0.55877000  0.30106300  0.31679400  1
  Cu  Cu7  1  0.05877000  0.69893700  0.18320600  1
  C  C8  1  0.73501300  0.93754200  0.24283700  1
  C  C9  1  0.22328800  0.46696300  0.96958800  1
  C  C10  1  0.76498700  0.93754200  0.74283700  1
  C  C11  1  0.27671200  0.46696300  0.46958800  1
  C  C12  1  0.23501300  0.06245800  0.25716300  1
  C  C13  1  0.72328800  0.53303700  0.53041200  1
  C  C14  1  0.77671200  0.53303700  0.03041200  1
  C  C15  1  0.26498700  0.06245800  0.75716300  1
  C  C16  1  0.17821900  0.25115800  0.10094600  1
  C  C17  1  0.60915300  0.88833800  0.69016200  1
  C  C18  1  0.89084700  0.88833800  0.19016200  1
  C  C19  1  0.38388100  0.45429300  0.89772900  1
  C  C20  1  0.82178100  0.74884200  0.89905400  1
  C  C21  1  0.10295000  0.02991300  0.37720000  1
  C  C22  1  0.61611900  0.54570700  0.10227100  1
  C  C23  1  0.09035200  0.50811800  0.84974700  1
  C  C24  1  0.27127500  0.62273500  0.54804900  1
  C  C25  1  0.89705000  0.97008700  0.62280000  1
  C  C26  1  0.39705000  0.02991300  0.87720000  1
  C  C27  1  0.76026900  0.11751400  0.79679200  1
  C  C28  1  0.26026900  0.88248600  0.70320800  1
  C  C29  1  0.32178100  0.25115800  0.60094600  1
  C  C30  1  0.60295000  0.97008700  0.12280000  1
  C  C31  1  0.10915300  0.11166200  0.80983800  1
  C  C32  1  0.23973100  0.88248600  0.20320800  1
  C  C33  1  0.90964800  0.49188200  0.15025300  1
  C  C34  1  0.22872500  0.62273500  0.04804900  1
  C  C35  1  0.77127500  0.37726500  0.95195100  1
  C  C36  1  0.88388100  0.54570700  0.60227100  1
  C  C37  1  0.40964800  0.50811800  0.34974700  1
  C  C38  1  0.59035200  0.49188200  0.65025300  1
  C  C39  1  0.39084700  0.11166200  0.30983800  1
  C  C40  1  0.73973100  0.11751400  0.29679200  1
  C  C41  1  0.11611900  0.45429300  0.39772900  1
  C  C42  1  0.72872500  0.37726500  0.45195100  1
  C  C43  1  0.67821900  0.74884200  0.39905400  1
