# generated using pymatgen
data_Cu2Ni3C16
_symmetry_space_group_name_H-M   'P 1'
_cell_length_a   6.56166304
_cell_length_b   8.52768166
_cell_length_c   8.52768166
_cell_angle_alpha   91.06771980
_cell_angle_beta   106.53145717
_cell_angle_gamma   106.53145717
_symmetry_Int_Tables_number   1
_chemical_formula_structural   Cu2Ni3C16
_chemical_formula_sum   'Cu4 Ni6 C32'
_cell_volume   435.95635660
_cell_formula_units_Z   2
loop_
 _symmetry_equiv_pos_site_id
 _symmetry_equiv_pos_as_xyz
  1  'x, y, z'
loop_
 _atom_site_type_symbol
 _atom_site_label
 _atom_site_symmetry_multiplicity
 _atom_site_fract_x
 _atom_site_fract_y
 _atom_site_fract_z
 _atom_site_occupancy
  C  C0  1  0.75000000  0.02505000  0.97495000  1
  C  C1  1  0.25000000  0.97495000  0.02505000  1
  C  C2  1  0.25000000  0.27644200  0.72355800  1
  C  C3  1  0.75000000  0.72355800  0.27644200  1
  C  C4  1  0.12565600  0.37464800  0.05020600  1
  C  C5  1  0.37434400  0.94979400  0.62535200  1
  C  C6  1  0.87434400  0.62535200  0.94979400  1
  C  C7  1  0.62565600  0.05020600  0.37464800  1
  Ni  Ni8  1  0.25000000  0.68446100  0.31553900  1
  Ni  Ni9  1  0.75000000  0.31553900  0.68446100  1
  Ni  Ni10  1  0.11282900  0.10521800  0.32848100  1
  Ni  Ni11  1  0.38717100  0.67151900  0.89478200  1
  Ni  Ni12  1  0.88717100  0.89478200  0.67151900  1
  Ni  Ni13  1  0.61282900  0.32848100  0.10521800  1
  Cu  Cu14  1  0.19558800  0.37409000  0.39109900  1
  Cu  Cu15  1  0.30441200  0.60890100  0.62591000  1
  Cu  Cu16  1  0.80441200  0.62591000  0.60890100  1
  Cu  Cu17  1  0.69558800  0.39109900  0.37409000  1
  C  C18  1  0.03712700  0.72115300  0.20438200  1
  C  C19  1  0.46287300  0.79561800  0.27884700  1
  C  C20  1  0.96287300  0.27884700  0.79561800  1
  C  C21  1  0.53712700  0.20438200  0.72115300  1
  C  C22  1  0.23612000  0.50082000  0.28346600  1
  C  C23  1  0.26388000  0.71653400  0.49918000  1
  C  C24  1  0.76388000  0.49918000  0.71653400  1
  C  C25  1  0.73612000  0.28346600  0.50082000  1
  C  C26  1  0.88780300  0.98203600  0.32599000  1
  C  C27  1  0.61219700  0.67401000  0.01796400  1
  C  C28  1  0.11219700  0.01796400  0.67401000  1
  C  C29  1  0.38780300  0.32599000  0.98203600  1
  C  C30  1  0.15878900  0.26596900  0.45168300  1
  C  C31  1  0.34121100  0.54831700  0.73403100  1
  C  C32  1  0.84121100  0.73403100  0.54831700  1
  C  C33  1  0.65878900  0.45168300  0.26596900  1
  C  C34  1  0.30763500  0.03467200  0.39381000  1
  C  C35  1  0.19236500  0.60619000  0.96532800  1
  C  C36  1  0.69236500  0.96532800  0.60619000  1
  C  C37  1  0.80763500  0.39381000  0.03467200  1
  C  C38  1  0.09909000  0.15755800  0.15515100  1
  C  C39  1  0.40091000  0.84484900  0.84244200  1
  C  C40  1  0.90091000  0.84244200  0.84484900  1
  C  C41  1  0.59909000  0.15515100  0.15755800  1
