# generated using pymatgen
data_Cu8NiC27
_symmetry_space_group_name_H-M   'P 1'
_cell_length_a   10.68337552
_cell_length_b   11.12320960
_cell_length_c   16.68423800
_cell_angle_alpha   109.55205888
_cell_angle_beta   109.30441641
_cell_angle_gamma   89.51449851
_symmetry_Int_Tables_number   1
_chemical_formula_structural   Cu8NiC27
_chemical_formula_sum   'Cu32 Ni4 C108'
_cell_volume   1751.60366940
_cell_formula_units_Z   4
loop_
 _symmetry_equiv_pos_site_id
 _symmetry_equiv_pos_as_xyz
  1  'x, y, z'
loop_
 _atom_site_type_symbol
 _atom_site_label
 _atom_site_symmetry_multiplicity
 _atom_site_fract_x
 _atom_site_fract_y
 _atom_site_fract_z
 _atom_site_occupancy
  C  C0  1  0.30428543  0.06403546  0.60641291  1
  C  C1  1  0.30670704  0.56488265  0.60569578  1
  C  C2  1  0.80280866  0.06138740  0.60404492  1
  C  C3  1  0.80384521  0.56153545  0.11037812  1
  C  C4  1  0.80493521  0.56156276  0.60436365  1
  C  C5  1  0.19646333  0.43284567  0.39077860  1
  C  C6  1  0.20146410  0.43873435  0.89499979  1
  C  C7  1  0.19665792  0.93620500  0.38855311  1
  C  C8  1  0.19425841  0.93771743  0.89359977  1
  C  C9  1  0.69792974  0.43615815  0.39404097  1
  C  C10  1  0.69146804  0.42970353  0.89048089  1
  C  C11  1  0.69587216  0.93592500  0.39343886  1
  C  C12  1  0.69245154  0.93613829  0.89182657  1
  C  C13  1  0.05237941  0.29344096  0.11173928  1
  C  C14  1  0.05086188  0.29078664  0.60589407  1
  C  C15  1  0.05033680  0.79100659  0.60583604  1
  C  C16  1  0.55899198  0.29468549  0.11132263  1
  C  C17  1  0.55691990  0.29448634  0.60538613  1
  C  C18  1  0.55579699  0.78786498  0.11179026  1
  C  C19  1  0.55688297  0.79273652  0.60426371  1
  C  C20  1  0.44848710  0.20628975  0.38893704  1
  C  C21  1  0.44783066  0.20827541  0.89159647  1
  C  C22  1  0.44892868  0.70832986  0.38949049  1
  C  C23  1  0.43854595  0.70329142  0.88862419  1
  C  C24  1  0.94291714  0.20238365  0.38960178  1
  C  C25  1  0.93975284  0.20288660  0.88761549  1
  C  C26  1  0.94171177  0.70576363  0.39219512  1
  C  C27  1  0.94728311  0.70760594  0.89268044  1
  Ni  Ni28  1  0.28888161  0.07845060  0.11764617  1
  Ni  Ni29  1  0.27673251  0.58607903  0.12116858  1
  Ni  Ni30  1  0.78077763  0.08325291  0.11581039  1
  Ni  Ni31  1  0.02987931  0.78593467  0.11893159  1
  Cu  Cu32  1  0.01040757  0.00167387  0.00887013  1
  Cu  Cu33  1  0.00577134  0.99867666  0.49821163  1
  Cu  Cu34  1  0.00640342  0.50020142  0.00132706  1
  Cu  Cu35  1  0.00652905  0.49855816  0.49907578  1
  Cu  Cu36  1  0.50740171  0.00175148  0.00435294  1
  Cu  Cu37  1  0.50228954  0.00137783  0.49818145  1
  Cu  Cu38  1  0.50677970  0.50155767  0.00416216  1
  Cu  Cu39  1  0.50407710  0.50038141  0.49777752  1
  Cu  Cu40  1  0.26025912  0.25568515  0.00601505  1
  Cu  Cu41  1  0.25362357  0.24869573  0.49839598  1
  Cu  Cu42  1  0.26175477  0.75445326  0.00789907  1
  Cu  Cu43  1  0.25465170  0.75053095  0.49871647  1
  Cu  Cu44  1  0.75830157  0.24782250  0.00280246  1
  Cu  Cu45  1  0.75364154  0.24857668  0.49823850  1
  Cu  Cu46  1  0.75877790  0.75276515  0.00350886  1
  Cu  Cu47  1  0.75292830  0.74882776  0.49800729  1
  Cu  Cu48  1  0.09895470  0.08823904  0.24331682  1
  Cu  Cu49  1  0.10819504  0.09353298  0.74756606  1
  Cu  Cu50  1  0.10987706  0.59818446  0.25116174  1
  Cu  Cu51  1  0.10697263  0.59342274  0.74733071  1
  Cu  Cu52  1  0.60303946  0.09276274  0.24936308  1
  Cu  Cu53  1  0.60674951  0.09118156  0.74553732  1
  Cu  Cu54  1  0.60213331  0.59383890  0.24902756  1
  Cu  Cu55  1  0.60997611  0.59450251  0.74863013  1
  Cu  Cu56  1  0.35872686  0.40463313  0.24747872  1
  Cu  Cu57  1  0.35833726  0.40508169  0.74797778  1
  Cu  Cu58  1  0.34824909  0.90271082  0.24458425  1
  Cu  Cu59  1  0.35937009  0.90504024  0.75057204  1
  Cu  Cu60  1  0.85997025  0.40393738  0.25367266  1
  Cu  Cu61  1  0.86052975  0.40468118  0.74872879  1
  Cu  Cu62  1  0.85760146  0.91009865  0.24951804  1
  Cu  Cu63  1  0.85791352  0.90309675  0.74761860  1
  C  C64  1  0.11658682  0.11312198  0.48189221  1
  C  C65  1  0.12235361  0.13866091  0.98763750  1
  C  C66  1  0.11779520  0.61306233  0.48229785  1
  C  C67  1  0.12784511  0.63834237  0.99165473  1
  C  C68  1  0.61699009  0.11898839  0.48059188  1
  C  C69  1  0.62492059  0.12514681  0.98779972  1
  C  C70  1  0.61865780  0.61922901  0.48190164  1
  C  C71  1  0.62672975  0.63315801  0.98945951  1
  C  C72  1  0.15400517  0.41224391  0.03179190  1
  C  C73  1  0.13697811  0.37735469  0.51261800  1
  C  C74  1  0.15697746  0.90836588  0.02248380  1
  C  C75  1  0.13339966  0.87614790  0.51044026  1
  C  C76  1  0.64067632  0.38084847  0.01406112  1
  C  C77  1  0.63777228  0.38301859  0.51634782  1
  C  C78  1  0.65462568  0.90360027  0.02608502  1
  C  C79  1  0.63511210  0.88134766  0.51370763  1
  C  C80  1  0.37063582  0.11914709  0.48356002  1
  C  C81  1  0.37596501  0.10686191  0.98738030  1
  C  C82  1  0.37219725  0.61953496  0.48509705  1
  C  C83  1  0.37226305  0.61407694  0.98491961  1
  C  C84  1  0.86768332  0.11185854  0.47985051  1
  C  C85  1  0.87490791  0.10511427  0.99434551  1
  C  C86  1  0.86786872  0.61248685  0.48082689  1
  C  C87  1  0.87506491  0.60498551  0.98678882  1
  C  C88  1  0.38703662  0.37381098  0.01358729  1
  C  C89  1  0.38739736  0.38677394  0.51037168  1
  C  C90  1  0.39240869  0.87403343  0.01801642  1
  C  C91  1  0.38802536  0.89056650  0.51479080  1
  C  C92  1  0.89164719  0.37488131  0.01660866  1
  C  C93  1  0.88727165  0.38045985  0.51396172  1
  C  C94  1  0.90949434  0.86318134  0.02449012  1
  C  C95  1  0.88447939  0.88185272  0.51283593  1
  C  C96  1  0.11320169  0.11402974  0.14518421  1
  C  C97  1  0.08141641  0.09481872  0.63327557  1
  C  C98  1  0.09621617  0.62574948  0.14638734  1
  C  C99  1  0.07990049  0.59580443  0.63312683  1
  C  C100  1  0.60750627  0.11378024  0.14740738  1
  C  C101  1  0.58068233  0.09762361  0.63284340  1
  C  C102  1  0.60751771  0.60747532  0.14654394  1
  C  C103  1  0.58029817  0.59706954  0.63468492  1
  C  C104  1  0.44436550  0.40455166  0.36218372  1
  C  C105  1  0.44887379  0.39420752  0.85692353  1
  C  C106  1  0.43270798  0.90621363  0.36098600  1
  C  C107  1  0.45143919  0.89242038  0.86031779  1
  C  C108  1  0.94689484  0.39907154  0.36615487  1
  C  C109  1  0.95528169  0.39262291  0.85932008  1
  C  C110  1  0.94420886  0.90309492  0.36245816  1
  C  C111  1  0.94818440  0.89467036  0.85898332  1
  C  C112  1  0.34772820  0.26978014  0.14474093  1
  C  C113  1  0.33715607  0.28550493  0.63793479  1
  C  C114  1  0.35129078  0.76872384  0.14624890  1
  C  C115  1  0.33489424  0.78743271  0.63960343  1
  C  C116  1  0.84090939  0.27531902  0.14787647  1
  C  C117  1  0.83157973  0.28638683  0.63516290  1
  C  C118  1  0.85341047  0.78005758  0.14707764  1
  C  C119  1  0.82956752  0.78661375  0.63383782  1
  C  C120  1  0.18516124  0.20548650  0.35517969  1
  C  C121  1  0.19639855  0.21488668  0.85689433  1
  C  C122  1  0.19780107  0.71608859  0.36022699  1
  C  C123  1  0.19523638  0.71585499  0.85606825  1
  C  C124  1  0.68434889  0.21111746  0.36289994  1
  C  C125  1  0.70044890  0.20957073  0.85446377  1
  C  C126  1  0.68264417  0.71187649  0.36349080  1
  C  C127  1  0.70110895  0.71616658  0.85931124  1
  C  C128  1  0.41374783  0.05872618  0.23537613  1
  C  C129  1  0.42784350  0.06558917  0.75009760  1
  C  C130  1  0.41235920  0.56226674  0.23506626  1
  C  C131  1  0.42888500  0.56641001  0.74907975  1
  C  C132  1  0.91142048  0.06522660  0.23420672  1
  C  C133  1  0.92680111  0.06360524  0.74793142  1
  C  C134  1  0.93087002  0.56091449  0.25042836  1
  C  C135  1  0.92699526  0.56572018  0.74943457  1
  C  C136  1  0.17898203  0.43665141  0.24879777  1
  C  C137  1  0.17722214  0.43353541  0.74942932  1
  C  C138  1  0.15911891  0.92002969  0.23465301  1
  C  C139  1  0.17722253  0.93297856  0.75020452  1
  C  C140  1  0.67823475  0.43560570  0.25192345  1
  C  C141  1  0.68073618  0.43390526  0.75100605  1
  C  C142  1  0.67651827  0.93417406  0.25026367  1
  C  C143  1  0.67765135  0.93146458  0.74933005  1
