# generated using pymatgen
data_CuNi2C13
_symmetry_space_group_name_H-M   'P 1'
_cell_length_a   3.87468800
_cell_length_b   3.92132600
_cell_length_c   16.54793932
_cell_angle_alpha   88.91019559
_cell_angle_beta   90.00000000
_cell_angle_gamma   90.00000000
_symmetry_Int_Tables_number   1
_chemical_formula_structural   CuNi2C13
_chemical_formula_sum   'Cu1 Ni2 C13'
_cell_volume   251.38249983
_cell_formula_units_Z   1
loop_
 _symmetry_equiv_pos_site_id
 _symmetry_equiv_pos_as_xyz
  1  'x, y, z'
loop_
 _atom_site_type_symbol
 _atom_site_label
 _atom_site_symmetry_multiplicity
 _atom_site_fract_x
 _atom_site_fract_y
 _atom_site_fract_z
 _atom_site_occupancy
  Ni  Ni0  1  0.00000000  0.98897000  0.22330400  1
  Ni  Ni1  1  0.00000000  0.01103000  0.77669600  1
  Cu  Cu2  1  0.00000000  0.00000000  0.00000000  1
  C  C3  1  0.50000000  0.49837900  0.09797600  1
  C  C4  1  0.50000000  0.50162100  0.90202400  1
  C  C5  1  0.00000000  0.00000000  0.50000000  1
  C  C6  1  0.50000000  0.49124700  0.39172700  1
  C  C7  1  0.50000000  0.50875300  0.60827300  1
  C  C8  1  0.50000000  0.48796600  0.25823000  1
  C  C9  1  0.50000000  0.51203400  0.74177000  1
  C  C10  1  0.00000000  0.87462300  0.39239000  1
  C  C11  1  0.00000000  0.12537700  0.60761000  1
  C  C12  1  0.00000000  0.49819300  0.08702600  1
  C  C13  1  0.50000000  0.00047700  0.91209300  1
  C  C14  1  0.00000000  0.50180700  0.91297400  1
  C  C15  1  0.50000000  0.99952300  0.08790700  1
