# generated using pymatgen
data_CuNiC8
_symmetry_space_group_name_H-M   'P 1'
_cell_length_a   5.12051379
_cell_length_b   5.12051379
_cell_length_c   13.32649147
_cell_angle_alpha   76.92897012
_cell_angle_beta   76.92897012
_cell_angle_gamma   32.80645436
_symmetry_Int_Tables_number   1
_chemical_formula_structural   CuNiC8
_chemical_formula_sum   'Cu2 Ni2 C16'
_cell_volume   183.97837435
_cell_formula_units_Z   2
loop_
 _symmetry_equiv_pos_site_id
 _symmetry_equiv_pos_as_xyz
  1  'x, y, z'
loop_
 _atom_site_type_symbol
 _atom_site_label
 _atom_site_symmetry_multiplicity
 _atom_site_fract_x
 _atom_site_fract_y
 _atom_site_fract_z
 _atom_site_occupancy
  C  C0  1  0.50000000  0.50000000  0.50000000  1
  C  C1  1  0.89450200  0.89450200  0.71717100  1
  C  C2  1  0.31192500  0.31192500  0.91487700  1
  C  C3  1  0.68807500  0.68807500  0.08512300  1
  C  C4  1  0.10549800  0.10549800  0.28282900  1
  C  C5  1  0.00000000  0.00000000  0.00000000  1
  Ni  Ni6  1  0.80198700  0.80198700  0.39833500  1
  Ni  Ni7  1  0.19801300  0.19801300  0.60166500  1
  Cu  Cu8  1  0.60273700  0.60273700  0.82146900  1
  Cu  Cu9  1  0.39726300  0.39726300  0.17853100  1
  C  C10  1  0.43382700  0.43382700  0.36358100  1
  C  C11  1  0.83330600  0.83330600  0.54637400  1
  C  C12  1  0.24073200  0.24073200  0.73101400  1
  C  C13  1  0.65610100  0.65610100  0.93913300  1
  C  C14  1  0.03695600  0.03695600  0.15656000  1
  C  C15  1  0.56617300  0.56617300  0.63641900  1
  C  C16  1  0.96304400  0.96304400  0.84344000  1
  C  C17  1  0.34389900  0.34389900  0.06086700  1
  C  C18  1  0.75926800  0.75926800  0.26898600  1
  C  C19  1  0.16669400  0.16669400  0.45362600  1
