# generated using pymatgen
data_Cu9(NiC4)4
_symmetry_space_group_name_H-M   'P 1'
_cell_length_a   7.81651800
_cell_length_b   10.12973700
_cell_length_c   14.07517854
_cell_angle_alpha   90.00000000
_cell_angle_beta   109.00677273
_cell_angle_gamma   90.00000000
_symmetry_Int_Tables_number   1
_chemical_formula_structural   Cu9(NiC4)4
_chemical_formula_sum   'Cu36 Ni16 C64'
_cell_volume   1053.70198972
_cell_formula_units_Z   4
loop_
 _symmetry_equiv_pos_site_id
 _symmetry_equiv_pos_as_xyz
  1  'x, y, z'
loop_
 _atom_site_type_symbol
 _atom_site_label
 _atom_site_symmetry_multiplicity
 _atom_site_fract_x
 _atom_site_fract_y
 _atom_site_fract_z
 _atom_site_occupancy
  C  C0  1  0.10766900  0.37082500  0.67739700  1
  C  C1  1  0.10766900  0.12917500  0.17739700  1
  C  C2  1  0.89233100  0.62917500  0.32260300  1
  C  C3  1  0.89233100  0.87082500  0.82260300  1
  C  C4  1  0.10680100  0.54438700  0.80211400  1
  C  C5  1  0.10680100  0.95561300  0.30211400  1
  C  C6  1  0.89319900  0.45561300  0.19788600  1
  C  C7  1  0.89319900  0.04438700  0.69788600  1
  C  C8  1  0.30167200  0.46107400  0.84319500  1
  C  C9  1  0.30167200  0.03892600  0.34319500  1
  C  C10  1  0.69832800  0.53892600  0.15680500  1
  C  C11  1  0.69832800  0.96107400  0.65680500  1
  C  C12  1  0.11303600  0.39634100  0.85395900  1
  C  C13  1  0.11303600  0.10365900  0.35395900  1
  C  C14  1  0.88696400  0.60365900  0.14604100  1
  C  C15  1  0.88696400  0.89634100  0.64604100  1
  C  C16  1  0.25615100  0.15271400  0.69809000  1
  C  C17  1  0.25615100  0.34728600  0.19809000  1
  C  C18  1  0.74384900  0.84728600  0.30191000  1
  C  C19  1  0.74384900  0.65271400  0.80191000  1
  C  C20  1  0.33994000  0.23685400  0.80408800  1
  C  C21  1  0.33994000  0.26314600  0.30408800  1
  C  C22  1  0.66006000  0.76314600  0.19591200  1
  C  C23  1  0.66006000  0.73685400  0.69591200  1
  C  C24  1  0.41961600  0.26227800  0.70971300  1
  C  C25  1  0.41961600  0.23772200  0.20971300  1
  C  C26  1  0.58038400  0.73772200  0.29028700  1
  C  C27  1  0.58038400  0.76227800  0.79028700  1
  C  C28  1  0.17163300  0.53856600  0.56923000  1
  C  C29  1  0.17163300  0.96143400  0.06923000  1
  C  C30  1  0.82836700  0.46143400  0.43077000  1
  C  C31  1  0.82836700  0.03856600  0.93077000  1
  C  C32  1  0.27570500  0.58430700  0.68697600  1
  C  C33  1  0.27570500  0.91569300  0.18697600  1
  C  C34  1  0.72429500  0.41569300  0.31302400  1
  C  C35  1  0.72429500  0.08430700  0.81302400  1
  C  C36  1  0.37462600  0.47623200  0.63301700  1
  C  C37  1  0.37462600  0.02376800  0.13301700  1
  C  C38  1  0.62537400  0.52376800  0.36698300  1
  C  C39  1  0.62537400  0.97623200  0.86698300  1
  C  C40  1  0.15006100  0.27178100  0.51924800  1
  C  C41  1  0.15006100  0.22821900  0.01924800  1
  C  C42  1  0.84993900  0.72821900  0.48075200  1
  C  C43  1  0.84993900  0.77178100  0.98075200  1
  C  C44  1  0.94094200  0.23420600  0.51751100  1
  C  C45  1  0.94094200  0.26579400  0.01751100  1
  C  C46  1  0.05905800  0.76579400  0.48248900  1
  C  C47  1  0.05905800  0.73420600  0.98248900  1
  C  C48  1  0.64086200  0.64997200  0.54491800  1
  C  C49  1  0.64086200  0.85002800  0.04491800  1
  C  C50  1  0.35913800  0.35002800  0.45508200  1
  C  C51  1  0.35913800  0.14997200  0.95508200  1
  C  C52  1  0.56178800  0.78420300  0.49231300  1
  C  C53  1  0.56178800  0.71579700  0.99231300  1
  C  C54  1  0.43821200  0.21579700  0.50768700  1
  C  C55  1  0.43821200  0.28420300  0.00768700  1
  C  C56  1  0.75696000  0.43616900  0.64019200  1
  C  C57  1  0.75696000  0.06383100  0.14019200  1
  C  C58  1  0.24304000  0.56383100  0.35980800  1
  C  C59  1  0.24304000  0.93616900  0.85980800  1
  C  C60  1  0.78298400  0.29829500  0.69060500  1
  C  C61  1  0.78298400  0.20170500  0.19060500  1
  C  C62  1  0.21701600  0.70170500  0.30939500  1
  C  C63  1  0.21701600  0.79829500  0.80939500  1
  Ni  Ni64  1  0.16435000  0.45197400  0.80882000  1
  Ni  Ni65  1  0.16435000  0.04802600  0.30882000  1
  Ni  Ni66  1  0.83565000  0.54802600  0.19118000  1
  Ni  Ni67  1  0.83565000  0.95197400  0.69118000  1
  Ni  Ni68  1  0.30358400  0.24415000  0.72737200  1
  Ni  Ni69  1  0.30358400  0.25585000  0.22737200  1
  Ni  Ni70  1  0.69641600  0.75585000  0.27262800  1
  Ni  Ni71  1  0.69641600  0.74415000  0.77262800  1
  Ni  Ni72  1  0.25138200  0.50501600  0.63833900  1
  Ni  Ni73  1  0.25138200  0.99498400  0.13833900  1
  Ni  Ni74  1  0.74861800  0.49498400  0.36166100  1
  Ni  Ni75  1  0.74861800  0.00501600  0.86166100  1
  Ni  Ni76  1  0.71619100  0.07603800  0.40936900  1
  Ni  Ni77  1  0.71619100  0.42396200  0.90936900  1
  Ni  Ni78  1  0.28380900  0.92396200  0.59063100  1
  Ni  Ni79  1  0.28380900  0.57603800  0.09063100  1
  Cu  Cu80  1  0.90096200  0.48431900  0.62759700  1
  Cu  Cu81  1  0.90096200  0.01568100  0.12759700  1
  Cu  Cu82  1  0.09903800  0.51568100  0.37240300  1
  Cu  Cu83  1  0.09903800  0.98431900  0.87240300  1
  Cu  Cu84  1  0.94517200  0.24995000  0.71051500  1
  Cu  Cu85  1  0.94517200  0.25005000  0.21051500  1
  Cu  Cu86  1  0.05482800  0.75005000  0.28948500  1
  Cu  Cu87  1  0.05482800  0.74995000  0.78948500  1
  Cu  Cu88  1  0.60770100  0.49368900  0.61292700  1
  Cu  Cu89  1  0.60770100  0.00631100  0.11292700  1
  Cu  Cu90  1  0.39229900  0.50631100  0.38707300  1
  Cu  Cu91  1  0.39229900  0.99368900  0.88707300  1
  Cu  Cu92  1  0.65698500  0.23907900  0.70822500  1
  Cu  Cu93  1  0.65698500  0.26092100  0.20822500  1
  Cu  Cu94  1  0.34301500  0.76092100  0.29177500  1
  Cu  Cu95  1  0.34301500  0.73907900  0.79177500  1
  Cu  Cu96  1  0.04705800  0.29695500  0.54281100  1
  Cu  Cu97  1  0.04705800  0.20304500  0.04281100  1
  Cu  Cu98  1  0.95294200  0.70304500  0.45718900  1
  Cu  Cu99  1  0.95294200  0.79695500  0.95718900  1
  Cu  Cu100  1  0.67507300  0.73878200  0.52766400  1
  Cu  Cu101  1  0.67507300  0.76121800  0.02766400  1
  Cu  Cu102  1  0.32492700  0.26121800  0.47233600  1
  Cu  Cu103  1  0.32492700  0.23878200  0.97233600  1
  Cu  Cu104  1  0.73603200  0.17381200  0.47029500  1
  Cu  Cu105  1  0.73603200  0.32618800  0.97029500  1
  Cu  Cu106  1  0.26396800  0.82618800  0.52970500  1
  Cu  Cu107  1  0.26396800  0.67381200  0.02970500  1
  Cu  Cu108  1  0.56425600  0.01946700  0.37637600  1
  Cu  Cu109  1  0.56425600  0.48053300  0.87637600  1
  Cu  Cu110  1  0.43574400  0.98053300  0.62362400  1
  Cu  Cu111  1  0.43574400  0.51946700  0.12362400  1
  Cu  Cu112  1  0.84809700  0.03703300  0.38342100  1
  Cu  Cu113  1  0.84809700  0.46296700  0.88342100  1
  Cu  Cu114  1  0.15190300  0.96296700  0.61657900  1
  Cu  Cu115  1  0.15190300  0.53703300  0.11657900  1
