# generated using pymatgen
data_Cu2Ni5C16
_symmetry_space_group_name_H-M   'P 1'
_cell_length_a   12.59018500
_cell_length_b   12.59018500
_cell_length_c   3.91530500
_cell_angle_alpha   90.00000000
_cell_angle_beta   90.00000000
_cell_angle_gamma   90.00000000
_symmetry_Int_Tables_number   1
_chemical_formula_structural   Cu2Ni5C16
_chemical_formula_sum   'Cu4 Ni10 C32'
_cell_volume   620.62579527
_cell_formula_units_Z   2
loop_
 _symmetry_equiv_pos_site_id
 _symmetry_equiv_pos_as_xyz
  1  'x, y, z'
loop_
 _atom_site_type_symbol
 _atom_site_label
 _atom_site_symmetry_multiplicity
 _atom_site_fract_x
 _atom_site_fract_y
 _atom_site_fract_z
 _atom_site_occupancy
  C  C0  1  0.00000000  0.00000000  0.50000000  1
  C  C1  1  0.50000000  0.50000000  0.50000000  1
  Ni  Ni2  1  0.50000000  0.00000000  0.00000000  1
  Ni  Ni3  1  0.00000000  0.50000000  0.00000000  1
  Ni  Ni4  1  0.21035300  0.07864300  0.00000000  1
  Ni  Ni5  1  0.78964700  0.92135700  0.00000000  1
  Ni  Ni6  1  0.07864300  0.78964700  0.00000000  1
  Ni  Ni7  1  0.71035300  0.42135700  0.00000000  1
  Ni  Ni8  1  0.92135700  0.21035300  0.00000000  1
  Ni  Ni9  1  0.28964700  0.57864300  0.00000000  1
  Ni  Ni10  1  0.57864300  0.71035300  0.00000000  1
  Ni  Ni11  1  0.42135700  0.28964700  0.00000000  1
  Cu  Cu12  1  0.67181500  0.17181500  0.50000000  1
  Cu  Cu13  1  0.32818500  0.82818500  0.50000000  1
  Cu  Cu14  1  0.17181500  0.32818500  0.50000000  1
  Cu  Cu15  1  0.82818500  0.67181500  0.50000000  1
  C  C16  1  0.18667400  0.07926500  0.50000000  1
  C  C17  1  0.81332600  0.92073500  0.50000000  1
  C  C18  1  0.07926500  0.81332600  0.50000000  1
  C  C19  1  0.68667400  0.42073500  0.50000000  1
  C  C20  1  0.92073500  0.18667400  0.50000000  1
  C  C21  1  0.31332600  0.57926500  0.50000000  1
  C  C22  1  0.57926500  0.68667400  0.50000000  1
  C  C23  1  0.42073500  0.31332600  0.50000000  1
  C  C24  1  0.22487700  0.72487700  0.00000000  1
  C  C25  1  0.77512300  0.27512300  0.00000000  1
  C  C26  1  0.72487700  0.77512300  0.00000000  1
  C  C27  1  0.27512300  0.22487700  0.00000000  1
  C  C28  1  0.50000000  0.00000000  0.50000000  1
  C  C29  1  0.00000000  0.50000000  0.50000000  1
  C  C30  1  0.05646300  0.12944000  0.00000000  1
  C  C31  1  0.94353700  0.87056000  0.00000000  1
  C  C32  1  0.12944000  0.94353700  0.00000000  1
  C  C33  1  0.55646300  0.37056000  0.00000000  1
  C  C34  1  0.87056000  0.05646300  0.00000000  1
  C  C35  1  0.44353700  0.62944000  0.00000000  1
  C  C36  1  0.62944000  0.55646300  0.00000000  1
  C  C37  1  0.37056000  0.44353700  0.00000000  1
  C  C38  1  0.34083400  0.99895500  0.00000000  1
  C  C39  1  0.65916600  0.00104500  0.00000000  1
  C  C40  1  0.99895500  0.65916600  0.00000000  1
  C  C41  1  0.84083400  0.50104500  0.00000000  1
  C  C42  1  0.00104500  0.34083400  0.00000000  1
  C  C43  1  0.15916600  0.49895500  0.00000000  1
  C  C44  1  0.49895500  0.84083400  0.00000000  1
  C  C45  1  0.50104500  0.15916600  0.00000000  1
