# generated using pymatgen
data_CuNi3C7
_symmetry_space_group_name_H-M   'P 1'
_cell_length_a   6.54324856
_cell_length_b   6.54324856
_cell_length_c   6.54324791
_cell_angle_alpha   72.28602149
_cell_angle_beta   72.28602149
_cell_angle_gamma   72.28602416
_symmetry_Int_Tables_number   1
_chemical_formula_structural   CuNi3C7
_chemical_formula_sum   'Cu2 Ni6 C14'
_cell_volume   247.19431747
_cell_formula_units_Z   2
loop_
 _symmetry_equiv_pos_site_id
 _symmetry_equiv_pos_as_xyz
  1  'x, y, z'
loop_
 _atom_site_type_symbol
 _atom_site_label
 _atom_site_symmetry_multiplicity
 _atom_site_fract_x
 _atom_site_fract_y
 _atom_site_fract_z
 _atom_site_occupancy
  Ni  Ni0  1  0.57934300  0.13977400  0.28534400  1
  Ni  Ni1  1  0.28534400  0.57934300  0.13977400  1
  Ni  Ni2  1  0.13977400  0.28534400  0.57934300  1
  Ni  Ni3  1  0.42065700  0.86022600  0.71465600  1
  Ni  Ni4  1  0.71465600  0.42065700  0.86022600  1
  Ni  Ni5  1  0.86022600  0.71465600  0.42065700  1
  Cu  Cu6  1  0.87455000  0.87455000  0.87455000  1
  Cu  Cu7  1  0.12545000  0.12545000  0.12545000  1
  C  C8  1  0.55510400  0.83787300  0.40578700  1
  C  C9  1  0.40578700  0.55510400  0.83787300  1
  C  C10  1  0.83787300  0.40578700  0.55510400  1
  C  C11  1  0.44489600  0.16212700  0.59421300  1
  C  C12  1  0.59421300  0.44489600  0.16212700  1
  C  C13  1  0.16212700  0.59421300  0.44489600  1
  C  C14  1  0.13166000  0.98121700  0.66686700  1
  C  C15  1  0.66686700  0.13166000  0.98121700  1
  C  C16  1  0.98121700  0.66686700  0.13166000  1
  C  C17  1  0.86834000  0.01878300  0.33313300  1
  C  C18  1  0.33313300  0.86834000  0.01878300  1
  C  C19  1  0.01878300  0.33313300  0.86834000  1
  C  C20  1  0.26465200  0.26465200  0.26465200  1
  C  C21  1  0.73534800  0.73534800  0.73534800  1
