# generated using pymatgen
data_Cu5Ni16C9
_symmetry_space_group_name_H-M   'P 1'
_cell_length_a   11.94968300
_cell_length_b   12.50305000
_cell_length_c   14.86236485
_cell_angle_alpha   65.85360503
_cell_angle_beta   90.00000000
_cell_angle_gamma   90.00000000
_symmetry_Int_Tables_number   1
_chemical_formula_structural   Cu5Ni16C9
_chemical_formula_sum   'Cu10 Ni32 C18'
_cell_volume   2026.25772453
_cell_formula_units_Z   2
loop_
 _symmetry_equiv_pos_site_id
 _symmetry_equiv_pos_as_xyz
  1  'x, y, z'
loop_
 _atom_site_type_symbol
 _atom_site_label
 _atom_site_symmetry_multiplicity
 _atom_site_fract_x
 _atom_site_fract_y
 _atom_site_fract_z
 _atom_site_occupancy
  C  C0  1  0.11548000  0.50494900  0.62831400  1
  C  C1  1  0.11548000  0.49505100  0.87168600  1
  C  C2  1  0.88452000  0.50494900  0.12831400  1
  C  C3  1  0.88452000  0.49505100  0.37168600  1
  C  C4  1  0.17579700  0.95073000  0.08669700  1
  C  C5  1  0.17579700  0.04927000  0.41330300  1
  C  C6  1  0.82420300  0.95073000  0.58669700  1
  C  C7  1  0.82420300  0.04927000  0.91330300  1
  C  C8  1  0.06073500  0.00000000  0.75000000  1
  C  C9  1  0.93926500  0.00000000  0.25000000  1
  C  C10  1  0.64538500  0.99715700  0.61991500  1
  C  C11  1  0.64538500  0.00284300  0.88008500  1
  C  C12  1  0.66041800  0.83212100  0.81166700  1
  C  C13  1  0.66041800  0.16787900  0.68833300  1
  C  C14  1  0.33958200  0.83212100  0.31166700  1
  C  C15  1  0.33958200  0.16787900  0.18833300  1
  C  C16  1  0.35461500  0.99715700  0.11991500  1
  C  C17  1  0.35461500  0.00284300  0.38008500  1
  Ni  Ni18  1  0.58410600  0.31532100  0.72141500  1
  Ni  Ni19  1  0.58410600  0.68467900  0.77858500  1
  Ni  Ni20  1  0.76696900  0.37768500  0.11543600  1
  Ni  Ni21  1  0.76696900  0.62231500  0.38456400  1
  Ni  Ni22  1  0.60871700  0.97057000  0.19379300  1
  Ni  Ni23  1  0.60871700  0.02943000  0.30620700  1
  Ni  Ni24  1  0.39200700  0.12890600  0.95334000  1
  Ni  Ni25  1  0.39200700  0.87109400  0.54666000  1
  Ni  Ni26  1  0.83983300  0.31557500  0.47153700  1
  Ni  Ni27  1  0.83983300  0.68442500  0.02846300  1
  Ni  Ni28  1  0.76211600  0.72931200  0.63747800  1
  Ni  Ni29  1  0.76211600  0.27068800  0.86252200  1
  Ni  Ni30  1  0.93847600  0.54032900  0.88004000  1
  Ni  Ni31  1  0.93847600  0.45967100  0.61996000  1
  Ni  Ni32  1  0.89658600  0.79275200  0.54726900  1
  Ni  Ni33  1  0.89658600  0.20724800  0.95273100  1
  Ni  Ni34  1  0.10341400  0.79275200  0.04726900  1
  Ni  Ni35  1  0.10341400  0.20724800  0.45273100  1
  Ni  Ni36  1  0.06152400  0.54032900  0.38004000  1
  Ni  Ni37  1  0.06152400  0.45967100  0.11996000  1
  Ni  Ni38  1  0.23788400  0.72931200  0.13747800  1
  Ni  Ni39  1  0.23788400  0.27068800  0.36252200  1
  Ni  Ni40  1  0.16016700  0.31557500  0.97153700  1
  Ni  Ni41  1  0.16016700  0.68442500  0.52846300  1
  Ni  Ni42  1  0.60799300  0.12890600  0.45334000  1
  Ni  Ni43  1  0.60799300  0.87109400  0.04666000  1
  Ni  Ni44  1  0.39128300  0.97057000  0.69379300  1
  Ni  Ni45  1  0.39128300  0.02943000  0.80620700  1
  Ni  Ni46  1  0.23303100  0.37768500  0.61543600  1
  Ni  Ni47  1  0.23303100  0.62231500  0.88456400  1
  Ni  Ni48  1  0.41589400  0.31532100  0.22141500  1
  Ni  Ni49  1  0.41589400  0.68467900  0.27858500  1
  Cu  Cu50  1  0.06071900  0.90980100  0.74269200  1
  Cu  Cu51  1  0.06071900  0.09019900  0.75730800  1
  Cu  Cu52  1  0.20395700  0.01075700  0.10807200  1
  Cu  Cu53  1  0.20395700  0.98924300  0.39192800  1
  Cu  Cu54  1  0.86936400  0.50000000  0.25000000  1
  Cu  Cu55  1  0.13063600  0.50000000  0.75000000  1
  Cu  Cu56  1  0.79604300  0.01075700  0.60807200  1
  Cu  Cu57  1  0.79604300  0.98924300  0.89192800  1
  Cu  Cu58  1  0.93928100  0.90980100  0.24269200  1
  Cu  Cu59  1  0.93928100  0.09019900  0.25730800  1
