# generated using pymatgen
data_CuNi3C
_symmetry_space_group_name_H-M   'P 1'
_cell_length_a   6.72096700
_cell_length_b   10.17082700
_cell_length_c   11.73324800
_cell_angle_alpha   90.00000000
_cell_angle_beta   90.00000000
_cell_angle_gamma   90.00000000
_symmetry_Int_Tables_number   1
_chemical_formula_structural   CuNi3C
_chemical_formula_sum   'Cu16 Ni48 C16'
_cell_volume   802.05893366
_cell_formula_units_Z   16
loop_
 _symmetry_equiv_pos_site_id
 _symmetry_equiv_pos_as_xyz
  1  'x, y, z'
loop_
 _atom_site_type_symbol
 _atom_site_label
 _atom_site_symmetry_multiplicity
 _atom_site_fract_x
 _atom_site_fract_y
 _atom_site_fract_z
 _atom_site_occupancy
  C  C0  1  0.57675000  0.45823600  0.27344900  1
  C  C1  1  0.07675000  0.54176400  0.72655100  1
  C  C2  1  0.07675000  0.95823600  0.22655100  1
  C  C3  1  0.57675000  0.04176400  0.77344900  1
  Ni  Ni4  1  0.72017500  0.29490700  0.18813300  1
  Ni  Ni5  1  0.22017500  0.70509300  0.81186700  1
  Ni  Ni6  1  0.22017500  0.79490700  0.31186700  1
  Ni  Ni7  1  0.72017500  0.20509300  0.68813300  1
  Ni  Ni8  1  0.85130600  0.35040300  0.30288800  1
  Ni  Ni9  1  0.35130600  0.64959700  0.69711200  1
  Ni  Ni10  1  0.35130600  0.85040300  0.19711200  1
  Ni  Ni11  1  0.85130600  0.14959700  0.80288800  1
  Ni  Ni12  1  0.85206700  0.43879500  0.17952100  1
  Ni  Ni13  1  0.35206700  0.56120500  0.82047900  1
  Ni  Ni14  1  0.35206700  0.93879500  0.32047900  1
  Ni  Ni15  1  0.85206700  0.06120500  0.67952100  1
  Ni  Ni16  1  0.50211800  0.15401100  0.38094500  1
  Ni  Ni17  1  0.00211800  0.84598900  0.61905500  1
  Ni  Ni18  1  0.00211800  0.65401100  0.11905500  1
  Ni  Ni19  1  0.50211800  0.34598900  0.88094500  1
  Ni  Ni20  1  0.50621300  0.06281900  0.49564800  1
  Ni  Ni21  1  0.00621300  0.93718100  0.50435200  1
  Ni  Ni22  1  0.00621300  0.56281900  0.00435200  1
  Ni  Ni23  1  0.50621300  0.43718100  0.99564800  1
  Ni  Ni24  1  0.66287400  0.03399600  0.39126400  1
  Ni  Ni25  1  0.16287400  0.96600400  0.60873600  1
  Ni  Ni26  1  0.16287400  0.53399600  0.10873600  1
  Ni  Ni27  1  0.66287400  0.46600400  0.89126400  1
  Ni  Ni28  1  0.47388500  0.12172700  0.14112200  1
  Ni  Ni29  1  0.97388500  0.87827300  0.85887800  1
  Ni  Ni30  1  0.97388500  0.62172700  0.35887800  1
  Ni  Ni31  1  0.47388500  0.37827300  0.64112200  1
  Ni  Ni32  1  0.61463300  0.13241000  0.02862000  1
  Ni  Ni33  1  0.11463300  0.86759000  0.97138000  1
  Ni  Ni34  1  0.11463300  0.63241000  0.47138000  1
  Ni  Ni35  1  0.61463300  0.36759000  0.52862000  1
  Ni  Ni36  1  0.69782700  0.05818200  0.14226900  1
  Ni  Ni37  1  0.19782700  0.94181800  0.85773100  1
  Ni  Ni38  1  0.19782700  0.55818200  0.35773100  1
  Ni  Ni39  1  0.69782700  0.44181800  0.64226900  1
  Ni  Ni40  1  0.52949400  0.67406100  0.49490600  1
  Ni  Ni41  1  0.02949400  0.32593900  0.50509400  1
  Ni  Ni42  1  0.02949400  0.17406100  0.00509400  1
  Ni  Ni43  1  0.52949400  0.82593900  0.99490600  1
  Ni  Ni44  1  0.66750100  0.70234200  0.60680600  1
  Ni  Ni45  1  0.16750100  0.29765800  0.39319400  1
  Ni  Ni46  1  0.16750100  0.20234200  0.89319400  1
  Ni  Ni47  1  0.66750100  0.79765800  0.10680600  1
  Ni  Ni48  1  0.50566400  0.81255500  0.56596800  1
  Ni  Ni49  1  0.00566400  0.18744500  0.43403200  1
  Ni  Ni50  1  0.00566400  0.31255500  0.93403200  1
  Ni  Ni51  1  0.50566400  0.68744500  0.06596800  1
  Cu  Cu52  1  0.76346600  0.37994400  0.23312400  1
  Cu  Cu53  1  0.26346600  0.62005600  0.76687600  1
  Cu  Cu54  1  0.26346600  0.87994400  0.26687600  1
  Cu  Cu55  1  0.76346600  0.12005600  0.73312400  1
  Cu  Cu56  1  0.51838400  0.05941500  0.40875700  1
  Cu  Cu57  1  0.01838400  0.94058500  0.59124300  1
  Cu  Cu58  1  0.01838400  0.55941500  0.09124300  1
  Cu  Cu59  1  0.51838400  0.44058500  0.90875700  1
  Cu  Cu60  1  0.61753200  0.13787500  0.11593000  1
  Cu  Cu61  1  0.11753200  0.86212500  0.88407000  1
  Cu  Cu62  1  0.11753200  0.63787500  0.38407000  1
  Cu  Cu63  1  0.61753200  0.36212500  0.61593000  1
  Cu  Cu64  1  0.52665400  0.71358700  0.57512200  1
  Cu  Cu65  1  0.02665400  0.28641300  0.42487800  1
  Cu  Cu66  1  0.02665400  0.21358700  0.92487800  1
  Cu  Cu67  1  0.52665400  0.78641300  0.07512200  1
  C  C68  1  0.46319600  0.37873200  0.34941400  1
  C  C69  1  0.96319600  0.62126800  0.65058600  1
  C  C70  1  0.96319600  0.87873200  0.15058600  1
  C  C71  1  0.46319600  0.12126800  0.84941400  1
  C  C72  1  0.45732200  0.49058100  0.17737900  1
  C  C73  1  0.95732200  0.50941900  0.82262100  1
  C  C74  1  0.95732200  0.99058100  0.32262100  1
  C  C75  1  0.45732200  0.00941900  0.67737900  1
  C  C76  1  0.63705800  0.57404600  0.33011700  1
  C  C77  1  0.13705800  0.42595400  0.66988300  1
  C  C78  1  0.13705800  0.07404600  0.16988300  1
  C  C79  1  0.63705800  0.92595400  0.83011700  1
