# generated using pymatgen
data_Cu4Ni9C
_symmetry_space_group_name_H-M   'P 1'
_cell_length_a   8.64023251
_cell_length_b   8.64023251
_cell_length_c   8.63126900
_cell_angle_alpha   90.00000000
_cell_angle_beta   90.00000000
_cell_angle_gamma   120.00000394
_symmetry_Int_Tables_number   1
_chemical_formula_structural   Cu4Ni9C
_chemical_formula_sum   'Cu8 Ni18 C2'
_cell_volume   558.02817346
_cell_formula_units_Z   2
loop_
 _symmetry_equiv_pos_site_id
 _symmetry_equiv_pos_as_xyz
  1  'x, y, z'
loop_
 _atom_site_type_symbol
 _atom_site_label
 _atom_site_symmetry_multiplicity
 _atom_site_fract_x
 _atom_site_fract_y
 _atom_site_fract_z
 _atom_site_occupancy
  Ni  Ni0  1  0.19791700  0.80208300  0.45328400  1
  Ni  Ni1  1  0.19791700  0.39583300  0.45328400  1
  Ni  Ni2  1  0.60416700  0.80208300  0.45328400  1
  Ni  Ni3  1  0.80208300  0.19791700  0.54671600  1
  Ni  Ni4  1  0.80208300  0.60416700  0.54671600  1
  Ni  Ni5  1  0.39583300  0.19791700  0.54671600  1
  Ni  Ni6  1  0.80208300  0.19791700  0.95328400  1
  Ni  Ni7  1  0.80208300  0.60416700  0.95328400  1
  Ni  Ni8  1  0.39583300  0.19791700  0.95328400  1
  Ni  Ni9  1  0.19791700  0.80208300  0.04671600  1
  Ni  Ni10  1  0.19791700  0.39583300  0.04671600  1
  Ni  Ni11  1  0.60416700  0.80208300  0.04671600  1
  Ni  Ni12  1  0.53908000  0.46092000  0.25000000  1
  Ni  Ni13  1  0.53908000  0.07816000  0.25000000  1
  Ni  Ni14  1  0.92184000  0.46092000  0.25000000  1
  Ni  Ni15  1  0.46092000  0.53908000  0.75000000  1
  Ni  Ni16  1  0.46092000  0.92184000  0.75000000  1
  Ni  Ni17  1  0.07816000  0.53908000  0.75000000  1
  Cu  Cu18  1  0.88939200  0.11060800  0.25000000  1
  Cu  Cu19  1  0.88939200  0.77878300  0.25000000  1
  Cu  Cu20  1  0.22121700  0.11060800  0.25000000  1
  Cu  Cu21  1  0.11060800  0.88939200  0.75000000  1
  Cu  Cu22  1  0.11060800  0.22121700  0.75000000  1
  Cu  Cu23  1  0.77878300  0.88939200  0.75000000  1
  Cu  Cu24  1  0.00000000  0.00000000  0.50000000  1
  Cu  Cu25  1  0.00000000  0.00000000  0.00000000  1
  C  C26  1  0.33333300  0.66666700  0.25000000  1
  C  C27  1  0.66666700  0.33333300  0.75000000  1
