# generated using pymatgen
data_Cu3Ni9C5
_symmetry_space_group_name_H-M   'P 1'
_cell_length_a   14.63232597
_cell_length_b   14.63232597
_cell_length_c   7.47517600
_cell_angle_alpha   90.00000000
_cell_angle_beta   90.00000000
_cell_angle_gamma   119.99999987
_symmetry_Int_Tables_number   1
_chemical_formula_structural   Cu3Ni9C5
_chemical_formula_sum   'Cu18 Ni54 C30'
_cell_volume   1386.04965734
_cell_formula_units_Z   6
loop_
 _symmetry_equiv_pos_site_id
 _symmetry_equiv_pos_as_xyz
  1  'x, y, z'
loop_
 _atom_site_type_symbol
 _atom_site_label
 _atom_site_symmetry_multiplicity
 _atom_site_fract_x
 _atom_site_fract_y
 _atom_site_fract_z
 _atom_site_occupancy
  C  C0  1  0.35235900  0.02654700  0.95272600  1
  C  C1  1  0.67418800  0.64764100  0.95272600  1
  C  C2  1  0.97345300  0.32581200  0.95272600  1
  C  C3  1  0.64764100  0.97345300  0.45272600  1
  C  C4  1  0.32581200  0.35235900  0.45272600  1
  C  C5  1  0.02654700  0.67418800  0.45272600  1
  C  C6  1  0.64764100  0.97345300  0.04727400  1
  C  C7  1  0.32581200  0.35235900  0.04727400  1
  C  C8  1  0.02654700  0.67418800  0.04727400  1
  C  C9  1  0.35235900  0.02654700  0.54727400  1
  C  C10  1  0.67418800  0.64764100  0.54727400  1
  C  C11  1  0.97345300  0.32581200  0.54727400  1
  C  C12  1  0.45741000  0.89557500  0.75000000  1
  C  C13  1  0.43816500  0.54259000  0.75000000  1
  C  C14  1  0.10442500  0.56183500  0.75000000  1
  C  C15  1  0.54259000  0.10442500  0.25000000  1
  C  C16  1  0.56183500  0.45741000  0.25000000  1
  C  C17  1  0.89557500  0.43816500  0.25000000  1
  C  C18  1  0.24487400  0.11618200  0.25000000  1
  C  C19  1  0.87130900  0.75512600  0.25000000  1
  C  C20  1  0.88381800  0.12869100  0.25000000  1
  C  C21  1  0.75512600  0.88381800  0.75000000  1
  C  C22  1  0.12869100  0.24487400  0.75000000  1
  C  C23  1  0.11618200  0.87130900  0.75000000  1
  C  C24  1  0.43215100  0.26123500  0.75000000  1
  C  C25  1  0.82908500  0.56784900  0.75000000  1
  C  C26  1  0.73876500  0.17091500  0.75000000  1
  C  C27  1  0.56784900  0.73876500  0.25000000  1
  C  C28  1  0.17091500  0.43215100  0.25000000  1
  C  C29  1  0.26123500  0.82908500  0.25000000  1
  Ni  Ni30  1  0.39109400  0.14104200  0.75000000  1
  Ni  Ni31  1  0.74994800  0.60890600  0.75000000  1
  Ni  Ni32  1  0.85895800  0.25005200  0.75000000  1
  Ni  Ni33  1  0.60890600  0.85895800  0.25000000  1
  Ni  Ni34  1  0.25005200  0.39109400  0.25000000  1
  Ni  Ni35  1  0.14104200  0.74994800  0.25000000  1
  Ni  Ni36  1  0.42630400  0.98246100  0.75000000  1
  Ni  Ni37  1  0.55615700  0.57369600  0.75000000  1
  Ni  Ni38  1  0.01753900  0.44384300  0.75000000  1
  Ni  Ni39  1  0.57369600  0.01753900  0.25000000  1
  Ni  Ni40  1  0.44384300  0.42630400  0.25000000  1
  Ni  Ni41  1  0.98246100  0.55615700  0.25000000  1
  Ni  Ni42  1  0.29786100  0.89330500  0.07909900  1
  Ni  Ni43  1  0.59544400  0.70213900  0.07909900  1
  Ni  Ni44  1  0.10669500  0.40455600  0.07909900  1
  Ni  Ni45  1  0.70213900  0.10669500  0.57909900  1
  Ni  Ni46  1  0.40455600  0.29786100  0.57909900  1
  Ni  Ni47  1  0.89330500  0.59544400  0.57909900  1
  Ni  Ni48  1  0.70213900  0.10669500  0.92090100  1
  Ni  Ni49  1  0.40455600  0.29786100  0.92090100  1
  Ni  Ni50  1  0.89330500  0.59544400  0.92090100  1
  Ni  Ni51  1  0.29786100  0.89330500  0.42090100  1
  Ni  Ni52  1  0.59544400  0.70213900  0.42090100  1
  Ni  Ni53  1  0.10669500  0.40455600  0.42090100  1
  Ni  Ni54  1  0.48653500  0.10434900  0.07875500  1
  Ni  Ni55  1  0.61781400  0.51346500  0.07875500  1
  Ni  Ni56  1  0.89565100  0.38218600  0.07875500  1
  Ni  Ni57  1  0.51346500  0.89565100  0.57875500  1
  Ni  Ni58  1  0.38218600  0.48653500  0.57875500  1
  Ni  Ni59  1  0.10434900  0.61781400  0.57875500  1
  Ni  Ni60  1  0.51346500  0.89565100  0.92124500  1
  Ni  Ni61  1  0.38218600  0.48653500  0.92124500  1
  Ni  Ni62  1  0.10434900  0.61781400  0.92124500  1
  Ni  Ni63  1  0.48653500  0.10434900  0.42124500  1
  Ni  Ni64  1  0.61781400  0.51346500  0.42124500  1
  Ni  Ni65  1  0.89565100  0.38218600  0.42124500  1
  Ni  Ni66  1  0.27175200  0.07887100  0.07863000  1
  Ni  Ni67  1  0.80711900  0.72824800  0.07863000  1
  Ni  Ni68  1  0.92112900  0.19288100  0.07863000  1
  Ni  Ni69  1  0.72824800  0.92112900  0.57863000  1
  Ni  Ni70  1  0.19288100  0.27175200  0.57863000  1
  Ni  Ni71  1  0.07887100  0.80711900  0.57863000  1
  Ni  Ni72  1  0.72824800  0.92112900  0.92137000  1
  Ni  Ni73  1  0.19288100  0.27175200  0.92137000  1
  Ni  Ni74  1  0.07887100  0.80711900  0.92137000  1
  Ni  Ni75  1  0.27175200  0.07887100  0.42137000  1
  Ni  Ni76  1  0.80711900  0.72824800  0.42137000  1
  Ni  Ni77  1  0.92112900  0.19288100  0.42137000  1
  Ni  Ni78  1  0.23617300  0.94913500  0.75000000  1
  Ni  Ni79  1  0.71296100  0.76382700  0.75000000  1
  Ni  Ni80  1  0.05086500  0.28703900  0.75000000  1
  Ni  Ni81  1  0.76382700  0.05086500  0.25000000  1
  Ni  Ni82  1  0.28703900  0.23617300  0.25000000  1
  Ni  Ni83  1  0.94913500  0.71296100  0.25000000  1
  Cu  Cu84  1  0.06635500  0.94377000  0.75000000  1
  Cu  Cu85  1  0.87741600  0.93364500  0.75000000  1
  Cu  Cu86  1  0.05623000  0.12258400  0.75000000  1
  Cu  Cu87  1  0.93364500  0.05623000  0.25000000  1
  Cu  Cu88  1  0.12258400  0.06635500  0.25000000  1
  Cu  Cu89  1  0.94377000  0.87741600  0.25000000  1
  Cu  Cu90  1  0.35008200  0.78897900  0.75000000  1
  Cu  Cu91  1  0.43889700  0.64991800  0.75000000  1
  Cu  Cu92  1  0.21102100  0.56110300  0.75000000  1
  Cu  Cu93  1  0.64991800  0.21102100  0.25000000  1
  Cu  Cu94  1  0.56110300  0.35008200  0.25000000  1
  Cu  Cu95  1  0.78897900  0.43889700  0.25000000  1
  Cu  Cu96  1  0.31215700  0.75798300  0.25000000  1
  Cu  Cu97  1  0.44582600  0.68784300  0.25000000  1
  Cu  Cu98  1  0.24201700  0.55417400  0.25000000  1
  Cu  Cu99  1  0.68784300  0.24201700  0.75000000  1
  Cu  Cu100  1  0.55417400  0.31215700  0.75000000  1
  Cu  Cu101  1  0.75798300  0.44582600  0.75000000  1
