# generated using pymatgen
data_CuNi4C15
_symmetry_space_group_name_H-M   'P 1'
_cell_length_a   5.95635020
_cell_length_b   5.95635020
_cell_length_c   29.85948404
_cell_angle_alpha   89.07902810
_cell_angle_beta   89.07902810
_cell_angle_gamma   60.01110552
_symmetry_Int_Tables_number   1
_chemical_formula_structural   CuNi4C15
_chemical_formula_sum   'Cu3 Ni12 C45'
_cell_volume   917.37551794
_cell_formula_units_Z   3
loop_
 _symmetry_equiv_pos_site_id
 _symmetry_equiv_pos_as_xyz
  1  'x, y, z'
loop_
 _atom_site_type_symbol
 _atom_site_label
 _atom_site_symmetry_multiplicity
 _atom_site_fract_x
 _atom_site_fract_y
 _atom_site_fract_z
 _atom_site_occupancy
  Ni  Ni0  1  0.99792400  0.99792400  0.86805300  1
  Ni  Ni1  1  0.00207600  0.00207600  0.13194700  1
  Ni  Ni2  1  0.33334600  0.33334600  0.46384200  1
  Ni  Ni3  1  0.66665400  0.66665400  0.53615800  1
  Ni  Ni4  1  0.66814200  0.66814200  0.95012500  1
  Ni  Ni5  1  0.33185800  0.33185800  0.04987500  1
  Ni  Ni6  1  0.00238300  0.00238300  0.28363700  1
  Ni  Ni7  1  0.99761700  0.99761700  0.71636300  1
  Ni  Ni8  1  0.33652100  0.33652100  0.61644400  1
  Ni  Ni9  1  0.66347900  0.66347900  0.38355700  1
  Ni  Ni10  1  0.66450700  0.66450700  0.79605400  1
  Ni  Ni11  1  0.33549300  0.33549300  0.20394600  1
  Cu  Cu12  1  0.66795600  0.66795600  0.66671100  1
  Cu  Cu13  1  0.33204400  0.33204400  0.33328900  1
  Cu  Cu14  1  0.00000000  0.00000000  0.00000000  1
  C  C15  1  0.33243100  0.33243100  0.83363600  1
  C  C16  1  0.66756900  0.66756900  0.16636400  1
  C  C17  1  0.33675700  0.33675700  0.91900700  1
  C  C18  1  0.66324300  0.66324300  0.08099300  1
  C  C19  1  0.32908900  0.32908900  0.74780100  1
  C  C20  1  0.67091100  0.67091100  0.25219900  1
  C  C21  1  0.00630800  0.00630800  0.58578700  1
  C  C22  1  0.99369200  0.99369200  0.41421300  1
  C  C23  1  0.00000000  0.00000000  0.50000000  1
  C  C24  1  0.18203700  0.18203700  0.95908400  1
  C  C25  1  0.81796300  0.81796300  0.04091600  1
  C  C26  1  0.32864500  0.85147000  0.62136200  1
  C  C27  1  0.67135500  0.14853000  0.37863800  1
  C  C28  1  0.14853000  0.67135500  0.37863800  1
  C  C29  1  0.85147000  0.32864500  0.62136200  1
  C  C30  1  0.17612900  0.17612900  0.79294200  1
  C  C31  1  0.82387100  0.82387100  0.20705800  1
  C  C32  1  0.15783600  0.15783600  0.54013800  1
  C  C33  1  0.84216400  0.84216400  0.45986200  1
  C  C34  1  0.65671700  0.18050700  0.95526300  1
  C  C35  1  0.34328300  0.81949300  0.04473700  1
  C  C36  1  0.81949300  0.34328300  0.04473700  1
  C  C37  1  0.18050700  0.65671700  0.95526300  1
  C  C38  1  0.30670700  0.84372700  0.45624200  1
  C  C39  1  0.69329300  0.15627300  0.54375800  1
  C  C40  1  0.15627300  0.69329300  0.54375800  1
  C  C41  1  0.84372700  0.30670700  0.45624200  1
  C  C42  1  0.64080700  0.17700700  0.79038100  1
  C  C43  1  0.35919300  0.82299300  0.20961900  1
  C  C44  1  0.82299300  0.35919300  0.20961900  1
  C  C45  1  0.17700700  0.64080700  0.79038100  1
  C  C46  1  0.48425100  0.00874400  0.71171000  1
  C  C47  1  0.51574900  0.99125600  0.28829000  1
  C  C48  1  0.99125600  0.51574900  0.28829000  1
  C  C49  1  0.00874400  0.48425100  0.71171000  1
  C  C50  1  0.14581200  0.14581200  0.37272600  1
  C  C51  1  0.85418800  0.85418800  0.62727400  1
  C  C52  1  0.48970400  0.48970400  0.87360300  1
  C  C53  1  0.51029600  0.51029600  0.12639700  1
  C  C54  1  0.48353600  0.48353600  0.70703300  1
  C  C55  1  0.51646400  0.51646400  0.29296700  1
  C  C56  1  0.48900500  0.02400700  0.87664900  1
  C  C57  1  0.51099500  0.97599300  0.12335100  1
  C  C58  1  0.97599300  0.51099500  0.12335100  1
  C  C59  1  0.02400700  0.48900500  0.87664900  1
