# generated using pymatgen
data_Cu(NiC)3
_symmetry_space_group_name_H-M   'P 1'
_cell_length_a   8.24771906
_cell_length_b   17.79708434
_cell_length_c   17.81374904
_cell_angle_alpha   60.03094116
_cell_angle_beta   89.99350911
_cell_angle_gamma   89.98700606
_symmetry_Int_Tables_number   1
_chemical_formula_structural   Cu(NiC)3
_chemical_formula_sum   'Cu24 Ni72 C72'
_cell_volume   2265.18662868
_cell_formula_units_Z   24
loop_
 _symmetry_equiv_pos_site_id
 _symmetry_equiv_pos_as_xyz
  1  'x, y, z'
loop_
 _atom_site_type_symbol
 _atom_site_label
 _atom_site_symmetry_multiplicity
 _atom_site_fract_x
 _atom_site_fract_y
 _atom_site_fract_z
 _atom_site_occupancy
  C  C0  1  0.20336608  0.90149844  0.80990395  1
  C  C1  1  0.70336608  0.71140239  0.19009605  1
  C  C2  1  0.21626660  0.08831972  0.99640869  1
  C  C3  1  0.71626660  0.08472842  0.00359131  1
  C  C4  1  0.70651956  0.88596390  0.81537732  1
  C  C5  1  0.20651956  0.70134121  0.18462268  1
  C  C6  1  0.17736403  0.21350303  0.69160649  1
  C  C7  1  0.67736403  0.90510952  0.30839351  1
  C  C8  1  0.19153275  0.40433827  0.80778110  1
  C  C9  1  0.69153275  0.21211937  0.19221890  1
  C  C10  1  0.17434368  0.70958695  0.69005062  1
  C  C11  1  0.67434368  0.39963758  0.30994938  1
  C  C12  1  0.67634440  0.19890247  0.68460267  1
  C  C13  1  0.17634440  0.88350513  0.31539733  1
  C  C14  1  0.20522135  0.59056968  0.98886879  1
  C  C15  1  0.70522135  0.57943847  0.01113121  1
  C  C16  1  0.16389670  0.58185143  0.50630465  1
  C  C17  1  0.66389670  0.08815609  0.49369535  1
  C  C18  1  0.16277924  0.08333454  0.50757387  1
  C  C19  1  0.66277924  0.59090841  0.49242613  1
  C  C20  1  0.18924602  0.19745928  0.18769057  1
  C  C21  1  0.68924602  0.38514985  0.81230943  1
  C  C22  1  0.67301004  0.69955664  0.68754150  1
  C  C23  1  0.17301004  0.38709814  0.31245850  1
  C  C24  1  0.46751278  0.75608026  0.00239314  1
  C  C25  1  0.96751278  0.75847340  0.99760686  1
  C  C26  1  0.96415075  0.04043637  0.85963763  1
  C  C27  1  0.46415075  0.90007400  0.14036237  1
  C  C28  1  0.46839174  0.03517538  0.85878086  1
  C  C29  1  0.96839174  0.89395625  0.14121914  1
  C  C30  1  0.41780968  0.39948864  0.63858190  1
  C  C31  1  0.91780968  0.03807055  0.36141810  1
  C  C32  1  0.41980873  0.89834358  0.64169621  1
  C  C33  1  0.91980873  0.54003980  0.35830379  1
  C  C34  1  0.92032784  0.25787373  0.49907716  1
  C  C35  1  0.42032784  0.75695089  0.50092284  1
  C  C36  1  0.41090679  0.03298191  0.36100182  1
  C  C37  1  0.91090679  0.39398373  0.63899818  1
  C  C38  1  0.41608558  0.25638465  0.50174853  1
  C  C39  1  0.91608558  0.75813318  0.49825147  1
  C  C40  1  0.91247849  0.89362001  0.64179173  1
  C  C41  1  0.41247849  0.53541174  0.35820827  1
  C  C42  1  0.94430879  0.25640068  0.99917788  1
  C  C43  1  0.44430879  0.25557856  0.00082212  1
  C  C44  1  0.94475265  0.53867438  0.86059987  1
  C  C45  1  0.44475265  0.39927425  0.13940013  1
  C  C46  1  0.45620103  0.53306374  0.86074499  1
  C  C47  1  0.95620103  0.39380873  0.13925501  1
  C  C48  1  0.42008912  0.39774925  0.50006322  1
  C  C49  1  0.92008912  0.89781247  0.49993678  1
  C  C50  1  0.91929690  0.39901955  0.49706751  1
  C  C51  1  0.41929690  0.89608706  0.50293249  1
  C  C52  1  0.46466460  0.89771423  0.00154163  1
  C  C53  1  0.96466460  0.89925586  0.99845837  1
  C  C54  1  0.43203115  0.06099478  0.66967468  1
  C  C55  1  0.93203115  0.73066946  0.33032532  1
  C  C56  1  0.44617717  0.72773530  0.83413972  1
  C  C57  1  0.94617717  0.56187502  0.16586028  1
  C  C58  1  0.94905061  0.73180700  0.82963572  1
  C  C59  1  0.44905061  0.56144272  0.17036428  1
  C  C60  1  0.93038566  0.06283227  0.66665139  1
  C  C61  1  0.43038566  0.72948366  0.33334861  1
  C  C62  1  0.44602980  0.22999483  0.83203497  1
  C  C63  1  0.94602980  0.06202980  0.16796503  1
  C  C64  1  0.93290756  0.22870730  0.83215777  1
  C  C65  1  0.43290756  0.06086508  0.16784223  1
  C  C66  1  0.43367663  0.56024523  0.66853328  1
  C  C67  1  0.93367663  0.22877852  0.33146672  1
  C  C68  1  0.92420138  0.56053262  0.66767148  1
  C  C69  1  0.42420138  0.22820410  0.33232852  1
  C  C70  1  0.94473694  0.39779394  0.99753165  1
  C  C71  1  0.44473694  0.39532559  0.00246835  1
  Ni  Ni72  1  0.97591773  0.12780944  0.08350150  1
  Ni  Ni73  1  0.47591773  0.21131094  0.91649850  1
  Ni  Ni74  1  0.47446742  0.70612226  0.91993114  1
  Ni  Ni75  1  0.97446742  0.62605340  0.08006886  1
  Ni  Ni76  1  0.50439829  0.03020996  0.74992392  1
  Ni  Ni77  1  0.00439829  0.78013388  0.25007608  1
  Ni  Ni78  1  0.38092022  0.02984677  0.25197527  1
  Ni  Ni79  1  0.88092022  0.28182204  0.74802473  1
  Ni  Ni80  1  0.95846467  0.31773251  0.07255584  1
  Ni  Ni81  1  0.45846467  0.39028835  0.92744416  1
  Ni  Ni82  1  0.42093334  0.66284783  0.81354636  1
  Ni  Ni83  1  0.92093334  0.47639419  0.18645364  1
  Ni  Ni84  1  0.87206615  0.78129767  0.75099529  1
  Ni  Ni85  1  0.37206615  0.53229296  0.24900471  1
  Ni  Ni86  1  0.01604980  0.15293785  0.85458953  1
  Ni  Ni87  1  0.51604980  0.00752738  0.14541047  1
  Ni  Ni88  1  0.94788899  0.47322407  0.00296153  1
  Ni  Ni89  1  0.44788899  0.47618559  0.99703847  1
  Ni  Ni90  1  0.92979433  0.40302231  0.91755410  1
  Ni  Ni91  1  0.42979433  0.32057641  0.08244590  1
  Ni  Ni92  1  0.43988307  0.16449801  0.81181254  1
  Ni  Ni93  1  0.93988307  0.97631054  0.18818746  1
  Ni  Ni94  1  0.94875007  0.97779370  0.68548619  1
  Ni  Ni95  1  0.44875007  0.66327989  0.31451381  1
  Ni  Ni96  1  0.41514731  0.97640545  0.49845136  1
  Ni  Ni97  1  0.91514731  0.47485681  0.50154864  1
  Ni  Ni98  1  0.47299482  0.89218045  0.92657378  1
  Ni  Ni99  1  0.97299482  0.81875423  0.07342622  1
  Ni  Ni100  1  0.42015417  0.47864460  0.49445832  1
  Ni  Ni101  1  0.92015417  0.97310292  0.50554168  1
  Ni  Ni102  1  0.96540135  0.97452929  0.00405456  1
  Ni  Ni103  1  0.46540135  0.97858385  0.99594544  1
  Ni  Ni104  1  0.89648391  0.12797213  0.58232505  1
  Ni  Ni105  1  0.39648391  0.71029718  0.41767495  1
  Ni  Ni106  1  0.36336506  0.00465299  0.64649204  1
  Ni  Ni107  1  0.86336506  0.65114504  0.35350796  1
  Ni  Ni108  1  0.90958003  0.31921001  0.57265328  1
  Ni  Ni109  1  0.40958003  0.89186329  0.42734672  1
  Ni  Ni110  1  0.40936707  0.39238939  0.42497847  1
  Ni  Ni111  1  0.90936707  0.81736786  0.57502153  1
  Ni  Ni112  1  0.42134028  0.31564038  0.76767311  1
  Ni  Ni113  1  0.92134028  0.08331349  0.23232689  1
  Ni  Ni114  1  0.43079860  0.82065933  0.58272764  1
  Ni  Ni115  1  0.93079860  0.40338696  0.41727236  1
  Ni  Ni116  1  0.95635921  0.90469739  0.91824256  1
  Ni  Ni117  1  0.45635921  0.82293995  0.08175744  1
  Ni  Ni118  1  0.43760915  0.16316601  0.31138446  1
  Ni  Ni119  1  0.93760915  0.47455047  0.68861554  1
  Ni  Ni120  1  0.47336251  0.64880799  0.11624113  1
  Ni  Ni121  1  0.97336251  0.76504912  0.88375887  1
  Ni  Ni122  1  0.93629481  0.58245180  0.73202365  1
  Ni  Ni123  1  0.43629481  0.31447545  0.26797635  1
  Ni  Ni124  1  0.94744201  0.08425898  0.73113577  1
  Ni  Ni125  1  0.44744201  0.81539475  0.26886423  1
  Ni  Ni126  1  0.49040309  0.52981506  0.75189400  1
  Ni  Ni127  1  0.99040309  0.28170906  0.24810600  1
  Ni  Ni128  1  0.90000772  0.25155333  0.89393138  1
  Ni  Ni129  1  0.40000772  0.14548472  0.10606862  1
  Ni  Ni130  1  0.40163483  0.20789724  0.41803317  1
  Ni  Ni131  1  0.90163483  0.62593041  0.58196683  1
  Ni  Ni132  1  0.36196533  0.50420055  0.64603050  1
  Ni  Ni133  1  0.86196533  0.15023105  0.35396950  1
  Ni  Ni134  1  0.42976818  0.32297909  0.58018140  1
  Ni  Ni135  1  0.92976818  0.90316049  0.41981860  1
  Ni  Ni136  1  0.00613086  0.64996209  0.85315150  1
  Ni  Ni137  1  0.50613086  0.50311359  0.14684850  1
  Ni  Ni138  1  0.42669942  0.14871795  0.61328634  1
  Ni  Ni139  1  0.92669942  0.76200429  0.38671366  1
  Ni  Ni140  1  0.44000723  0.81413732  0.77034246  1
  Ni  Ni141  1  0.94000723  0.58447978  0.22965754  1
  Ni  Ni142  1  0.44631620  0.64667958  0.60879752  1
  Ni  Ni143  1  0.94631620  0.25547710  0.39120248  1
  Cu  Cu144  1  0.71745775  0.05523161  0.86349717  1
  Cu  Cu145  1  0.21745775  0.91872878  0.13650283  1
  Cu  Cu146  1  0.71934690  0.75444542  0.00050882  1
  Cu  Cu147  1  0.21934690  0.75495424  0.99949118  1
  Cu  Cu148  1  0.70203597  0.55733911  0.86406657  1
  Cu  Cu149  1  0.20203597  0.42140568  0.13593343  1
  Cu  Cu150  1  0.69371765  0.23995471  0.02487445  1
  Cu  Cu151  1  0.19371765  0.26482916  0.97512555  1
  Cu  Cu152  1  0.21809600  0.02935178  0.85189503  1
  Cu  Cu153  1  0.71809600  0.88124680  0.14810497  1
  Cu  Cu154  1  0.16216861  0.38583369  0.64014289  1
  Cu  Cu155  1  0.66216861  0.02597659  0.35985711  1
  Cu  Cu156  1  0.66501027  0.92044477  0.63589718  1
  Cu  Cu157  1  0.16501027  0.55634195  0.36410282  1
  Cu  Cu158  1  0.20336991  0.52516132  0.85560069  1
  Cu  Cu159  1  0.70336991  0.38076201  0.14439931  1
  Cu  Cu160  1  0.16470446  0.87495962  0.65427153  1
  Cu  Cu161  1  0.66470446  0.52923115  0.34572847  1
  Cu  Cu162  1  0.66712512  0.25912696  0.49022108  1
  Cu  Cu163  1  0.16712512  0.74934804  0.50977892  1
  Cu  Cu164  1  0.16212015  0.05517606  0.36321619  1
  Cu  Cu165  1  0.66212015  0.41839225  0.63678381  1
  Cu  Cu166  1  0.16722715  0.24888589  0.51395532  1
  Cu  Cu167  1  0.66722715  0.76284122  0.48604468  1
