# generated using pymatgen
data_Cu9Ni3C2
_symmetry_space_group_name_H-M   'P 1'
_cell_length_a   19.09881700
_cell_length_b   7.42308600
_cell_length_c   12.48644300
_cell_angle_alpha   90.00000000
_cell_angle_beta   90.00000000
_cell_angle_gamma   90.00000000
_symmetry_Int_Tables_number   1
_chemical_formula_structural   Cu9Ni3C2
_chemical_formula_sum   'Cu36 Ni12 C8'
_cell_volume   1770.23000843
_cell_formula_units_Z   4
loop_
 _symmetry_equiv_pos_site_id
 _symmetry_equiv_pos_as_xyz
  1  'x, y, z'
loop_
 _atom_site_type_symbol
 _atom_site_label
 _atom_site_symmetry_multiplicity
 _atom_site_fract_x
 _atom_site_fract_y
 _atom_site_fract_z
 _atom_site_occupancy
  C  C0  1  0.50570900  0.25000000  0.72992600  1
  C  C1  1  0.00570900  0.25000000  0.77007400  1
  C  C2  1  0.49429100  0.75000000  0.27007400  1
  C  C3  1  0.99429100  0.75000000  0.22992600  1
  C  C4  1  0.32919200  0.25000000  0.06915600  1
  C  C5  1  0.82919200  0.25000000  0.43084400  1
  C  C6  1  0.67080800  0.75000000  0.93084400  1
  C  C7  1  0.17080800  0.75000000  0.56915600  1
  Ni  Ni8  1  0.59617500  0.25000000  0.10516200  1
  Ni  Ni9  1  0.09617500  0.25000000  0.39483800  1
  Ni  Ni10  1  0.40382500  0.75000000  0.89483800  1
  Ni  Ni11  1  0.90382500  0.75000000  0.60516200  1
  Ni  Ni12  1  0.75975200  0.25000000  0.72498800  1
  Ni  Ni13  1  0.25975200  0.25000000  0.77501200  1
  Ni  Ni14  1  0.24024800  0.75000000  0.27501200  1
  Ni  Ni15  1  0.74024800  0.75000000  0.22498800  1
  Ni  Ni16  1  0.90427600  0.25000000  0.05448200  1
  Ni  Ni17  1  0.40427600  0.25000000  0.44551800  1
  Ni  Ni18  1  0.09572400  0.75000000  0.94551800  1
  Ni  Ni19  1  0.59572400  0.75000000  0.55448200  1
  Cu  Cu20  1  0.43868400  0.25000000  0.92216600  1
  Cu  Cu21  1  0.93868400  0.25000000  0.57783400  1
  Cu  Cu22  1  0.56131600  0.75000000  0.07783400  1
  Cu  Cu23  1  0.06131600  0.75000000  0.42216600  1
  Cu  Cu24  1  0.24758400  0.25000000  0.22474500  1
  Cu  Cu25  1  0.74758400  0.25000000  0.27525500  1
  Cu  Cu26  1  0.75241600  0.75000000  0.77525500  1
  Cu  Cu27  1  0.25241600  0.75000000  0.72474500  1
  Cu  Cu28  1  0.58572000  0.25000000  0.57292500  1
  Cu  Cu29  1  0.08572000  0.25000000  0.92707500  1
  Cu  Cu30  1  0.41428000  0.75000000  0.42707500  1
  Cu  Cu31  1  0.91428000  0.75000000  0.07292500  1
  Cu  Cu32  1  0.43088500  0.50031400  0.66542200  1
  Cu  Cu33  1  0.93088500  0.99968600  0.83457800  1
  Cu  Cu34  1  0.56911500  0.00031400  0.33457800  1
  Cu  Cu35  1  0.06911500  0.49968600  0.16542200  1
  Cu  Cu36  1  0.56911500  0.49968600  0.33457800  1
  Cu  Cu37  1  0.06911500  0.00031400  0.16542200  1
  Cu  Cu38  1  0.43088500  0.99968600  0.66542200  1
  Cu  Cu39  1  0.93088500  0.50031400  0.83457800  1
  Cu  Cu40  1  0.26899400  0.00086200  0.97152800  1
  Cu  Cu41  1  0.76899400  0.49913800  0.52847200  1
  Cu  Cu42  1  0.73100600  0.50086200  0.02847200  1
  Cu  Cu43  1  0.23100600  0.99913800  0.47152800  1
  Cu  Cu44  1  0.73100600  0.99913800  0.02847200  1
  Cu  Cu45  1  0.23100600  0.50086200  0.47152800  1
  Cu  Cu46  1  0.26899400  0.49913800  0.97152800  1
  Cu  Cu47  1  0.76899400  0.00086200  0.52847200  1
  Cu  Cu48  1  0.58962900  0.00285900  0.82493100  1
  Cu  Cu49  1  0.08962900  0.49714100  0.67506900  1
  Cu  Cu50  1  0.41037100  0.50285900  0.17506900  1
  Cu  Cu51  1  0.91037100  0.99714100  0.32493100  1
  Cu  Cu52  1  0.41037100  0.99714100  0.17506900  1
  Cu  Cu53  1  0.91037100  0.50285900  0.32493100  1
  Cu  Cu54  1  0.58962900  0.49714100  0.82493100  1
  Cu  Cu55  1  0.08962900  0.00285900  0.67506900  1
