# generated using pymatgen
data_Cu9Ni3C
_symmetry_space_group_name_H-M   'P 1'
_cell_length_a   10.87934572
_cell_length_b   10.87934572
_cell_length_c   13.05398020
_cell_angle_alpha   81.38533490
_cell_angle_beta   81.38533490
_cell_angle_gamma   102.07902255
_symmetry_Int_Tables_number   1
_chemical_formula_structural   Cu9Ni3C
_chemical_formula_sum   'Cu72 Ni24 C8'
_cell_volume   1467.36765743
_cell_formula_units_Z   8
loop_
 _symmetry_equiv_pos_site_id
 _symmetry_equiv_pos_as_xyz
  1  'x, y, z'
loop_
 _atom_site_type_symbol
 _atom_site_label
 _atom_site_symmetry_multiplicity
 _atom_site_fract_x
 _atom_site_fract_y
 _atom_site_fract_z
 _atom_site_occupancy
  C  C0  1  0.00000000  0.50000000  0.50000000  1
  C  C1  1  0.50000000  0.00000000  0.00000000  1
  C  C2  1  0.72388900  0.27611100  0.25000000  1
  C  C3  1  0.27611100  0.72388900  0.75000000  1
  C  C4  1  0.76188700  0.78371700  0.24917900  1
  C  C5  1  0.21628300  0.23811300  0.25082100  1
  C  C6  1  0.23811300  0.21628300  0.75082100  1
  C  C7  1  0.78371700  0.76188700  0.74917900  1
  Ni  Ni8  1  0.65110100  0.50469500  0.34362500  1
  Ni  Ni9  1  0.49530500  0.34889900  0.15637500  1
  Ni  Ni10  1  0.34889900  0.49530500  0.65637500  1
  Ni  Ni11  1  0.50469500  0.65110100  0.84362500  1
  Ni  Ni12  1  0.73728900  0.17094500  0.04824200  1
  Ni  Ni13  1  0.82905500  0.26271100  0.45175800  1
  Ni  Ni14  1  0.26271100  0.82905500  0.95175800  1
  Ni  Ni15  1  0.17094500  0.73728900  0.54824200  1
  Ni  Ni16  1  0.75999500  0.54159500  0.62771800  1
  Ni  Ni17  1  0.45840500  0.24000500  0.87228200  1
  Ni  Ni18  1  0.24000500  0.45840500  0.37228200  1
  Ni  Ni19  1  0.54159500  0.75999500  0.12771800  1
  Ni  Ni20  1  0.99298300  0.67831100  0.30036900  1
  Ni  Ni21  1  0.32168900  0.00701700  0.19963100  1
  Ni  Ni22  1  0.00701700  0.32168900  0.69963100  1
  Ni  Ni23  1  0.67831100  0.99298300  0.80036900  1
  Ni  Ni24  1  0.83370600  0.86326100  0.52052400  1
  Ni  Ni25  1  0.13673900  0.16629400  0.97947600  1
  Ni  Ni26  1  0.16629400  0.13673900  0.47947600  1
  Ni  Ni27  1  0.86326100  0.83370600  0.02052400  1
  Ni  Ni28  1  0.62037000  0.97845200  0.31947700  1
  Ni  Ni29  1  0.02154800  0.37963000  0.18052300  1
  Ni  Ni30  1  0.37963000  0.02154800  0.68052300  1
  Ni  Ni31  1  0.97845200  0.62037000  0.81947700  1
  Cu  Cu32  1  0.73982700  0.53726800  0.26007500  1
  Cu  Cu33  1  0.46273200  0.26017300  0.23992500  1
  Cu  Cu34  1  0.26017300  0.46273200  0.73992500  1
  Cu  Cu35  1  0.53726800  0.73982700  0.76007500  1
  Cu  Cu36  1  0.59990300  0.38755800  0.37602100  1
  Cu  Cu37  1  0.61244200  0.40009700  0.12397900  1
  Cu  Cu38  1  0.40009700  0.61244200  0.62397900  1
  Cu  Cu39  1  0.38755800  0.59990300  0.87602100  1
  Cu  Cu40  1  0.62007200  0.59075800  0.38835300  1
  Cu  Cu41  1  0.40924200  0.37992800  0.11164700  1
  Cu  Cu42  1  0.37992800  0.40924200  0.61164700  1
  Cu  Cu43  1  0.59075800  0.62007200  0.88835300  1
  Cu  Cu44  1  0.62770400  0.14465000  0.11264300  1
  Cu  Cu45  1  0.85535000  0.37229600  0.38735700  1
  Cu  Cu46  1  0.37229600  0.85535000  0.88735700  1
  Cu  Cu47  1  0.14465000  0.62770400  0.61264300  1
  Cu  Cu48  1  0.74418000  0.12170200  0.96828200  1
  Cu  Cu49  1  0.87829800  0.25582000  0.53171800  1
  Cu  Cu50  1  0.25582000  0.87829800  0.03171800  1
  Cu  Cu51  1  0.12170200  0.74418000  0.46828200  1
  Cu  Cu52  1  0.82999300  0.24456500  0.07135400  1
  Cu  Cu53  1  0.75543500  0.17000700  0.42864600  1
  Cu  Cu54  1  0.17000700  0.75543500  0.92864600  1
  Cu  Cu55  1  0.24456500  0.82999300  0.57135400  1
  Cu  Cu56  1  0.75203700  0.45771400  0.57168700  1
  Cu  Cu57  1  0.54228600  0.24796300  0.92831300  1
  Cu  Cu58  1  0.24796300  0.54228600  0.42831300  1
  Cu  Cu59  1  0.45771400  0.75203700  0.07168700  1
  Cu  Cu60  1  0.87093700  0.62083000  0.61832800  1
  Cu  Cu61  1  0.37917000  0.12906300  0.88167200  1
  Cu  Cu62  1  0.12906300  0.37917000  0.38167200  1
  Cu  Cu63  1  0.62083000  0.87093700  0.11832800  1
  Cu  Cu64  1  0.66908000  0.55458800  0.69224000  1
  Cu  Cu65  1  0.44541200  0.33092000  0.80776000  1
  Cu  Cu66  1  0.33092000  0.44541200  0.30776000  1
  Cu  Cu67  1  0.55458800  0.66908000  0.19224000  1
  Cu  Cu68  1  0.07938100  0.61877900  0.30466800  1
  Cu  Cu69  1  0.38122100  0.92061900  0.19533200  1
  Cu  Cu70  1  0.92061900  0.38122100  0.69533200  1
  Cu  Cu71  1  0.61877900  0.07938100  0.80466800  1
  Cu  Cu72  1  0.99112500  0.75831900  0.22079500  1
  Cu  Cu73  1  0.24168100  0.00887500  0.27920500  1
  Cu  Cu74  1  0.00887500  0.24168100  0.77920500  1
  Cu  Cu75  1  0.75831900  0.99112500  0.72079500  1
  Cu  Cu76  1  0.90119300  0.65545700  0.38085300  1
  Cu  Cu77  1  0.34454300  0.09880700  0.11914700  1
  Cu  Cu78  1  0.09880700  0.34454300  0.61914700  1
  Cu  Cu79  1  0.65545700  0.90119300  0.88085300  1
  Cu  Cu80  1  0.72136000  0.80565800  0.57298600  1
  Cu  Cu81  1  0.19434200  0.27864000  0.92701400  1
  Cu  Cu82  1  0.27864000  0.19434200  0.42701400  1
  Cu  Cu83  1  0.80565800  0.72136000  0.07298600  1
  Cu  Cu84  1  0.85482400  0.89109500  0.42253100  1
  Cu  Cu85  1  0.10890500  0.14517600  0.07746900  1
  Cu  Cu86  1  0.14517600  0.10890500  0.57746900  1
  Cu  Cu87  1  0.89109500  0.85482400  0.92253100  1
  Cu  Cu88  1  0.92160700  0.88778700  0.57449300  1
  Cu  Cu89  1  0.11221300  0.07839300  0.92550700  1
  Cu  Cu90  1  0.07839300  0.11221300  0.42550700  1
  Cu  Cu91  1  0.88778700  0.92160700  0.07449300  1
  Cu  Cu92  1  0.57675600  0.85921200  0.34611600  1
  Cu  Cu93  1  0.14078800  0.42324400  0.15388400  1
  Cu  Cu94  1  0.42324400  0.14078800  0.65388400  1
  Cu  Cu95  1  0.85921200  0.57675600  0.84611600  1
  Cu  Cu96  1  0.55700200  0.05758300  0.34111800  1
  Cu  Cu97  1  0.94241700  0.44299800  0.15888200  1
  Cu  Cu98  1  0.44299800  0.94241700  0.65888200  1
  Cu  Cu99  1  0.05758300  0.55700200  0.84111800  1
  Cu  Cu100  1  0.73615800  0.02040600  0.26550700  1
  Cu  Cu101  1  0.97959400  0.26384200  0.23449300  1
  Cu  Cu102  1  0.26384200  0.97959400  0.73449300  1
  Cu  Cu103  1  0.02040600  0.73615800  0.76550700  1
