# generated using pymatgen
data_Cu3Ni9C2
_symmetry_space_group_name_H-M   'P 1'
_cell_length_a   7.56713284
_cell_length_b   7.56713284
_cell_length_c   9.51937200
_cell_angle_alpha   90.00000000
_cell_angle_beta   90.00000000
_cell_angle_gamma   119.89044474
_symmetry_Int_Tables_number   1
_chemical_formula_structural   Cu3Ni9C2
_chemical_formula_sum   'Cu6 Ni18 C4'
_cell_volume   472.58510409
_cell_formula_units_Z   2
loop_
 _symmetry_equiv_pos_site_id
 _symmetry_equiv_pos_as_xyz
  1  'x, y, z'
loop_
 _atom_site_type_symbol
 _atom_site_label
 _atom_site_symmetry_multiplicity
 _atom_site_fract_x
 _atom_site_fract_y
 _atom_site_fract_z
 _atom_site_occupancy
  C  C0  1  0.99680400  0.66760800  0.25000000  1
  C  C1  1  0.00319600  0.33239200  0.75000000  1
  C  C2  1  0.66760800  0.99680400  0.25000000  1
  C  C3  1  0.33239200  0.00319600  0.75000000  1
  Ni  Ni4  1  0.12459400  0.12459400  0.25000000  1
  Ni  Ni5  1  0.87540600  0.87540600  0.75000000  1
  Ni  Ni6  1  0.99984500  0.33398600  0.07923100  1
  Ni  Ni7  1  0.00015500  0.66601400  0.92076900  1
  Ni  Ni8  1  0.00015500  0.66601400  0.57923100  1
  Ni  Ni9  1  0.33398600  0.99984500  0.42076900  1
  Ni  Ni10  1  0.99984500  0.33398600  0.42076900  1
  Ni  Ni11  1  0.66601400  0.00015500  0.57923100  1
  Ni  Ni12  1  0.66601400  0.00015500  0.92076900  1
  Ni  Ni13  1  0.33398600  0.99984500  0.07923100  1
  Ni  Ni14  1  0.33310600  0.33310600  0.56376300  1
  Ni  Ni15  1  0.66689400  0.66689400  0.43623700  1
  Ni  Ni16  1  0.66689400  0.66689400  0.06376300  1
  Ni  Ni17  1  0.33310600  0.33310600  0.93623700  1
  Ni  Ni18  1  0.33806100  0.54759500  0.25000000  1
  Ni  Ni19  1  0.66193900  0.45240500  0.75000000  1
  Ni  Ni20  1  0.54759500  0.33806100  0.25000000  1
  Ni  Ni21  1  0.45240500  0.66193900  0.75000000  1
  Cu  Cu22  1  0.67172100  0.32827900  0.00000000  1
  Cu  Cu23  1  0.32827900  0.67172100  0.00000000  1
  Cu  Cu24  1  0.32827900  0.67172100  0.50000000  1
  Cu  Cu25  1  0.67172100  0.32827900  0.50000000  1
  Cu  Cu26  1  0.00000000  0.00000000  0.00000000  1
  Cu  Cu27  1  0.00000000  0.00000000  0.50000000  1
