# generated using pymatgen
data_Cu3Ni5C21
_symmetry_space_group_name_H-M   'P 1'
_cell_length_a   9.86643900
_cell_length_b   13.19491100
_cell_length_c   13.30817900
_cell_angle_alpha   90.00000000
_cell_angle_beta   90.00000000
_cell_angle_gamma   90.00000000
_symmetry_Int_Tables_number   1
_chemical_formula_structural   Cu3Ni5C21
_chemical_formula_sum   'Cu12 Ni20 C84'
_cell_volume   1732.54903145
_cell_formula_units_Z   4
loop_
 _symmetry_equiv_pos_site_id
 _symmetry_equiv_pos_as_xyz
  1  'x, y, z'
loop_
 _atom_site_type_symbol
 _atom_site_label
 _atom_site_symmetry_multiplicity
 _atom_site_fract_x
 _atom_site_fract_y
 _atom_site_fract_z
 _atom_site_occupancy
  C  C0  1  0.37608300  0.73758200  0.89528200  1
  C  C1  1  0.62391700  0.23758200  0.10471800  1
  C  C2  1  0.87608300  0.23758200  0.60471800  1
  C  C3  1  0.12391700  0.73758200  0.39528200  1
  C  C4  1  0.75446900  0.70977500  0.76408300  1
  C  C5  1  0.24553100  0.20977500  0.23591700  1
  C  C6  1  0.25446900  0.20977500  0.73591700  1
  C  C7  1  0.74553100  0.70977500  0.26408300  1
  C  C8  1  0.74400200  0.57668000  0.79188200  1
  C  C9  1  0.25599800  0.07668000  0.20811800  1
  C  C10  1  0.24400200  0.07668000  0.70811800  1
  C  C11  1  0.75599800  0.57668000  0.29188200  1
  C  C12  1  0.66786100  0.62695500  0.67968100  1
  C  C13  1  0.33213900  0.12695500  0.32031900  1
  C  C14  1  0.16786100  0.12695500  0.82031900  1
  C  C15  1  0.83213900  0.62695500  0.17968100  1
  C  C16  1  0.08685400  0.91946600  0.84216900  1
  C  C17  1  0.91314600  0.41946600  0.15783100  1
  C  C18  1  0.58685400  0.41946600  0.65783100  1
  C  C19  1  0.41314600  0.91946600  0.34216900  1
  C  C20  1  0.07380300  0.87017600  0.71682900  1
  C  C21  1  0.92619700  0.37017600  0.28317100  1
  C  C22  1  0.57380300  0.37017600  0.78317100  1
  C  C23  1  0.42619700  0.87017600  0.21682900  1
  C  C24  1  0.97347400  0.81603400  0.81291000  1
  C  C25  1  0.02652600  0.31603400  0.18709000  1
  C  C26  1  0.47347400  0.31603400  0.68709000  1
  C  C27  1  0.52652600  0.81603400  0.31291000  1
  C  C28  1  0.99800700  0.62505300  0.91677000  1
  C  C29  1  0.00199300  0.12505300  0.08323000  1
  C  C30  1  0.49800700  0.12505300  0.58323000  1
  C  C31  1  0.50199300  0.62505300  0.41677000  1
  C  C32  1  0.04961900  0.58251200  0.03773800  1
  C  C33  1  0.95038100  0.08251200  0.96226200  1
  C  C34  1  0.54961900  0.08251200  0.46226200  1
  C  C35  1  0.45038100  0.58251200  0.53773800  1
  C  C36  1  0.97897100  0.70647500  0.02512000  1
  C  C37  1  0.02102900  0.20647500  0.97488000  1
  C  C38  1  0.47897100  0.20647500  0.47488000  1
  C  C39  1  0.52102900  0.70647500  0.52512000  1
  C  C40  1  0.72699500  0.79788300  0.02406100  1
  C  C41  1  0.27300500  0.29788300  0.97593900  1
  C  C42  1  0.22699500  0.29788300  0.47593900  1
  C  C43  1  0.77300500  0.79788300  0.52406100  1
  C  C44  1  0.75233600  0.90754000  0.94115700  1
  C  C45  1  0.24766400  0.40754000  0.05884300  1
  C  C46  1  0.25233600  0.40754000  0.55884300  1
  C  C47  1  0.74766400  0.90754000  0.44115700  1
  C  C48  1  0.66823100  0.92108000  0.05797600  1
  C  C49  1  0.33176900  0.42108000  0.94202400  1
  C  C50  1  0.16823100  0.42108000  0.44202400  1
  C  C51  1  0.83176900  0.92108000  0.55797600  1
  C  C52  1  0.63895900  0.89122900  0.73150300  1
  C  C53  1  0.36104100  0.39122900  0.26849700  1
  C  C54  1  0.13895900  0.39122900  0.76849700  1
  C  C55  1  0.86104100  0.89122900  0.23150300  1
  C  C56  1  0.54435300  0.87848500  0.61481800  1
  C  C57  1  0.45564700  0.37848500  0.38518200  1
  C  C58  1  0.04435300  0.37848500  0.88518200  1
  C  C59  1  0.95564700  0.87848500  0.11481800  1
  C  C60  1  0.49729400  0.96736800  0.71216500  1
  C  C61  1  0.50270600  0.46736900  0.28783500  1
  C  C62  1  0.99729400  0.46736900  0.78783500  1
  C  C63  1  0.00270600  0.96736800  0.21216500  1
  Ni  Ni64  1  0.68841800  0.64190700  0.75982500  1
  Ni  Ni65  1  0.31158200  0.14190700  0.24017500  1
  Ni  Ni66  1  0.18841800  0.14190700  0.74017500  1
  Ni  Ni67  1  0.81158200  0.64190700  0.25982500  1
  Ni  Ni68  1  0.07475300  0.84923900  0.79775200  1
  Ni  Ni69  1  0.92524700  0.34923900  0.20224800  1
  Ni  Ni70  1  0.57475300  0.34923900  0.70224800  1
  Ni  Ni71  1  0.42524700  0.84923900  0.29775200  1
  Ni  Ni72  1  0.04541700  0.65016600  0.98806100  1
  Ni  Ni73  1  0.95458300  0.15016600  0.01193900  1
  Ni  Ni74  1  0.54541700  0.15016600  0.51193900  1
  Ni  Ni75  1  0.45458300  0.65016600  0.48806100  1
  Ni  Ni76  1  0.68204700  0.86825000  0.99305700  1
  Ni  Ni77  1  0.31795300  0.36825000  0.00694300  1
  Ni  Ni78  1  0.18204700  0.36825000  0.50694300  1
  Ni  Ni79  1  0.81795300  0.86825000  0.49305700  1
  Ni  Ni80  1  0.53622900  0.88943800  0.69679200  1
  Ni  Ni81  1  0.46377100  0.38943800  0.30320800  1
  Ni  Ni82  1  0.03622900  0.38943800  0.80320800  1
  Ni  Ni83  1  0.96377100  0.88943800  0.19679200  1
  Cu  Cu84  1  0.50595600  0.61023700  0.08218500  1
  Cu  Cu85  1  0.49404400  0.11023700  0.91781500  1
  Cu  Cu86  1  0.00595600  0.11023700  0.41781500  1
  Cu  Cu87  1  0.99404400  0.61023700  0.58218500  1
  Cu  Cu88  1  0.33497200  0.95448400  0.01183400  1
  Cu  Cu89  1  0.66502800  0.45448400  0.98816600  1
  Cu  Cu90  1  0.83497200  0.45448400  0.48816600  1
  Cu  Cu91  1  0.16502800  0.95448400  0.51183400  1
  Cu  Cu92  1  0.36420100  0.53920500  0.77400600  1
  Cu  Cu93  1  0.63579900  0.03920500  0.22599400  1
  Cu  Cu94  1  0.86420100  0.03920500  0.72599400  1
  Cu  Cu95  1  0.13579900  0.53920500  0.27400600  1
  C  C96  1  0.17660300  0.77975600  0.81397000  1
  C  C97  1  0.82339700  0.27975600  0.18603000  1
  C  C98  1  0.67660300  0.27975600  0.68603000  1
  C  C99  1  0.32339700  0.77975600  0.31397000  1
  C  C100  1  0.57101000  0.66016800  0.81378900  1
  C  C101  1  0.42899000  0.16016800  0.18621100  1
  C  C102  1  0.07101000  0.16016800  0.68621100  1
  C  C103  1  0.92899000  0.66016800  0.31378900  1
  C  C104  1  0.17516900  0.68666200  0.97292700  1
  C  C105  1  0.82483100  0.18666200  0.02707300  1
  C  C106  1  0.67516900  0.18666200  0.52707300  1
  C  C107  1  0.32483100  0.68666200  0.47292700  1
  C  C108  1  0.45303900  0.81972100  0.74185600  1
  C  C109  1  0.54696100  0.31972100  0.25814400  1
  C  C110  1  0.95303900  0.31972100  0.75814400  1
  C  C111  1  0.04696100  0.81972100  0.24185600  1
  C  C112  1  0.55921100  0.84946500  0.94809500  1
  C  C113  1  0.44078900  0.34946500  0.05190500  1
  C  C114  1  0.05921100  0.34946500  0.55190500  1
  C  C115  1  0.94078900  0.84946500  0.44809500  1
