# generated using pymatgen
data_Cu(NiC6)2
_symmetry_space_group_name_H-M   'P 1'
_cell_length_a   5.54136760
_cell_length_b   5.54136760
_cell_length_c   6.76984800
_cell_angle_alpha   90.00000000
_cell_angle_beta   90.00000000
_cell_angle_gamma   119.99999525
_symmetry_Int_Tables_number   1
_chemical_formula_structural   Cu(NiC6)2
_chemical_formula_sum   'Cu1 Ni2 C12'
_cell_volume   180.02942433
_cell_formula_units_Z   1
loop_
 _symmetry_equiv_pos_site_id
 _symmetry_equiv_pos_as_xyz
  1  'x, y, z'
loop_
 _atom_site_type_symbol
 _atom_site_label
 _atom_site_symmetry_multiplicity
 _atom_site_fract_x
 _atom_site_fract_y
 _atom_site_fract_z
 _atom_site_occupancy
  Ni  Ni0  1  0.33333300  0.66666700  0.83500300  1
  Ni  Ni1  1  0.66666700  0.33333300  0.16499700  1
  Cu  Cu2  1  0.00000000  0.00000000  0.50000000  1
  C  C3  1  0.00000000  0.00000000  0.00000000  1
  C  C4  1  0.33333300  0.66666700  0.33156800  1
  C  C5  1  0.66666700  0.33333300  0.66843200  1
  C  C6  1  0.16404100  0.32808100  0.17301900  1
  C  C7  1  0.50000000  0.00000000  0.50000000  1
  C  C8  1  0.83595900  0.67191900  0.82698100  1
  C  C9  1  0.16404100  0.83595900  0.17301900  1
  C  C10  1  0.50000000  0.50000000  0.50000000  1
  C  C11  1  0.83595900  0.16404100  0.82698100  1
  C  C12  1  0.00000000  0.50000000  0.50000000  1
  C  C13  1  0.32808100  0.16404100  0.82698100  1
  C  C14  1  0.67191900  0.83595900  0.17301900  1
