# generated using pymatgen
data_Cu13NiC12
_symmetry_space_group_name_H-M   'P 1'
_cell_length_a   6.67449155
_cell_length_b   6.67449155
_cell_length_c   12.86579353
_cell_angle_alpha   91.92076613
_cell_angle_beta   91.92076613
_cell_angle_gamma   91.10199098
_symmetry_Int_Tables_number   1
_chemical_formula_structural   Cu13NiC12
_chemical_formula_sum   'Cu26 Ni2 C24'
_cell_volume   572.39336081
_cell_formula_units_Z   2
loop_
 _symmetry_equiv_pos_site_id
 _symmetry_equiv_pos_as_xyz
  1  'x, y, z'
loop_
 _atom_site_type_symbol
 _atom_site_label
 _atom_site_symmetry_multiplicity
 _atom_site_fract_x
 _atom_site_fract_y
 _atom_site_fract_z
 _atom_site_occupancy
  C  C0  1  0.09986800  0.36224900  0.40344500  1
  C  C1  1  0.36224900  0.09986800  0.90344500  1
  C  C2  1  0.61292900  0.09066300  0.61860900  1
  C  C3  1  0.09066300  0.61292900  0.11860900  1
  Ni  Ni4  1  0.97921500  0.64849900  0.65889700  1
  Ni  Ni5  1  0.64849900  0.97921500  0.15889700  1
  Cu  Cu6  1  0.70330600  0.56376600  0.55061200  1
  Cu  Cu7  1  0.56376600  0.70330600  0.05061200  1
  Cu  Cu8  1  0.37803100  0.65572100  0.57099100  1
  Cu  Cu9  1  0.65572100  0.37803100  0.07099100  1
  Cu  Cu10  1  0.43348300  0.71678900  0.45828900  1
  Cu  Cu11  1  0.71678900  0.43348300  0.95828900  1
  Cu  Cu12  1  0.14291700  0.06843900  0.67019700  1
  Cu  Cu13  1  0.06843900  0.14291700  0.17019700  1
  Cu  Cu14  1  0.22284700  0.29704000  0.68040300  1
  Cu  Cu15  1  0.29704000  0.22284700  0.18040300  1
  Cu  Cu16  1  0.37915100  0.79076900  0.30299200  1
  Cu  Cu17  1  0.79076900  0.37915100  0.80299200  1
  Cu  Cu18  1  0.16482000  0.82377600  0.35390500  1
  Cu  Cu19  1  0.82377600  0.16482000  0.85390500  1
  Cu  Cu20  1  0.96121100  0.92456200  0.48665300  1
  Cu  Cu21  1  0.92456200  0.96121100  0.98665300  1
  Cu  Cu22  1  0.84790300  0.94191900  0.37458200  1
  Cu  Cu23  1  0.94191900  0.84790300  0.87458200  1
  Cu  Cu24  1  0.52225100  0.10696700  0.36854500  1
  Cu  Cu25  1  0.10696700  0.52225100  0.86854500  1
  Cu  Cu26  1  0.57672800  0.32856000  0.39593800  1
  Cu  Cu27  1  0.32856000  0.57672800  0.89593800  1
  Cu  Cu28  1  0.69958600  0.62295000  0.29094500  1
  Cu  Cu29  1  0.62295000  0.69958600  0.79094500  1
  Cu  Cu30  1  0.67992400  0.40029300  0.24324200  1
  Cu  Cu31  1  0.40029300  0.67992400  0.74324200  1
  C  C32  1  0.89270300  0.61808800  0.78218300  1
  C  C33  1  0.61808800  0.89270300  0.28218300  1
  C  C34  1  0.95884200  0.88656100  0.61730200  1
  C  C35  1  0.88656100  0.95884200  0.11730200  1
  C  C36  1  0.82669500  0.48785400  0.57200000  1
  C  C37  1  0.48785400  0.82669500  0.07200000  1
  C  C38  1  0.21445300  0.55353000  0.64874500  1
  C  C39  1  0.55353000  0.21445300  0.14874500  1
  C  C40  1  0.49214700  0.70716000  0.52919100  1
  C  C41  1  0.70716000  0.49214700  0.02919100  1
  C  C42  1  0.25235600  0.15747500  0.69966200  1
  C  C43  1  0.15747500  0.25235600  0.19966200  1
  C  C44  1  0.25981200  0.71984400  0.32980300  1
  C  C45  1  0.71984400  0.25981200  0.82980300  1
  C  C46  1  0.97641000  0.96731800  0.41309100  1
  C  C47  1  0.96731800  0.97641000  0.91309100  1
  C  C48  1  0.49658500  0.21553200  0.42052000  1
  C  C49  1  0.21553200  0.49658500  0.92052000  1
  C  C50  1  0.74526100  0.48433100  0.30018100  1
  C  C51  1  0.48433100  0.74526100  0.80018100  1
