# generated using pymatgen
data_Cu3NiC3
_symmetry_space_group_name_H-M   'P 1'
_cell_length_a   7.90651569
_cell_length_b   7.90651569
_cell_length_c   7.90651569
_cell_angle_alpha   120.23447302
_cell_angle_beta   119.75869297
_cell_angle_gamma   90.00641233
_symmetry_Int_Tables_number   1
_chemical_formula_structural   Cu3NiC3
_chemical_formula_sum   'Cu6 Ni2 C6'
_cell_volume   349.50507190
_cell_formula_units_Z   2
loop_
 _symmetry_equiv_pos_site_id
 _symmetry_equiv_pos_as_xyz
  1  'x, y, z'
loop_
 _atom_site_type_symbol
 _atom_site_label
 _atom_site_symmetry_multiplicity
 _atom_site_fract_x
 _atom_site_fract_y
 _atom_site_fract_z
 _atom_site_occupancy
  C  C0  1  0.61642900  0.11642900  0.50000000  1
  C  C1  1  0.87654800  0.87654800  0.00000000  1
  C  C2  1  0.25325900  0.50351700  0.74974200  1
  C  C3  1  0.75377500  0.50351700  0.25025800  1
  C  C4  1  0.25012500  0.50622700  0.25610200  1
  C  C5  1  0.25012500  0.99402300  0.74389800  1
  Ni  Ni6  1  0.49221400  0.25865500  0.23356000  1
  Ni  Ni7  1  0.02509500  0.25865500  0.76644000  1
  Cu  Cu8  1  0.48981200  0.26117800  0.77136600  1
  Cu  Cu9  1  0.48981200  0.71844700  0.22863400  1
  Cu  Cu10  1  0.00970500  0.74072800  0.26897700  1
  Cu  Cu11  1  0.47175100  0.74072800  0.73102300  1
  Cu  Cu12  1  0.01067400  0.73976600  0.72909200  1
  Cu  Cu13  1  0.01067400  0.28158200  0.27090800  1
