# generated using pymatgen
data_Cu2Ni10C
_symmetry_space_group_name_H-M   'P 1'
_cell_length_a   4.70482500
_cell_length_b   6.47927210
_cell_length_c   6.47927210
_cell_angle_alpha   97.15159834
_cell_angle_beta   111.28869097
_cell_angle_gamma   68.71130903
_symmetry_Int_Tables_number   1
_chemical_formula_structural   Cu2Ni10C
_chemical_formula_sum   'Cu2 Ni10 C1'
_cell_volume   171.47124408
_cell_formula_units_Z   1
loop_
 _symmetry_equiv_pos_site_id
 _symmetry_equiv_pos_as_xyz
  1  'x, y, z'
loop_
 _atom_site_type_symbol
 _atom_site_label
 _atom_site_symmetry_multiplicity
 _atom_site_fract_x
 _atom_site_fract_y
 _atom_site_fract_z
 _atom_site_occupancy
  C  C0  1  0.00000000  0.00000000  0.00000000  1
  Ni  Ni1  1  0.72024000  0.77976000  0.22024000  1
  Ni  Ni2  1  0.27976000  0.22024000  0.77976000  1
  Ni  Ni3  1  0.50000000  0.77202000  0.77202000  1
  Ni  Ni4  1  0.50000000  0.22798000  0.22798000  1
  Ni  Ni5  1  0.50000000  0.00000000  0.50000000  1
  Ni  Ni6  1  0.00000000  0.00000000  0.50000000  1
  Ni  Ni7  1  0.50000000  0.50000000  0.00000000  1
  Ni  Ni8  1  0.00000000  0.50000000  0.00000000  1
  Ni  Ni9  1  0.64079500  0.35920500  0.64079500  1
  Ni  Ni10  1  0.35920500  0.64079500  0.35920500  1
  Cu  Cu11  1  0.00000000  0.35735300  0.35735300  1
  Cu  Cu12  1  0.00000000  0.64264700  0.64264700  1
