# generated using pymatgen
data_Cu2Ni2C17
_symmetry_space_group_name_H-M   'P 1'
_cell_length_a   6.11126200
_cell_length_b   9.41686825
_cell_length_c   22.33569421
_cell_angle_alpha   116.66560748
_cell_angle_beta   90.00000000
_cell_angle_gamma   90.00000000
_symmetry_Int_Tables_number   1
_chemical_formula_structural   Cu2Ni2C17
_chemical_formula_sum   'Cu8 Ni8 C68'
_cell_volume   1148.68224390
_cell_formula_units_Z   4
loop_
 _symmetry_equiv_pos_site_id
 _symmetry_equiv_pos_as_xyz
  1  'x, y, z'
loop_
 _atom_site_type_symbol
 _atom_site_label
 _atom_site_symmetry_multiplicity
 _atom_site_fract_x
 _atom_site_fract_y
 _atom_site_fract_z
 _atom_site_occupancy
  C  C0  1  0.50000000  0.50000000  0.50000000  1
  C  C1  1  0.00000000  0.00000000  0.00000000  1
  C  C2  1  0.00000000  0.50000000  0.50000000  1
  C  C3  1  0.50000000  0.00000000  0.00000000  1
  C  C4  1  0.76815600  0.87603700  0.62359400  1
  C  C5  1  0.73184400  0.37603700  0.12359400  1
  C  C6  1  0.23184400  0.12396300  0.37640600  1
  C  C7  1  0.26815600  0.62396300  0.87640600  1
  C  C8  1  0.03608100  0.24868200  0.74901100  1
  C  C9  1  0.46391900  0.74868200  0.24901100  1
  C  C10  1  0.96391900  0.75131800  0.25098900  1
  C  C11  1  0.53608100  0.25131800  0.75098900  1
  Ni  Ni12  1  0.24606600  0.85522900  0.53719500  1
  Ni  Ni13  1  0.25393400  0.35522900  0.03719500  1
  Ni  Ni14  1  0.75393400  0.14477100  0.46280500  1
  Ni  Ni15  1  0.74606600  0.64477100  0.96280500  1
  Ni  Ni16  1  0.29020900  0.89486100  0.70955300  1
  Ni  Ni17  1  0.20979100  0.39486100  0.20955300  1
  Ni  Ni18  1  0.70979100  0.10513900  0.29044700  1
  Ni  Ni19  1  0.79020900  0.60513900  0.79044700  1
  Cu  Cu20  1  0.23475800  0.23074600  0.52839800  1
  Cu  Cu21  1  0.26524200  0.73074600  0.02839800  1
  Cu  Cu22  1  0.76524200  0.76925400  0.47160200  1
  Cu  Cu23  1  0.73475800  0.26925400  0.97160200  1
  Cu  Cu24  1  0.27702600  0.52180900  0.72455200  1
  Cu  Cu25  1  0.22297400  0.02180900  0.22455200  1
  Cu  Cu26  1  0.72297400  0.47819100  0.27544800  1
  Cu  Cu27  1  0.77702600  0.97819100  0.77544800  1
  C  C28  1  0.22311500  0.14694800  0.57264800  1
  C  C29  1  0.27688500  0.64694800  0.07264800  1
  C  C30  1  0.77688500  0.85305200  0.42735200  1
  C  C31  1  0.72311500  0.35305200  0.92735200  1
  C  C32  1  0.45705200  0.31669200  0.53534200  1
  C  C33  1  0.04294800  0.81669200  0.03534200  1
  C  C34  1  0.54294800  0.68330800  0.46465800  1
  C  C35  1  0.95705200  0.18330800  0.96465800  1
  C  C36  1  0.20898300  0.08957600  0.45426700  1
  C  C37  1  0.29101700  0.58957600  0.95426700  1
  C  C38  1  0.79101700  0.91042400  0.54573300  1
  C  C39  1  0.70898300  0.41042400  0.04573300  1
  C  C40  1  0.03374200  0.34287300  0.54132800  1
  C  C41  1  0.46625800  0.84287300  0.04132800  1
  C  C42  1  0.96625800  0.65712700  0.45867200  1
  C  C43  1  0.53374200  0.15712700  0.95867200  1
  C  C44  1  0.27761800  0.60630800  0.68052400  1
  C  C45  1  0.22238200  0.10630800  0.18052400  1
  C  C46  1  0.72238200  0.39369200  0.31947600  1
  C  C47  1  0.77761800  0.89369200  0.81947600  1
  C  C48  1  0.49649600  0.43232300  0.71834900  1
  C  C49  1  0.00350400  0.93232300  0.21834900  1
  C  C50  1  0.50350400  0.56767700  0.28165100  1
  C  C51  1  0.99649600  0.06767700  0.78165100  1
  C  C52  1  0.07235000  0.41197400  0.70941700  1
  C  C53  1  0.42765000  0.91197400  0.20941700  1
  C  C54  1  0.92765000  0.58802600  0.29058300  1
  C  C55  1  0.57235000  0.08802600  0.79058300  1
  C  C56  1  0.24832500  0.66037000  0.79890400  1
  C  C57  1  0.25167500  0.16037000  0.29890400  1
  C  C58  1  0.75167500  0.33963000  0.20109600  1
  C  C59  1  0.74832500  0.83963000  0.70109600  1
  C  C60  1  0.47123100  0.88481000  0.62098000  1
  C  C61  1  0.02876900  0.38481000  0.12098000  1
  C  C62  1  0.52876900  0.11519000  0.37902000  1
  C  C63  1  0.97123100  0.61519000  0.87902000  1
  C  C64  1  0.06512600  0.86895200  0.62620500  1
  C  C65  1  0.43487400  0.36895200  0.12620500  1
  C  C66  1  0.93487400  0.13104800  0.37379500  1
  C  C67  1  0.56512600  0.63104800  0.87379500  1
  C  C68  1  0.28799400  0.13216700  0.70387200  1
  C  C69  1  0.21200600  0.63216700  0.20387200  1
  C  C70  1  0.71200600  0.86783300  0.29612800  1
  C  C71  1  0.78799400  0.36783300  0.79612800  1
  C  C72  1  0.25139300  0.61944500  0.54462100  1
  C  C73  1  0.24860700  0.11944500  0.04462100  1
  C  C74  1  0.74860700  0.38055500  0.45537900  1
  C  C75  1  0.75139300  0.88055500  0.95537900  1
  C  C76  1  0.74390300  0.60537800  0.55737500  1
  C  C77  1  0.75609700  0.10537800  0.05737500  1
  C  C78  1  0.25609700  0.39462200  0.44262500  1
  C  C79  1  0.24390300  0.89462200  0.94262500  1
  C  C80  1  0.78174200  0.14868900  0.69256900  1
  C  C81  1  0.71825800  0.64868900  0.19256900  1
  C  C82  1  0.21825800  0.85131100  0.30743100  1
  C  C83  1  0.28174200  0.35131100  0.80743100  1
