# generated using pymatgen
data_Cu3NiC8
_symmetry_space_group_name_H-M   'P 1'
_cell_length_a   3.49765158
_cell_length_b   3.49765158
_cell_length_c   39.65271600
_cell_angle_alpha   90.00000000
_cell_angle_beta   90.00000000
_cell_angle_gamma   119.99999205
_symmetry_Int_Tables_number   1
_chemical_formula_structural   Cu3NiC8
_chemical_formula_sum   'Cu3 Ni1 C8'
_cell_volume   420.10388294
_cell_formula_units_Z   1
loop_
 _symmetry_equiv_pos_site_id
 _symmetry_equiv_pos_as_xyz
  1  'x, y, z'
loop_
 _atom_site_type_symbol
 _atom_site_label
 _atom_site_symmetry_multiplicity
 _atom_site_fract_x
 _atom_site_fract_y
 _atom_site_fract_z
 _atom_site_occupancy
  C  C0  1  0.00000000  0.00000000  0.70400100  1
  C  C1  1  0.33333300  0.66666700  0.04773900  1
  C  C2  1  0.33333300  0.66666700  0.42319500  1
  C  C3  1  0.33333300  0.66666700  0.14011700  1
  C  C4  1  0.33333300  0.66666700  0.51611900  1
  C  C5  1  0.00000000  0.00000000  0.61107300  1
  Ni  Ni6  1  0.00000000  0.00000000  0.09392100  1
  Cu  Cu7  1  0.00000000  0.00000000  0.46964200  1
  Cu  Cu8  1  0.33333300  0.66666700  0.28179600  1
  Cu  Cu9  1  0.33333300  0.66666700  0.65755200  1
  C  C10  1  0.00000000  0.00000000  0.32273300  1
  C  C11  1  0.00000000  0.00000000  0.24086000  1
