# generated using pymatgen
data_Cu2NiC19
_symmetry_space_group_name_H-M   'P 1'
_cell_length_a   9.48823924
_cell_length_b   9.48823924
_cell_length_c   15.87896100
_cell_angle_alpha   90.00000000
_cell_angle_beta   90.00000000
_cell_angle_gamma   119.99999470
_symmetry_Int_Tables_number   1
_chemical_formula_structural   Cu2NiC19
_chemical_formula_sum   'Cu12 Ni6 C114'
_cell_volume   1238.00953676
_cell_formula_units_Z   6
loop_
 _symmetry_equiv_pos_site_id
 _symmetry_equiv_pos_as_xyz
  1  'x, y, z'
loop_
 _atom_site_type_symbol
 _atom_site_label
 _atom_site_symmetry_multiplicity
 _atom_site_fract_x
 _atom_site_fract_y
 _atom_site_fract_z
 _atom_site_occupancy
  C  C0  1  0.22869000  0.45738000  0.25000000  1
  C  C1  1  0.54262000  0.77131000  0.58333300  1
  C  C2  1  0.77131000  0.54262000  0.75000000  1
  C  C3  1  0.45738000  0.22869000  0.08333300  1
  C  C4  1  0.22869000  0.77131000  0.91666700  1
  C  C5  1  0.77131000  0.22869000  0.41666700  1
  C  C6  1  0.54980700  0.09961400  0.25000000  1
  C  C7  1  0.90038600  0.45019300  0.58333300  1
  C  C8  1  0.45019300  0.90038600  0.75000000  1
  C  C9  1  0.09961400  0.54980700  0.08333300  1
  C  C10  1  0.54980700  0.45019300  0.91666700  1
  C  C11  1  0.45019300  0.54980700  0.41666700  1
  Ni  Ni12  1  0.84680800  0.69361700  0.25000000  1
  Ni  Ni13  1  0.30638300  0.15319200  0.58333300  1
  Ni  Ni14  1  0.15319200  0.30638300  0.75000000  1
  Ni  Ni15  1  0.69361700  0.84680800  0.08333300  1
  Ni  Ni16  1  0.84680800  0.15319200  0.91666700  1
  Ni  Ni17  1  0.15319200  0.84680800  0.41666700  1
  Cu  Cu18  1  0.39179100  0.16803900  0.41372400  1
  Cu  Cu19  1  0.83196100  0.22375300  0.74705700  1
  Cu  Cu20  1  0.60820900  0.83196100  0.91372400  1
  Cu  Cu21  1  0.16803900  0.39179100  0.91960900  1
  Cu  Cu22  1  0.77624700  0.60820900  0.08039100  1
  Cu  Cu23  1  0.16803900  0.77624700  0.24705700  1
  Cu  Cu24  1  0.22375300  0.83196100  0.58627600  1
  Cu  Cu25  1  0.83196100  0.60820900  0.41960900  1
  Cu  Cu26  1  0.22375300  0.39179100  0.58039100  1
  Cu  Cu27  1  0.77624700  0.16803900  0.08627600  1
  Cu  Cu28  1  0.60820900  0.77624700  0.25294300  1
  Cu  Cu29  1  0.39179100  0.22375300  0.75294300  1
  C  C30  1  0.30346900  0.43857400  0.06879100  1
  C  C31  1  0.56142600  0.86489500  0.40212400  1
  C  C32  1  0.69653100  0.56142600  0.56879100  1
  C  C33  1  0.43857400  0.30346900  0.26454200  1
  C  C34  1  0.13510500  0.69653100  0.73545800  1
  C  C35  1  0.43857400  0.13510500  0.90212400  1
  C  C36  1  0.86489500  0.56142600  0.93120900  1
  C  C37  1  0.56142600  0.69653100  0.76454200  1
  C  C38  1  0.86489500  0.30346900  0.23545800  1
  C  C39  1  0.13510500  0.43857400  0.43120900  1
  C  C40  1  0.69653100  0.13510500  0.59787600  1
  C  C41  1  0.30346900  0.86489500  0.09787600  1
  C  C42  1  0.14955100  0.11778000  0.04113900  1
  C  C43  1  0.88222000  0.03177100  0.37447200  1
  C  C44  1  0.85044900  0.88222000  0.54113900  1
  C  C45  1  0.11778000  0.14955100  0.29219500  1
  C  C46  1  0.96822900  0.85044900  0.70780500  1
  C  C47  1  0.11778000  0.96822900  0.87447200  1
  C  C48  1  0.03177100  0.88222000  0.95886100  1
  C  C49  1  0.88222000  0.85044900  0.79219500  1
  C  C50  1  0.03177100  0.14955100  0.20780500  1
  C  C51  1  0.96822900  0.11778000  0.45886100  1
  C  C52  1  0.85044900  0.96822900  0.62552800  1
  C  C53  1  0.14955100  0.03177100  0.12552800  1
  C  C54  1  0.39097300  0.59476600  0.12484100  1
  C  C55  1  0.40523400  0.79620700  0.45817500  1
  C  C56  1  0.60902700  0.40523400  0.62484100  1
  C  C57  1  0.59476600  0.39097300  0.20849200  1
  C  C58  1  0.20379300  0.60902700  0.79150800  1
  C  C59  1  0.59476600  0.20379300  0.95817500  1
  C  C60  1  0.79620700  0.40523400  0.87515900  1
  C  C61  1  0.40523400  0.60902700  0.70849200  1
  C  C62  1  0.79620700  0.39097300  0.29150800  1
  C  C63  1  0.20379300  0.59476600  0.37515900  1
  C  C64  1  0.60902700  0.20379300  0.54182500  1
  C  C65  1  0.39097300  0.79620700  0.04182500  1
  C  C66  1  0.42006000  0.18210700  0.51258500  1
  C  C67  1  0.81789300  0.23795300  0.84591800  1
  C  C68  1  0.57994000  0.81789300  0.01258500  1
  C  C69  1  0.18210700  0.42006000  0.82074900  1
  C  C70  1  0.76204700  0.57994000  0.17925100  1
  C  C71  1  0.18210700  0.76204700  0.34591800  1
  C  C72  1  0.23795300  0.81789300  0.48741500  1
  C  C73  1  0.81789300  0.57994000  0.32074900  1
  C  C74  1  0.23795300  0.42006000  0.67925100  1
  C  C75  1  0.76204700  0.18210700  0.98741500  1
  C  C76  1  0.57994000  0.76204700  0.15408200  1
  C  C77  1  0.42006000  0.23795300  0.65408200  1
  C  C78  1  0.28440800  0.49438500  0.11670600  1
  C  C79  1  0.50561500  0.79002300  0.45003900  1
  C  C80  1  0.71559200  0.50561500  0.61670600  1
  C  C81  1  0.49438500  0.28440800  0.21662700  1
  C  C82  1  0.20997700  0.71559200  0.78337300  1
  C  C83  1  0.49438500  0.20997700  0.95003900  1
  C  C84  1  0.79002300  0.50561500  0.88329400  1
  C  C85  1  0.50561500  0.71559200  0.71662700  1
  C  C86  1  0.79002300  0.28440800  0.28337300  1
  C  C87  1  0.20997700  0.49438500  0.38329400  1
  C  C88  1  0.71559200  0.20997700  0.54996100  1
  C  C89  1  0.28440800  0.79002300  0.04996100  1
  C  C90  1  0.21585000  0.01971800  0.39788300  1
  C  C91  1  0.98028200  0.19613200  0.73121700  1
  C  C92  1  0.78415000  0.98028200  0.89788300  1
  C  C93  1  0.01971800  0.21585000  0.93545000  1
  C  C94  1  0.80386800  0.78415000  0.06455000  1
  C  C95  1  0.01971800  0.80386800  0.23121700  1
  C  C96  1  0.19613200  0.98028200  0.60211700  1
  C  C97  1  0.98028200  0.78415000  0.43545000  1
  C  C98  1  0.19613200  0.21585000  0.56455000  1
  C  C99  1  0.80386800  0.01971800  0.10211700  1
  C  C100  1  0.78415000  0.80386800  0.26878300  1
  C  C101  1  0.21585000  0.19613200  0.76878300  1
  C  C102  1  0.61219100  0.13426200  0.12156400  1
  C  C103  1  0.86573800  0.47792900  0.45489700  1
  C  C104  1  0.38780900  0.86573800  0.62156400  1
  C  C105  1  0.13426200  0.61219100  0.21177000  1
  C  C106  1  0.52207100  0.38780900  0.78823000  1
  C  C107  1  0.13426200  0.52207100  0.95489700  1
  C  C108  1  0.47792900  0.86573800  0.87843600  1
  C  C109  1  0.86573800  0.38780900  0.71177000  1
  C  C110  1  0.47792900  0.61219100  0.28823000  1
  C  C111  1  0.52207100  0.13426200  0.37843600  1
  C  C112  1  0.38780900  0.52207100  0.54510300  1
  C  C113  1  0.61219100  0.47792900  0.04510300  1
  C  C114  1  0.39146100  0.31653400  0.37768700  1
  C  C115  1  0.68346600  0.07492700  0.71102000  1
  C  C116  1  0.60853900  0.68346600  0.87768700  1
  C  C117  1  0.31653400  0.39146100  0.95564700  1
  C  C118  1  0.92507300  0.60853900  0.04435300  1
  C  C119  1  0.31653400  0.92507300  0.21102000  1
  C  C120  1  0.07492700  0.68346600  0.62231300  1
  C  C121  1  0.68346600  0.60853900  0.45564700  1
  C  C122  1  0.07492700  0.39146100  0.54435300  1
  C  C123  1  0.92507300  0.31653400  0.12231300  1
  C  C124  1  0.60853900  0.92507300  0.28898000  1
  C  C125  1  0.39146100  0.07492700  0.78898000  1
  C  C126  1  0.10970900  0.21941800  0.25000000  1
  C  C127  1  0.78058200  0.89029100  0.58333300  1
  C  C128  1  0.89029100  0.78058200  0.75000000  1
  C  C129  1  0.21941800  0.10970900  0.08333300  1
  C  C130  1  0.10970900  0.89029100  0.91666700  1
  C  C131  1  0.89029100  0.10970900  0.41666700  1
