# generated using pymatgen
data_Cu3Ni9C2
_symmetry_space_group_name_H-M   'P 1'
_cell_length_a   7.68997601
_cell_length_b   7.68997601
_cell_length_c   9.49264200
_cell_angle_alpha   90.00000000
_cell_angle_beta   90.00000000
_cell_angle_gamma   119.81299576
_symmetry_Int_Tables_number   1
_chemical_formula_structural   Cu3Ni9C2
_chemical_formula_sum   'Cu6 Ni18 C4'
_cell_volume   487.06059926
_cell_formula_units_Z   2
loop_
 _symmetry_equiv_pos_site_id
 _symmetry_equiv_pos_as_xyz
  1  'x, y, z'
loop_
 _atom_site_type_symbol
 _atom_site_label
 _atom_site_symmetry_multiplicity
 _atom_site_fract_x
 _atom_site_fract_y
 _atom_site_fract_z
 _atom_site_occupancy
  C  C0  1  0.99721700  0.66826400  0.25000000  1
  C  C1  1  0.00278300  0.33173600  0.75000000  1
  C  C2  1  0.66826400  0.99721700  0.25000000  1
  C  C3  1  0.33173600  0.00278300  0.75000000  1
  Ni  Ni4  1  0.12904400  0.12904400  0.25000000  1
  Ni  Ni5  1  0.87095600  0.87095600  0.75000000  1
  Ni  Ni6  1  0.00100500  0.33422300  0.07924300  1
  Ni  Ni7  1  0.99899500  0.66577700  0.92075700  1
  Ni  Ni8  1  0.99899500  0.66577700  0.57924300  1
  Ni  Ni9  1  0.33422300  0.00100500  0.42075700  1
  Ni  Ni10  1  0.00100500  0.33422300  0.42075700  1
  Ni  Ni11  1  0.66577700  0.99899500  0.57924300  1
  Ni  Ni12  1  0.66577700  0.99899500  0.92075700  1
  Ni  Ni13  1  0.33422300  0.00100500  0.07924300  1
  Ni  Ni14  1  0.33384300  0.33384300  0.56424000  1
  Ni  Ni15  1  0.66615700  0.66615700  0.43576000  1
  Ni  Ni16  1  0.66615700  0.66615700  0.06424000  1
  Ni  Ni17  1  0.33384300  0.33384300  0.93576000  1
  Ni  Ni18  1  0.33909900  0.54401500  0.25000000  1
  Ni  Ni19  1  0.66090100  0.45598500  0.75000000  1
  Ni  Ni20  1  0.54401500  0.33909900  0.25000000  1
  Ni  Ni21  1  0.45598500  0.66090100  0.75000000  1
  Cu  Cu22  1  0.67157400  0.32842600  0.00000000  1
  Cu  Cu23  1  0.32842600  0.67157400  0.00000000  1
  Cu  Cu24  1  0.32842600  0.67157400  0.50000000  1
  Cu  Cu25  1  0.67157400  0.32842600  0.50000000  1
  Cu  Cu26  1  0.00000000  0.00000000  0.00000000  1
  Cu  Cu27  1  0.00000000  0.00000000  0.50000000  1
