# generated using pymatgen
data_Cu22Ni3
_symmetry_space_group_name_H-M   'P 1'
_cell_length_a   11.52731300
_cell_length_b   11.52731300
_cell_length_c   11.46028800
_cell_angle_alpha   90.00000000
_cell_angle_beta   90.00000000
_cell_angle_gamma   90.00000000
_symmetry_Int_Tables_number   1
_chemical_formula_structural   Cu22Ni3
_chemical_formula_sum   'Cu88 Ni12'
_cell_volume   1522.83097884
_cell_formula_units_Z   4
loop_
 _symmetry_equiv_pos_site_id
 _symmetry_equiv_pos_as_xyz
  1  'x, y, z'
loop_
 _atom_site_type_symbol
 _atom_site_label
 _atom_site_symmetry_multiplicity
 _atom_site_fract_x
 _atom_site_fract_y
 _atom_site_fract_z
 _atom_site_occupancy
  Ni  Ni0  1  0.08928700  0.34435700  0.00000000  1
  Ni  Ni1  1  0.91071300  0.65564300  0.00000000  1
  Ni  Ni2  1  0.34435700  0.91071300  0.50000000  1
  Ni  Ni3  1  0.58928700  0.15564300  0.00000000  1
  Ni  Ni4  1  0.65564300  0.08928700  0.50000000  1
  Ni  Ni5  1  0.41071300  0.84435700  0.00000000  1
  Ni  Ni6  1  0.84435700  0.58928700  0.50000000  1
  Ni  Ni7  1  0.15564300  0.41071300  0.50000000  1
  Ni  Ni8  1  0.00000000  0.00000000  0.25000000  1
  Ni  Ni9  1  0.00000000  0.00000000  0.75000000  1
  Ni  Ni10  1  0.50000000  0.50000000  0.75000000  1
  Ni  Ni11  1  0.50000000  0.50000000  0.25000000  1
  Cu  Cu12  1  0.23484100  0.04328500  0.31764000  1
  Cu  Cu13  1  0.76515900  0.95671500  0.68236000  1
  Cu  Cu14  1  0.76515900  0.95671500  0.31764000  1
  Cu  Cu15  1  0.04328500  0.76515900  0.81764000  1
  Cu  Cu16  1  0.73484100  0.45671500  0.68236000  1
  Cu  Cu17  1  0.23484100  0.04328500  0.68236000  1
  Cu  Cu18  1  0.95671500  0.23484100  0.18236000  1
  Cu  Cu19  1  0.26515900  0.54328500  0.31764000  1
  Cu  Cu20  1  0.95671500  0.23484100  0.81764000  1
  Cu  Cu21  1  0.26515900  0.54328500  0.68236000  1
  Cu  Cu22  1  0.04328500  0.76515900  0.18236000  1
  Cu  Cu23  1  0.73484100  0.45671500  0.31764000  1
  Cu  Cu24  1  0.54328500  0.73484100  0.18236000  1
  Cu  Cu25  1  0.45671500  0.26515900  0.81764000  1
  Cu  Cu26  1  0.45671500  0.26515900  0.18236000  1
  Cu  Cu27  1  0.54328500  0.73484100  0.81764000  1
  Cu  Cu28  1  0.32064300  0.24111600  0.00000000  1
  Cu  Cu29  1  0.67935700  0.75888400  0.00000000  1
  Cu  Cu30  1  0.24111600  0.67935700  0.50000000  1
  Cu  Cu31  1  0.82064300  0.25888400  0.00000000  1
  Cu  Cu32  1  0.75888400  0.32064300  0.50000000  1
  Cu  Cu33  1  0.17935700  0.74111600  0.00000000  1
  Cu  Cu34  1  0.74111600  0.82064300  0.50000000  1
  Cu  Cu35  1  0.25888400  0.17935700  0.50000000  1
  Cu  Cu36  1  0.39742500  0.05902100  0.11728200  1
  Cu  Cu37  1  0.60257500  0.94097900  0.88271800  1
  Cu  Cu38  1  0.60257500  0.94097900  0.11728200  1
  Cu  Cu39  1  0.05902100  0.60257500  0.61728200  1
  Cu  Cu40  1  0.89742500  0.44097900  0.88271800  1
  Cu  Cu41  1  0.39742500  0.05902100  0.88271800  1
  Cu  Cu42  1  0.94097900  0.39742500  0.38271800  1
  Cu  Cu43  1  0.10257500  0.55902100  0.11728200  1
  Cu  Cu44  1  0.94097900  0.39742500  0.61728200  1
  Cu  Cu45  1  0.10257500  0.55902100  0.88271800  1
  Cu  Cu46  1  0.05902100  0.60257500  0.38271800  1
  Cu  Cu47  1  0.89742500  0.44097900  0.11728200  1
  Cu  Cu48  1  0.55902100  0.89742500  0.38271800  1
  Cu  Cu49  1  0.44097900  0.10257500  0.61728200  1
  Cu  Cu50  1  0.44097900  0.10257500  0.38271800  1
  Cu  Cu51  1  0.55902100  0.89742500  0.61728200  1
  Cu  Cu52  1  0.17177100  0.17322400  0.15154100  1
  Cu  Cu53  1  0.82822900  0.82677600  0.84845900  1
  Cu  Cu54  1  0.82822900  0.82677600  0.15154100  1
  Cu  Cu55  1  0.17322400  0.82822900  0.65154100  1
  Cu  Cu56  1  0.67177100  0.32677600  0.84845900  1
  Cu  Cu57  1  0.17177100  0.17322400  0.84845900  1
  Cu  Cu58  1  0.82677600  0.17177100  0.34845900  1
  Cu  Cu59  1  0.32822900  0.67322400  0.15154100  1
  Cu  Cu60  1  0.82677600  0.17177100  0.65154100  1
  Cu  Cu61  1  0.32822900  0.67322400  0.84845900  1
  Cu  Cu62  1  0.17322400  0.82822900  0.34845900  1
  Cu  Cu63  1  0.67177100  0.32677600  0.15154100  1
  Cu  Cu64  1  0.67322400  0.67177100  0.34845900  1
  Cu  Cu65  1  0.32677600  0.32822900  0.65154100  1
  Cu  Cu66  1  0.32677600  0.32822900  0.34845900  1
  Cu  Cu67  1  0.67322400  0.67177100  0.65154100  1
  Cu  Cu68  1  0.61989600  0.11989600  0.25000000  1
  Cu  Cu69  1  0.38010400  0.88010400  0.75000000  1
  Cu  Cu70  1  0.38010400  0.88010400  0.25000000  1
  Cu  Cu71  1  0.11989600  0.38010400  0.75000000  1
  Cu  Cu72  1  0.61989600  0.11989600  0.75000000  1
  Cu  Cu73  1  0.88010400  0.61989600  0.25000000  1
  Cu  Cu74  1  0.88010400  0.61989600  0.75000000  1
  Cu  Cu75  1  0.11989600  0.38010400  0.25000000  1
  Cu  Cu76  1  0.01157400  0.10496200  0.00000000  1
  Cu  Cu77  1  0.98842600  0.89503800  0.00000000  1
  Cu  Cu78  1  0.10496200  0.98842600  0.50000000  1
  Cu  Cu79  1  0.51157400  0.39503800  0.00000000  1
  Cu  Cu80  1  0.89503800  0.01157400  0.50000000  1
  Cu  Cu81  1  0.48842600  0.60496200  0.00000000  1
  Cu  Cu82  1  0.60496200  0.51157400  0.50000000  1
  Cu  Cu83  1  0.39503800  0.48842600  0.50000000  1
  Cu  Cu84  1  0.06375000  0.19997500  0.38398900  1
  Cu  Cu85  1  0.93625000  0.80002500  0.61601100  1
  Cu  Cu86  1  0.93625000  0.80002500  0.38398900  1
  Cu  Cu87  1  0.19997500  0.93625000  0.88398900  1
  Cu  Cu88  1  0.56375000  0.30002500  0.61601100  1
  Cu  Cu89  1  0.06375000  0.19997500  0.61601100  1
  Cu  Cu90  1  0.80002500  0.06375000  0.11601100  1
  Cu  Cu91  1  0.43625000  0.69997500  0.38398900  1
  Cu  Cu92  1  0.80002500  0.06375000  0.88398900  1
  Cu  Cu93  1  0.43625000  0.69997500  0.61601100  1
  Cu  Cu94  1  0.19997500  0.93625000  0.11601100  1
  Cu  Cu95  1  0.56375000  0.30002500  0.38398900  1
  Cu  Cu96  1  0.69997500  0.56375000  0.11601100  1
  Cu  Cu97  1  0.30002500  0.43625000  0.88398900  1
  Cu  Cu98  1  0.30002500  0.43625000  0.11601100  1
  Cu  Cu99  1  0.69997500  0.56375000  0.88398900  1
