# generated using pymatgen
data_CuNiC10
_symmetry_space_group_name_H-M   'P 1'
_cell_length_a   9.74866924
_cell_length_b   9.74866924
_cell_length_c   6.18648300
_cell_angle_alpha   90.00000000
_cell_angle_beta   90.00000000
_cell_angle_gamma   119.99999487
_symmetry_Int_Tables_number   1
_chemical_formula_structural   CuNiC10
_chemical_formula_sum   'Cu2 Ni2 C20'
_cell_volume   509.17274596
_cell_formula_units_Z   2
loop_
 _symmetry_equiv_pos_site_id
 _symmetry_equiv_pos_as_xyz
  1  'x, y, z'
loop_
 _atom_site_type_symbol
 _atom_site_label
 _atom_site_symmetry_multiplicity
 _atom_site_fract_x
 _atom_site_fract_y
 _atom_site_fract_z
 _atom_site_occupancy
  C  C0  1  0.15452400  0.37421300  0.32147900  1
  C  C1  1  0.21968800  0.84547600  0.32147900  1
  C  C2  1  0.62578700  0.78031200  0.32147900  1
  C  C3  1  0.84547600  0.62578700  0.82147900  1
  C  C4  1  0.78031200  0.15452400  0.82147900  1
  C  C5  1  0.37421300  0.21968800  0.82147900  1
  Ni  Ni6  1  0.66666700  0.33333300  0.39511000  1
  Ni  Ni7  1  0.33333300  0.66666700  0.89511000  1
  Cu  Cu8  1  0.00000000  0.00000000  0.00592300  1
  Cu  Cu9  1  0.00000000  0.00000000  0.50592300  1
  C  C10  1  0.43250900  0.52052800  0.04853300  1
  C  C11  1  0.08801800  0.56749100  0.04853300  1
  C  C12  1  0.47947200  0.91198200  0.04853300  1
  C  C13  1  0.56749100  0.47947200  0.54853300  1
  C  C14  1  0.91198200  0.43250900  0.54853300  1
  C  C15  1  0.52052800  0.08801800  0.54853300  1
  C  C16  1  0.66666700  0.33333300  0.03042800  1
  C  C17  1  0.33333300  0.66666700  0.53042800  1
  C  C18  1  0.86841900  0.09664700  0.24094700  1
  C  C19  1  0.22822800  0.13158100  0.24094700  1
  C  C20  1  0.90335300  0.77177200  0.24094700  1
  C  C21  1  0.13158100  0.90335300  0.74094700  1
  C  C22  1  0.77177200  0.86841900  0.74094700  1
  C  C23  1  0.09664700  0.22822800  0.74094700  1
