# generated using pymatgen
data_Cu3(NiC6)2
_symmetry_space_group_name_H-M   'P 1'
_cell_length_a   6.98593800
_cell_length_b   8.70285898
_cell_length_c   10.40406948
_cell_angle_alpha   108.21124125
_cell_angle_beta   103.56792806
_cell_angle_gamma   103.98079800
_symmetry_Int_Tables_number   1
_chemical_formula_structural   Cu3(NiC6)2
_chemical_formula_sum   'Cu6 Ni4 C24'
_cell_volume   549.07448468
_cell_formula_units_Z   2
loop_
 _symmetry_equiv_pos_site_id
 _symmetry_equiv_pos_as_xyz
  1  'x, y, z'
loop_
 _atom_site_type_symbol
 _atom_site_label
 _atom_site_symmetry_multiplicity
 _atom_site_fract_x
 _atom_site_fract_y
 _atom_site_fract_z
 _atom_site_occupancy
  Ni  Ni0  1  0.37632100  0.95912500  0.60808500  1
  Ni  Ni1  1  0.62367900  0.04087500  0.39191500  1
  Ni  Ni2  1  0.04785200  0.20423700  0.01537600  1
  Ni  Ni3  1  0.95214800  0.79576300  0.98462400  1
  Cu  Cu4  1  0.88313900  0.90253500  0.66545100  1
  Cu  Cu5  1  0.11686100  0.09746500  0.33454900  1
  Cu  Cu6  1  0.21118700  0.66952700  0.26177900  1
  Cu  Cu7  1  0.78881300  0.33047300  0.73822100  1
  Cu  Cu8  1  0.59752700  0.25763700  0.13329400  1
  Cu  Cu9  1  0.40247300  0.74236300  0.86670600  1
  C  C10  1  0.06813000  0.05563700  0.13974900  1
  C  C11  1  0.93187000  0.94436300  0.86025100  1
  C  C12  1  0.56802200  0.13340800  0.24645600  1
  C  C13  1  0.43197800  0.86659200  0.75354400  1
  C  C14  1  0.16098200  0.44199200  0.16735500  1
  C  C15  1  0.83901800  0.55800800  0.83264500  1
  C  C16  1  0.97593100  0.25585300  0.83689400  1
  C  C17  1  0.02406900  0.74414700  0.16310600  1
  C  C18  1  0.23410400  0.80689600  0.96960600  1
  C  C19  1  0.76589600  0.19310400  0.03039400  1
  C  C20  1  0.87841500  0.00282100  0.36422200  1
  C  C21  1  0.12158500  0.99717900  0.63577800  1
  C  C22  1  0.53406000  0.21239100  0.73317300  1
  C  C23  1  0.46594000  0.78760900  0.26682700  1
  C  C24  1  0.33455800  0.22181200  0.01708900  1
  C  C25  1  0.66544200  0.77818800  0.98291100  1
  C  C26  1  0.33976500  0.04031800  0.42804200  1
  C  C27  1  0.66023500  0.95968200  0.57195800  1
  C  C28  1  0.22498400  0.72558100  0.44804900  1
  C  C29  1  0.77501600  0.27441900  0.55195100  1
  C  C30  1  0.72080900  0.47671900  0.24418300  1
  C  C31  1  0.27919100  0.52328100  0.75581700  1
  C  C32  1  0.18038600  0.31861700  0.41587500  1
  C  C33  1  0.81961400  0.68138300  0.58412500  1
