# generated using pymatgen
data_CuNi16C13
_symmetry_space_group_name_H-M   'P 1'
_cell_length_a   8.73934010
_cell_length_b   8.73934010
_cell_length_c   8.73934010
_cell_angle_alpha   95.58147895
_cell_angle_beta   95.58147895
_cell_angle_gamma   143.65640804
_symmetry_Int_Tables_number   1
_chemical_formula_structural   CuNi16C13
_chemical_formula_sum   'Cu1 Ni16 C13'
_cell_volume   375.83550981
_cell_formula_units_Z   1
loop_
 _symmetry_equiv_pos_site_id
 _symmetry_equiv_pos_as_xyz
  1  'x, y, z'
loop_
 _atom_site_type_symbol
 _atom_site_label
 _atom_site_symmetry_multiplicity
 _atom_site_fract_x
 _atom_site_fract_y
 _atom_site_fract_z
 _atom_site_occupancy
  C  C0  1  0.11215400  0.59666900  0.69446800  1
  C  C1  1  0.90220100  0.41768600  0.30553200  1
  C  C2  1  0.40333100  0.09779900  0.51548500  1
  C  C3  1  0.58231400  0.88784600  0.48451500  1
  C  C4  1  0.00000000  0.00000000  0.00000000  1
  C  C5  1  0.70469400  0.63739800  0.29878000  1
  C  C6  1  0.33861800  0.40591300  0.70122000  1
  C  C7  1  0.36260200  0.66138200  0.06729500  1
  C  C8  1  0.59408700  0.29530600  0.93270500  1
  C  C9  1  0.88622500  0.74269900  0.64974700  1
  C  C10  1  0.09295200  0.23647800  0.35025300  1
  C  C11  1  0.25730100  0.90704800  0.14352600  1
  C  C12  1  0.76352200  0.11377500  0.85647400  1
  Ni  Ni13  1  0.90362900  0.62566300  0.50420900  1
  Ni  Ni14  1  0.12145300  0.39942000  0.49579100  1
  Ni  Ni15  1  0.37433700  0.87854700  0.27796700  1
  Ni  Ni16  1  0.60058000  0.09637100  0.72203300  1
  Ni  Ni17  1  0.18707500  0.04709300  0.76368600  1
  Ni  Ni18  1  0.28340700  0.42338900  0.23631400  1
  Ni  Ni19  1  0.95290700  0.71659300  0.13998200  1
  Ni  Ni20  1  0.57661100  0.81292500  0.86001800  1
  Ni  Ni21  1  0.70784400  0.53661200  0.75964900  1
  Ni  Ni22  1  0.77696300  0.94819500  0.24035100  1
  Ni  Ni23  1  0.46338800  0.22303700  0.17123200  1
  Ni  Ni24  1  0.05180500  0.29215600  0.82876800  1
  Ni  Ni25  1  0.70352900  0.73579300  0.56188500  1
  Ni  Ni26  1  0.17390800  0.14164300  0.43811500  1
  Ni  Ni27  1  0.26420700  0.82609200  0.96773600  1
  Ni  Ni28  1  0.85835700  0.29647100  0.03226400  1
  Cu  Cu29  1  0.50000000  0.50000000  0.00000000  1
