# generated using pymatgen
data_Cu3(Ni3C11)5
_symmetry_space_group_name_H-M   'P 1'
_cell_length_a   8.61054474
_cell_length_b   8.61054474
_cell_length_c   23.10449386
_cell_angle_alpha   77.08508264
_cell_angle_beta   77.08508264
_cell_angle_gamma   36.95930614
_symmetry_Int_Tables_number   1
_chemical_formula_structural   Cu3(Ni3C11)5
_chemical_formula_sum   'Cu3 Ni15 C55'
_cell_volume   1000.93164104
_cell_formula_units_Z   1
loop_
 _symmetry_equiv_pos_site_id
 _symmetry_equiv_pos_as_xyz
  1  'x, y, z'
loop_
 _atom_site_type_symbol
 _atom_site_label
 _atom_site_symmetry_multiplicity
 _atom_site_fract_x
 _atom_site_fract_y
 _atom_site_fract_z
 _atom_site_occupancy
  C  C0  1  0.53931400  0.53931400  0.88199500  1
  C  C1  1  0.87539900  0.87539900  0.87531200  1
  C  C2  1  0.20773500  0.20773500  0.87534500  1
  C  C3  1  0.79226500  0.79226500  0.12465500  1
  C  C4  1  0.12460100  0.12460100  0.12468800  1
  C  C5  1  0.46068600  0.46068600  0.11800500  1
  C  C6  1  0.59374000  0.59374000  0.71847000  1
  C  C7  1  0.92767800  0.92767800  0.71703600  1
  C  C8  1  0.26104500  0.26104500  0.71709900  1
  C  C9  1  0.73895500  0.73895500  0.28290100  1
  C  C10  1  0.07232200  0.07232200  0.28296400  1
  C  C11  1  0.40626000  0.40626000  0.28153000  1
  C  C12  1  0.64233800  0.64233800  0.57258700  1
  C  C13  1  0.97588000  0.97588000  0.57239200  1
  C  C14  1  0.30933600  0.30933600  0.57235300  1
  C  C15  1  0.69066400  0.69066400  0.42764700  1
  C  C16  1  0.02412000  0.02412000  0.42760800  1
  C  C17  1  0.35766200  0.35766200  0.42741300  1
  Ni  Ni18  1  0.78521100  0.78521100  0.64432200  1
  Ni  Ni19  1  0.11850700  0.11850700  0.64432500  1
  Ni  Ni20  1  0.45194500  0.45194500  0.64434100  1
  Ni  Ni21  1  0.88149300  0.88149300  0.35567500  1
  Ni  Ni22  1  0.21478900  0.21478900  0.35567800  1
  Ni  Ni23  1  0.54805500  0.54805500  0.35565900  1
  Ni  Ni24  1  0.73796600  0.73796600  0.78482100  1
  Ni  Ni25  1  0.07145400  0.07145400  0.78549400  1
  Ni  Ni26  1  0.40550700  0.40550700  0.78482600  1
  Ni  Ni27  1  0.92854600  0.92854600  0.21450600  1
  Ni  Ni28  1  0.26203400  0.26203400  0.21517900  1
  Ni  Ni29  1  0.59449300  0.59449300  0.21517400  1
  Ni  Ni30  1  0.83332500  0.83332500  0.49998800  1
  Ni  Ni31  1  0.16667500  0.16667500  0.50001200  1
  Ni  Ni32  1  0.50000000  0.50000000  0.50000000  1
  Cu  Cu33  1  0.00000000  0.00000000  0.00000000  1
  Cu  Cu34  1  0.33819300  0.33819300  0.00000400  1
  Cu  Cu35  1  0.66180700  0.66180700  0.99999600  1
  C  C36  1  0.70069700  0.70069700  0.90915100  1
  C  C37  1  0.03053600  0.03053600  0.90839500  1
  C  C38  1  0.35987100  0.35987100  0.90914000  1
  C  C39  1  0.96946400  0.96946400  0.09160500  1
  C  C40  1  0.29930300  0.29930300  0.09084900  1
  C  C41  1  0.64012900  0.64012900  0.09086000  1
  C  C42  1  0.45206900  0.95279900  0.64252700  1
  C  C43  1  0.78672500  0.28515400  0.64252600  1
  C  C44  1  0.11864400  0.61950400  0.64257500  1
  C  C45  1  0.95279900  0.45206900  0.64252700  1
  C  C46  1  0.28515400  0.78672500  0.64252600  1
  C  C47  1  0.61950400  0.11864400  0.64257500  1
  C  C48  1  0.54793100  0.04720100  0.35747300  1
  C  C49  1  0.88135600  0.38049600  0.35742500  1
  C  C50  1  0.21327500  0.71484600  0.35747400  1
  C  C51  1  0.04720100  0.54793100  0.35747300  1
  C  C52  1  0.38049600  0.88135600  0.35742500  1
  C  C53  1  0.71484600  0.21327500  0.35747400  1
  C  C54  1  0.50000000  0.00000000  0.50000000  1
  C  C55  1  0.83335800  0.33336200  0.49998900  1
  C  C56  1  0.16664200  0.66663800  0.50001100  1
  C  C57  1  0.00000000  0.50000000  0.50000000  1
  C  C58  1  0.33336200  0.83335800  0.49998900  1
  C  C59  1  0.66663800  0.16664200  0.50001100  1
  C  C60  1  0.40491000  0.90773400  0.78317800  1
  C  C61  1  0.73992600  0.23667200  0.78317700  1
  C  C62  1  0.07180800  0.57219700  0.78378800  1
  C  C63  1  0.90773400  0.40491000  0.78317800  1
  C  C64  1  0.23667200  0.73992600  0.78317700  1
  C  C65  1  0.57219700  0.07180800  0.78378800  1
  C  C66  1  0.59509000  0.09226600  0.21682200  1
  C  C67  1  0.92819200  0.42780300  0.21621200  1
  C  C68  1  0.26007400  0.76332800  0.21682300  1
  C  C69  1  0.09226600  0.59509000  0.21682200  1
  C  C70  1  0.42780300  0.92819200  0.21621200  1
  C  C71  1  0.76332800  0.26007400  0.21682300  1
  C  C72  1  0.50000000  0.50000000  0.00000000  1
