# generated using pymatgen
data_Cu4NiC32
_symmetry_space_group_name_H-M   'P 1'
_cell_length_a   7.19989606
_cell_length_b   8.64754035
_cell_length_c   10.40677431
_cell_angle_alpha   89.22018527
_cell_angle_beta   103.67702050
_cell_angle_gamma   88.72178270
_symmetry_Int_Tables_number   1
_chemical_formula_structural   Cu4NiC32
_chemical_formula_sum   'Cu4 Ni1 C32'
_cell_volume   629.29167016
_cell_formula_units_Z   1
loop_
 _symmetry_equiv_pos_site_id
 _symmetry_equiv_pos_as_xyz
  1  'x, y, z'
loop_
 _atom_site_type_symbol
 _atom_site_label
 _atom_site_symmetry_multiplicity
 _atom_site_fract_x
 _atom_site_fract_y
 _atom_site_fract_z
 _atom_site_occupancy
  C  C0  1  0.95752638  0.68019723  0.59491319  1
  C  C1  1  0.08148437  0.33543238  0.89705386  1
  C  C2  1  0.96979104  0.74540407  0.13739233  1
  C  C3  1  0.02596664  0.23518463  0.36497092  1
  Ni  Ni4  1  0.95264424  0.99988467  0.75525558  1
  C  C5  1  0.49068369  0.47617613  0.67683448  1
  C  C6  1  0.50306610  0.97778180  0.82505181  1
  C  C7  1  0.51014102  0.51990081  0.31970735  1
  C  C8  1  0.48586285  0.02393609  0.17823125  1
  Cu  Cu9  1  0.59430342  0.14203902  0.55556841  1
  Cu  Cu10  1  0.40075525  0.65183238  0.94310087  1
  Cu  Cu11  1  0.39840694  0.85490278  0.45222825  1
  Cu  Cu12  1  0.60160777  0.35571259  0.04830360  1
  C  C13  1  0.84377908  0.11437528  0.59408986  1
  C  C14  1  0.16008822  0.65317092  0.92508443  1
  C  C15  1  0.17135522  0.86314355  0.44508765  1
  C  C16  1  0.83012445  0.35919405  0.06311649  1
  C  C17  1  0.52171380  0.20234110  0.70590702  1
  C  C18  1  0.45629803  0.71774150  0.78625371  1
  C  C19  1  0.43743291  0.79502439  0.29084611  1
  C  C20  1  0.55096919  0.29049782  0.20475175  1
  C  C21  1  0.22917573  0.45150777  0.61896893  1
  C  C22  1  0.78325973  0.95746817  0.86983793  1
  C  C23  1  0.77226992  0.54802560  0.36293378  1
  C  C24  1  0.22552151  0.06173260  0.12191319  1
  C  C25  1  0.74608269  0.98935160  0.23687645  1
  C  C26  1  0.24944914  0.49143492  0.26924573  1
  C  C27  1  0.22520807  0.00541496  0.77750487  1
  C  C28  1  0.75194091  0.49409775  0.73887840  1
  C  C29  1  0.54345810  0.55992359  0.10195131  1
  C  C30  1  0.45148275  0.06079756  0.39816312  1
  C  C31  1  0.54620223  0.35343283  0.49209984  1
  C  C32  1  0.54774727  0.92718429  0.61312635  1
  C  C33  1  0.52665448  0.15658779  0.98493509  1
  C  C34  1  0.48349550  0.65559651  0.51011611  1
  C  C35  1  0.47891179  0.85919859  0.00653275  1
  C  C36  1  0.44884057  0.43436927  0.88941621  1
