# generated using pymatgen
data_Cu2NiC11
_symmetry_space_group_name_H-M   'P 1'
_cell_length_a   7.96196501
_cell_length_b   7.96196501
_cell_length_c   7.96196469
_cell_angle_alpha   44.29613031
_cell_angle_beta   44.29613031
_cell_angle_gamma   44.29613210
_symmetry_Int_Tables_number   1
_chemical_formula_structural   Cu2NiC11
_chemical_formula_sum   'Cu2 Ni1 C11'
_cell_volume   223.72371423
_cell_formula_units_Z   1
loop_
 _symmetry_equiv_pos_site_id
 _symmetry_equiv_pos_as_xyz
  1  'x, y, z'
loop_
 _atom_site_type_symbol
 _atom_site_label
 _atom_site_symmetry_multiplicity
 _atom_site_fract_x
 _atom_site_fract_y
 _atom_site_fract_z
 _atom_site_occupancy
  Ni  Ni0  1  0.21464700  0.21464700  0.21464700  1
  Cu  Cu1  1  0.99926200  0.99926200  0.99926200  1
  Cu  Cu2  1  0.79235100  0.79235100  0.79235100  1
  C  C3  1  0.39070300  0.39070300  0.39070300  1
  C  C4  1  0.60423200  0.60423200  0.60423200  1
  C  C5  1  0.26534000  0.77230700  0.26534000  1
  C  C6  1  0.77230700  0.26534000  0.26534000  1
  C  C7  1  0.26534000  0.26534000  0.77230700  1
  C  C8  1  0.73455200  0.21802100  0.73455200  1
  C  C9  1  0.21802100  0.73455200  0.73455200  1
  C  C10  1  0.73455200  0.73455200  0.21802100  1
  C  C11  1  0.98826300  0.51021400  0.51021400  1
  C  C12  1  0.51021400  0.51021400  0.98826300  1
  C  C13  1  0.51021400  0.98826300  0.51021400  1
