# generated using pymatgen
data_Cu(Ni4C3)3
_symmetry_space_group_name_H-M   'P 1'
_cell_length_a   7.17266012
_cell_length_b   7.17266012
_cell_length_c   7.17266013
_cell_angle_alpha   109.36779358
_cell_angle_beta   109.36779358
_cell_angle_gamma   109.36778238
_symmetry_Int_Tables_number   1
_chemical_formula_structural   Cu(Ni4C3)3
_chemical_formula_sum   'Cu1 Ni12 C9'
_cell_volume   285.14836525
_cell_formula_units_Z   1
loop_
 _symmetry_equiv_pos_site_id
 _symmetry_equiv_pos_as_xyz
  1  'x, y, z'
loop_
 _atom_site_type_symbol
 _atom_site_label
 _atom_site_symmetry_multiplicity
 _atom_site_fract_x
 _atom_site_fract_y
 _atom_site_fract_z
 _atom_site_occupancy
  C  C0  1  0.00100500  0.35735200  0.00100500  1
  C  C1  1  0.00100500  0.00100500  0.35735200  1
  C  C2  1  0.35735200  0.00100500  0.00100500  1
  C  C3  1  0.49813500  0.25263200  0.74763800  1
  C  C4  1  0.25263200  0.74763800  0.49813500  1
  C  C5  1  0.74763800  0.49813500  0.25263200  1
  C  C6  1  0.74763800  0.25263200  0.49813500  1
  C  C7  1  0.49813500  0.74763800  0.25263200  1
  C  C8  1  0.25263200  0.49813500  0.74763800  1
  Ni  Ni9  1  0.44114500  0.71736000  0.44114500  1
  Ni  Ni10  1  0.71736000  0.44114500  0.44114500  1
  Ni  Ni11  1  0.44114500  0.44114500  0.71736000  1
  Ni  Ni12  1  0.72541200  0.27549300  0.72541200  1
  Ni  Ni13  1  0.99886400  0.55348500  0.27372600  1
  Ni  Ni14  1  0.27372600  0.55348500  0.99886400  1
  Ni  Ni15  1  0.27372600  0.99886400  0.55348500  1
  Ni  Ni16  1  0.99886400  0.27372600  0.55348500  1
  Ni  Ni17  1  0.72541200  0.72541200  0.27549300  1
  Ni  Ni18  1  0.55348500  0.99886400  0.27372600  1
  Ni  Ni19  1  0.27549300  0.72541200  0.72541200  1
  Ni  Ni20  1  0.55348500  0.27372600  0.99886400  1
  Cu  Cu21  1  0.02570800  0.02570800  0.02570800  1
