# generated using pymatgen
data_Cu13NiC5
_symmetry_space_group_name_H-M   'P 1'
_cell_length_a   6.38651641
_cell_length_b   6.38651641
_cell_length_c   12.78167912
_cell_angle_alpha   82.81479354
_cell_angle_beta   82.81479354
_cell_angle_gamma   82.82765268
_symmetry_Int_Tables_number   1
_chemical_formula_structural   Cu13NiC5
_chemical_formula_sum   'Cu26 Ni2 C10'
_cell_volume   510.00989574
_cell_formula_units_Z   2
loop_
 _symmetry_equiv_pos_site_id
 _symmetry_equiv_pos_as_xyz
  1  'x, y, z'
loop_
 _atom_site_type_symbol
 _atom_site_label
 _atom_site_symmetry_multiplicity
 _atom_site_fract_x
 _atom_site_fract_y
 _atom_site_fract_z
 _atom_site_occupancy
  C  C0  1  0.65757400  0.65757400  0.82859900  1
  C  C1  1  0.34318500  0.34318500  0.17164500  1
  C  C2  1  0.34190600  0.34190600  0.67074100  1
  C  C3  1  0.66001900  0.66001900  0.33023500  1
  C  C4  1  0.00153500  0.00153500  0.24809900  1
  C  C5  1  0.00276800  0.00276800  0.74717100  1
  C  C6  1  0.00188600  0.49577000  0.50020800  1
  C  C7  1  0.00234100  0.49489600  0.00199300  1
  C  C8  1  0.49489600  0.00234100  0.00199300  1
  C  C9  1  0.49577000  0.00188600  0.50020800  1
  Ni  Ni10  1  0.90579400  0.90579400  0.45252100  1
  Ni  Ni11  1  0.90704400  0.90704400  0.95398900  1
  Cu  Cu12  1  0.28807200  0.71383200  0.49812700  1
  Cu  Cu13  1  0.28287900  0.71621700  0.00120100  1
  Cu  Cu14  1  0.71340200  0.99767500  0.14463000  1
  Cu  Cu15  1  0.71643500  0.00077300  0.64079000  1
  Cu  Cu16  1  0.99901700  0.28685300  0.35691500  1
  Cu  Cu17  1  0.99973600  0.28422400  0.85820600  1
  Cu  Cu18  1  0.28685300  0.99901700  0.35691500  1
  Cu  Cu19  1  0.28422400  0.99973600  0.85820600  1
  Cu  Cu20  1  0.99767500  0.71340200  0.14463000  1
  Cu  Cu21  1  0.00077300  0.71643500  0.64079000  1
  Cu  Cu22  1  0.71621700  0.28287900  0.00120100  1
  Cu  Cu23  1  0.71383200  0.28807200  0.49812700  1
  Cu  Cu24  1  0.34711000  0.34711000  0.41961700  1
  Cu  Cu25  1  0.34421100  0.34421100  0.92047700  1
  Cu  Cu26  1  0.34660200  0.83954800  0.17415200  1
  Cu  Cu27  1  0.34459200  0.84046600  0.67134200  1
  Cu  Cu28  1  0.83954800  0.34660200  0.17415200  1
  Cu  Cu29  1  0.84046600  0.34459200  0.67134200  1
  Cu  Cu30  1  0.65617000  0.65617000  0.08029600  1
  Cu  Cu31  1  0.65569400  0.65569400  0.57491100  1
  Cu  Cu32  1  0.65588900  0.15523600  0.32793800  1
  Cu  Cu33  1  0.65631000  0.15539900  0.82815900  1
  Cu  Cu34  1  0.15523600  0.65588900  0.32793800  1
  Cu  Cu35  1  0.15539900  0.65631000  0.82815900  1
  Cu  Cu36  1  0.09418300  0.09418300  0.04843300  1
  Cu  Cu37  1  0.09475500  0.09475500  0.54594400  1
