# generated using pymatgen
data_Cu(NiC3)2
_symmetry_space_group_name_H-M   'P 1'
_cell_length_a   6.61751700
_cell_length_b   7.45618000
_cell_length_c   9.69899500
_cell_angle_alpha   90.00000000
_cell_angle_beta   90.00000000
_cell_angle_gamma   90.00000000
_symmetry_Int_Tables_number   1
_chemical_formula_structural   Cu(NiC3)2
_chemical_formula_sum   'Cu4 Ni8 C24'
_cell_volume   478.56197157
_cell_formula_units_Z   4
loop_
 _symmetry_equiv_pos_site_id
 _symmetry_equiv_pos_as_xyz
  1  'x, y, z'
loop_
 _atom_site_type_symbol
 _atom_site_label
 _atom_site_symmetry_multiplicity
 _atom_site_fract_x
 _atom_site_fract_y
 _atom_site_fract_z
 _atom_site_occupancy
  Ni  Ni0  1  0.58573500  0.52494200  0.82686200  1
  Ni  Ni1  1  0.41426500  0.47505800  0.17313800  1
  Ni  Ni2  1  0.08573500  0.47505800  0.67313800  1
  Ni  Ni3  1  0.41426500  0.02494200  0.17313800  1
  Ni  Ni4  1  0.91426500  0.52494200  0.32686200  1
  Ni  Ni5  1  0.58573500  0.97505800  0.82686200  1
  Ni  Ni6  1  0.91426500  0.97505800  0.32686200  1
  Ni  Ni7  1  0.08573500  0.02494200  0.67313800  1
  Cu  Cu8  1  0.09368700  0.75000000  0.97077800  1
  Cu  Cu9  1  0.90631300  0.25000000  0.02922200  1
  Cu  Cu10  1  0.59368700  0.25000000  0.52922200  1
  Cu  Cu11  1  0.40631300  0.75000000  0.47077800  1
  C  C12  1  0.81082400  0.75000000  0.60276900  1
  C  C13  1  0.18917600  0.25000000  0.39723100  1
  C  C14  1  0.31082400  0.25000000  0.89723100  1
  C  C15  1  0.68917600  0.75000000  0.10276900  1
  C  C16  1  0.32579000  0.75000000  0.71953000  1
  C  C17  1  0.67421000  0.25000000  0.28047000  1
  C  C18  1  0.82579000  0.25000000  0.78047000  1
  C  C19  1  0.17421000  0.75000000  0.21953000  1
  C  C20  1  0.68819900  0.56449800  0.56473400  1
  C  C21  1  0.31180100  0.43550200  0.43526600  1
  C  C22  1  0.18819900  0.43550200  0.93526600  1
  C  C23  1  0.31180100  0.06449800  0.43526600  1
  C  C24  1  0.81180100  0.56449800  0.06473400  1
  C  C25  1  0.68819900  0.93550200  0.56473400  1
  C  C26  1  0.81180100  0.93550200  0.06473400  1
  C  C27  1  0.18819900  0.06449800  0.93526600  1
  C  C28  1  0.02937400  0.75000000  0.51388900  1
  C  C29  1  0.97062600  0.25000000  0.48611100  1
  C  C30  1  0.52937400  0.25000000  0.98611100  1
  C  C31  1  0.47062600  0.75000000  0.01388900  1
  C  C32  1  0.87216500  0.75000000  0.76991600  1
  C  C33  1  0.12783500  0.25000000  0.23008400  1
  C  C34  1  0.37216500  0.25000000  0.73008400  1
  C  C35  1  0.62783500  0.75000000  0.26991600  1
