# generated using pymatgen
data_Cu(Ni3C)2
_symmetry_space_group_name_H-M   'P 1'
_cell_length_a   4.18336319
_cell_length_b   4.22802371
_cell_length_c   11.36514139
_cell_angle_alpha   90.00000000
_cell_angle_beta   100.60537942
_cell_angle_gamma   90.00000000
_symmetry_Int_Tables_number   1
_chemical_formula_structural   Cu(Ni3C)2
_chemical_formula_sum   'Cu1 Ni6 C2'
_cell_volume   197.58553559
_cell_formula_units_Z   1
loop_
 _symmetry_equiv_pos_site_id
 _symmetry_equiv_pos_as_xyz
  1  'x, y, z'
loop_
 _atom_site_type_symbol
 _atom_site_label
 _atom_site_symmetry_multiplicity
 _atom_site_fract_x
 _atom_site_fract_y
 _atom_site_fract_z
 _atom_site_occupancy
  C  C0  1  0.77884252  0.50000000  0.55768503  1
  C  C1  1  0.11671039  0.50000000  0.23342079  1
  Ni  Ni2  1  0.49215423  0.50000000  0.98430846  1
  Ni  Ni3  1  0.37988011  0.50000000  0.75976022  1
  Ni  Ni4  1  0.99126847  0.00000000  0.98253693  1
  Ni  Ni5  1  0.87902459  -0.00000000  0.75804918  1
  Ni  Ni6  1  0.67241510  0.00000000  0.34483020  1
  Ni  Ni7  1  0.23661637  -0.00000000  0.47323274  1
  Cu  Cu8  1  0.56008822  -0.00000000  0.12017645  1
