# generated using pymatgen
data_CuNiC20
_symmetry_space_group_name_H-M   'P 1'
_cell_length_a   9.88191700
_cell_length_b   8.02585300
_cell_length_c   10.78535546
_cell_angle_alpha   70.83710954
_cell_angle_beta   90.00000000
_cell_angle_gamma   90.00000000
_symmetry_Int_Tables_number   1
_chemical_formula_structural   CuNiC20
_chemical_formula_sum   'Cu2 Ni2 C40'
_cell_volume   807.99715096
_cell_formula_units_Z   2
loop_
 _symmetry_equiv_pos_site_id
 _symmetry_equiv_pos_as_xyz
  1  'x, y, z'
loop_
 _atom_site_type_symbol
 _atom_site_label
 _atom_site_symmetry_multiplicity
 _atom_site_fract_x
 _atom_site_fract_y
 _atom_site_fract_z
 _atom_site_occupancy
  Ni  Ni0  1  0.25000000  0.69174700  0.23145000  1
  Ni  Ni1  1  0.75000000  0.30825300  0.76855000  1
  Cu  Cu2  1  0.75000000  0.10890200  0.34357300  1
  Cu  Cu3  1  0.25000000  0.89109800  0.65642700  1
  C  C4  1  0.75000000  0.53256200  0.22849600  1
  C  C5  1  0.25000000  0.46743800  0.77150400  1
  C  C6  1  0.60208800  0.18942300  0.46656200  1
  C  C7  1  0.10208800  0.81057700  0.53343800  1
  C  C8  1  0.39791200  0.81057700  0.53343800  1
  C  C9  1  0.89791200  0.18942300  0.46656200  1
  C  C10  1  0.60350900  0.17255600  0.18114400  1
  C  C11  1  0.10350900  0.82744400  0.81885600  1
  C  C12  1  0.39649100  0.82744400  0.81885600  1
  C  C13  1  0.89649100  0.17255600  0.18114400  1
  C  C14  1  0.25000000  0.91102700  0.09598200  1
  C  C15  1  0.75000000  0.08897300  0.90401800  1
  C  C16  1  0.04432600  0.68834400  0.24560700  1
  C  C17  1  0.54432600  0.31165600  0.75439300  1
  C  C18  1  0.95567400  0.31165600  0.75439300  1
  C  C19  1  0.45567400  0.68834400  0.24560700  1
  C  C20  1  0.25000000  0.51592900  0.15095500  1
  C  C21  1  0.75000000  0.48407100  0.84904500  1
  C  C22  1  0.75000000  0.89045100  0.40667800  1
  C  C23  1  0.25000000  0.10954900  0.59332200  1
  C  C24  1  0.75000000  0.60375100  0.11104400  1
  C  C25  1  0.25000000  0.39624900  0.88895600  1
  C  C26  1  0.75000000  0.58388400  0.32221500  1
  C  C27  1  0.25000000  0.41611600  0.67778500  1
  C  C28  1  0.52360800  0.30939900  0.41505000  1
  C  C29  1  0.02360800  0.69060100  0.58495000  1
  C  C30  1  0.47639200  0.69060100  0.58495000  1
  C  C31  1  0.97639200  0.30939900  0.41505000  1
  C  C32  1  0.60919700  0.10213500  0.58408300  1
  C  C33  1  0.10919700  0.89786500  0.41591700  1
  C  C34  1  0.39080300  0.89786500  0.41591700  1
  C  C35  1  0.89080300  0.10213500  0.58408300  1
  C  C36  1  0.53916300  0.30887500  0.16053500  1
  C  C37  1  0.03916300  0.69112500  0.83946500  1
  C  C38  1  0.46083700  0.69112500  0.83946500  1
  C  C39  1  0.96083700  0.30887500  0.16053500  1
  C  C40  1  0.59887800  0.06524200  0.12324600  1
  C  C41  1  0.09887800  0.93475800  0.87675400  1
  C  C42  1  0.40112200  0.93475800  0.87675400  1
  C  C43  1  0.90112200  0.06524200  0.12324600  1
