# generated using pymatgen
data_CuNiC4
_symmetry_space_group_name_H-M   'P 1'
_cell_length_a   3.39981821
_cell_length_b   3.39981821
_cell_length_c   38.76360600
_cell_angle_alpha   90.00000000
_cell_angle_beta   90.00000000
_cell_angle_gamma   120.00000411
_symmetry_Int_Tables_number   1
_chemical_formula_structural   CuNiC4
_chemical_formula_sum   'Cu2 Ni2 C8'
_cell_volume   388.03077942
_cell_formula_units_Z   2
loop_
 _symmetry_equiv_pos_site_id
 _symmetry_equiv_pos_as_xyz
  1  'x, y, z'
loop_
 _atom_site_type_symbol
 _atom_site_label
 _atom_site_symmetry_multiplicity
 _atom_site_fract_x
 _atom_site_fract_y
 _atom_site_fract_z
 _atom_site_occupancy
  C  C0  1  0.00000000  0.00000000  0.70589600  1
  C  C1  1  0.33333300  0.66666700  0.42099900  1
  C  C2  1  0.33333300  0.66666700  0.51811400  1
  C  C3  1  0.00000000  0.00000000  0.60932400  1
  C  C4  1  0.00000000  0.00000000  0.09393700  1
  C  C5  1  0.33333300  0.66666700  0.28182200  1
  C  C6  1  0.33333300  0.66666700  0.65765000  1
  C  C7  1  0.00000000  0.00000000  0.46957000  1
  Ni  Ni8  1  0.33333300  0.66666700  0.05134800  1
  Ni  Ni9  1  0.33333300  0.66666700  0.13650200  1
  Cu  Cu10  1  0.00000000  0.00000000  0.32053700  1
  Cu  Cu11  1  0.00000000  0.00000000  0.24305000  1
