# generated using pymatgen
data_Cu4NiC60
_symmetry_space_group_name_H-M   'P 1'
_cell_length_a   3.85520089
_cell_length_b   3.93245714
_cell_length_c   59.11043466
_cell_angle_alpha   90.00000000
_cell_angle_beta   90.00000000
_cell_angle_gamma   90.00000000
_symmetry_Int_Tables_number   1
_chemical_formula_structural   Cu4NiC60
_chemical_formula_sum   'Cu4 Ni1 C60'
_cell_volume   896.13855867
_cell_formula_units_Z   1
loop_
 _symmetry_equiv_pos_site_id
 _symmetry_equiv_pos_as_xyz
  1  'x, y, z'
loop_
 _atom_site_type_symbol
 _atom_site_label
 _atom_site_symmetry_multiplicity
 _atom_site_fract_x
 _atom_site_fract_y
 _atom_site_fract_z
 _atom_site_occupancy
  C  C0  1  0.50000000  0.50000000  0.03612676  1
  C  C1  1  0.50000000  0.50000000  0.23624304  1
  C  C2  1  0.50000000  0.50000000  0.43618450  1
  C  C3  1  0.50000000  0.50000000  0.63621228  1
  C  C4  1  0.50000000  0.50000000  0.83632592  1
  C  C5  1  0.50000000  0.50000000  0.16387324  1
  C  C6  1  0.50000000  0.50000000  0.36367408  1
  C  C7  1  0.50000000  0.50000000  0.56378772  1
  C  C8  1  0.50000000  0.50000000  0.76381550  1
  C  C9  1  0.50000000  0.50000000  0.96375696  1
  Ni  Ni10  1  0.50000000  0.50000000  0.10000000  1
  Cu  Cu11  1  0.50000000  0.50000000  0.30003603  1
  Cu  Cu12  1  0.50000000  0.50000000  0.50000722  1
  Cu  Cu13  1  0.50000000  0.50000000  0.69999278  1
  Cu  Cu14  1  0.50000000  0.50000000  0.89996397  1
  C  C15  1  -0.00000000  0.00000000  0.07028029  1
  C  C16  1  -0.00000000  -0.00000000  0.27047707  1
  C  C17  1  0.00000000  -0.00000000  0.47047681  1
  C  C18  1  -0.00000000  -0.00000000  0.67046529  1
  C  C19  1  0.00000000  0.00000000  0.87054039  1
  C  C20  1  0.00000000  -0.00000000  0.12971971  1
  C  C21  1  0.00000000  0.00000000  0.32945961  1
  C  C22  1  -0.00000000  0.00000000  0.52953471  1
  C  C23  1  0.00000000  0.00000000  0.72952319  1
  C  C24  1  -0.00000000  -0.00000000  0.92952293  1
  C  C25  1  -0.00000000  0.00000000  0.00000785  1
  C  C26  1  0.00000000  -0.00000000  0.19999215  1
  C  C27  1  0.00000000  -0.00000000  0.40001599  1
  C  C28  1  0.00000000  -0.00000000  0.60000000  1
  C  C29  1  -0.00000000  -0.00000000  0.79998401  1
  C  C30  1  -0.00000000  0.50000000  0.07512642  1
  C  C31  1  0.00000000  0.50000000  0.27576353  1
  C  C32  1  -0.00000000  0.50000000  0.47574074  1
  C  C33  1  -0.00000000  0.50000000  0.67573564  1
  C  C34  1  -0.00000000  0.50000000  0.87575860  1
  C  C35  1  0.00000000  0.50000000  0.12487358  1
  C  C36  1  -0.00000000  0.50000000  0.32424140  1
  C  C37  1  -0.00000000  0.50000000  0.52426436  1
  C  C38  1  -0.00000000  0.50000000  0.72425926  1
  C  C39  1  0.00000000  0.50000000  0.92423647  1
  C  C40  1  -0.00000000  0.00000000  0.03178841  1
  C  C41  1  -0.00000000  0.00000000  0.23182237  1
  C  C42  1  -0.00000000  -0.00000000  0.43184055  1
  C  C43  1  -0.00000000  -0.00000000  0.63183334  1
  C  C44  1  -0.00000000  0.00000000  0.83179419  1
  C  C45  1  -0.00000000  0.00000000  0.16821159  1
  C  C46  1  -0.00000000  -0.00000000  0.36820581  1
  C  C47  1  0.00000000  -0.00000000  0.56816666  1
  C  C48  1  -0.00000000  0.00000000  0.76815945  1
  C  C49  1  0.00000000  0.00000000  0.96817763  1
  C  C50  1  -0.00000000  0.50000000  0.99996426  1
  C  C51  1  0.00000000  0.50000000  0.20003574  1
  C  C52  1  -0.00000000  0.50000000  0.39998227  1
  C  C53  1  -0.00000000  0.50000000  0.60000000  1
  C  C54  1  -0.00000000  0.50000000  0.80001773  1
  C  C55  1  0.50000000  0.00000000  0.07531792  1
  C  C56  1  0.50000000  -0.00000000  0.27592634  1
  C  C57  1  0.50000000  0.00000000  0.47592869  1
  C  C58  1  0.50000000  0.00000000  0.67592535  1
  C  C59  1  0.50000000  -0.00000000  0.87592628  1
  C  C60  1  0.50000000  0.00000000  0.12468208  1
  C  C61  1  0.50000000  0.00000000  0.32407372  1
  C  C62  1  0.50000000  -0.00000000  0.52407465  1
  C  C63  1  0.50000000  0.00000000  0.72407131  1
  C  C64  1  0.50000000  0.00000000  0.92407366  1
