# generated using pymatgen
data_CuNi14C
_symmetry_space_group_name_H-M   'P 1'
_cell_length_a   6.31663146
_cell_length_b   6.51957433
_cell_length_c   9.70582804
_cell_angle_alpha   90.00000000
_cell_angle_beta   90.00000000
_cell_angle_gamma   121.06861750
_symmetry_Int_Tables_number   1
_chemical_formula_structural   CuNi14C
_chemical_formula_sum   'Cu1 Ni14 C1'
_cell_volume   342.36552760
_cell_formula_units_Z   1
loop_
 _symmetry_equiv_pos_site_id
 _symmetry_equiv_pos_as_xyz
  1  'x, y, z'
loop_
 _atom_site_type_symbol
 _atom_site_label
 _atom_site_symmetry_multiplicity
 _atom_site_fract_x
 _atom_site_fract_y
 _atom_site_fract_z
 _atom_site_occupancy
  Ni  Ni0  1  0.17592720  0.33796310  0.62500000  1
  Ni  Ni1  1  0.17422611  0.83711255  0.62500000  1
  Ni  Ni2  1  0.73670601  0.37615010  0.12500000  1
  Ni  Ni3  1  0.66294911  0.33580417  0.62500000  1
  Ni  Ni4  1  0.73670601  0.86055491  0.12500000  1
  Ni  Ni5  1  0.66294911  0.82714394  0.62500000  1
  Ni  Ni6  1  0.32025148  0.14490243  0.34033112  1
  Ni  Ni7  1  0.32025148  0.14490243  0.90966888  1
  Ni  Ni8  1  0.32025148  0.67535005  0.34033112  1
  Ni  Ni9  1  0.32025148  0.67535005  0.90966888  1
  Ni  Ni10  1  0.83346300  0.16673200  0.37552247  1
  Ni  Ni11  1  0.83346300  0.16673200  0.87447753  1
  Ni  Ni12  1  0.84313147  0.67156624  0.36593939  1
  Ni  Ni13  1  0.84313147  0.67156624  0.88406061  1
  Cu  Cu14  1  0.17646459  0.33823180  0.12500000  1
  C  C15  1  0.03987699  0.76993800  0.12500000  1
