# generated using pymatgen
data_Cu2Ni2C7
_symmetry_space_group_name_H-M   'P 1'
_cell_length_a   7.52140263
_cell_length_b   7.52140263
_cell_length_c   7.52140263
_cell_angle_alpha   122.15284023
_cell_angle_beta   118.80053884
_cell_angle_gamma   89.20118415
_symmetry_Int_Tables_number   1
_chemical_formula_structural   Cu2Ni2C7
_chemical_formula_sum   'Cu4 Ni4 C14'
_cell_volume   298.34736328
_cell_formula_units_Z   2
loop_
 _symmetry_equiv_pos_site_id
 _symmetry_equiv_pos_as_xyz
  1  'x, y, z'
loop_
 _atom_site_type_symbol
 _atom_site_label
 _atom_site_symmetry_multiplicity
 _atom_site_fract_x
 _atom_site_fract_y
 _atom_site_fract_z
 _atom_site_occupancy
  Ni  Ni0  1  0.00000000  0.00000000  0.50000000  1
  Ni  Ni1  1  0.00000000  0.50000000  0.00000000  1
  Ni  Ni2  1  0.50000000  0.50000000  0.50000000  1
  Ni  Ni3  1  0.50000000  0.00000000  0.00000000  1
  Cu  Cu4  1  0.00000000  0.00000000  0.00000000  1
  Cu  Cu5  1  0.50000000  0.00000000  0.50000000  1
  Cu  Cu6  1  0.50000000  0.50000000  0.00000000  1
  Cu  Cu7  1  0.00000000  0.50000000  0.50000000  1
  C  C8  1  0.36337400  0.11083100  0.71559700  1
  C  C9  1  0.89523500  0.11083100  0.24745700  1
  C  C10  1  0.87112900  0.62112900  0.25000000  1
  C  C11  1  0.89523500  0.64777700  0.78440300  1
  C  C12  1  0.36337400  0.64777700  0.25254300  1
  C  C13  1  0.33091700  0.08091700  0.25000000  1
  C  C14  1  0.63662600  0.88916900  0.28440300  1
  C  C15  1  0.10476500  0.88916900  0.75254300  1
  C  C16  1  0.12887100  0.37887100  0.75000000  1
  C  C17  1  0.10476500  0.35222300  0.21559700  1
  C  C18  1  0.63662600  0.35222300  0.74745700  1
  C  C19  1  0.66908300  0.91908300  0.75000000  1
  C  C20  1  0.63313300  0.38313300  0.25000000  1
  C  C21  1  0.36686700  0.61686700  0.75000000  1
