# generated using pymatgen
data_CuNi4C
_symmetry_space_group_name_H-M   'P 1'
_cell_length_a   6.39725400
_cell_length_b   11.21500100
_cell_length_c   12.91405000
_cell_angle_alpha   90.00000000
_cell_angle_beta   90.00000000
_cell_angle_gamma   90.00000000
_symmetry_Int_Tables_number   1
_chemical_formula_structural   CuNi4C
_chemical_formula_sum   'Cu8 Ni32 C8'
_cell_volume   926.52122929
_cell_formula_units_Z   8
loop_
 _symmetry_equiv_pos_site_id
 _symmetry_equiv_pos_as_xyz
  1  'x, y, z'
loop_
 _atom_site_type_symbol
 _atom_site_label
 _atom_site_symmetry_multiplicity
 _atom_site_fract_x
 _atom_site_fract_y
 _atom_site_fract_z
 _atom_site_occupancy
  C  C0  1  0.30341000  0.55870300  0.65679900  1
  C  C1  1  0.69659000  0.44129700  0.34320100  1
  C  C2  1  0.19659000  0.05870300  0.34320100  1
  C  C3  1  0.69659000  0.94129700  0.15679900  1
  C  C4  1  0.80341000  0.94129700  0.65679900  1
  C  C5  1  0.30341000  0.05870300  0.84320100  1
  C  C6  1  0.80341000  0.44129700  0.84320100  1
  C  C7  1  0.19659000  0.55870300  0.15679900  1
  Ni  Ni8  1  0.12060200  0.64702500  0.85390600  1
  Ni  Ni9  1  0.87939800  0.35297500  0.14609400  1
  Ni  Ni10  1  0.37939800  0.14702500  0.14609400  1
  Ni  Ni11  1  0.87939800  0.85297500  0.35390600  1
  Ni  Ni12  1  0.62060200  0.85297500  0.85390600  1
  Ni  Ni13  1  0.12060200  0.14702500  0.64609400  1
  Ni  Ni14  1  0.62060200  0.35297500  0.64609400  1
  Ni  Ni15  1  0.37939800  0.64702500  0.35390600  1
  Ni  Ni16  1  0.26719000  0.64040700  0.91618200  1
  Ni  Ni17  1  0.73281000  0.35959300  0.08381800  1
  Ni  Ni18  1  0.23281000  0.14040700  0.08381800  1
  Ni  Ni19  1  0.73281000  0.85959300  0.41618200  1
  Ni  Ni20  1  0.76719000  0.85959300  0.91618200  1
  Ni  Ni21  1  0.26719000  0.14040700  0.58381800  1
  Ni  Ni22  1  0.76719000  0.35959300  0.58381800  1
  Ni  Ni23  1  0.23281000  0.64040700  0.41618200  1
  Ni  Ni24  1  0.24516500  0.87055100  0.53451000  1
  Ni  Ni25  1  0.75483500  0.12944900  0.46549000  1
  Ni  Ni26  1  0.25483500  0.37055100  0.46549000  1
  Ni  Ni27  1  0.75483500  0.62944900  0.03451000  1
  Ni  Ni28  1  0.74516500  0.62944900  0.53451000  1
  Ni  Ni29  1  0.24516500  0.37055100  0.96549000  1
  Ni  Ni30  1  0.74516500  0.12944900  0.96549000  1
  Ni  Ni31  1  0.25483500  0.87055100  0.03451000  1
  Ni  Ni32  1  0.35288000  0.83579400  0.60830300  1
  Ni  Ni33  1  0.64712000  0.16420600  0.39169700  1
  Ni  Ni34  1  0.14712000  0.33579400  0.39169700  1
  Ni  Ni35  1  0.64712000  0.66420600  0.10830300  1
  Ni  Ni36  1  0.85288000  0.66420600  0.60830300  1
  Ni  Ni37  1  0.35288000  0.33579400  0.89169700  1
  Ni  Ni38  1  0.85288000  0.16420600  0.89169700  1
  Ni  Ni39  1  0.14712000  0.83579400  0.10830300  1
  Cu  Cu40  1  0.10752700  0.88797500  0.76820200  1
  Cu  Cu41  1  0.89247300  0.11202500  0.23179800  1
  Cu  Cu42  1  0.39247300  0.38797500  0.23179800  1
  Cu  Cu43  1  0.89247300  0.61202500  0.26820200  1
  Cu  Cu44  1  0.60752700  0.61202500  0.76820200  1
  Cu  Cu45  1  0.10752700  0.38797500  0.73179800  1
  Cu  Cu46  1  0.60752700  0.11202500  0.73179800  1
  Cu  Cu47  1  0.39247300  0.88797500  0.26820200  1
