# generated using pymatgen
data_CuNi3C
_symmetry_space_group_name_H-M   'P 1'
_cell_length_a   4.18862800
_cell_length_b   4.18862800
_cell_length_c   5.75142490
_cell_angle_alpha   111.35456093
_cell_angle_beta   111.35456093
_cell_angle_gamma   90.00000000
_symmetry_Int_Tables_number   1
_chemical_formula_structural   CuNi3C
_chemical_formula_sum   'Cu1 Ni3 C1'
_cell_volume   86.49790042
_cell_formula_units_Z   1
loop_
 _symmetry_equiv_pos_site_id
 _symmetry_equiv_pos_as_xyz
  1  'x, y, z'
loop_
 _atom_site_type_symbol
 _atom_site_label
 _atom_site_symmetry_multiplicity
 _atom_site_fract_x
 _atom_site_fract_y
 _atom_site_fract_z
 _atom_site_occupancy
  C  C0  1  0.99954100  0.99954100  0.99908200  1
  Ni  Ni1  1  0.41988700  0.41988700  0.83977400  1
  Ni  Ni2  1  0.76929900  0.26929900  0.53859800  1
  Ni  Ni3  1  0.26929900  0.76929900  0.53859800  1
  Cu  Cu4  1  0.65697600  0.65697600  0.31395200  1
