# generated using pymatgen
data_Cu4Ni2C
_symmetry_space_group_name_H-M   'P 1'
_cell_length_a   6.08613805
_cell_length_b   10.44104325
_cell_length_c   7.93326758
_cell_angle_alpha   103.48129443
_cell_angle_beta   110.16730650
_cell_angle_gamma   90.99689632
_symmetry_Int_Tables_number   1
_chemical_formula_structural   Cu4Ni2C
_chemical_formula_sum   'Cu16 Ni8 C4'
_cell_volume   457.53031509
_cell_formula_units_Z   4
loop_
 _symmetry_equiv_pos_site_id
 _symmetry_equiv_pos_as_xyz
  1  'x, y, z'
loop_
 _atom_site_type_symbol
 _atom_site_label
 _atom_site_symmetry_multiplicity
 _atom_site_fract_x
 _atom_site_fract_y
 _atom_site_fract_z
 _atom_site_occupancy
  C  C0  1  0.08246500  0.33026500  0.75006500  1
  C  C1  1  0.91949300  0.67056100  0.25009000  1
  C  C2  1  0.41849800  0.16728800  0.24994800  1
  C  C3  1  0.55770400  0.80975600  0.74978500  1
  Ni  Ni4  1  0.36354300  0.50293500  0.46977600  1
  Ni  Ni5  1  0.86569200  0.00005900  0.46814300  1
  Ni  Ni6  1  0.83560300  0.19814800  0.03199100  1
  Ni  Ni7  1  0.33531100  0.69905600  0.03005200  1
  Ni  Ni8  1  0.14033100  0.99826600  0.53536900  1
  Ni  Ni9  1  0.63661900  0.50262700  0.53403500  1
  Ni  Ni10  1  0.66441500  0.30180800  0.96818300  1
  Ni  Ni11  1  0.16363000  0.80236800  0.96244100  1
  Cu  Cu12  1  0.23486600  0.39688500  0.37182800  1
  Cu  Cu13  1  0.73653600  0.89383200  0.36873100  1
  Cu  Cu14  1  0.29043000  0.63064700  0.12851500  1
  Cu  Cu15  1  0.78971100  0.13020100  0.13088200  1
  Cu  Cu16  1  0.26546400  0.10660800  0.62829900  1
  Cu  Cu17  1  0.76148100  0.61074500  0.63207600  1
  Cu  Cu18  1  0.22079600  0.87081600  0.86871800  1
  Cu  Cu19  1  0.71113200  0.37105400  0.87074700  1
  Cu  Cu20  1  0.28838200  0.61276000  0.52269700  1
  Cu  Cu21  1  0.79104600  0.10991600  0.51881500  1
  Cu  Cu22  1  0.51154000  0.69004800  0.97760400  1
  Cu  Cu23  1  0.01222300  0.19039100  0.98085600  1
  Cu  Cu24  1  0.21920200  0.88813400  0.49082900  1
  Cu  Cu25  1  0.71371500  0.39403800  0.48258600  1
  Cu  Cu26  1  0.98089900  0.81001700  0.00586800  1
  Cu  Cu27  1  0.48927600  0.31077100  0.02107100  1
