# generated using pymatgen
data_CuNi2C23
_symmetry_space_group_name_H-M   'P 1'
_cell_length_a   7.01552040
_cell_length_b   7.01552040
_cell_length_c   17.89323300
_cell_angle_alpha   90.00000000
_cell_angle_beta   90.00000000
_cell_angle_gamma   120.00000375
_symmetry_Int_Tables_number   1
_chemical_formula_structural   CuNi2C23
_chemical_formula_sum   'Cu2 Ni4 C46'
_cell_volume   762.67448218
_cell_formula_units_Z   2
loop_
 _symmetry_equiv_pos_site_id
 _symmetry_equiv_pos_as_xyz
  1  'x, y, z'
loop_
 _atom_site_type_symbol
 _atom_site_label
 _atom_site_symmetry_multiplicity
 _atom_site_fract_x
 _atom_site_fract_y
 _atom_site_fract_z
 _atom_site_occupancy
  C  C0  1  0.66666700  0.33333300  0.37673200  1
  C  C1  1  0.33333300  0.66666700  0.62326800  1
  C  C2  1  0.33333300  0.66666700  0.87673200  1
  C  C3  1  0.66666700  0.33333300  0.12326800  1
  Ni  Ni4  1  0.66666700  0.33333300  0.60896000  1
  Ni  Ni5  1  0.33333300  0.66666700  0.39104000  1
  Ni  Ni6  1  0.33333300  0.66666700  0.10896000  1
  Ni  Ni7  1  0.66666700  0.33333300  0.89104000  1
  Cu  Cu8  1  0.00000000  0.00000000  0.50000000  1
  Cu  Cu9  1  0.00000000  0.00000000  0.00000000  1
  C  C10  1  0.88877900  0.11122100  0.25000000  1
  C  C11  1  0.88877900  0.77755800  0.25000000  1
  C  C12  1  0.22244200  0.11122100  0.25000000  1
  C  C13  1  0.11122100  0.88877900  0.75000000  1
  C  C14  1  0.11122100  0.22244200  0.75000000  1
  C  C15  1  0.77755800  0.88877900  0.75000000  1
  C  C16  1  0.80518400  0.19481600  0.25000000  1
  C  C17  1  0.80518400  0.61036700  0.25000000  1
  C  C18  1  0.38963300  0.19481600  0.25000000  1
  C  C19  1  0.19481600  0.80518400  0.75000000  1
  C  C20  1  0.19481600  0.38963300  0.75000000  1
  C  C21  1  0.61036700  0.80518400  0.75000000  1
  C  C22  1  0.44329800  0.88659600  0.36503800  1
  C  C23  1  0.11340400  0.55670200  0.36503800  1
  C  C24  1  0.44329800  0.55670200  0.36503800  1
  C  C25  1  0.55670200  0.11340400  0.63496200  1
  C  C26  1  0.88659600  0.44329800  0.63496200  1
  C  C27  1  0.55670200  0.44329800  0.63496200  1
  C  C28  1  0.55670200  0.11340400  0.86503800  1
  C  C29  1  0.88659600  0.44329800  0.86503800  1
  C  C30  1  0.55670200  0.44329800  0.86503800  1
  C  C31  1  0.44329800  0.88659600  0.13496200  1
  C  C32  1  0.11340400  0.55670200  0.13496200  1
  C  C33  1  0.44329800  0.55670200  0.13496200  1
  C  C34  1  0.76243100  0.88121500  0.55730400  1
  C  C35  1  0.11878500  0.88121500  0.55730400  1
  C  C36  1  0.11878500  0.23756900  0.55730400  1
  C  C37  1  0.23756900  0.11878500  0.44269600  1
  C  C38  1  0.88121500  0.11878500  0.44269600  1
  C  C39  1  0.88121500  0.76243100  0.44269600  1
  C  C40  1  0.23756900  0.11878500  0.05730400  1
  C  C41  1  0.88121500  0.11878500  0.05730400  1
  C  C42  1  0.88121500  0.76243100  0.05730400  1
  C  C43  1  0.76243100  0.88121500  0.94269600  1
  C  C44  1  0.11878500  0.88121500  0.94269600  1
  C  C45  1  0.11878500  0.23756900  0.94269600  1
  C  C46  1  0.00000000  0.00000000  0.75000000  1
  C  C47  1  0.00000000  0.00000000  0.25000000  1
  C  C48  1  0.66666700  0.33333300  0.52931000  1
  C  C49  1  0.33333300  0.66666700  0.47069000  1
  C  C50  1  0.33333300  0.66666700  0.02931000  1
  C  C51  1  0.66666700  0.33333300  0.97069000  1
