# generated using pymatgen
data_CuNiC7
_symmetry_space_group_name_H-M   'P 1'
_cell_length_a   7.53672736
_cell_length_b   7.53672736
_cell_length_c   7.53672736
_cell_angle_alpha   120.81719162
_cell_angle_beta   119.39949186
_cell_angle_gamma   89.81684800
_symmetry_Int_Tables_number   1
_chemical_formula_structural   CuNiC7
_chemical_formula_sum   'Cu2 Ni2 C14'
_cell_volume   302.15918746
_cell_formula_units_Z   2
loop_
 _symmetry_equiv_pos_site_id
 _symmetry_equiv_pos_as_xyz
  1  'x, y, z'
loop_
 _atom_site_type_symbol
 _atom_site_label
 _atom_site_symmetry_multiplicity
 _atom_site_fract_x
 _atom_site_fract_y
 _atom_site_fract_z
 _atom_site_occupancy
  C  C0  1  0.37351700  0.62351700  0.75000000  1
  C  C1  1  0.62648300  0.37648300  0.25000000  1
  Ni  Ni2  1  0.00000000  0.00000000  0.00000000  1
  Ni  Ni3  1  0.50000000  0.00000000  0.50000000  1
  Cu  Cu4  1  0.00000000  0.00000000  0.50000000  1
  Cu  Cu5  1  0.00000000  0.50000000  0.00000000  1
  C  C6  1  0.31723100  0.06723100  0.25000000  1
  C  C7  1  0.92991900  0.67991900  0.25000000  1
  C  C8  1  0.32791600  0.69020600  0.25992700  1
  C  C9  1  0.93027900  0.06798900  0.24007300  1
  C  C10  1  0.32791600  0.06798900  0.63771000  1
  C  C11  1  0.93027900  0.69020600  0.86229000  1
  C  C12  1  0.68276900  0.93276900  0.75000000  1
  C  C13  1  0.07008100  0.32008100  0.75000000  1
  C  C14  1  0.67208400  0.30979400  0.74007300  1
  C  C15  1  0.06972100  0.93201100  0.75992700  1
  C  C16  1  0.67208400  0.93201100  0.36229000  1
  C  C17  1  0.06972100  0.30979400  0.13771000  1
