# generated using pymatgen
data_CuNiC17
_symmetry_space_group_name_H-M   'P 1'
_cell_length_a   8.52208243
_cell_length_b   8.52208243
_cell_length_c   8.27315600
_cell_angle_alpha   90.00000000
_cell_angle_beta   90.00000000
_cell_angle_gamma   120.00000333
_symmetry_Int_Tables_number   1
_chemical_formula_structural   CuNiC17
_chemical_formula_sum   'Cu2 Ni2 C34'
_cell_volume   520.34728361
_cell_formula_units_Z   2
loop_
 _symmetry_equiv_pos_site_id
 _symmetry_equiv_pos_as_xyz
  1  'x, y, z'
loop_
 _atom_site_type_symbol
 _atom_site_label
 _atom_site_symmetry_multiplicity
 _atom_site_fract_x
 _atom_site_fract_y
 _atom_site_fract_z
 _atom_site_occupancy
  Ni  Ni0  1  0.33333300  0.66666700  0.75000000  1
  Ni  Ni1  1  0.66666700  0.33333300  0.25000000  1
  Cu  Cu2  1  0.00000000  0.00000000  0.25000000  1
  Cu  Cu3  1  0.00000000  0.00000000  0.75000000  1
  C  C4  1  0.32766200  0.36937300  0.25000000  1
  C  C5  1  0.63062700  0.95829000  0.25000000  1
  C  C6  1  0.04171000  0.67233800  0.25000000  1
  C  C7  1  0.63062700  0.67233800  0.25000000  1
  C  C8  1  0.04171000  0.36937300  0.25000000  1
  C  C9  1  0.32766200  0.95829000  0.25000000  1
  C  C10  1  0.67233800  0.63062700  0.75000000  1
  C  C11  1  0.36937300  0.04171000  0.75000000  1
  C  C12  1  0.95829000  0.32766200  0.75000000  1
  C  C13  1  0.36937300  0.32766200  0.75000000  1
  C  C14  1  0.95829000  0.63062700  0.75000000  1
  C  C15  1  0.67233800  0.04171000  0.75000000  1
  C  C16  1  0.16477200  0.83522800  0.51483500  1
  C  C17  1  0.16477200  0.32954400  0.51483500  1
  C  C18  1  0.67045600  0.83522800  0.51483500  1
  C  C19  1  0.83522800  0.16477200  0.48516500  1
  C  C20  1  0.83522800  0.67045600  0.48516500  1
  C  C21  1  0.32954400  0.16477200  0.48516500  1
  C  C22  1  0.83522800  0.16477200  0.01483500  1
  C  C23  1  0.83522800  0.67045600  0.01483500  1
  C  C24  1  0.32954400  0.16477200  0.01483500  1
  C  C25  1  0.16477200  0.83522800  0.98516500  1
  C  C26  1  0.16477200  0.32954400  0.98516500  1
  C  C27  1  0.67045600  0.83522800  0.98516500  1
  C  C28  1  0.33333300  0.66666700  0.39272900  1
  C  C29  1  0.66666700  0.33333300  0.60727100  1
  C  C30  1  0.66666700  0.33333300  0.89272900  1
  C  C31  1  0.33333300  0.66666700  0.10727100  1
  C  C32  1  0.50000000  0.50000000  0.50000000  1
  C  C33  1  0.50000000  0.00000000  0.50000000  1
  C  C34  1  0.00000000  0.50000000  0.50000000  1
  C  C35  1  0.50000000  0.50000000  0.00000000  1
  C  C36  1  0.50000000  0.00000000  0.00000000  1
  C  C37  1  0.00000000  0.50000000  0.00000000  1
