# generated using pymatgen
data_CuNi2C11
_symmetry_space_group_name_H-M   'P 1'
_cell_length_a   7.24484390
_cell_length_b   7.24578987
_cell_length_c   7.24663350
_cell_angle_alpha   62.49060719
_cell_angle_beta   62.49396261
_cell_angle_gamma   62.51521291
_symmetry_Int_Tables_number   1
_chemical_formula_structural   CuNi2C11
_chemical_formula_sum   'Cu1 Ni2 C11'
_cell_volume   283.97578569
_cell_formula_units_Z   1
loop_
 _symmetry_equiv_pos_site_id
 _symmetry_equiv_pos_as_xyz
  1  'x, y, z'
loop_
 _atom_site_type_symbol
 _atom_site_label
 _atom_site_symmetry_multiplicity
 _atom_site_fract_x
 _atom_site_fract_y
 _atom_site_fract_z
 _atom_site_occupancy
  Ni  Ni0  1  0.87751400  0.87752900  0.87753000  1
  Ni  Ni1  1  0.12248200  0.12246900  0.12247800  1
  Cu  Cu2  1  0.50001800  0.50000400  0.49997400  1
  C  C3  1  0.49999900  0.49999300  0.00000800  1
  C  C4  1  0.00000300  0.49999500  0.50000300  1
  C  C5  1  0.49999400  0.00000000  0.50000700  1
  C  C6  1  0.73889500  0.73892600  0.73891900  1
  C  C7  1  0.25986900  0.25987100  0.72114000  1
  C  C8  1  0.25987100  0.72113700  0.25988700  1
  C  C9  1  0.72113900  0.25987900  0.25986200  1
  C  C10  1  0.74010800  0.27887800  0.74011300  1
  C  C11  1  0.27886100  0.74012300  0.74012500  1
  C  C12  1  0.26109500  0.26106400  0.26110100  1
  C  C13  1  0.74015400  0.74012700  0.27885500  1
