# generated using pymatgen
data_Cu3Ni9C7
_symmetry_space_group_name_H-M   'P 1'
_cell_length_a   4.72164800
_cell_length_b   8.49101125
_cell_length_c   8.92861016
_cell_angle_alpha   89.97521332
_cell_angle_beta   90.00000000
_cell_angle_gamma   90.00000000
_symmetry_Int_Tables_number   1
_chemical_formula_structural   Cu3Ni9C7
_chemical_formula_sum   'Cu6 Ni18 C14'
_cell_volume   357.96193260
_cell_formula_units_Z   2
loop_
 _symmetry_equiv_pos_site_id
 _symmetry_equiv_pos_as_xyz
  1  'x, y, z'
loop_
 _atom_site_type_symbol
 _atom_site_label
 _atom_site_symmetry_multiplicity
 _atom_site_fract_x
 _atom_site_fract_y
 _atom_site_fract_z
 _atom_site_occupancy
  C  C0  1  0.09762000  0.58296200  0.86842000  1
  C  C1  1  0.09629000  0.91783800  0.86906300  1
  C  C2  1  0.40254600  0.92055500  0.36731700  1
  C  C3  1  0.40532900  0.58295400  0.37084400  1
  C  C4  1  0.59762000  0.41703800  0.63158000  1
  C  C5  1  0.59629000  0.08216200  0.63093700  1
  C  C6  1  0.90254600  0.07944500  0.13268300  1
  C  C7  1  0.90532900  0.41704600  0.12915600  1
  C  C8  1  0.10049400  0.25083600  0.44321500  1
  C  C9  1  0.39731300  0.25063800  0.93933700  1
  C  C10  1  0.60049400  0.74916400  0.05678500  1
  C  C11  1  0.89731300  0.74936200  0.56066300  1
  C  C12  1  0.49181300  0.16695300  0.25296500  1
  C  C13  1  0.99181300  0.83304700  0.24703500  1
  Ni  Ni14  1  0.05195000  0.25209000  0.25746600  1
  Ni  Ni15  1  0.08976800  0.93339200  0.24707500  1
  Ni  Ni16  1  0.20190800  0.74753200  0.46777100  1
  Ni  Ni17  1  0.20535000  0.09492900  0.98705700  1
  Ni  Ni18  1  0.20932800  0.40810300  0.98838800  1
  Ni  Ni19  1  0.28720200  0.09438200  0.49375500  1
  Ni  Ni20  1  0.29093700  0.40803700  0.48987500  1
  Ni  Ni21  1  0.29462500  0.74903100  0.96754500  1
  Ni  Ni22  1  0.46330200  0.25055800  0.75667700  1
  Ni  Ni23  1  0.55195000  0.74791000  0.24253400  1
  Ni  Ni24  1  0.58976800  0.06660800  0.25292500  1
  Ni  Ni25  1  0.70190900  0.25246800  0.03222900  1
  Ni  Ni26  1  0.70932800  0.59189700  0.51161200  1
  Ni  Ni27  1  0.70535000  0.90507100  0.51294300  1
  Ni  Ni28  1  0.79093700  0.59196300  0.01012500  1
  Ni  Ni29  1  0.78720200  0.90561800  0.00624500  1
  Ni  Ni30  1  0.79462500  0.25096900  0.53245500  1
  Ni  Ni31  1  0.96330200  0.74944200  0.74332300  1
  Cu  Cu32  1  0.09896300  0.55831800  0.24736500  1
  Cu  Cu33  1  0.40621000  0.55582500  0.74957300  1
  Cu  Cu34  1  0.40405000  0.94452800  0.75034100  1
  Cu  Cu35  1  0.59896300  0.44168200  0.25263500  1
  Cu  Cu36  1  0.90405000  0.05547200  0.74965900  1
  Cu  Cu37  1  0.90621000  0.44417500  0.75042700  1
