# generated using pymatgen
data_Cu2Ni3C4
_symmetry_space_group_name_H-M   'P 1'
_cell_length_a   4.13191500
_cell_length_b   4.13191500
_cell_length_c   9.99634707
_cell_angle_alpha   101.92734676
_cell_angle_beta   101.92734676
_cell_angle_gamma   90.00000000
_symmetry_Int_Tables_number   1
_chemical_formula_structural   Cu2Ni3C4
_chemical_formula_sum   'Cu2 Ni3 C4'
_cell_volume   163.21253777
_cell_formula_units_Z   1
loop_
 _symmetry_equiv_pos_site_id
 _symmetry_equiv_pos_as_xyz
  1  'x, y, z'
loop_
 _atom_site_type_symbol
 _atom_site_label
 _atom_site_symmetry_multiplicity
 _atom_site_fract_x
 _atom_site_fract_y
 _atom_site_fract_z
 _atom_site_occupancy
  C  C0  1  0.41495000  0.41495000  0.82989900  1
  C  C1  1  0.58505000  0.58505000  0.17010100  1
  Ni  Ni2  1  0.25000000  0.75000000  0.50000000  1
  Ni  Ni3  1  0.75000000  0.25000000  0.50000000  1
  Ni  Ni4  1  0.00000000  0.00000000  0.00000000  1
  Cu  Cu5  1  0.16834400  0.16834400  0.33668900  1
  Cu  Cu6  1  0.83165600  0.83165600  0.66331100  1
  C  C7  1  0.00000000  0.50000000  0.00000000  1
  C  C8  1  0.50000000  0.00000000  0.00000000  1
