# generated using pymatgen
data_CuNi5C3
_symmetry_space_group_name_H-M   'P 1'
_cell_length_a   9.63353162
_cell_length_b   9.63353162
_cell_length_c   18.26099100
_cell_angle_alpha   90.00000000
_cell_angle_beta   90.00000000
_cell_angle_gamma   119.99999738
_symmetry_Int_Tables_number   1
_chemical_formula_structural   CuNi5C3
_chemical_formula_sum   'Cu6 Ni30 C18'
_cell_volume   1467.66196633
_cell_formula_units_Z   6
loop_
 _symmetry_equiv_pos_site_id
 _symmetry_equiv_pos_as_xyz
  1  'x, y, z'
loop_
 _atom_site_type_symbol
 _atom_site_label
 _atom_site_symmetry_multiplicity
 _atom_site_fract_x
 _atom_site_fract_y
 _atom_site_fract_z
 _atom_site_occupancy
  C  C0  1  0.66666700  0.33333300  0.54613300  1
  C  C1  1  0.33333300  0.66666700  0.45386700  1
  C  C2  1  0.66666700  0.33333300  0.95386700  1
  C  C3  1  0.33333300  0.66666700  0.04613300  1
  C  C4  1  0.33333300  0.66666700  0.75000000  1
  C  C5  1  0.66666700  0.33333300  0.25000000  1
  C  C6  1  0.17225500  0.18911500  0.68635400  1
  C  C7  1  0.82774500  0.81088500  0.31364600  1
  C  C8  1  0.81088500  0.98314100  0.68635400  1
  C  C9  1  0.17225500  0.98314100  0.81364600  1
  C  C10  1  0.18911500  0.01685900  0.31364600  1
  C  C11  1  0.82774500  0.01685900  0.18635400  1
  C  C12  1  0.01685900  0.82774500  0.68635400  1
  C  C13  1  0.81088500  0.82774500  0.81364600  1
  C  C14  1  0.98314100  0.17225500  0.31364600  1
  C  C15  1  0.18911500  0.17225500  0.18635400  1
  C  C16  1  0.01685900  0.18911500  0.81364600  1
  C  C17  1  0.98314100  0.81088500  0.18635400  1
  Ni  Ni18  1  0.42652500  0.21326300  0.75000000  1
  Ni  Ni19  1  0.57347500  0.78673700  0.25000000  1
  Ni  Ni20  1  0.78673700  0.21326300  0.75000000  1
  Ni  Ni21  1  0.21326300  0.78673700  0.25000000  1
  Ni  Ni22  1  0.78673700  0.57347500  0.75000000  1
  Ni  Ni23  1  0.21326300  0.42652500  0.25000000  1
  Ni  Ni24  1  0.98115400  0.20330400  0.58684800  1
  Ni  Ni25  1  0.01884600  0.79669600  0.41315200  1
  Ni  Ni26  1  0.79669600  0.77785000  0.58684800  1
  Ni  Ni27  1  0.98115400  0.77785000  0.91315200  1
  Ni  Ni28  1  0.20330400  0.22215000  0.41315200  1
  Ni  Ni29  1  0.01884600  0.22215000  0.08684800  1
  Ni  Ni30  1  0.22215000  0.01884600  0.58684800  1
  Ni  Ni31  1  0.79669600  0.01884600  0.91315200  1
  Ni  Ni32  1  0.77785000  0.98115400  0.41315200  1
  Ni  Ni33  1  0.20330400  0.98115400  0.08684800  1
  Ni  Ni34  1  0.22215000  0.20330400  0.91315200  1
  Ni  Ni35  1  0.77785000  0.79669600  0.08684800  1
  Ni  Ni36  1  0.39598800  0.46911600  0.61586500  1
  Ni  Ni37  1  0.60401200  0.53088400  0.38413500  1
  Ni  Ni38  1  0.53088400  0.92687200  0.61586500  1
  Ni  Ni39  1  0.39598800  0.92687200  0.88413500  1
  Ni  Ni40  1  0.46911600  0.07312800  0.38413500  1
  Ni  Ni41  1  0.60401200  0.07312800  0.11586500  1
  Ni  Ni42  1  0.07312800  0.60401200  0.61586500  1
  Ni  Ni43  1  0.53088400  0.60401200  0.88413500  1
  Ni  Ni44  1  0.92687200  0.39598800  0.38413500  1
  Ni  Ni45  1  0.46911600  0.39598800  0.11586500  1
  Ni  Ni46  1  0.07312800  0.46911600  0.88413500  1
  Ni  Ni47  1  0.92687200  0.53088400  0.11586500  1
  Cu  Cu48  1  0.63903000  0.81951500  0.75000000  1
  Cu  Cu49  1  0.36097000  0.18048500  0.25000000  1
  Cu  Cu50  1  0.18048500  0.81951500  0.75000000  1
  Cu  Cu51  1  0.81951500  0.18048500  0.25000000  1
  Cu  Cu52  1  0.18048500  0.36097000  0.75000000  1
  Cu  Cu53  1  0.81951500  0.63903000  0.25000000  1
