# generated using pymatgen
data_Cu6(NiC)5
_symmetry_space_group_name_H-M   'P 1'
_cell_length_a   9.17929600
_cell_length_b   9.17929600
_cell_length_c   14.86219800
_cell_angle_alpha   90.00000000
_cell_angle_beta   90.00000000
_cell_angle_gamma   90.00000000
_symmetry_Int_Tables_number   1
_chemical_formula_structural   Cu6(NiC)5
_chemical_formula_sum   'Cu24 Ni20 C20'
_cell_volume   1252.28100165
_cell_formula_units_Z   4
loop_
 _symmetry_equiv_pos_site_id
 _symmetry_equiv_pos_as_xyz
  1  'x, y, z'
loop_
 _atom_site_type_symbol
 _atom_site_label
 _atom_site_symmetry_multiplicity
 _atom_site_fract_x
 _atom_site_fract_y
 _atom_site_fract_z
 _atom_site_occupancy
  C  C0  1  0.16008200  0.31639300  0.37220600  1
  C  C1  1  0.83991800  0.68360700  0.87220600  1
  C  C2  1  0.18360700  0.66008200  0.62220600  1
  C  C3  1  0.33991800  0.81639300  0.87779400  1
  C  C4  1  0.81639300  0.33991800  0.12220600  1
  C  C5  1  0.66008200  0.18360700  0.37779400  1
  C  C6  1  0.31639300  0.16008200  0.62779400  1
  C  C7  1  0.68360700  0.83991800  0.12779400  1
  C  C8  1  0.36563300  0.16845200  0.12384500  1
  C  C9  1  0.63436700  0.83154800  0.62384500  1
  C  C10  1  0.33154800  0.86563300  0.37384500  1
  C  C11  1  0.13436700  0.66845200  0.12615500  1
  C  C12  1  0.66845200  0.13436700  0.87384500  1
  C  C13  1  0.86563300  0.33154800  0.62615500  1
  C  C14  1  0.16845200  0.36563300  0.87615500  1
  C  C15  1  0.83154800  0.63436700  0.37615500  1
  C  C16  1  0.04129500  0.04129500  0.00000000  1
  C  C17  1  0.95870500  0.95870500  0.50000000  1
  C  C18  1  0.45870500  0.54129500  0.25000000  1
  C  C19  1  0.54129500  0.45870500  0.75000000  1
  Ni  Ni20  1  0.57202600  0.57202600  0.00000000  1
  Ni  Ni21  1  0.42797400  0.42797400  0.50000000  1
  Ni  Ni22  1  0.92797400  0.07202600  0.25000000  1
  Ni  Ni23  1  0.07202600  0.92797400  0.75000000  1
  Ni  Ni24  1  0.10165800  0.11742000  0.08198100  1
  Ni  Ni25  1  0.89834200  0.88258000  0.58198100  1
  Ni  Ni26  1  0.38258000  0.60165800  0.33198100  1
  Ni  Ni27  1  0.39834200  0.61742000  0.16801900  1
  Ni  Ni28  1  0.61742000  0.39834200  0.83198100  1
  Ni  Ni29  1  0.60165800  0.38258000  0.66801900  1
  Ni  Ni30  1  0.11742000  0.10165800  0.91801900  1
  Ni  Ni31  1  0.88258000  0.89834200  0.41801900  1
  Ni  Ni32  1  0.42996500  0.38232200  0.24618100  1
  Ni  Ni33  1  0.57003500  0.61767800  0.74618100  1
  Ni  Ni34  1  0.11767800  0.92996500  0.49618100  1
  Ni  Ni35  1  0.07003500  0.88232200  0.00381900  1
  Ni  Ni36  1  0.88232200  0.07003500  0.99618100  1
  Ni  Ni37  1  0.92996500  0.11767800  0.50381900  1
  Ni  Ni38  1  0.38232200  0.42996500  0.75381900  1
  Ni  Ni39  1  0.61767800  0.57003500  0.25381900  1
  Cu  Cu40  1  0.11483700  0.46956100  0.17471100  1
  Cu  Cu41  1  0.88516300  0.53043900  0.67471100  1
  Cu  Cu42  1  0.03043900  0.61483700  0.42471100  1
  Cu  Cu43  1  0.38516300  0.96956100  0.07528900  1
  Cu  Cu44  1  0.96956100  0.38516300  0.92471100  1
  Cu  Cu45  1  0.61483700  0.03043900  0.57528900  1
  Cu  Cu46  1  0.46956100  0.11483700  0.82528900  1
  Cu  Cu47  1  0.53043900  0.88516300  0.32528900  1
  Cu  Cu48  1  0.28754000  0.08868000  0.23657200  1
  Cu  Cu49  1  0.71246000  0.91132000  0.73657200  1
  Cu  Cu50  1  0.41132000  0.78754000  0.48657200  1
  Cu  Cu51  1  0.21246000  0.58868000  0.01342800  1
  Cu  Cu52  1  0.58868000  0.21246000  0.98657200  1
  Cu  Cu53  1  0.78754000  0.41132000  0.51342800  1
  Cu  Cu54  1  0.08868000  0.28754000  0.76342800  1
  Cu  Cu55  1  0.91132000  0.71246000  0.26342800  1
  Cu  Cu56  1  0.36776200  0.06447600  0.42450700  1
  Cu  Cu57  1  0.63223800  0.93552400  0.92450700  1
  Cu  Cu58  1  0.43552400  0.86776200  0.67450700  1
  Cu  Cu59  1  0.13223800  0.56447600  0.82549300  1
  Cu  Cu60  1  0.56447600  0.13223800  0.17450700  1
  Cu  Cu61  1  0.86776200  0.43552400  0.32549300  1
  Cu  Cu62  1  0.06447600  0.36776200  0.57549300  1
  Cu  Cu63  1  0.93552400  0.63223800  0.07549300  1
