# generated using pymatgen
data_Cu9Ni
_symmetry_space_group_name_H-M   'P 1'
_cell_length_a   5.17924300
_cell_length_b   5.17924300
_cell_length_c   4.85901400
_cell_angle_alpha   90.00000000
_cell_angle_beta   90.00000000
_cell_angle_gamma   90.00000000
_symmetry_Int_Tables_number   1
_chemical_formula_structural   Cu9Ni
_chemical_formula_sum   'Cu9 Ni1'
_cell_volume   130.34090312
_cell_formula_units_Z   1
loop_
 _symmetry_equiv_pos_site_id
 _symmetry_equiv_pos_as_xyz
  1  'x, y, z'
loop_
 _atom_site_type_symbol
 _atom_site_label
 _atom_site_symmetry_multiplicity
 _atom_site_fract_x
 _atom_site_fract_y
 _atom_site_fract_z
 _atom_site_occupancy
  Ni  Ni0  1  0.00000000  0.00000000  0.00000000  1
  Cu  Cu1  1  0.00000000  0.00000000  0.50000000  1
  Cu  Cu2  1  0.28094000  0.28094000  0.25015500  1
  Cu  Cu3  1  0.28094000  0.71906000  0.74984500  1
  Cu  Cu4  1  0.71906000  0.28094000  0.25015500  1
  Cu  Cu5  1  0.71906000  0.28094000  0.74984500  1
  Cu  Cu6  1  0.71906000  0.71906000  0.25015500  1
  Cu  Cu7  1  0.28094000  0.71906000  0.25015500  1
  Cu  Cu8  1  0.71906000  0.71906000  0.74984500  1
  Cu  Cu9  1  0.28094000  0.28094000  0.74984500  1
