# generated using pymatgen
data_Cu2NiC7
_symmetry_space_group_name_H-M   'P 1'
_cell_length_a   10.54751473
_cell_length_b   10.54751473
_cell_length_c   5.13093772
_cell_angle_alpha   80.72800578
_cell_angle_beta   80.72800578
_cell_angle_gamma   125.37907931
_symmetry_Int_Tables_number   1
_chemical_formula_structural   Cu2NiC7
_chemical_formula_sum   'Cu8 Ni4 C28'
_cell_volume   435.76831082
_cell_formula_units_Z   4
loop_
 _symmetry_equiv_pos_site_id
 _symmetry_equiv_pos_as_xyz
  1  'x, y, z'
loop_
 _atom_site_type_symbol
 _atom_site_label
 _atom_site_symmetry_multiplicity
 _atom_site_fract_x
 _atom_site_fract_y
 _atom_site_fract_z
 _atom_site_occupancy
  C  C0  1  0.00000000  0.00000000  0.50000000  1
  C  C1  1  0.00000000  0.50000000  0.50000000  1
  C  C2  1  0.50000000  0.00000000  0.50000000  1
  C  C3  1  0.50000000  0.50000000  0.00000000  1
  C  C4  1  0.83426600  0.16573400  0.00000000  1
  C  C5  1  0.16573400  0.83426600  0.00000000  1
  Ni  Ni6  1  0.14527000  0.42463800  0.97796500  1
  Ni  Ni7  1  0.42463800  0.14527000  0.97796500  1
  Ni  Ni8  1  0.85473000  0.57536200  0.02203500  1
  Ni  Ni9  1  0.57536200  0.85473000  0.02203500  1
  Cu  Cu10  1  0.72307800  0.21982200  0.75806800  1
  Cu  Cu11  1  0.21982200  0.72307800  0.75806800  1
  Cu  Cu12  1  0.27692200  0.78017800  0.24193200  1
  Cu  Cu13  1  0.78017800  0.27692200  0.24193200  1
  Cu  Cu14  1  0.31555500  0.39754900  0.53215800  1
  Cu  Cu15  1  0.39754900  0.31555500  0.53215800  1
  Cu  Cu16  1  0.68444500  0.60245100  0.46784200  1
  Cu  Cu17  1  0.60245100  0.68444500  0.46784200  1
  C  C18  1  0.83805100  0.26197600  0.74935000  1
  C  C19  1  0.26197600  0.83805100  0.74935000  1
  C  C20  1  0.16194900  0.73802400  0.25065000  1
  C  C21  1  0.73802400  0.16194900  0.25065000  1
  C  C22  1  0.00552700  0.24145400  0.99364200  1
  C  C23  1  0.24145400  0.00552700  0.99364200  1
  C  C24  1  0.99447300  0.75854600  0.00635800  1
  C  C25  1  0.75854600  0.99447300  0.00635800  1
  C  C26  1  0.87795500  0.55691300  0.73129100  1
  C  C27  1  0.55691300  0.87795500  0.73129100  1
  C  C28  1  0.12204500  0.44308700  0.26870900  1
  C  C29  1  0.44308700  0.12204500  0.26870900  1
  C  C30  1  0.14043800  0.54104000  0.76270900  1
  C  C31  1  0.54104000  0.14043800  0.76270900  1
  C  C32  1  0.85956200  0.45896000  0.23729100  1
  C  C33  1  0.45896000  0.85956200  0.23729100  1
  C  C34  1  0.30852700  0.45369100  0.87475200  1
  C  C35  1  0.45369100  0.30852700  0.87475200  1
  C  C36  1  0.69147300  0.54630900  0.12524800  1
  C  C37  1  0.54630900  0.69147300  0.12524800  1
  C  C38  1  0.34639900  0.34639900  0.41823000  1
  C  C39  1  0.65360100  0.65360100  0.58177000  1
