# generated using pymatgen
data_Cu8Ni2C15
_symmetry_space_group_name_H-M   'P 1'
_cell_length_a   5.04728900
_cell_length_b   10.63600300
_cell_length_c   18.93524600
_cell_angle_alpha   90.00000000
_cell_angle_beta   90.00000000
_cell_angle_gamma   90.00000000
_symmetry_Int_Tables_number   1
_chemical_formula_structural   Cu8Ni2C15
_chemical_formula_sum   'Cu32 Ni8 C60'
_cell_volume   1016.50045022
_cell_formula_units_Z   4
loop_
 _symmetry_equiv_pos_site_id
 _symmetry_equiv_pos_as_xyz
  1  'x, y, z'
loop_
 _atom_site_type_symbol
 _atom_site_label
 _atom_site_symmetry_multiplicity
 _atom_site_fract_x
 _atom_site_fract_y
 _atom_site_fract_z
 _atom_site_occupancy
  C  C0  1  0.27506900  0.64226900  0.50188100  1
  C  C1  1  0.22493100  0.14226900  0.99811900  1
  C  C2  1  0.72493100  0.35773100  0.00188100  1
  C  C3  1  0.77506900  0.85773100  0.49811900  1
  C  C4  1  0.72493100  0.35773100  0.49811900  1
  C  C5  1  0.77506900  0.85773100  0.00188100  1
  C  C6  1  0.27506900  0.64226900  0.99811900  1
  C  C7  1  0.22493100  0.14226900  0.50188100  1
  C  C8  1  0.06413000  0.26602400  0.75000000  1
  C  C9  1  0.43587000  0.76602400  0.75000000  1
  C  C10  1  0.93587000  0.73397600  0.25000000  1
  C  C11  1  0.56413000  0.23397600  0.25000000  1
  Ni  Ni12  1  0.23074300  0.39821100  0.59446100  1
  Ni  Ni13  1  0.26925700  0.89821100  0.90553900  1
  Ni  Ni14  1  0.76925700  0.60178900  0.09446100  1
  Ni  Ni15  1  0.73074300  0.10178900  0.40553900  1
  Ni  Ni16  1  0.76925700  0.60178900  0.40553900  1
  Ni  Ni17  1  0.73074300  0.10178900  0.09446100  1
  Ni  Ni18  1  0.23074300  0.39821100  0.90553900  1
  Ni  Ni19  1  0.26925700  0.89821100  0.59446100  1
  Cu  Cu20  1  0.63549700  0.39585700  0.79007700  1
  Cu  Cu21  1  0.86450300  0.89585700  0.70992300  1
  Cu  Cu22  1  0.36450300  0.60414300  0.29007700  1
  Cu  Cu23  1  0.13549700  0.10414300  0.20992300  1
  Cu  Cu24  1  0.36450300  0.60414300  0.20992300  1
  Cu  Cu25  1  0.13549700  0.10414300  0.29007700  1
  Cu  Cu26  1  0.63549700  0.39585700  0.70992300  1
  Cu  Cu27  1  0.86450300  0.89585700  0.79007700  1
  Cu  Cu28  1  0.36396200  0.06817300  0.79058700  1
  Cu  Cu29  1  0.13603800  0.56817300  0.70941300  1
  Cu  Cu30  1  0.63603800  0.93182700  0.29058700  1
  Cu  Cu31  1  0.86396200  0.43182700  0.20941300  1
  Cu  Cu32  1  0.63603800  0.93182700  0.20941300  1
  Cu  Cu33  1  0.86396200  0.43182700  0.29058700  1
  Cu  Cu34  1  0.36396200  0.06817300  0.70941300  1
  Cu  Cu35  1  0.13603800  0.56817300  0.79058700  1
  Cu  Cu36  1  0.93898500  0.11634100  0.63621300  1
  Cu  Cu37  1  0.56101500  0.61634100  0.86378700  1
  Cu  Cu38  1  0.06101500  0.88365900  0.13621300  1
  Cu  Cu39  1  0.43898500  0.38365900  0.36378700  1
  Cu  Cu40  1  0.06101500  0.88365900  0.36378700  1
  Cu  Cu41  1  0.43898500  0.38365900  0.13621300  1
  Cu  Cu42  1  0.93898500  0.11634100  0.86378700  1
  Cu  Cu43  1  0.56101500  0.61634100  0.63621300  1
  Cu  Cu44  1  0.70303700  0.21306000  0.65296000  1
  Cu  Cu45  1  0.79696300  0.71306000  0.84704000  1
  Cu  Cu46  1  0.29696300  0.78694000  0.15296000  1
  Cu  Cu47  1  0.20303700  0.28694000  0.34704000  1
  Cu  Cu48  1  0.29696300  0.78694000  0.34704000  1
  Cu  Cu49  1  0.20303700  0.28694000  0.15296000  1
  Cu  Cu50  1  0.70303700  0.21306000  0.84704000  1
  Cu  Cu51  1  0.79696300  0.71306000  0.65296000  1
  C  C52  1  0.29302800  0.36070500  0.67089400  1
  C  C53  1  0.20697200  0.86070500  0.82910600  1
  C  C54  1  0.70697200  0.63929500  0.17089400  1
  C  C55  1  0.79302800  0.13929500  0.32910600  1
  C  C56  1  0.70697200  0.63929500  0.32910600  1
  C  C57  1  0.79302800  0.13929500  0.17089400  1
  C  C58  1  0.29302800  0.36070500  0.82910600  1
  C  C59  1  0.20697200  0.86070500  0.67089400  1
  C  C60  1  0.35153200  0.53135500  0.58038600  1
  C  C61  1  0.14846800  0.03135500  0.91961400  1
  C  C62  1  0.64846800  0.46864500  0.08038600  1
  C  C63  1  0.85153200  0.96864500  0.41961400  1
  C  C64  1  0.64846800  0.46864500  0.41961400  1
  C  C65  1  0.85153200  0.96864500  0.08038600  1
  C  C66  1  0.35153200  0.53135500  0.91961400  1
  C  C67  1  0.14846800  0.03135500  0.58038600  1
  C  C68  1  0.06897200  0.60108000  0.41991900  1
  C  C69  1  0.43102800  0.10108000  0.08008100  1
  C  C70  1  0.93102800  0.39892000  0.91991900  1
  C  C71  1  0.56897200  0.89892000  0.58008100  1
  C  C72  1  0.93102800  0.39892000  0.58008100  1
  C  C73  1  0.56897200  0.89892000  0.91991900  1
  C  C74  1  0.06897200  0.60108000  0.08008100  1
  C  C75  1  0.43102800  0.10108000  0.41991900  1
  C  C76  1  0.62955900  0.69474600  0.46009900  1
  C  C77  1  0.87044100  0.19474600  0.03990100  1
  C  C78  1  0.37044100  0.30525400  0.96009900  1
  C  C79  1  0.12955900  0.80525400  0.53990100  1
  C  C80  1  0.37044100  0.30525400  0.53990100  1
  C  C81  1  0.12955900  0.80525400  0.96009900  1
  C  C82  1  0.62955900  0.69474600  0.03990100  1
  C  C83  1  0.87044100  0.19474600  0.46009900  1
  C  C84  1  0.76063700  0.39768600  0.75000000  1
  C  C85  1  0.73936300  0.89768600  0.75000000  1
  C  C86  1  0.23936300  0.60231400  0.25000000  1
  C  C87  1  0.26063700  0.10231400  0.25000000  1
  C  C88  1  0.33952900  0.12341600  0.75000000  1
  C  C89  1  0.16047100  0.62341600  0.75000000  1
  C  C90  1  0.66047100  0.87658400  0.25000000  1
  C  C91  1  0.83952900  0.37658400  0.25000000  1
  C  C92  1  0.84828200  0.16578700  0.67358600  1
  C  C93  1  0.65171800  0.66578700  0.82641400  1
  C  C94  1  0.15171800  0.83421300  0.17358600  1
  C  C95  1  0.34828200  0.33421300  0.32641400  1
  C  C96  1  0.15171800  0.83421300  0.32641400  1
  C  C97  1  0.34828200  0.33421300  0.17358600  1
  C  C98  1  0.84828200  0.16578700  0.82641400  1
  C  C99  1  0.65171800  0.66578700  0.67358600  1
