# generated using pymatgen
data_Cu2(NiC5)3
_symmetry_space_group_name_H-M   'P 1'
_cell_length_a   8.42102318
_cell_length_b   8.42102318
_cell_length_c   8.42102318
_cell_angle_alpha   109.47122063
_cell_angle_beta   109.47122063
_cell_angle_gamma   109.47122063
_symmetry_Int_Tables_number   1
_chemical_formula_structural   Cu2(NiC5)3
_chemical_formula_sum   'Cu4 Ni6 C30'
_cell_volume   459.69808833
_cell_formula_units_Z   2
loop_
 _symmetry_equiv_pos_site_id
 _symmetry_equiv_pos_as_xyz
  1  'x, y, z'
loop_
 _atom_site_type_symbol
 _atom_site_label
 _atom_site_symmetry_multiplicity
 _atom_site_fract_x
 _atom_site_fract_y
 _atom_site_fract_z
 _atom_site_occupancy
  C  C0  1  0.25000000  0.53563700  0.28563700  1
  C  C1  1  0.75000000  0.96436300  0.21436300  1
  C  C2  1  0.96436300  0.21436300  0.75000000  1
  C  C3  1  0.53563700  0.28563700  0.25000000  1
  C  C4  1  0.28563700  0.25000000  0.53563700  1
  C  C5  1  0.21436300  0.75000000  0.96436300  1
  Ni  Ni6  1  0.75000000  0.46878600  0.71878600  1
  Ni  Ni7  1  0.25000000  0.03121400  0.78121400  1
  Ni  Ni8  1  0.03121400  0.78121400  0.25000000  1
  Ni  Ni9  1  0.46878600  0.71878600  0.75000000  1
  Ni  Ni10  1  0.71878600  0.75000000  0.46878600  1
  Ni  Ni11  1  0.78121400  0.25000000  0.03121400  1
  Cu  Cu12  1  0.50734900  0.50000000  0.00000000  1
  Cu  Cu13  1  0.99265100  0.99265100  0.99265100  1
  Cu  Cu14  1  0.00000000  0.50734900  0.50000000  1
  Cu  Cu15  1  0.50000000  0.00000000  0.50734900  1
  C  C16  1  0.43813900  0.69773000  0.97605500  1
  C  C17  1  0.06186100  0.03791600  0.25959100  1
  C  C18  1  0.22167500  0.46208400  0.52394500  1
  C  C19  1  0.27832500  0.80227000  0.24040900  1
  C  C20  1  0.80227000  0.24040900  0.27832500  1
  C  C21  1  0.46208400  0.52394500  0.22167500  1
  C  C22  1  0.03791600  0.25959100  0.06186100  1
  C  C23  1  0.69773000  0.97605500  0.43813900  1
  C  C24  1  0.25959100  0.06186100  0.03791600  1
  C  C25  1  0.97605500  0.43813900  0.69773000  1
  C  C26  1  0.24040900  0.27832500  0.80227000  1
  C  C27  1  0.52394500  0.22167500  0.46208400  1
  C  C28  1  0.57019700  0.30045200  0.02172100  1
  C  C29  1  0.92980300  0.95152400  0.73025400  1
  C  C30  1  0.77873000  0.54847600  0.47827900  1
  C  C31  1  0.72127000  0.19954800  0.76974600  1
  C  C32  1  0.19954800  0.76974600  0.72127000  1
  C  C33  1  0.54847600  0.47827900  0.77873000  1
  C  C34  1  0.95152400  0.73025400  0.92980300  1
  C  C35  1  0.30045200  0.02172100  0.57019700  1
  C  C36  1  0.73025400  0.92980300  0.95152400  1
  C  C37  1  0.02172100  0.57019700  0.30045200  1
  C  C38  1  0.76974600  0.72127000  0.19954800  1
  C  C39  1  0.47827900  0.77873000  0.54847600  1
