# generated using pymatgen
data_Cu3(NiC9)2
_symmetry_space_group_name_H-M   'P 1'
_cell_length_a   13.24043121
_cell_length_b   10.00562006
_cell_length_c   9.86491434
_cell_angle_alpha   83.56642389
_cell_angle_beta   48.67081770
_cell_angle_gamma   47.76275841
_symmetry_Int_Tables_number   1
_chemical_formula_structural   Cu3(NiC9)2
_chemical_formula_sum   'Cu6 Ni4 C36'
_cell_volume   582.94298829
_cell_formula_units_Z   2
loop_
 _symmetry_equiv_pos_site_id
 _symmetry_equiv_pos_as_xyz
  1  'x, y, z'
loop_
 _atom_site_type_symbol
 _atom_site_label
 _atom_site_symmetry_multiplicity
 _atom_site_fract_x
 _atom_site_fract_y
 _atom_site_fract_z
 _atom_site_occupancy
  C  C0  1  0.82035800  0.61664000  0.11899700  1
  C  C1  1  0.44400500  0.11899700  0.61664000  1
  C  C2  1  0.13100300  0.80599500  0.42964200  1
  C  C3  1  0.63336000  0.42964200  0.80599500  1
  Ni  Ni4  1  0.57942000  0.73448400  0.99736000  1
  Ni  Ni5  1  0.68873600  0.99736000  0.73448400  1
  Ni  Ni6  1  0.25264000  0.56126400  0.67058000  1
  Ni  Ni7  1  0.51551600  0.67058000  0.56126400  1
  Cu  Cu8  1  0.24945400  0.25054600  0.25054600  1
  Cu  Cu9  1  0.99945400  0.00054600  0.00054600  1
  Cu  Cu10  1  0.56985700  0.50925900  0.23849000  1
  Cu  Cu11  1  0.68239400  0.23849000  0.50925900  1
  Cu  Cu12  1  0.01151000  0.56760600  0.68014300  1
  Cu  Cu13  1  0.74074100  0.68014300  0.56760600  1
  C  C14  1  0.11814300  0.09190100  0.48520400  1
  C  C15  1  0.30475200  0.48520400  0.09190100  1
  C  C16  1  0.76479600  0.94524800  0.13185700  1
  C  C17  1  0.15809900  0.13185700  0.94524800  1
  C  C18  1  0.98026200  0.13894800  0.72485400  1
  C  C19  1  0.15593600  0.72485400  0.13894800  1
  C  C20  1  0.52514600  0.09406400  0.26973800  1
  C  C21  1  0.11105200  0.26973800  0.09406400  1
  C  C22  1  0.33658800  0.02599200  0.21008400  1
  C  C23  1  0.42733600  0.21008400  0.02599200  1
  C  C24  1  0.03991600  0.82266400  0.91341200  1
  C  C25  1  0.22400800  0.91341200  0.82266400  1
  C  C26  1  0.53116100  0.60819300  0.11258900  1
  C  C27  1  0.74805700  0.11258900  0.60819300  1
  C  C28  1  0.13741100  0.50194300  0.71883900  1
  C  C29  1  0.64180700  0.71883900  0.50194300  1
  C  C30  1  0.81410700  0.61747100  0.88387100  1
  C  C31  1  0.68455100  0.88387100  0.61747100  1
  C  C32  1  0.36612900  0.56544900  0.43589300  1
  C  C33  1  0.63252900  0.43589300  0.56544900  1
  C  C34  1  0.57933600  0.61609400  0.33628800  1
  C  C35  1  0.46828200  0.33628800  0.61609400  1
  C  C36  1  0.91371200  0.78171800  0.67066400  1
  C  C37  1  0.63390600  0.67066400  0.78171800  1
  C  C38  1  0.81368400  0.23262200  0.04714900  1
  C  C39  1  0.90654500  0.04714900  0.23262200  1
  C  C40  1  0.20285100  0.34345500  0.43631600  1
  C  C41  1  0.01737800  0.43631600  0.34345500  1
  C  C42  1  0.00321900  0.11619900  0.60856500  1
  C  C43  1  0.27201600  0.60856500  0.11619900  1
  C  C44  1  0.64143500  0.97798400  0.24678100  1
  C  C45  1  0.13380100  0.24678100  0.97798400  1
