# generated using pymatgen
data_CuNiC
_symmetry_space_group_name_H-M   'P 1'
_cell_length_a   4.44437500
_cell_length_b   6.92610300
_cell_length_c   7.76854300
_cell_angle_alpha   90.00000000
_cell_angle_beta   90.00000000
_cell_angle_gamma   90.00000000
_symmetry_Int_Tables_number   1
_chemical_formula_structural   CuNiC
_chemical_formula_sum   'Cu4 Ni4 C4'
_cell_volume   239.13283673
_cell_formula_units_Z   4
loop_
 _symmetry_equiv_pos_site_id
 _symmetry_equiv_pos_as_xyz
  1  'x, y, z'
loop_
 _atom_site_type_symbol
 _atom_site_label
 _atom_site_symmetry_multiplicity
 _atom_site_fract_x
 _atom_site_fract_y
 _atom_site_fract_z
 _atom_site_occupancy
  C  C0  1  0.25000000  0.02959400  0.68255700  1
  C  C1  1  0.25000000  0.52959400  0.81744300  1
  C  C2  1  0.75000000  0.97040600  0.31744300  1
  C  C3  1  0.75000000  0.47040600  0.18255700  1
  Ni  Ni4  1  0.25000000  0.14751400  0.06506900  1
  Ni  Ni5  1  0.25000000  0.64751400  0.43493100  1
  Ni  Ni6  1  0.75000000  0.85248600  0.93493100  1
  Ni  Ni7  1  0.75000000  0.35248600  0.56506900  1
  Cu  Cu8  1  0.25000000  0.27611100  0.38619200  1
  Cu  Cu9  1  0.25000000  0.77611100  0.11380800  1
  Cu  Cu10  1  0.75000000  0.72388900  0.61380800  1
  Cu  Cu11  1  0.75000000  0.22388900  0.88619200  1
