# generated using pymatgen
data_CuNiC27
_symmetry_space_group_name_H-M   'P 1'
_cell_length_a   7.23328200
_cell_length_b   8.04558700
_cell_length_c   22.38590521
_cell_angle_alpha   89.69402305
_cell_angle_beta   90.00000000
_cell_angle_gamma   90.00000000
_symmetry_Int_Tables_number   1
_chemical_formula_structural   CuNiC27
_chemical_formula_sum   'Cu4 Ni4 C108'
_cell_volume   1302.75155450
_cell_formula_units_Z   4
loop_
 _symmetry_equiv_pos_site_id
 _symmetry_equiv_pos_as_xyz
  1  'x, y, z'
loop_
 _atom_site_type_symbol
 _atom_site_label
 _atom_site_symmetry_multiplicity
 _atom_site_fract_x
 _atom_site_fract_y
 _atom_site_fract_z
 _atom_site_occupancy
  C  C0  1  0.57523400  0.25274000  0.38217900  1
  C  C1  1  0.42476600  0.74726000  0.61782100  1
  C  C2  1  0.07523400  0.74726000  0.11782100  1
  C  C3  1  0.92476600  0.25274000  0.88217900  1
  C  C4  1  0.97631300  0.49710800  0.60768100  1
  C  C5  1  0.71250200  0.63469600  0.95405100  1
  C  C6  1  0.11292700  0.81480100  0.74916400  1
  C  C7  1  0.29702000  0.14659000  0.03235500  1
  C  C8  1  0.79702000  0.85341000  0.46764500  1
  C  C9  1  0.72328800  0.07644100  0.12001500  1
  C  C10  1  0.51377600  0.50639300  0.71694900  1
  C  C11  1  0.05331000  0.02074200  0.42509600  1
  C  C12  1  0.98622400  0.50639300  0.21694900  1
  C  C13  1  0.19747800  0.09392700  0.63784200  1
  C  C14  1  0.47822000  0.18301700  0.18455700  1
  C  C15  1  0.28749800  0.36530400  0.04594900  1
  C  C16  1  0.69747800  0.90607300  0.86215800  1
  C  C17  1  0.29979000  0.31178100  0.15421500  1
  C  C18  1  0.28168700  0.87946300  0.95831900  1
  C  C19  1  0.78168700  0.12053700  0.54168100  1
  C  C20  1  0.79853000  0.41284000  0.56053200  1
  C  C21  1  0.94669000  0.97925800  0.57490400  1
  C  C22  1  0.79979000  0.68821900  0.34578500  1
  C  C23  1  0.13858800  0.21973400  0.27107800  1
  C  C24  1  0.29853000  0.58716000  0.93946800  1
  C  C25  1  0.52178000  0.81698300  0.81544300  1
  C  C26  1  0.77671200  0.07644100  0.62001500  1
  C  C27  1  0.27671200  0.92355900  0.87998500  1
  C  C28  1  0.55331000  0.97925800  0.07490400  1
  C  C29  1  0.96564100  0.71659000  0.50106100  1
  C  C30  1  0.03435900  0.28341000  0.49893900  1
  C  C31  1  0.01377600  0.49360700  0.78305100  1
  C  C32  1  0.21831300  0.87946300  0.45831900  1
  C  C33  1  0.86141200  0.78026600  0.72892200  1
  C  C34  1  0.70298000  0.85341000  0.96764500  1
  C  C35  1  0.29403000  0.62424800  0.86069900  1
  C  C36  1  0.70147000  0.41284000  0.06053200  1
  C  C37  1  0.80252200  0.90607300  0.36215800  1
  C  C38  1  0.46564100  0.28341000  0.99893900  1
  C  C39  1  0.20021000  0.31178100  0.65421500  1
  C  C40  1  0.20597000  0.62424800  0.36069900  1
  C  C41  1  0.20298000  0.14659000  0.53235500  1
  C  C42  1  0.79403000  0.37575200  0.63930100  1
  C  C43  1  0.70597000  0.37575200  0.13930100  1
  C  C44  1  0.78749800  0.63469600  0.45405100  1
  C  C45  1  0.53435900  0.71659000  0.00106100  1
  C  C46  1  0.02368700  0.50289200  0.39231900  1
  C  C47  1  0.47631300  0.50289200  0.89231900  1
  C  C48  1  0.48622400  0.49360700  0.28305100  1
  C  C49  1  0.44669000  0.02074200  0.92509600  1
  C  C50  1  0.97822000  0.81698300  0.31544300  1
  C  C51  1  0.70021000  0.68821900  0.84578500  1
  C  C52  1  0.38707300  0.81480100  0.24916400  1
  C  C53  1  0.21250200  0.36530400  0.54594900  1
  C  C54  1  0.52368700  0.49710800  0.10768100  1
  C  C55  1  0.30252200  0.09392700  0.13784200  1
  C  C56  1  0.61292700  0.18519900  0.75083600  1
  C  C57  1  0.20147000  0.58716000  0.43946800  1
  C  C58  1  0.22328800  0.92355900  0.37998500  1
  C  C59  1  0.88707300  0.18519900  0.25083600  1
  C  C60  1  0.36141200  0.21973400  0.77107800  1
  C  C61  1  0.63858800  0.78026600  0.22892200  1
  C  C62  1  0.71831300  0.12053700  0.04168100  1
  C  C63  1  0.02178000  0.18301700  0.68455700  1
  C  C64  1  0.50666700  0.20489000  0.78598300  1
  C  C65  1  0.62050600  0.74066900  0.96175100  1
  C  C66  1  0.86646500  0.09311500  0.58105200  1
  C  C67  1  0.12050600  0.25933100  0.53824900  1
  C  C68  1  0.36646500  0.90688500  0.91894800  1
  C  C69  1  0.37949400  0.25933100  0.03824900  1
  C  C70  1  0.88342000  0.39184000  0.60033200  1
  C  C71  1  0.38342000  0.60816000  0.89966800  1
  C  C72  1  0.11220000  0.20364600  0.64603200  1
  C  C73  1  0.61658000  0.39184000  0.10033200  1
  C  C74  1  0.49333300  0.79511000  0.21401700  1
  C  C75  1  0.11658000  0.60816000  0.39966800  1
  C  C76  1  0.38780000  0.20364600  0.14603200  1
  C  C77  1  0.00666700  0.79511000  0.71401700  1
  C  C78  1  0.13353500  0.90688500  0.41894800  1
  C  C79  1  0.88780000  0.79635400  0.35396800  1
  C  C80  1  0.87949400  0.74066900  0.46175100  1
  C  C81  1  0.63353500  0.09311500  0.08105200  1
  C  C82  1  0.99333300  0.20489000  0.28598300  1
  C  C83  1  0.61220000  0.79635400  0.85396800  1
  Ni  Ni84  1  0.00415100  0.76336000  0.40844800  1
  Ni  Ni85  1  0.50415100  0.23664000  0.09155200  1
  Ni  Ni86  1  0.49584900  0.76336000  0.90844800  1
  Ni  Ni87  1  0.99584900  0.23664000  0.59155200  1
  Cu  Cu88  1  0.04638500  0.79792100  0.66094200  1
  Cu  Cu89  1  0.95361500  0.20207900  0.33905800  1
  Cu  Cu90  1  0.45361500  0.79792100  0.16094200  1
  Cu  Cu91  1  0.54638500  0.20207900  0.83905800  1
  C  C92  1  0.05766400  0.12334700  0.81759000  1
  C  C93  1  0.03263700  0.49002100  0.73911800  1
  C  C94  1  0.66571300  0.72200300  0.58453300  1
  C  C95  1  0.51435300  0.49758500  0.34612900  1
  C  C96  1  0.91352900  0.04256700  0.92771900  1
  C  C97  1  0.94233600  0.87665300  0.18241000  1
  C  C98  1  0.83428700  0.72200300  0.08453300  1
  C  C99  1  0.98564700  0.49758500  0.84612900  1
  C  C100  1  0.16571300  0.27799700  0.91546700  1
  C  C101  1  0.96736300  0.50997900  0.26088200  1
  C  C102  1  0.41352900  0.95743300  0.57228100  1
  C  C103  1  0.33381100  0.63918100  0.54279600  1
  C  C104  1  0.58647100  0.04256700  0.42771900  1
  C  C105  1  0.53263700  0.50997900  0.76088200  1
  C  C106  1  0.33428700  0.27799700  0.41546700  1
  C  C107  1  0.01435300  0.50241500  0.15387100  1
  C  C108  1  0.55766400  0.87665300  0.68241000  1
  C  C109  1  0.83381100  0.36081900  0.95720400  1
  C  C110  1  0.16618900  0.63918100  0.04279600  1
  C  C111  1  0.48564700  0.50241500  0.65387100  1
  C  C112  1  0.08647100  0.95743300  0.07228100  1
  C  C113  1  0.66618900  0.36081900  0.45720400  1
  C  C114  1  0.46736300  0.49002100  0.23911800  1
  C  C115  1  0.44233600  0.12334700  0.31759000  1
