# generated using pymatgen
data_Cu5Ni3C16
_symmetry_space_group_name_H-M   'P 1'
_cell_length_a   9.05438600
_cell_length_b   11.11854500
_cell_length_c   15.98221200
_cell_angle_alpha   90.00000000
_cell_angle_beta   90.00000000
_cell_angle_gamma   90.00000000
_symmetry_Int_Tables_number   1
_chemical_formula_structural   Cu5Ni3C16
_chemical_formula_sum   'Cu20 Ni12 C64'
_cell_volume   1608.95482463
_cell_formula_units_Z   4
loop_
 _symmetry_equiv_pos_site_id
 _symmetry_equiv_pos_as_xyz
  1  'x, y, z'
loop_
 _atom_site_type_symbol
 _atom_site_label
 _atom_site_symmetry_multiplicity
 _atom_site_fract_x
 _atom_site_fract_y
 _atom_site_fract_z
 _atom_site_occupancy
  C  C0  1  0.14809700  0.25000000  0.58821600  1
  C  C1  1  0.35190300  0.25000000  0.08821600  1
  C  C2  1  0.85190300  0.75000000  0.41178400  1
  C  C3  1  0.64809700  0.75000000  0.91178400  1
  C  C4  1  0.07279200  0.25000000  0.24973500  1
  C  C5  1  0.42720800  0.25000000  0.74973500  1
  C  C6  1  0.92720800  0.75000000  0.75026500  1
  C  C7  1  0.57279200  0.75000000  0.25026500  1
  C  C8  1  0.09148900  0.67614300  0.89668300  1
  C  C9  1  0.40851100  0.82385700  0.39668300  1
  C  C10  1  0.90851100  0.17614300  0.10331700  1
  C  C11  1  0.59148900  0.32385700  0.60331700  1
  C  C12  1  0.90851100  0.32385700  0.10331700  1
  C  C13  1  0.59148900  0.17614300  0.60331700  1
  C  C14  1  0.09148900  0.82385700  0.89668300  1
  C  C15  1  0.40851100  0.67614300  0.39668300  1
  C  C16  1  0.69712200  0.25000000  0.66729500  1
  C  C17  1  0.80287800  0.25000000  0.16729500  1
  C  C18  1  0.30287800  0.75000000  0.33270500  1
  C  C19  1  0.19712200  0.75000000  0.83270500  1
  C  C20  1  0.87032800  0.68788200  0.73060700  1
  C  C21  1  0.62967200  0.81211800  0.23060700  1
  C  C22  1  0.12967200  0.18788200  0.26939300  1
  C  C23  1  0.37032800  0.31211800  0.76939300  1
  C  C24  1  0.12967200  0.31211800  0.26939300  1
  C  C25  1  0.37032800  0.18788200  0.76939300  1
  C  C26  1  0.87032800  0.81211800  0.73060700  1
  C  C27  1  0.62967200  0.68788200  0.23060700  1
  C  C28  1  0.90105800  0.25000000  0.81338000  1
  C  C29  1  0.59894200  0.25000000  0.31338000  1
  C  C30  1  0.09894200  0.75000000  0.18662000  1
  C  C31  1  0.40105800  0.75000000  0.68662000  1
  C  C32  1  0.10510200  0.13483000  0.66439100  1
  C  C33  1  0.39489800  0.36517000  0.16439100  1
  C  C34  1  0.89489800  0.63483000  0.33560900  1
  C  C35  1  0.60510200  0.86517000  0.83560900  1
  C  C36  1  0.89489800  0.86517000  0.33560900  1
  C  C37  1  0.60510200  0.63483000  0.83560900  1
  C  C38  1  0.10510200  0.36517000  0.66439100  1
  C  C39  1  0.39489800  0.13483000  0.16439100  1
  C  C40  1  0.87117400  0.56664700  0.01687900  1
  C  C41  1  0.62882600  0.93335300  0.51687900  1
  C  C42  1  0.12882600  0.06664700  0.98312100  1
  C  C43  1  0.37117400  0.43335300  0.48312100  1
  C  C44  1  0.12882600  0.43335300  0.98312100  1
  C  C45  1  0.37117400  0.06664700  0.48312100  1
  C  C46  1  0.87117400  0.93335300  0.01687900  1
  C  C47  1  0.62882600  0.56664700  0.51687900  1
  C  C48  1  0.51446700  0.97864800  0.58622300  1
  C  C49  1  0.98553300  0.52135200  0.08622300  1
  C  C50  1  0.48553300  0.47864800  0.41377700  1
  C  C51  1  0.01446700  0.02135200  0.91377700  1
  C  C52  1  0.48553300  0.02135200  0.41377700  1
  C  C53  1  0.01446700  0.47864800  0.91377700  1
  C  C54  1  0.51446700  0.52135200  0.58622300  1
  C  C55  1  0.98553300  0.97864800  0.08622300  1
  C  C56  1  0.17077800  0.09793300  0.69681000  1
  C  C57  1  0.32922200  0.40206700  0.19681000  1
  C  C58  1  0.82922200  0.59793300  0.30319000  1
  C  C59  1  0.67077800  0.90206700  0.80319000  1
  C  C60  1  0.82922200  0.90206700  0.30319000  1
  C  C61  1  0.67077800  0.59793300  0.80319000  1
  C  C62  1  0.17077800  0.40206700  0.69681000  1
  C  C63  1  0.32922200  0.09793300  0.19681000  1
  Ni  Ni64  1  0.54635800  0.25000000  0.99793700  1
  Ni  Ni65  1  0.95364200  0.25000000  0.49793700  1
  Ni  Ni66  1  0.45364200  0.75000000  0.00206300  1
  Ni  Ni67  1  0.04635800  0.75000000  0.50206300  1
  Ni  Ni68  1  0.30974300  0.02590500  0.76800000  1
  Ni  Ni69  1  0.19025700  0.47409500  0.26800000  1
  Ni  Ni70  1  0.69025700  0.52590500  0.23200000  1
  Ni  Ni71  1  0.80974300  0.97409500  0.73200000  1
  Ni  Ni72  1  0.69025700  0.97409500  0.23200000  1
  Ni  Ni73  1  0.80974300  0.52590500  0.73200000  1
  Ni  Ni74  1  0.30974300  0.47409500  0.76800000  1
  Ni  Ni75  1  0.19025700  0.02590500  0.26800000  1
  Cu  Cu76  1  0.96764000  0.25000000  0.86851900  1
  Cu  Cu77  1  0.53236000  0.25000000  0.36851900  1
  Cu  Cu78  1  0.03236000  0.75000000  0.13148100  1
  Cu  Cu79  1  0.46764000  0.75000000  0.63148100  1
  Cu  Cu80  1  0.09781700  0.25000000  0.86249100  1
  Cu  Cu81  1  0.40218300  0.25000000  0.36249100  1
  Cu  Cu82  1  0.90218300  0.75000000  0.13750900  1
  Cu  Cu83  1  0.59781700  0.75000000  0.63750900  1
  Cu  Cu84  1  0.59322800  0.25000000  0.64210000  1
  Cu  Cu85  1  0.90677200  0.25000000  0.14210000  1
  Cu  Cu86  1  0.40677200  0.75000000  0.35790000  1
  Cu  Cu87  1  0.09322800  0.75000000  0.85790000  1
  Cu  Cu88  1  0.93911200  0.49521200  0.03059100  1
  Cu  Cu89  1  0.56088800  0.00478800  0.53059100  1
  Cu  Cu90  1  0.06088800  0.99521200  0.96940900  1
  Cu  Cu91  1  0.43911200  0.50478800  0.46940900  1
  Cu  Cu92  1  0.06088800  0.50478800  0.96940900  1
  Cu  Cu93  1  0.43911200  0.99521200  0.46940900  1
  Cu  Cu94  1  0.93911200  0.00478800  0.03059100  1
  Cu  Cu95  1  0.56088800  0.49521200  0.53059100  1
