# generated using pymatgen
data_Cu4Ni3C16
_symmetry_space_group_name_H-M   'P 1'
_cell_length_a   3.83653179
_cell_length_b   3.83653213
_cell_length_c   23.06727865
_cell_angle_alpha   94.77019995
_cell_angle_beta   94.77020195
_cell_angle_gamma   90.00000049
_symmetry_Int_Tables_number   1
_chemical_formula_structural   Cu4Ni3C16
_chemical_formula_sum   'Cu4 Ni3 C16'
_cell_volume   337.17057836
_cell_formula_units_Z   1
loop_
 _symmetry_equiv_pos_site_id
 _symmetry_equiv_pos_as_xyz
  1  'x, y, z'
loop_
 _atom_site_type_symbol
 _atom_site_label
 _atom_site_symmetry_multiplicity
 _atom_site_fract_x
 _atom_site_fract_y
 _atom_site_fract_z
 _atom_site_occupancy
  C  C0  1  0.16344300  0.16344300  0.32688600  1
  C  C1  1  0.83655700  0.83655700  0.67311400  1
  Ni  Ni2  1  0.07828800  0.07828800  0.15657800  1
  Ni  Ni3  1  0.92171200  0.92171200  0.84342200  1
  Ni  Ni4  1  0.00000000  0.00000000  0.00000000  1
  Cu  Cu5  1  0.53579000  0.53579000  0.07158000  1
  Cu  Cu6  1  0.39190200  0.39190200  0.78380300  1
  Cu  Cu7  1  0.60809800  0.60809800  0.21619700  1
  Cu  Cu8  1  0.46421000  0.46421000  0.92842000  1
  C  C9  1  0.72486500  0.72486500  0.44972800  1
  C  C10  1  0.27513500  0.27513500  0.55027200  1
  C  C11  1  0.40495300  0.90495300  0.80990600  1
  C  C12  1  0.52998900  0.02998900  0.05997800  1
  C  C13  1  0.22112800  0.22112800  0.44225600  1
  C  C14  1  0.97001100  0.47001100  0.94002200  1
  C  C15  1  0.77887200  0.77887200  0.55774400  1
  C  C16  1  0.09504700  0.59504700  0.19009400  1
  C  C17  1  0.59504700  0.09504700  0.19009400  1
  C  C18  1  0.34750400  0.34750400  0.69500700  1
  C  C19  1  0.90495300  0.40495300  0.80990600  1
  C  C20  1  0.02998900  0.52998900  0.05997800  1
  C  C21  1  0.47001100  0.97001100  0.94002200  1
  C  C22  1  0.65249600  0.65249600  0.30499300  1
