# generated using pymatgen
data_Cu13Ni
_symmetry_space_group_name_H-M   'P 1'
_cell_length_a   6.61372963
_cell_length_b   6.61372963
_cell_length_c   5.17824894
_cell_angle_alpha   81.45649664
_cell_angle_beta   81.45649664
_cell_angle_gamma   70.19328108
_symmetry_Int_Tables_number   1
_chemical_formula_structural   Cu13Ni
_chemical_formula_sum   'Cu13 Ni1'
_cell_volume   209.56187578
_cell_formula_units_Z   1
loop_
 _symmetry_equiv_pos_site_id
 _symmetry_equiv_pos_as_xyz
  1  'x, y, z'
loop_
 _atom_site_type_symbol
 _atom_site_label
 _atom_site_symmetry_multiplicity
 _atom_site_fract_x
 _atom_site_fract_y
 _atom_site_fract_z
 _atom_site_occupancy
  Ni  Ni0  1  0.00000000  0.00000000  0.50000000  1
  Cu  Cu1  1  0.35632500  0.99701600  0.19760300  1
  Cu  Cu2  1  0.64367500  0.00298400  0.80239700  1
  Cu  Cu3  1  0.00298400  0.64367500  0.80239700  1
  Cu  Cu4  1  0.99701600  0.35632500  0.19760300  1
  Cu  Cu5  1  0.62608800  0.21897700  0.32115300  1
  Cu  Cu6  1  0.37391200  0.78102300  0.67884700  1
  Cu  Cu7  1  0.78102300  0.37391200  0.67884700  1
  Cu  Cu8  1  0.21897700  0.62608800  0.32115300  1
  Cu  Cu9  1  0.00000000  0.00000000  0.00000000  1
  Cu  Cu10  1  0.61299400  0.61299400  0.06663600  1
  Cu  Cu11  1  0.38700600  0.38700600  0.93336400  1
  Cu  Cu12  1  0.77915000  0.77915000  0.36307700  1
  Cu  Cu13  1  0.22085000  0.22085000  0.63692300  1
