# generated using pymatgen
data_Cu6Ni3C11
_symmetry_space_group_name_H-M   'P 1'
_cell_length_a   7.30205100
_cell_length_b   11.14773500
_cell_length_c   17.60164900
_cell_angle_alpha   90.00000000
_cell_angle_beta   90.00000000
_cell_angle_gamma   90.00000000
_symmetry_Int_Tables_number   1
_chemical_formula_structural   Cu6Ni3C11
_chemical_formula_sum   'Cu24 Ni12 C44'
_cell_volume   1432.79763007
_cell_formula_units_Z   4
loop_
 _symmetry_equiv_pos_site_id
 _symmetry_equiv_pos_as_xyz
  1  'x, y, z'
loop_
 _atom_site_type_symbol
 _atom_site_label
 _atom_site_symmetry_multiplicity
 _atom_site_fract_x
 _atom_site_fract_y
 _atom_site_fract_z
 _atom_site_occupancy
  Ni  Ni0  1  0.30304900  0.25000000  0.27064200  1
  Ni  Ni1  1  0.69695100  0.75000000  0.72935800  1
  Ni  Ni2  1  0.30304900  0.75000000  0.22935800  1
  Ni  Ni3  1  0.69695100  0.25000000  0.77064200  1
  Ni  Ni4  1  0.71800600  0.99907700  0.99804800  1
  Ni  Ni5  1  0.28199400  0.49907700  0.00195200  1
  Ni  Ni6  1  0.71800600  0.00092300  0.50195200  1
  Ni  Ni7  1  0.28199400  0.50092300  0.49804800  1
  Ni  Ni8  1  0.28199400  0.00092300  0.00195200  1
  Ni  Ni9  1  0.71800600  0.50092300  0.99804800  1
  Ni  Ni10  1  0.28199400  0.99907700  0.49804800  1
  Ni  Ni11  1  0.71800600  0.49907700  0.50195200  1
  Cu  Cu12  1  0.92076900  0.25000000  0.97505000  1
  Cu  Cu13  1  0.07923100  0.75000000  0.02495000  1
  Cu  Cu14  1  0.92076900  0.75000000  0.52495000  1
  Cu  Cu15  1  0.07923100  0.25000000  0.47505000  1
  Cu  Cu16  1  0.40927800  0.25000000  0.06301800  1
  Cu  Cu17  1  0.59072200  0.75000000  0.93698200  1
  Cu  Cu18  1  0.40927800  0.75000000  0.43698200  1
  Cu  Cu19  1  0.59072200  0.25000000  0.56301800  1
  Cu  Cu20  1  0.03398700  0.07882600  0.15853800  1
  Cu  Cu21  1  0.96601300  0.57882600  0.84146200  1
  Cu  Cu22  1  0.03398700  0.92117400  0.34146200  1
  Cu  Cu23  1  0.96601300  0.42117400  0.65853800  1
  Cu  Cu24  1  0.96601300  0.92117400  0.84146200  1
  Cu  Cu25  1  0.03398700  0.42117400  0.15853800  1
  Cu  Cu26  1  0.96601300  0.07882600  0.65853800  1
  Cu  Cu27  1  0.03398700  0.57882600  0.34146200  1
  Cu  Cu28  1  0.47602300  0.43665300  0.84529400  1
  Cu  Cu29  1  0.52397700  0.93665300  0.15470600  1
  Cu  Cu30  1  0.47602300  0.56334700  0.65470600  1
  Cu  Cu31  1  0.52397700  0.06334700  0.34529400  1
  Cu  Cu32  1  0.52397700  0.56334700  0.15470600  1
  Cu  Cu33  1  0.47602300  0.06334700  0.84529400  1
  Cu  Cu34  1  0.52397700  0.43665300  0.34529400  1
  Cu  Cu35  1  0.47602300  0.93665300  0.65470600  1
  C  C36  1  0.81770500  0.25000000  0.27215500  1
  C  C37  1  0.18229500  0.75000000  0.72784500  1
  C  C38  1  0.81770500  0.75000000  0.22784500  1
  C  C39  1  0.18229500  0.25000000  0.77215500  1
  C  C40  1  0.76886600  0.09794500  0.03980100  1
  C  C41  1  0.23113400  0.59794500  0.96019900  1
  C  C42  1  0.76886600  0.90205500  0.46019900  1
  C  C43  1  0.23113400  0.40205500  0.53980100  1
  C  C44  1  0.23113400  0.90205500  0.96019900  1
  C  C45  1  0.76886600  0.40205500  0.03980100  1
  C  C46  1  0.23113400  0.09794500  0.53980100  1
  C  C47  1  0.76886600  0.59794500  0.46019900  1
  C  C48  1  0.08899000  0.25000000  0.08914200  1
  C  C49  1  0.91101000  0.75000000  0.91085800  1
  C  C50  1  0.08899000  0.75000000  0.41085800  1
  C  C51  1  0.91101000  0.25000000  0.58914200  1
  C  C52  1  0.34361600  0.39452000  0.96680400  1
  C  C53  1  0.65638400  0.89452100  0.03319600  1
  C  C54  1  0.34361600  0.60547900  0.53319600  1
  C  C55  1  0.65638400  0.10548000  0.46680400  1
  C  C56  1  0.65638400  0.60547900  0.03319600  1
  C  C57  1  0.34361600  0.10548000  0.96680400  1
  C  C58  1  0.65638400  0.39452000  0.46680400  1
  C  C59  1  0.34361600  0.89452100  0.53319600  1
  C  C60  1  0.27415800  0.13931000  0.23847600  1
  C  C61  1  0.72584200  0.63931000  0.76152400  1
  C  C62  1  0.27415800  0.86069000  0.26152400  1
  C  C63  1  0.72584200  0.36069000  0.73847600  1
  C  C64  1  0.72584200  0.86069000  0.76152400  1
  C  C65  1  0.27415800  0.36069000  0.23847600  1
  C  C66  1  0.72584200  0.13931000  0.73847600  1
  C  C67  1  0.27415800  0.63931000  0.26152400  1
  C  C68  1  0.61228500  0.25000000  0.84416000  1
  C  C69  1  0.38771500  0.75000000  0.15584000  1
  C  C70  1  0.61228500  0.75000000  0.65584000  1
  C  C71  1  0.38771500  0.25000000  0.34416000  1
  C  C72  1  0.27255500  0.00115500  0.08162600  1
  C  C73  1  0.72744500  0.50115500  0.91837400  1
  C  C74  1  0.27255500  0.99884500  0.41837400  1
  C  C75  1  0.72744500  0.49884500  0.58162600  1
  C  C76  1  0.72744500  0.99884500  0.91837400  1
  C  C77  1  0.27255500  0.49884500  0.08162600  1
  C  C78  1  0.72744500  0.00115500  0.58162600  1
  C  C79  1  0.27255500  0.50115500  0.41837400  1
