# generated using pymatgen
data_Cu2NiC3
_symmetry_space_group_name_H-M   'P 1'
_cell_length_a   7.90740900
_cell_length_b   9.69453071
_cell_length_c   10.99265110
_cell_angle_alpha   81.56526381
_cell_angle_beta   68.92019650
_cell_angle_gamma   65.93151503
_symmetry_Int_Tables_number   1
_chemical_formula_structural   Cu2NiC3
_chemical_formula_sum   'Cu16 Ni8 C24'
_cell_volume   717.92844578
_cell_formula_units_Z   8
loop_
 _symmetry_equiv_pos_site_id
 _symmetry_equiv_pos_as_xyz
  1  'x, y, z'
loop_
 _atom_site_type_symbol
 _atom_site_label
 _atom_site_symmetry_multiplicity
 _atom_site_fract_x
 _atom_site_fract_y
 _atom_site_fract_z
 _atom_site_occupancy
  C  C0  1  0.95867600  0.08264800  0.75000000  1
  C  C1  1  0.29132400  0.41735200  0.75000000  1
  C  C2  1  0.04132400  0.91735200  0.25000000  1
  C  C3  1  0.70867600  0.58264800  0.25000000  1
  C  C4  1  0.99749400  0.25000000  0.00501300  1
  C  C5  1  0.75250600  0.25000000  0.49498700  1
  C  C6  1  0.00250600  0.75000000  0.99498700  1
  C  C7  1  0.24749400  0.75000000  0.50501300  1
  C  C8  1  0.55530200  0.75238300  0.67538100  1
  C  C9  1  0.48306500  0.74761700  0.82461900  1
  C  C10  1  0.69231600  0.75238300  0.82461900  1
  C  C11  1  0.76931800  0.74761700  0.67538100  1
  C  C12  1  0.44469800  0.24761700  0.32461900  1
  C  C13  1  0.51693500  0.25238300  0.17538100  1
  C  C14  1  0.30768400  0.24761700  0.17538100  1
  C  C15  1  0.23068200  0.25238300  0.32461900  1
  Ni  Ni16  1  0.66068800  0.84317100  0.59365000  1
  Ni  Ni17  1  0.59750900  0.65682900  0.90635000  1
  Ni  Ni18  1  0.49614100  0.84317100  0.90635000  1
  Ni  Ni19  1  0.74566300  0.65682900  0.59365000  1
  Ni  Ni20  1  0.33931200  0.15682900  0.40635000  1
  Ni  Ni21  1  0.40249100  0.34317100  0.09365000  1
  Ni  Ni22  1  0.50385900  0.15682900  0.09365000  1
  Ni  Ni23  1  0.25433700  0.34317100  0.40635000  1
  Cu  Cu24  1  0.87653800  0.40568400  0.10543700  1
  Cu  Cu25  1  0.88765900  0.09431600  0.39456300  1
  Cu  Cu26  1  0.71777900  0.40568400  0.39456300  1
  Cu  Cu27  1  0.01802500  0.09431600  0.10543700  1
  Cu  Cu28  1  0.12346200  0.59431600  0.89456300  1
  Cu  Cu29  1  0.11234100  0.90568400  0.60543700  1
  Cu  Cu30  1  0.28222100  0.59431600  0.60543700  1
  Cu  Cu31  1  0.98197500  0.90568400  0.89456300  1
  Cu  Cu32  1  0.87082200  0.24023200  0.90998700  1
  Cu  Cu33  1  0.52104100  0.25976800  0.59001300  1
  Cu  Cu34  1  0.88894600  0.24023200  0.59001300  1
  Cu  Cu35  1  0.21919100  0.25976800  0.90998700  1
  Cu  Cu36  1  0.12917800  0.75976800  0.09001300  1
  Cu  Cu37  1  0.47895900  0.74023200  0.40998700  1
  Cu  Cu38  1  0.11105400  0.75976800  0.40998700  1
  Cu  Cu39  1  0.78080900  0.74023200  0.09001300  1
  C  C40  1  0.23017800  0.07985400  0.72081600  1
  C  C41  1  0.53084800  0.42014600  0.77918400  1
  C  C42  1  0.68996800  0.07985400  0.77918400  1
  C  C43  1  0.04900600  0.42014600  0.72081600  1
  C  C44  1  0.76982200  0.92014600  0.27918400  1
  C  C45  1  0.46915200  0.57985400  0.22081600  1
  C  C46  1  0.31003200  0.92014600  0.22081600  1
  C  C47  1  0.95099400  0.57985400  0.27918400  1
