# generated using pymatgen
data_CuNiC7
_symmetry_space_group_name_H-M   'P 1'
_cell_length_a   7.28835659
_cell_length_b   7.28835659
_cell_length_c   7.28835659
_cell_angle_alpha   89.20475130
_cell_angle_beta   60.79331890
_cell_angle_gamma   119.87829431
_symmetry_Int_Tables_number   1
_chemical_formula_structural   CuNiC7
_chemical_formula_sum   'Cu2 Ni2 C14'
_cell_volume   275.61519531
_cell_formula_units_Z   2
loop_
 _symmetry_equiv_pos_site_id
 _symmetry_equiv_pos_as_xyz
  1  'x, y, z'
loop_
 _atom_site_type_symbol
 _atom_site_label
 _atom_site_symmetry_multiplicity
 _atom_site_fract_x
 _atom_site_fract_y
 _atom_site_fract_z
 _atom_site_occupancy
  C  C0  1  0.25000000  0.62039500  0.12960500  1
  C  C1  1  0.75000000  0.37960500  0.87039500  1
  Ni  Ni2  1  0.00000000  0.00000000  0.00000000  1
  Ni  Ni3  1  0.50000000  0.00000000  0.50000000  1
  Cu  Cu4  1  0.50000000  0.50000000  0.50000000  1
  Cu  Cu5  1  0.00000000  0.00000000  0.50000000  1
  C  C6  1  0.75000000  0.06941100  0.18058900  1
  C  C7  1  0.75000000  0.66938400  0.58061600  1
  C  C8  1  0.73692600  0.06850000  0.57572300  1
  C  C9  1  0.76307400  0.68735100  0.16842600  1
  C  C10  1  0.35577700  0.68735100  0.57572300  1
  C  C11  1  0.14422300  0.06850000  0.16842600  1
  C  C12  1  0.25000000  0.93058900  0.81941100  1
  C  C13  1  0.25000000  0.33061600  0.41938400  1
  C  C14  1  0.26307400  0.93150000  0.42427700  1
  C  C15  1  0.23692600  0.31264900  0.83157400  1
  C  C16  1  0.64422300  0.31264900  0.42427700  1
  C  C17  1  0.85577700  0.93150000  0.83157400  1
