# generated using pymatgen
data_Cu2Ni3C
_symmetry_space_group_name_H-M   'P 1'
_cell_length_a   7.59865998
_cell_length_b   7.59865998
_cell_length_c   7.59865998
_cell_angle_alpha   60.00000000
_cell_angle_beta   60.00000000
_cell_angle_gamma   60.00000000
_symmetry_Int_Tables_number   1
_chemical_formula_structural   Cu2Ni3C
_chemical_formula_sum   'Cu8 Ni12 C4'
_cell_volume   310.23874611
_cell_formula_units_Z   4
loop_
 _symmetry_equiv_pos_site_id
 _symmetry_equiv_pos_as_xyz
  1  'x, y, z'
loop_
 _atom_site_type_symbol
 _atom_site_label
 _atom_site_symmetry_multiplicity
 _atom_site_fract_x
 _atom_site_fract_y
 _atom_site_fract_z
 _atom_site_occupancy
  Ni  Ni0  1  0.80023300  0.80023300  0.19976700  1
  Ni  Ni1  1  0.19976700  0.19976700  0.80023300  1
  Ni  Ni2  1  0.80023300  0.19976700  0.80023300  1
  Ni  Ni3  1  0.19976700  0.80023300  0.19976700  1
  Ni  Ni4  1  0.19976700  0.80023300  0.80023300  1
  Ni  Ni5  1  0.80023300  0.19976700  0.19976700  1
  Ni  Ni6  1  0.44976700  0.44976700  0.05023300  1
  Ni  Ni7  1  0.05023300  0.05023300  0.44976700  1
  Ni  Ni8  1  0.44976700  0.05023300  0.44976700  1
  Ni  Ni9  1  0.05023300  0.44976700  0.05023300  1
  Ni  Ni10  1  0.05023300  0.44976700  0.44976700  1
  Ni  Ni11  1  0.44976700  0.05023300  0.05023300  1
  Cu  Cu12  1  0.76981400  0.41006200  0.41006200  1
  Cu  Cu13  1  0.41006200  0.76981400  0.41006200  1
  Cu  Cu14  1  0.41006200  0.41006200  0.76981400  1
  Cu  Cu15  1  0.41006200  0.41006200  0.41006200  1
  Cu  Cu16  1  0.48018600  0.83993800  0.83993800  1
  Cu  Cu17  1  0.83993800  0.48018600  0.83993800  1
  Cu  Cu18  1  0.83993800  0.83993800  0.48018600  1
  Cu  Cu19  1  0.83993800  0.83993800  0.83993800  1
  C  C20  1  0.12500000  0.62500000  0.62500000  1
  C  C21  1  0.62500000  0.12500000  0.62500000  1
  C  C22  1  0.62500000  0.62500000  0.12500000  1
  C  C23  1  0.62500000  0.62500000  0.62500000  1
