# generated using pymatgen
data_CuNiC4
_symmetry_space_group_name_H-M   'P 1'
_cell_length_a   3.39867844
_cell_length_b   3.39867844
_cell_length_c   38.69866300
_cell_angle_alpha   90.00000000
_cell_angle_beta   90.00000000
_cell_angle_gamma   120.00000864
_symmetry_Int_Tables_number   1
_chemical_formula_structural   CuNiC4
_chemical_formula_sum   'Cu2 Ni2 C8'
_cell_volume   387.12098022
_cell_formula_units_Z   2
loop_
 _symmetry_equiv_pos_site_id
 _symmetry_equiv_pos_as_xyz
  1  'x, y, z'
loop_
 _atom_site_type_symbol
 _atom_site_label
 _atom_site_symmetry_multiplicity
 _atom_site_fract_x
 _atom_site_fract_y
 _atom_site_fract_z
 _atom_site_occupancy
  C  C0  1  0.33333300  0.66666700  0.33048600  1
  C  C1  1  0.33333300  0.66666700  0.70590200  1
  C  C2  1  0.33333300  0.66666700  0.23314200  1
  C  C3  1  0.33333300  0.66666700  0.60912700  1
  C  C4  1  0.33333300  0.66666700  0.09391100  1
  C  C5  1  0.33333300  0.66666700  0.46966400  1
  C  C6  1  0.66666700  0.33333300  0.65754300  1
  C  C7  1  0.66666700  0.33333300  0.28182000  1
  Ni  Ni8  1  0.66666700  0.33333300  0.05129600  1
  Ni  Ni9  1  0.66666700  0.33333300  0.13652700  1
  Cu  Cu10  1  0.66666700  0.33333300  0.43080500  1
  Cu  Cu11  1  0.66666700  0.33333300  0.50852700  1
