# generated using pymatgen
data_CuNiC11
_symmetry_space_group_name_H-M   'P 1'
_cell_length_a   12.68523109
_cell_length_b   12.68523109
_cell_length_c   12.68523109
_cell_angle_alpha   147.11714054
_cell_angle_beta   119.97538714
_cell_angle_gamma   70.15905241
_symmetry_Int_Tables_number   1
_chemical_formula_structural   CuNiC11
_chemical_formula_sum   'Cu4 Ni4 C44'
_cell_volume   945.95113647
_cell_formula_units_Z   4
loop_
 _symmetry_equiv_pos_site_id
 _symmetry_equiv_pos_as_xyz
  1  'x, y, z'
loop_
 _atom_site_type_symbol
 _atom_site_label
 _atom_site_symmetry_multiplicity
 _atom_site_fract_x
 _atom_site_fract_y
 _atom_site_fract_z
 _atom_site_occupancy
  C  C0  1  0.24007900  0.62253700  0.54779600  1
  C  C1  1  0.25992100  0.80771800  0.38245800  1
  C  C2  1  0.92525900  0.87746300  0.11754200  1
  C  C3  1  0.57474100  0.69228200  0.95220400  1
  C  C4  1  0.75992100  0.37746300  0.45220400  1
  C  C5  1  0.74007900  0.19228200  0.61754200  1
  C  C6  1  0.07474100  0.12253700  0.88245800  1
  C  C7  1  0.42525900  0.30771800  0.04779600  1
  Ni  Ni8  1  0.16710500  0.75000000  0.91710500  1
  Ni  Ni9  1  0.33289500  0.25000000  0.58289500  1
  Ni  Ni10  1  0.83289500  0.25000000  0.08289500  1
  Ni  Ni11  1  0.66710500  0.75000000  0.41710500  1
  C  C12  1  0.08674200  0.33674200  0.75000000  1
  C  C13  1  0.41325800  0.16325800  0.25000000  1
  C  C14  1  0.91325800  0.66325800  0.25000000  1
  C  C15  1  0.58674200  0.83674200  0.75000000  1
  Cu  Cu16  1  0.92722900  0.75000000  0.67722900  1
  Cu  Cu17  1  0.57277100  0.25000000  0.82277100  1
  Cu  Cu18  1  0.07277100  0.25000000  0.32277100  1
  Cu  Cu19  1  0.42722900  0.75000000  0.17722900  1
  C  C20  1  0.94174100  0.71723400  0.77704700  1
  C  C21  1  0.55825900  0.33530500  0.77549200  1
  C  C22  1  0.05981300  0.78276600  0.72450800  1
  C  C23  1  0.44018700  0.16469500  0.72295300  1
  C  C24  1  0.05825900  0.28276600  0.22295300  1
  C  C25  1  0.44174100  0.66469500  0.22450800  1
  C  C26  1  0.94018700  0.21723400  0.27549200  1
  C  C27  1  0.55981300  0.83530500  0.27704700  1
  C  C28  1  0.10189600  0.58701700  0.91747100  1
  C  C29  1  0.39810400  0.31557500  0.48512100  1
  C  C30  1  0.33045400  0.91298300  0.01487900  1
  C  C31  1  0.16954600  0.18442500  0.58252900  1
  C  C32  1  0.89810400  0.41298300  0.08252900  1
  C  C33  1  0.60189600  0.68442500  0.51487900  1
  C  C34  1  0.66954600  0.08701700  0.98512100  1
  C  C35  1  0.83045400  0.81557500  0.41747100  1
  C  C36  1  0.36038400  0.59178700  0.93198200  1
  C  C37  1  0.13961600  0.07159800  0.23140300  1
  C  C38  1  0.34019600  0.90821300  0.26859700  1
  C  C39  1  0.15980400  0.42840200  0.56801800  1
  C  C40  1  0.63961600  0.40821300  0.06801800  1
  C  C41  1  0.86038400  0.92840200  0.76859700  1
  C  C42  1  0.65980400  0.09178700  0.73140300  1
  C  C43  1  0.84019600  0.57159800  0.43198200  1
  C  C44  1  0.92757100  0.22519100  0.57745500  1
  C  C45  1  0.57242900  0.14988400  0.29762000  1
  C  C46  1  0.35226400  0.27480900  0.20238000  1
  C  C47  1  0.14773600  0.35011600  0.92254500  1
  C  C48  1  0.07242900  0.77480900  0.42254500  1
  C  C49  1  0.42757100  0.85011600  0.70238000  1
  C  C50  1  0.64773600  0.72519100  0.79762000  1
  C  C51  1  0.85226400  0.64988400  0.07745500  1
