# generated using pymatgen
data_Cu11(Ni3C)4
_symmetry_space_group_name_H-M   'P 1'
_cell_length_a   9.33957800
_cell_length_b   10.59568800
_cell_length_c   14.48038400
_cell_angle_alpha   90.00000000
_cell_angle_beta   90.00000000
_cell_angle_gamma   90.00000000
_symmetry_Int_Tables_number   1
_chemical_formula_structural   Cu11(Ni3C)4
_chemical_formula_sum   'Cu44 Ni48 C16'
_cell_volume   1432.96800609
_cell_formula_units_Z   4
loop_
 _symmetry_equiv_pos_site_id
 _symmetry_equiv_pos_as_xyz
  1  'x, y, z'
loop_
 _atom_site_type_symbol
 _atom_site_label
 _atom_site_symmetry_multiplicity
 _atom_site_fract_x
 _atom_site_fract_y
 _atom_site_fract_z
 _atom_site_occupancy
  C  C0  1  0.25000000  0.45347600  0.72092400  1
  C  C1  1  0.25000000  0.04652400  0.22092400  1
  C  C2  1  0.75000000  0.54652400  0.27907600  1
  C  C3  1  0.75000000  0.95347600  0.77907600  1
  Ni  Ni4  1  0.25000000  0.66226900  0.80471200  1
  Ni  Ni5  1  0.25000000  0.83773100  0.30471200  1
  Ni  Ni6  1  0.75000000  0.33773100  0.19528800  1
  Ni  Ni7  1  0.75000000  0.16226900  0.69528800  1
  Ni  Ni8  1  0.15179700  0.74526800  0.72430500  1
  Ni  Ni9  1  0.34820300  0.75473200  0.22430500  1
  Ni  Ni10  1  0.65179700  0.25473200  0.27569500  1
  Ni  Ni11  1  0.84820300  0.24526800  0.77569500  1
  Ni  Ni12  1  0.84820300  0.25473200  0.27569500  1
  Ni  Ni13  1  0.65179700  0.24526800  0.77569500  1
  Ni  Ni14  1  0.34820300  0.74526800  0.72430500  1
  Ni  Ni15  1  0.15179700  0.75473200  0.22430500  1
  Ni  Ni16  1  0.09132300  0.72334900  0.84404100  1
  Ni  Ni17  1  0.40867700  0.77665100  0.34404100  1
  Ni  Ni18  1  0.59132300  0.27665100  0.15595900  1
  Ni  Ni19  1  0.90867700  0.22334900  0.65595900  1
  Ni  Ni20  1  0.90867700  0.27665100  0.15595900  1
  Ni  Ni21  1  0.59132300  0.22334900  0.65595900  1
  Ni  Ni22  1  0.40867700  0.72334900  0.84404100  1
  Ni  Ni23  1  0.09132300  0.77665100  0.34404100  1
  Ni  Ni24  1  0.25000000  0.71005400  0.91740300  1
  Ni  Ni25  1  0.25000000  0.78994600  0.41740300  1
  Ni  Ni26  1  0.75000000  0.28994600  0.08259700  1
  Ni  Ni27  1  0.75000000  0.21005400  0.58259700  1
  Ni  Ni28  1  0.15348400  0.85553200  0.90986800  1
  Ni  Ni29  1  0.34651600  0.64446800  0.40986800  1
  Ni  Ni30  1  0.65348400  0.14446800  0.09013200  1
  Ni  Ni31  1  0.84651600  0.35553200  0.59013200  1
  Ni  Ni32  1  0.84651600  0.14446800  0.09013200  1
  Ni  Ni33  1  0.65348400  0.35553200  0.59013200  1
  Ni  Ni34  1  0.34651600  0.85553200  0.90986800  1
  Ni  Ni35  1  0.15348400  0.64446800  0.40986800  1
  Ni  Ni36  1  0.09792100  0.87511800  0.79289400  1
  Ni  Ni37  1  0.40207900  0.62488200  0.29289400  1
  Ni  Ni38  1  0.59792100  0.12488200  0.20710600  1
  Ni  Ni39  1  0.90207900  0.37511800  0.70710600  1
  Ni  Ni40  1  0.90207900  0.12488200  0.20710600  1
  Ni  Ni41  1  0.59792100  0.37511800  0.70710600  1
  Ni  Ni42  1  0.40207900  0.87511800  0.79289400  1
  Ni  Ni43  1  0.09792100  0.62488200  0.29289400  1
  Ni  Ni44  1  0.25000000  0.89019500  0.71905800  1
  Ni  Ni45  1  0.25000000  0.60980500  0.21905800  1
  Ni  Ni46  1  0.75000000  0.10980500  0.28094200  1
  Ni  Ni47  1  0.75000000  0.39019500  0.78094200  1
  Ni  Ni48  1  0.25000000  0.95600000  0.83313900  1
  Ni  Ni49  1  0.25000000  0.54400000  0.33313900  1
  Ni  Ni50  1  0.75000000  0.04400000  0.16686100  1
  Ni  Ni51  1  0.75000000  0.45600000  0.66686100  1
  Cu  Cu52  1  0.08549200  0.70319400  0.66050200  1
  Cu  Cu53  1  0.41450800  0.79680600  0.16050200  1
  Cu  Cu54  1  0.58549200  0.29680600  0.33949800  1
  Cu  Cu55  1  0.91450800  0.20319400  0.83949800  1
  Cu  Cu56  1  0.91450800  0.29680600  0.33949800  1
  Cu  Cu57  1  0.58549200  0.20319400  0.83949800  1
  Cu  Cu58  1  0.41450800  0.70319400  0.66050200  1
  Cu  Cu59  1  0.08549200  0.79680600  0.16050200  1
  Cu  Cu60  1  0.98436300  0.66610600  0.86035000  1
  Cu  Cu61  1  0.51563700  0.83389400  0.36035000  1
  Cu  Cu62  1  0.48436300  0.33389400  0.13965000  1
  Cu  Cu63  1  0.01563700  0.16610600  0.63965000  1
  Cu  Cu64  1  0.01563700  0.33389400  0.13965000  1
  Cu  Cu65  1  0.48436300  0.16610600  0.63965000  1
  Cu  Cu66  1  0.51563700  0.66610600  0.86035000  1
  Cu  Cu67  1  0.98436300  0.83389400  0.36035000  1
  Cu  Cu68  1  0.25000000  0.64290000  0.98333900  1
  Cu  Cu69  1  0.25000000  0.85710000  0.48333900  1
  Cu  Cu70  1  0.75000000  0.35710000  0.01666100  1
  Cu  Cu71  1  0.75000000  0.14290000  0.51666100  1
  Cu  Cu72  1  0.08454500  0.89368200  0.97340100  1
  Cu  Cu73  1  0.41545500  0.60631800  0.47340100  1
  Cu  Cu74  1  0.58454500  0.10631800  0.02659900  1
  Cu  Cu75  1  0.91545500  0.39368200  0.52659900  1
  Cu  Cu76  1  0.91545500  0.10631800  0.02659900  1
  Cu  Cu77  1  0.58454500  0.39368200  0.52659900  1
  Cu  Cu78  1  0.41545500  0.89368200  0.97340100  1
  Cu  Cu79  1  0.08454500  0.60631800  0.47340100  1
  Cu  Cu80  1  0.99129500  0.93611400  0.77060400  1
  Cu  Cu81  1  0.50870500  0.56388600  0.27060400  1
  Cu  Cu82  1  0.49129500  0.06388600  0.22939600  1
  Cu  Cu83  1  0.00870500  0.43611400  0.72939600  1
  Cu  Cu84  1  0.00870500  0.06388600  0.22939600  1
  Cu  Cu85  1  0.49129500  0.43611400  0.72939600  1
  Cu  Cu86  1  0.50870500  0.93611400  0.77060400  1
  Cu  Cu87  1  0.99129500  0.56388600  0.27060400  1
  Cu  Cu88  1  0.25000000  0.95243900  0.65054300  1
  Cu  Cu89  1  0.25000000  0.54756100  0.15054300  1
  Cu  Cu90  1  0.75000000  0.04756100  0.34945700  1
  Cu  Cu91  1  0.75000000  0.45243900  0.84945700  1
  Cu  Cu92  1  0.25000000  0.06829600  0.84245500  1
  Cu  Cu93  1  0.25000000  0.43170400  0.34245500  1
  Cu  Cu94  1  0.75000000  0.93170400  0.15754500  1
  Cu  Cu95  1  0.75000000  0.56829600  0.65754500  1
  C  C96  1  0.25000000  0.36480900  0.60630600  1
  C  C97  1  0.25000000  0.13519100  0.10630600  1
  C  C98  1  0.75000000  0.63519100  0.39369400  1
  C  C99  1  0.75000000  0.86480900  0.89369400  1
  C  C100  1  0.18398400  0.34488400  0.94164800  1
  C  C101  1  0.31601600  0.15511600  0.44164800  1
  C  C102  1  0.68398400  0.65511600  0.05835200  1
  C  C103  1  0.81601600  0.84488400  0.55835200  1
  C  C104  1  0.81601600  0.65511600  0.05835200  1
  C  C105  1  0.68398400  0.84488400  0.55835200  1
  C  C106  1  0.31601600  0.34488400  0.94164800  1
  C  C107  1  0.18398400  0.15511600  0.44164800  1
