# generated using pymatgen
data_CuNiC9
_symmetry_space_group_name_H-M   'P 1'
_cell_length_a   7.25213793
_cell_length_b   7.25213793
_cell_length_c   7.29696648
_cell_angle_alpha   60.39594678
_cell_angle_beta   60.39594678
_cell_angle_gamma   59.80357535
_symmetry_Int_Tables_number   1
_chemical_formula_structural   CuNiC9
_chemical_formula_sum   'Cu2 Ni2 C18'
_cell_volume   272.56897682
_cell_formula_units_Z   2
loop_
 _symmetry_equiv_pos_site_id
 _symmetry_equiv_pos_as_xyz
  1  'x, y, z'
loop_
 _atom_site_type_symbol
 _atom_site_label
 _atom_site_symmetry_multiplicity
 _atom_site_fract_x
 _atom_site_fract_y
 _atom_site_fract_z
 _atom_site_occupancy
  C  C0  1  0.00000000  0.50000000  0.00000000  1
  C  C1  1  0.00000000  0.00000000  0.50000000  1
  C  C2  1  0.50000000  0.00000000  0.00000000  1
  C  C3  1  0.50000000  0.50000000  0.50000000  1
  Ni  Ni4  1  0.00000000  0.50000000  0.50000000  1
  Ni  Ni5  1  0.50000000  0.00000000  0.50000000  1
  Cu  Cu6  1  0.50000000  0.50000000  0.00000000  1
  Cu  Cu7  1  0.00000000  0.00000000  0.00000000  1
  C  C8  1  0.11791600  0.11791600  0.11380500  1
  C  C9  1  0.88208400  0.88208400  0.88619500  1
  C  C10  1  0.39194200  0.82936600  0.83352300  1
  C  C11  1  0.82936600  0.39194200  0.83352300  1
  C  C12  1  0.83677800  0.83677800  0.38475200  1
  C  C13  1  0.60805800  0.17063400  0.16647700  1
  C  C14  1  0.17063400  0.60805800  0.16647700  1
  C  C15  1  0.16322200  0.16322200  0.61524800  1
  C  C16  1  0.87476700  0.39818900  0.39225800  1
  C  C17  1  0.39818900  0.87476700  0.39225800  1
  C  C18  1  0.39893000  0.39893000  0.87080600  1
  C  C19  1  0.12523300  0.60181100  0.60774200  1
  C  C20  1  0.60181100  0.12523300  0.60774200  1
  C  C21  1  0.60107000  0.60107000  0.12919400  1
