# generated using pymatgen
data_Cu99(NiC5)4
_symmetry_space_group_name_H-M   'P 1'
_cell_length_a   17.19436629
_cell_length_b   17.19436629
_cell_length_c   17.19436629
_cell_angle_alpha   60.00000000
_cell_angle_beta   60.00000000
_cell_angle_gamma   60.00000000
_symmetry_Int_Tables_number   1
_chemical_formula_structural   Cu99(NiC5)4
_chemical_formula_sum   'Cu99 Ni4 C20'
_cell_volume   3594.54168744
_cell_formula_units_Z   1
loop_
 _symmetry_equiv_pos_site_id
 _symmetry_equiv_pos_as_xyz
  1  'x, y, z'
loop_
 _atom_site_type_symbol
 _atom_site_label
 _atom_site_symmetry_multiplicity
 _atom_site_fract_x
 _atom_site_fract_y
 _atom_site_fract_z
 _atom_site_occupancy
  C  C0  1  0.59575100  0.59575100  0.21274600  1
  C  C1  1  0.59575100  0.21274600  0.59575100  1
  C  C2  1  0.21274600  0.59575100  0.59575100  1
  C  C3  1  0.59575100  0.59575100  0.59575100  1
  C  C4  1  0.84236400  0.84236400  0.47290900  1
  C  C5  1  0.84236400  0.47290900  0.84236400  1
  C  C6  1  0.47290900  0.84236400  0.84236400  1
  C  C7  1  0.84236400  0.84236400  0.84236400  1
  C  C8  1  0.18404600  0.18404600  0.81595400  1
  C  C9  1  0.81595400  0.18404600  0.81595400  1
  C  C10  1  0.18404600  0.81595400  0.81595400  1
  C  C11  1  0.81595400  0.81595400  0.18404600  1
  C  C12  1  0.18404600  0.81595400  0.18404600  1
  C  C13  1  0.81595400  0.18404600  0.18404600  1
  C  C14  1  0.05335300  0.05335300  0.44664700  1
  C  C15  1  0.44664700  0.05335300  0.44664700  1
  C  C16  1  0.05335300  0.44664700  0.44664700  1
  C  C17  1  0.44664700  0.44664700  0.05335300  1
  C  C18  1  0.05335300  0.44664700  0.05335300  1
  C  C19  1  0.44664700  0.05335300  0.05335300  1
  Ni  Ni20  1  0.12391400  0.12391400  0.62825800  1
  Ni  Ni21  1  0.12391400  0.62825800  0.12391400  1
  Ni  Ni22  1  0.62825800  0.12391400  0.12391400  1
  Ni  Ni23  1  0.12391400  0.12391400  0.12391400  1
  Cu  Cu24  1  0.41884200  0.82589900  0.10796300  1
  Cu  Cu25  1  0.64729600  0.41884200  0.10796300  1
  Cu  Cu26  1  0.82589900  0.64729600  0.10796300  1
  Cu  Cu27  1  0.64729600  0.82589900  0.10796300  1
  Cu  Cu28  1  0.82589900  0.41884200  0.10796300  1
  Cu  Cu29  1  0.41884200  0.64729600  0.10796300  1
  Cu  Cu30  1  0.64729600  0.10796300  0.82589900  1
  Cu  Cu31  1  0.82589900  0.10796300  0.41884200  1
  Cu  Cu32  1  0.41884200  0.10796300  0.64729600  1
  Cu  Cu33  1  0.41884200  0.10796300  0.82589900  1
  Cu  Cu34  1  0.64729600  0.10796300  0.41884200  1
  Cu  Cu35  1  0.82589900  0.10796300  0.64729600  1
  Cu  Cu36  1  0.10796300  0.64729600  0.41884200  1
  Cu  Cu37  1  0.10796300  0.82589900  0.64729600  1
  Cu  Cu38  1  0.10796300  0.41884200  0.82589900  1
  Cu  Cu39  1  0.10796300  0.41884200  0.64729600  1
  Cu  Cu40  1  0.10796300  0.64729600  0.82589900  1
  Cu  Cu41  1  0.10796300  0.82589900  0.41884200  1
  Cu  Cu42  1  0.82589900  0.41884200  0.64729600  1
  Cu  Cu43  1  0.41884200  0.64729600  0.82589900  1
  Cu  Cu44  1  0.64729600  0.82589900  0.41884200  1
  Cu  Cu45  1  0.82589900  0.64729600  0.41884200  1
  Cu  Cu46  1  0.41884200  0.82589900  0.64729600  1
  Cu  Cu47  1  0.64729600  0.41884200  0.82589900  1
  Cu  Cu48  1  0.61811100  0.79518100  0.96859800  1
  Cu  Cu49  1  0.61811100  0.61811100  0.96859800  1
  Cu  Cu50  1  0.79518100  0.61811100  0.96859800  1
  Cu  Cu51  1  0.61811100  0.96859800  0.79518100  1
  Cu  Cu52  1  0.79518100  0.96859800  0.61811100  1
  Cu  Cu53  1  0.61811100  0.96859800  0.61811100  1
  Cu  Cu54  1  0.96859800  0.61811100  0.61811100  1
  Cu  Cu55  1  0.96859800  0.79518100  0.61811100  1
  Cu  Cu56  1  0.96859800  0.61811100  0.79518100  1
  Cu  Cu57  1  0.79518100  0.61811100  0.61811100  1
  Cu  Cu58  1  0.61811100  0.61811100  0.79518100  1
  Cu  Cu59  1  0.61811100  0.79518100  0.61811100  1
  Cu  Cu60  1  0.99496400  0.29885600  0.71121500  1
  Cu  Cu61  1  0.99496400  0.99496400  0.71121500  1
  Cu  Cu62  1  0.29885600  0.99496400  0.71121500  1
  Cu  Cu63  1  0.99496400  0.71121500  0.29885600  1
  Cu  Cu64  1  0.29885600  0.71121500  0.99496400  1
  Cu  Cu65  1  0.99496400  0.71121500  0.99496400  1
  Cu  Cu66  1  0.71121500  0.99496400  0.99496400  1
  Cu  Cu67  1  0.71121500  0.29885600  0.99496400  1
  Cu  Cu68  1  0.71121500  0.99496400  0.29885600  1
  Cu  Cu69  1  0.29885600  0.99496400  0.99496400  1
  Cu  Cu70  1  0.99496400  0.99496400  0.29885600  1
  Cu  Cu71  1  0.99496400  0.29885600  0.99496400  1
  Cu  Cu72  1  0.45371500  0.82380300  0.26876700  1
  Cu  Cu73  1  0.45371500  0.45371500  0.26876700  1
  Cu  Cu74  1  0.82380300  0.45371500  0.26876700  1
  Cu  Cu75  1  0.45371500  0.26876700  0.82380300  1
  Cu  Cu76  1  0.82380300  0.26876700  0.45371500  1
  Cu  Cu77  1  0.45371500  0.26876700  0.45371500  1
  Cu  Cu78  1  0.26876700  0.45371500  0.45371500  1
  Cu  Cu79  1  0.26876700  0.82380300  0.45371500  1
  Cu  Cu80  1  0.26876700  0.45371500  0.82380300  1
  Cu  Cu81  1  0.82380300  0.45371500  0.45371500  1
  Cu  Cu82  1  0.45371500  0.45371500  0.82380300  1
  Cu  Cu83  1  0.45371500  0.82380300  0.45371500  1
  Cu  Cu84  1  0.20116700  0.20116700  0.39649900  1
  Cu  Cu85  1  0.20116700  0.39649900  0.20116700  1
  Cu  Cu86  1  0.39649900  0.20116700  0.20116700  1
  Cu  Cu87  1  0.20116700  0.20116700  0.20116700  1
  Cu  Cu88  1  0.32618500  0.32618500  0.02144600  1
  Cu  Cu89  1  0.32618500  0.02144600  0.32618500  1
  Cu  Cu90  1  0.02144600  0.32618500  0.32618500  1
  Cu  Cu91  1  0.32618500  0.32618500  0.32618500  1
  Cu  Cu92  1  0.45418700  0.45418700  0.63743900  1
  Cu  Cu93  1  0.45418700  0.63743900  0.45418700  1
  Cu  Cu94  1  0.63743900  0.45418700  0.45418700  1
  Cu  Cu95  1  0.45418700  0.45418700  0.45418700  1
  Cu  Cu96  1  0.04936800  0.04936800  0.85189700  1
  Cu  Cu97  1  0.04936800  0.85189700  0.04936800  1
  Cu  Cu98  1  0.85189700  0.04936800  0.04936800  1
  Cu  Cu99  1  0.04936800  0.04936800  0.04936800  1
  Cu  Cu100  1  0.92638100  0.92638100  0.22085800  1
  Cu  Cu101  1  0.92638100  0.22085800  0.92638100  1
  Cu  Cu102  1  0.22085800  0.92638100  0.92638100  1
  Cu  Cu103  1  0.92638100  0.92638100  0.92638100  1
  Cu  Cu104  1  0.23979300  0.96058200  0.55983200  1
  Cu  Cu105  1  0.23979300  0.23979300  0.55983200  1
  Cu  Cu106  1  0.96058200  0.23979300  0.55983200  1
  Cu  Cu107  1  0.23979300  0.55983200  0.96058200  1
  Cu  Cu108  1  0.96058200  0.55983200  0.23979300  1
  Cu  Cu109  1  0.23979300  0.55983200  0.23979300  1
  Cu  Cu110  1  0.55983200  0.23979300  0.23979300  1
  Cu  Cu111  1  0.55983200  0.96058200  0.23979300  1
  Cu  Cu112  1  0.55983200  0.23979300  0.96058200  1
  Cu  Cu113  1  0.96058200  0.23979300  0.23979300  1
  Cu  Cu114  1  0.23979300  0.23979300  0.96058200  1
  Cu  Cu115  1  0.23979300  0.96058200  0.23979300  1
  Cu  Cu116  1  0.32527700  0.32527700  0.67472300  1
  Cu  Cu117  1  0.67472300  0.32527700  0.67472300  1
  Cu  Cu118  1  0.32527700  0.67472300  0.67472300  1
  Cu  Cu119  1  0.67472300  0.67472300  0.32527700  1
  Cu  Cu120  1  0.32527700  0.67472300  0.32527700  1
  Cu  Cu121  1  0.67472300  0.32527700  0.32527700  1
  Cu  Cu122  1  0.75000000  0.75000000  0.75000000  1
