# generated using pymatgen
data_Cu14NiC2
_symmetry_space_group_name_H-M   'P 1'
_cell_length_a   8.74907200
_cell_length_b   8.74907200
_cell_length_c   11.99583200
_cell_angle_alpha   90.00000000
_cell_angle_beta   90.00000000
_cell_angle_gamma   90.00000000
_symmetry_Int_Tables_number   1
_chemical_formula_structural   Cu14NiC2
_chemical_formula_sum   'Cu56 Ni4 C8'
_cell_volume   918.23608552
_cell_formula_units_Z   4
loop_
 _symmetry_equiv_pos_site_id
 _symmetry_equiv_pos_as_xyz
  1  'x, y, z'
loop_
 _atom_site_type_symbol
 _atom_site_label
 _atom_site_symmetry_multiplicity
 _atom_site_fract_x
 _atom_site_fract_y
 _atom_site_fract_z
 _atom_site_occupancy
  C  C0  1  0.64637000  0.64637000  0.50000000  1
  C  C1  1  0.35363000  0.35363000  0.50000000  1
  C  C2  1  0.85363000  0.14637000  0.00000000  1
  C  C3  1  0.14637000  0.85363000  0.00000000  1
  Ni  Ni4  1  0.23373000  0.76627000  0.50000000  1
  Ni  Ni5  1  0.76627000  0.23373000  0.50000000  1
  Ni  Ni6  1  0.26627000  0.26627000  0.00000000  1
  Ni  Ni7  1  0.73373000  0.73373000  0.00000000  1
  Cu  Cu8  1  0.93212900  0.72496300  0.37241100  1
  Cu  Cu9  1  0.06787100  0.27503700  0.37241100  1
  Cu  Cu10  1  0.56787100  0.22496300  0.87241100  1
  Cu  Cu11  1  0.43212900  0.77503700  0.87241100  1
  Cu  Cu12  1  0.06787100  0.27503700  0.62758900  1
  Cu  Cu13  1  0.93212900  0.72496300  0.62758900  1
  Cu  Cu14  1  0.43212900  0.77503700  0.12758900  1
  Cu  Cu15  1  0.56787100  0.22496300  0.12758900  1
  Cu  Cu16  1  0.72496300  0.93212900  0.37241100  1
  Cu  Cu17  1  0.27503700  0.06787100  0.37241100  1
  Cu  Cu18  1  0.22496300  0.56787100  0.87241100  1
  Cu  Cu19  1  0.77503700  0.43212900  0.87241100  1
  Cu  Cu20  1  0.27503700  0.06787100  0.62758900  1
  Cu  Cu21  1  0.72496300  0.93212900  0.62758900  1
  Cu  Cu22  1  0.77503700  0.43212900  0.12758900  1
  Cu  Cu23  1  0.22496300  0.56787100  0.12758900  1
  Cu  Cu24  1  0.14100200  0.53665100  0.32463000  1
  Cu  Cu25  1  0.85899800  0.46334900  0.32463000  1
  Cu  Cu26  1  0.35899800  0.03665100  0.82463000  1
  Cu  Cu27  1  0.64100200  0.96334900  0.82463000  1
  Cu  Cu28  1  0.85899800  0.46334900  0.67537000  1
  Cu  Cu29  1  0.14100200  0.53665100  0.67537000  1
  Cu  Cu30  1  0.64100200  0.96334900  0.17537000  1
  Cu  Cu31  1  0.35899800  0.03665100  0.17537000  1
  Cu  Cu32  1  0.53665100  0.14100200  0.32463000  1
  Cu  Cu33  1  0.46334900  0.85899800  0.32463000  1
  Cu  Cu34  1  0.03665100  0.35899800  0.82463000  1
  Cu  Cu35  1  0.96334900  0.64100200  0.82463000  1
  Cu  Cu36  1  0.46334900  0.85899800  0.67537000  1
  Cu  Cu37  1  0.53665100  0.14100200  0.67537000  1
  Cu  Cu38  1  0.96334900  0.64100200  0.17537000  1
  Cu  Cu39  1  0.03665100  0.35899800  0.17537000  1
  Cu  Cu40  1  0.18215200  0.81784800  0.25173800  1
  Cu  Cu41  1  0.81784800  0.18215200  0.25173800  1
  Cu  Cu42  1  0.31784800  0.31784800  0.75173800  1
  Cu  Cu43  1  0.68215200  0.68215200  0.75173800  1
  Cu  Cu44  1  0.81784800  0.18215200  0.74826200  1
  Cu  Cu45  1  0.18215200  0.81784800  0.74826200  1
  Cu  Cu46  1  0.68215200  0.68215200  0.24826200  1
  Cu  Cu47  1  0.31784800  0.31784800  0.24826200  1
  Cu  Cu48  1  0.40297200  0.59702800  0.30129400  1
  Cu  Cu49  1  0.59702800  0.40297200  0.30129400  1
  Cu  Cu50  1  0.09702800  0.09702800  0.80129400  1
  Cu  Cu51  1  0.90297200  0.90297200  0.80129400  1
  Cu  Cu52  1  0.59702800  0.40297200  0.69870600  1
  Cu  Cu53  1  0.40297200  0.59702800  0.69870600  1
  Cu  Cu54  1  0.90297200  0.90297200  0.19870600  1
  Cu  Cu55  1  0.09702800  0.09702800  0.19870600  1
  Cu  Cu56  1  0.50000000  0.50000000  0.11769300  1
  Cu  Cu57  1  0.00000000  0.00000000  0.61769300  1
  Cu  Cu58  1  0.50000000  0.50000000  0.88230700  1
  Cu  Cu59  1  0.00000000  0.00000000  0.38230700  1
  Cu  Cu60  1  0.00000000  0.50000000  0.50000000  1
  Cu  Cu61  1  0.50000000  0.00000000  0.00000000  1
  Cu  Cu62  1  0.50000000  0.00000000  0.50000000  1
  Cu  Cu63  1  0.00000000  0.50000000  0.00000000  1
  C  C64  1  0.87661600  0.87661600  0.50000000  1
  C  C65  1  0.12338400  0.12338400  0.50000000  1
  C  C66  1  0.62338400  0.37661600  0.00000000  1
  C  C67  1  0.37661600  0.62338400  0.00000000  1
