# generated using pymatgen
data_CuNiC8
_symmetry_space_group_name_H-M   'P 1'
_cell_length_a   5.18405360
_cell_length_b   5.18405360
_cell_length_c   10.82241000
_cell_angle_alpha   90.00000000
_cell_angle_beta   90.00000000
_cell_angle_gamma   119.99999493
_symmetry_Int_Tables_number   1
_chemical_formula_structural   CuNiC8
_chemical_formula_sum   'Cu2 Ni2 C16'
_cell_volume   251.87995306
_cell_formula_units_Z   2
loop_
 _symmetry_equiv_pos_site_id
 _symmetry_equiv_pos_as_xyz
  1  'x, y, z'
loop_
 _atom_site_type_symbol
 _atom_site_label
 _atom_site_symmetry_multiplicity
 _atom_site_fract_x
 _atom_site_fract_y
 _atom_site_fract_z
 _atom_site_occupancy
  C  C0  1  0.66666700  0.33333300  0.95960000  1
  C  C1  1  0.66666700  0.33333300  0.54040000  1
  C  C2  1  0.33333300  0.66666700  0.45960000  1
  C  C3  1  0.33333300  0.66666700  0.04040000  1
  Ni  Ni4  1  0.33333300  0.66666700  0.75000000  1
  Ni  Ni5  1  0.66666700  0.33333300  0.25000000  1
  Cu  Cu6  1  0.00000000  0.00000000  0.25000000  1
  Cu  Cu7  1  0.00000000  0.00000000  0.75000000  1
  C  C8  1  0.94473600  0.66122700  0.14797600  1
  C  C9  1  0.33877300  0.28351000  0.14797600  1
  C  C10  1  0.71649000  0.05526400  0.14797600  1
  C  C11  1  0.33877300  0.05526400  0.35202400  1
  C  C12  1  0.71649000  0.66122700  0.35202400  1
  C  C13  1  0.94473600  0.28351000  0.35202400  1
  C  C14  1  0.05526400  0.33877300  0.85202400  1
  C  C15  1  0.66122700  0.71649000  0.85202400  1
  C  C16  1  0.05526400  0.71649000  0.64797600  1
  C  C17  1  0.28351000  0.33877300  0.64797600  1
  C  C18  1  0.66122700  0.94473600  0.64797600  1
  C  C19  1  0.28351000  0.94473600  0.85202400  1
