# generated using pymatgen
data_Cu2NiC5
_symmetry_space_group_name_H-M   'P 1'
_cell_length_a   5.88824192
_cell_length_b   5.88824192
_cell_length_c   10.96075300
_cell_angle_alpha   90.00000000
_cell_angle_beta   90.00000000
_cell_angle_gamma   137.05606939
_symmetry_Int_Tables_number   1
_chemical_formula_structural   Cu2NiC5
_chemical_formula_sum   'Cu4 Ni2 C10'
_cell_volume   258.90402883
_cell_formula_units_Z   2
loop_
 _symmetry_equiv_pos_site_id
 _symmetry_equiv_pos_as_xyz
  1  'x, y, z'
loop_
 _atom_site_type_symbol
 _atom_site_label
 _atom_site_symmetry_multiplicity
 _atom_site_fract_x
 _atom_site_fract_y
 _atom_site_fract_z
 _atom_site_occupancy
  Ni  Ni0  1  0.18578900  0.81421100  0.75000000  1
  Ni  Ni1  1  0.81421100  0.18578900  0.25000000  1
  Cu  Cu2  1  0.86125000  0.13875000  0.57044700  1
  Cu  Cu3  1  0.13875000  0.86125000  0.42955300  1
  Cu  Cu4  1  0.13875000  0.86125000  0.07044700  1
  Cu  Cu5  1  0.86125000  0.13875000  0.92955300  1
  C  C6  1  0.24193200  0.75806800  0.25000000  1
  C  C7  1  0.75806800  0.24193200  0.75000000  1
  C  C8  1  0.69518600  0.30481400  0.08052200  1
  C  C9  1  0.30481400  0.69518600  0.91947800  1
  C  C10  1  0.30481400  0.69518600  0.58052200  1
  C  C11  1  0.69518600  0.30481400  0.41947800  1
  C  C12  1  0.05471300  0.94528700  0.61480600  1
  C  C13  1  0.94528700  0.05471300  0.38519400  1
  C  C14  1  0.05471300  0.94528700  0.88519400  1
  C  C15  1  0.94528700  0.05471300  0.11480600  1
