# generated using pymatgen
data_Cu7NiC5
_symmetry_space_group_name_H-M   'P 1'
_cell_length_a   5.62104440
_cell_length_b   12.91696338
_cell_length_c   12.91696338
_cell_angle_alpha   90.00000000
_cell_angle_beta   90.00000000
_cell_angle_gamma   90.00000000
_symmetry_Int_Tables_number   1
_chemical_formula_structural   Cu7NiC5
_chemical_formula_sum   'Cu28 Ni4 C20'
_cell_volume   937.85969543
_cell_formula_units_Z   4
loop_
 _symmetry_equiv_pos_site_id
 _symmetry_equiv_pos_as_xyz
  1  'x, y, z'
loop_
 _atom_site_type_symbol
 _atom_site_label
 _atom_site_symmetry_multiplicity
 _atom_site_fract_x
 _atom_site_fract_y
 _atom_site_fract_z
 _atom_site_occupancy
  C  C0  1  0.50087554  0.22789567  0.77210433  1
  C  C1  1  0.50087554  0.77210433  0.22789567  1
  C  C2  1  0.00087554  0.72789567  0.72789567  1
  C  C3  1  0.00087554  0.27210433  0.27210433  1
  C  C4  1  0.52874078  0.94708706  0.63638854  1
  C  C5  1  0.52874078  0.05291294  0.36361146  1
  C  C6  1  0.02874078  0.44708706  0.86361146  1
  C  C7  1  0.02874078  0.55291294  0.13638854  1
  C  C8  1  0.52874078  0.36361146  0.05291294  1
  C  C9  1  0.52874078  0.63638854  0.94708706  1
  C  C10  1  0.02874078  0.86361146  0.44708706  1
  C  C11  1  0.02874078  0.13638854  0.55291294  1
  C  C12  1  0.49743617  0.29434349  0.48212759  1
  C  C13  1  0.49743617  0.70565651  0.51787241  1
  C  C14  1  0.99743617  0.79434349  0.01787241  1
  C  C15  1  0.99743617  0.20565651  0.98212759  1
  C  C16  1  0.49743617  0.51787241  0.70565651  1
  C  C17  1  0.49743617  0.48212759  0.29434349  1
  C  C18  1  0.99743617  0.01787241  0.79434349  1
  C  C19  1  0.99743617  0.98212759  0.20565651  1
  Ni  Ni20  1  0.96288360  0.33504730  0.66495270  1
  Ni  Ni21  1  0.96288360  0.66495270  0.33504730  1
  Ni  Ni22  1  0.46288360  0.83504730  0.83504730  1
  Ni  Ni23  1  0.46288360  0.16495270  0.16495270  1
  Cu  Cu24  1  0.77163220  -0.00000000  0.50000000  1
  Cu  Cu25  1  0.27163220  0.50000000  -0.00000000  1
  Cu  Cu26  1  0.77163220  0.50000000  -0.00000000  1
  Cu  Cu27  1  0.27163220  -0.00000000  0.50000000  1
  Cu  Cu28  1  0.45918614  0.21222691  0.59260815  1
  Cu  Cu29  1  0.45918614  0.78777309  0.40739185  1
  Cu  Cu30  1  0.95918614  0.71222691  0.90739185  1
  Cu  Cu31  1  0.95918614  0.28777309  0.09260815  1
  Cu  Cu32  1  0.45918614  0.40739185  0.78777309  1
  Cu  Cu33  1  0.45918614  0.59260815  0.21222691  1
  Cu  Cu34  1  0.95918614  0.90739185  0.71222691  1
  Cu  Cu35  1  0.95918614  0.09260815  0.28777309  1
  Cu  Cu36  1  0.74567759  0.22496533  0.42339592  1
  Cu  Cu37  1  0.74567759  0.77503467  0.57660408  1
  Cu  Cu38  1  0.24567759  0.72496533  0.07660408  1
  Cu  Cu39  1  0.24567759  0.27503467  0.92339592  1
  Cu  Cu40  1  0.74567759  0.57660408  0.77503467  1
  Cu  Cu41  1  0.74567759  0.42339592  0.22496533  1
  Cu  Cu42  1  0.24567759  0.07660408  0.72496533  1
  Cu  Cu43  1  0.24567759  0.92339592  0.27503467  1
  Cu  Cu44  1  0.26896866  0.77704007  0.59036368  1
  Cu  Cu45  1  0.26896866  0.22295993  0.40963632  1
  Cu  Cu46  1  0.76896866  0.27704007  0.90963632  1
  Cu  Cu47  1  0.76896866  0.72295993  0.09036368  1
  Cu  Cu48  1  0.26896866  0.40963632  0.22295993  1
  Cu  Cu49  1  0.26896866  0.59036368  0.77704007  1
  Cu  Cu50  1  0.76896866  0.90963632  0.27704007  1
  Cu  Cu51  1  0.76896866  0.09036368  0.72295993  1
