# generated using pymatgen
data_Cu2NiC8
_symmetry_space_group_name_H-M   'P 1'
_cell_length_a   9.45349359
_cell_length_b   9.45349359
_cell_length_c   9.65052721
_cell_angle_alpha   81.28863830
_cell_angle_beta   81.28863830
_cell_angle_gamma   96.49314438
_symmetry_Int_Tables_number   1
_chemical_formula_structural   Cu2NiC8
_chemical_formula_sum   'Cu8 Ni4 C32'
_cell_volume   834.46356173
_cell_formula_units_Z   4
loop_
 _symmetry_equiv_pos_site_id
 _symmetry_equiv_pos_as_xyz
  1  'x, y, z'
loop_
 _atom_site_type_symbol
 _atom_site_label
 _atom_site_symmetry_multiplicity
 _atom_site_fract_x
 _atom_site_fract_y
 _atom_site_fract_z
 _atom_site_occupancy
  C  C0  1  0.80620400  0.80620400  0.23655600  1
  C  C1  1  0.21696500  0.21696500  0.79776700  1
  Ni  Ni2  1  0.09800100  0.66258900  0.11525100  1
  Ni  Ni3  1  0.10312800  0.87445000  0.34635900  1
  Ni  Ni4  1  0.87445000  0.10312800  0.34635900  1
  Ni  Ni5  1  0.66258900  0.09800100  0.11525100  1
  Cu  Cu6  1  0.67123600  0.88656600  0.89376800  1
  Cu  Cu7  1  0.88656600  0.67123600  0.89376800  1
  Cu  Cu8  1  0.89595500  0.33810800  0.88484500  1
  Cu  Cu9  1  0.90097300  0.12460500  0.67071200  1
  Cu  Cu10  1  0.12460500  0.90097300  0.67071200  1
  Cu  Cu11  1  0.33810800  0.89595500  0.88484500  1
  Cu  Cu12  1  0.32918500  0.10828800  0.09842500  1
  Cu  Cu13  1  0.10828800  0.32918500  0.09842500  1
  C  C14  1  0.72789800  0.47340600  0.52651400  1
  C  C15  1  0.47340600  0.72789800  0.52651400  1
  C  C16  1  0.44581000  0.44581000  0.29050200  1
  C  C17  1  0.26537400  0.53372700  0.47353700  1
  C  C18  1  0.53372700  0.26537400  0.47353700  1
  C  C19  1  0.52174600  0.52174600  0.71517100  1
  C  C20  1  0.05233400  0.71850700  0.27730600  1
  C  C21  1  0.71850700  0.05233400  0.27730600  1
  C  C22  1  0.73112200  0.73112200  0.88629500  1
  C  C23  1  0.93030800  0.27633900  0.73347300  1
  C  C24  1  0.27633900  0.93030800  0.73347300  1
  C  C25  1  0.25827300  0.25827300  0.05571500  1
  C  C26  1  0.49126000  0.14520100  0.11981200  1
  C  C27  1  0.50795200  0.87344900  0.85667600  1
  C  C28  1  0.87344900  0.50795200  0.85667600  1
  C  C29  1  0.14520100  0.49126000  0.11981200  1
  C  C30  1  0.15662600  0.87113000  0.51285000  1
  C  C31  1  0.87113000  0.15662600  0.51285000  1
  C  C32  1  0.99244400  0.23226500  0.22128700  1
  C  C33  1  0.01156100  0.77209300  0.77281600  1
  C  C34  1  0.77209300  0.01156100  0.77281600  1
  C  C35  1  0.23226500  0.99244400  0.22128700  1
  C  C36  1  0.23945400  0.77021500  0.99488000  1
  C  C37  1  0.77021500  0.23945400  0.99488000  1
  C  C38  1  0.68087300  0.92713800  0.05100500  1
  C  C39  1  0.92713800  0.68087300  0.05100500  1
  C  C40  1  0.93445900  0.93445900  0.35721800  1
  C  C41  1  0.32706100  0.05614200  0.93688800  1
  C  C42  1  0.05614200  0.32706100  0.93688800  1
  C  C43  1  0.05957900  0.05957900  0.68797100  1
