# generated using pymatgen
data_CuNiC61
_symmetry_space_group_name_H-M   'P 1'
_cell_length_a   8.58809864
_cell_length_b   8.72970902
_cell_length_c   8.74175110
_cell_angle_alpha   90.00000000
_cell_angle_beta   90.00000000
_cell_angle_gamma   90.00000000
_symmetry_Int_Tables_number   1
_chemical_formula_structural   CuNiC61
_chemical_formula_sum   'Cu1 Ni1 C61'
_cell_volume   655.38308567
_cell_formula_units_Z   1
loop_
 _symmetry_equiv_pos_site_id
 _symmetry_equiv_pos_as_xyz
  1  'x, y, z'
loop_
 _atom_site_type_symbol
 _atom_site_label
 _atom_site_symmetry_multiplicity
 _atom_site_fract_x
 _atom_site_fract_y
 _atom_site_fract_z
 _atom_site_occupancy
  Ni  Ni0  1  0.11268807  0.00000000  0.00000000  1
  Cu  Cu1  1  0.99051951  0.00000000  0.50000000  1
  C  C2  1  0.99105373  0.50000000  0.00000000  1
  C  C3  1  0.99298413  0.50000000  0.50000000  1
  C  C4  1  0.51673874  0.00000000  0.00000000  1
  C  C5  1  0.49822319  0.00000000  0.50000000  1
  C  C6  1  0.50556476  0.50000000  0.00000000  1
  C  C7  1  0.50026437  0.50000000  0.50000000  1
  C  C8  1  0.99738087  0.25201759  0.24557888  1
  C  C9  1  0.99738087  0.25201759  0.75442112  1
  C  C10  1  0.99738087  0.74798241  0.24557888  1
  C  C11  1  0.99738087  0.74798241  0.75442112  1
  C  C12  1  0.49833697  0.24797879  0.24766678  1
  C  C13  1  0.49833697  0.24797879  0.75233322  1
  C  C14  1  0.49833697  0.75202121  0.24766678  1
  C  C15  1  0.49833697  0.75202121  0.75233322  1
  C  C16  1  0.24739884  0.00000000  0.27975412  1
  C  C17  1  0.24739884  0.00000000  0.72024588  1
  C  C18  1  0.24721269  0.50000000  0.25470563  1
  C  C19  1  0.24721269  0.50000000  0.74529437  1
  C  C20  1  0.75700851  0.00000000  0.24005621  1
  C  C21  1  0.75700851  0.00000000  0.75994379  1
  C  C22  1  0.74819333  0.50000000  0.24975382  1
  C  C23  1  0.74819333  0.50000000  0.75024618  1
  C  C24  1  0.24945696  0.28111200  0.00000000  1
  C  C25  1  0.24850951  0.25951184  0.50000000  1
  C  C26  1  0.24945696  0.71888800  0.00000000  1
  C  C27  1  0.24850951  0.74048816  0.50000000  1
  C  C28  1  0.75996103  0.24308469  0.00000000  1
  C  C29  1  0.74418303  0.25107910  0.50000000  1
  C  C30  1  0.75996103  0.75691531  0.00000000  1
  C  C31  1  0.74418303  0.74892090  0.50000000  1
  C  C32  1  0.27652290  0.00000000  0.50000000  1
  C  C33  1  0.25743296  0.50000000  0.00000000  1
  C  C34  1  0.25567859  0.50000000  0.50000000  1
  C  C35  1  0.74148863  0.00000000  0.00000000  1
  C  C36  1  0.71527501  0.00000000  0.50000000  1
  C  C37  1  0.74434353  0.50000000  0.00000000  1
  C  C38  1  0.74169059  0.50000000  0.50000000  1
  C  C39  1  0.24747868  0.24502809  0.24427516  1
  C  C40  1  0.24747868  0.24502809  0.75572484  1
  C  C41  1  0.24747868  0.75497191  0.24427516  1
  C  C42  1  0.24747868  0.75497191  0.75572484  1
  C  C43  1  0.74731661  0.24866351  0.24846749  1
  C  C44  1  0.74731661  0.24866351  0.75153251  1
  C  C45  1  0.74731661  0.75133649  0.24846749  1
  C  C46  1  0.74731661  0.75133649  0.75153251  1
  C  C47  1  0.99971934  0.00000000  0.22976613  1
  C  C48  1  0.99971934  0.00000000  0.77023387  1
  C  C49  1  0.99933777  0.50000000  0.24658209  1
  C  C50  1  0.99933777  0.50000000  0.75341791  1
  C  C51  1  0.48507319  0.00000000  0.23565122  1
  C  C52  1  0.48507319  0.00000000  0.76434878  1
  C  C53  1  0.49658748  0.50000000  0.24701193  1
  C  C54  1  0.49658748  0.50000000  0.75298807  1
  C  C55  1  0.00470667  0.27035692  0.00000000  1
  C  C56  1  0.00175752  0.27935977  0.50000000  1
  C  C57  1  0.00470667  0.72964308  0.00000000  1
  C  C58  1  0.00175752  0.72064023  0.50000000  1
  C  C59  1  0.48981513  0.24529118  0.00000000  1
  C  C60  1  0.49481839  0.25462695  0.50000000  1
  C  C61  1  0.48981513  0.75470882  0.00000000  1
  C  C62  1  0.49481839  0.74537305  0.50000000  1
