# generated using pymatgen
data_Cu2NiC9
_symmetry_space_group_name_H-M   'P 1'
_cell_length_a   3.68369300
_cell_length_b   3.68369300
_cell_length_c   13.65446800
_cell_angle_alpha   90.00000000
_cell_angle_beta   90.00000000
_cell_angle_gamma   90.00000000
_symmetry_Int_Tables_number   1
_chemical_formula_structural   Cu2NiC9
_chemical_formula_sum   'Cu2 Ni1 C9'
_cell_volume   185.28558866
_cell_formula_units_Z   1
loop_
 _symmetry_equiv_pos_site_id
 _symmetry_equiv_pos_as_xyz
  1  'x, y, z'
loop_
 _atom_site_type_symbol
 _atom_site_label
 _atom_site_symmetry_multiplicity
 _atom_site_fract_x
 _atom_site_fract_y
 _atom_site_fract_z
 _atom_site_occupancy
  C  C0  1  0.50000000  0.50000000  0.71139300  1
  C  C1  1  0.50000000  0.50000000  0.28860700  1
  Ni  Ni2  1  0.00000000  0.00000000  0.50000000  1
  Cu  Cu3  1  0.00000000  0.00000000  0.89124100  1
  Cu  Cu4  1  0.00000000  0.00000000  0.10875900  1
  C  C5  1  0.50000000  0.50000000  0.50000000  1
  C  C6  1  0.00000000  0.50000000  0.87041300  1
  C  C7  1  0.50000000  0.00000000  0.87041300  1
  C  C8  1  0.00000000  0.50000000  0.12958700  1
  C  C9  1  0.50000000  0.00000000  0.12958700  1
  C  C10  1  0.00000000  0.00000000  0.65228100  1
  C  C11  1  0.00000000  0.00000000  0.34771900  1
