# generated using pymatgen
data_CuNiC8
_symmetry_space_group_name_H-M   'P 1'
_cell_length_a   5.78272000
_cell_length_b   5.46903800
_cell_length_c   9.58039464
_cell_angle_alpha   55.48547261
_cell_angle_beta   90.00000000
_cell_angle_gamma   90.00000000
_symmetry_Int_Tables_number   1
_chemical_formula_structural   CuNiC8
_chemical_formula_sum   'Cu2 Ni2 C16'
_cell_volume   249.65744317
_cell_formula_units_Z   2
loop_
 _symmetry_equiv_pos_site_id
 _symmetry_equiv_pos_as_xyz
  1  'x, y, z'
loop_
 _atom_site_type_symbol
 _atom_site_label
 _atom_site_symmetry_multiplicity
 _atom_site_fract_x
 _atom_site_fract_y
 _atom_site_fract_z
 _atom_site_occupancy
  C  C0  1  0.93520600  0.72982100  0.25207200  1
  C  C1  1  0.43520600  0.27017900  0.24792800  1
  C  C2  1  0.06479400  0.27017900  0.74792800  1
  C  C3  1  0.56479400  0.72982100  0.75207200  1
  Ni  Ni4  1  0.00000000  0.00000000  0.50000000  1
  Ni  Ni5  1  0.50000000  0.00000000  0.00000000  1
  Cu  Cu6  1  0.50000000  0.50000000  0.50000000  1
  Cu  Cu7  1  0.00000000  0.50000000  0.00000000  1
  C  C8  1  0.54360000  0.87573000  0.23738700  1
  C  C9  1  0.04360000  0.12427000  0.26261300  1
  C  C10  1  0.45640000  0.12427000  0.76261300  1
  C  C11  1  0.95640000  0.87573000  0.73738700  1
  C  C12  1  0.81583400  0.65317800  0.55405500  1
  C  C13  1  0.31583400  0.34682200  0.94594500  1
  C  C14  1  0.18416600  0.34682200  0.44594500  1
  C  C15  1  0.68416600  0.65317800  0.05405500  1
  C  C16  1  0.21085500  0.75616700  0.06321600  1
  C  C17  1  0.71085500  0.24383300  0.43678400  1
  C  C18  1  0.78914500  0.24383300  0.93678400  1
  C  C19  1  0.28914500  0.75616700  0.56321600  1
