# generated using pymatgen
data_Cu12Ni2C5
_symmetry_space_group_name_H-M   'P 1'
_cell_length_a   10.06701901
_cell_length_b   10.06701901
_cell_length_c   10.06701901
_cell_angle_alpha   90.00000000
_cell_angle_beta   90.00000000
_cell_angle_gamma   90.00000000
_symmetry_Int_Tables_number   1
_chemical_formula_structural   Cu12Ni2C5
_chemical_formula_sum   'Cu48 Ni8 C20'
_cell_volume   1020.24075045
_cell_formula_units_Z   4
loop_
 _symmetry_equiv_pos_site_id
 _symmetry_equiv_pos_as_xyz
  1  'x, y, z'
loop_
 _atom_site_type_symbol
 _atom_site_label
 _atom_site_symmetry_multiplicity
 _atom_site_fract_x
 _atom_site_fract_y
 _atom_site_fract_z
 _atom_site_occupancy
  C  C0  1  0.33558830  0.33558830  0.33558830  1
  C  C1  1  0.16441170  0.66441170  0.83558830  1
  C  C2  1  0.66441170  0.83558830  0.16441170  1
  C  C3  1  0.83558830  0.16441170  0.66441170  1
  C  C4  1  0.60169733  0.60169733  0.60169733  1
  C  C5  1  0.89830267  0.39830267  0.10169733  1
  C  C6  1  0.39830267  0.10169733  0.89830267  1
  C  C7  1  0.10169733  0.89830267  0.39830267  1
  C  C8  1  0.01762399  0.21809660  0.37530898  1
  C  C9  1  0.48237601  0.78190340  0.87530898  1
  C  C10  1  0.98237601  0.71809660  0.12469102  1
  C  C11  1  0.37530898  0.01762399  0.21809660  1
  C  C12  1  0.51762399  0.28190340  0.62469102  1
  C  C13  1  0.87530898  0.48237601  0.78190340  1
  C  C14  1  0.12469102  0.98237601  0.71809660  1
  C  C15  1  0.62469102  0.51762399  0.28190340  1
  C  C16  1  0.21809660  0.37530898  0.01762399  1
  C  C17  1  0.71809660  0.12469102  0.98237601  1
  C  C18  1  0.28190340  0.62469102  0.51762399  1
  C  C19  1  0.78190340  0.87530898  0.48237601  1
  Ni  Ni20  1  0.04922945  0.04922945  0.04922945  1
  Ni  Ni21  1  0.45077055  0.95077055  0.54922945  1
  Ni  Ni22  1  0.95077055  0.54922945  0.45077055  1
  Ni  Ni23  1  0.54922945  0.45077055  0.95077055  1
  Ni  Ni24  1  0.81651543  0.81651543  0.81651543  1
  Ni  Ni25  1  0.68348457  0.18348457  0.31651543  1
  Ni  Ni26  1  0.18348457  0.31651543  0.68348457  1
  Ni  Ni27  1  0.31651543  0.68348457  0.18348457  1
  Cu  Cu28  1  0.01381119  0.06758852  0.33380606  1
  Cu  Cu29  1  0.48618881  0.93241148  0.83380606  1
  Cu  Cu30  1  0.98618881  0.56758852  0.16619394  1
  Cu  Cu31  1  0.33380606  0.01381119  0.06758852  1
  Cu  Cu32  1  0.51381119  0.43241148  0.66619394  1
  Cu  Cu33  1  0.83380606  0.48618881  0.93241148  1
  Cu  Cu34  1  0.16619394  0.98618881  0.56758852  1
  Cu  Cu35  1  0.66619394  0.51381119  0.43241148  1
  Cu  Cu36  1  0.06758852  0.33380606  0.01381119  1
  Cu  Cu37  1  0.56758852  0.16619394  0.98618881  1
  Cu  Cu38  1  0.43241148  0.66619394  0.51381119  1
  Cu  Cu39  1  0.93241148  0.83380606  0.48618881  1
  Cu  Cu40  1  0.27100531  0.49410049  0.43625498  1
  Cu  Cu41  1  0.22899469  0.50589951  0.93625498  1
  Cu  Cu42  1  0.72899469  0.99410049  0.06374502  1
  Cu  Cu43  1  0.43625498  0.27100531  0.49410049  1
  Cu  Cu44  1  0.77100531  0.00589951  0.56374502  1
  Cu  Cu45  1  0.93625498  0.22899469  0.50589951  1
  Cu  Cu46  1  0.06374502  0.72899469  0.99410049  1
  Cu  Cu47  1  0.56374502  0.77100531  0.00589951  1
  Cu  Cu48  1  0.49410049  0.43625498  0.27100531  1
  Cu  Cu49  1  0.99410049  0.06374502  0.72899469  1
  Cu  Cu50  1  0.00589951  0.56374502  0.77100531  1
  Cu  Cu51  1  0.50589951  0.93625498  0.22899469  1
  Cu  Cu52  1  0.04402773  0.80786311  0.23288972  1
  Cu  Cu53  1  0.45597227  0.19213689  0.73288972  1
  Cu  Cu54  1  0.95597227  0.30786311  0.26711028  1
  Cu  Cu55  1  0.23288972  0.04402773  0.80786311  1
  Cu  Cu56  1  0.54402773  0.69213689  0.76711028  1
  Cu  Cu57  1  0.73288972  0.45597227  0.19213689  1
  Cu  Cu58  1  0.26711028  0.95597227  0.30786311  1
  Cu  Cu59  1  0.76711028  0.54402773  0.69213689  1
  Cu  Cu60  1  0.80786311  0.23288972  0.04402773  1
  Cu  Cu61  1  0.30786311  0.26711028  0.95597227  1
  Cu  Cu62  1  0.69213689  0.76711028  0.54402773  1
  Cu  Cu63  1  0.19213689  0.73288972  0.45597227  1
  Cu  Cu64  1  0.16543888  0.25647556  0.39796552  1
  Cu  Cu65  1  0.33456112  0.74352444  0.89796552  1
  Cu  Cu66  1  0.83456112  0.75647556  0.10203448  1
  Cu  Cu67  1  0.39796552  0.16543888  0.25647556  1
  Cu  Cu68  1  0.66543888  0.24352444  0.60203448  1
  Cu  Cu69  1  0.89796552  0.33456112  0.74352444  1
  Cu  Cu70  1  0.10203448  0.83456112  0.75647556  1
  Cu  Cu71  1  0.60203448  0.66543888  0.24352444  1
  Cu  Cu72  1  0.25647556  0.39796552  0.16543888  1
  Cu  Cu73  1  0.75647556  0.10203448  0.83456112  1
  Cu  Cu74  1  0.24352444  0.60203448  0.66543888  1
  Cu  Cu75  1  0.74352444  0.89796552  0.33456112  1
