# generated using pymatgen
data_CuNiC29
_symmetry_space_group_name_H-M   'P 1'
_cell_length_a   8.54653180
_cell_length_b   8.63101927
_cell_length_c   4.27002754
_cell_angle_alpha   90.00000000
_cell_angle_beta   90.00000000
_cell_angle_gamma   90.00000000
_symmetry_Int_Tables_number   1
_chemical_formula_structural   CuNiC29
_chemical_formula_sum   'Cu1 Ni1 C29'
_cell_volume   314.97977990
_cell_formula_units_Z   1
loop_
 _symmetry_equiv_pos_site_id
 _symmetry_equiv_pos_as_xyz
  1  'x, y, z'
loop_
 _atom_site_type_symbol
 _atom_site_label
 _atom_site_symmetry_multiplicity
 _atom_site_fract_x
 _atom_site_fract_y
 _atom_site_fract_z
 _atom_site_occupancy
  Ni  Ni0  1  0.99463808  0.50000000  -0.00000000  1
  Cu  Cu1  1  0.99507733  -0.00000000  -0.00000000  1
  C  C2  1  0.50288855  -0.00000000  -0.00000000  1
  C  C3  1  0.51820166  0.50000000  -0.00000000  1
  C  C4  1  0.00107704  0.24381596  0.50000000  1
  C  C5  1  0.00107704  0.75618404  0.50000000  1
  C  C6  1  0.49916445  0.25006404  0.50000000  1
  C  C7  1  0.49916445  0.74993596  0.50000000  1
  C  C8  1  0.24268452  -0.00000000  0.50000000  1
  C  C9  1  0.24398574  0.50000000  0.50000000  1
  C  C10  1  0.75916465  -0.00000000  0.50000000  1
  C  C11  1  0.76403899  0.50000000  0.50000000  1
  C  C12  1  0.24082201  0.22288693  -0.00000000  1
  C  C13  1  0.24082201  0.77711307  0.00000000  1
  C  C14  1  0.76187971  0.24632188  -0.00000000  1
  C  C15  1  0.76187971  0.75367812  -0.00000000  1
  C  C16  1  0.26373248  -0.00000000  -0.00000000  1
  C  C17  1  0.73870158  -0.00000000  -0.00000000  1
  C  C18  1  0.74199472  0.50000000  -0.00000000  1
  C  C19  1  0.25039925  0.25864155  0.50000000  1
  C  C20  1  0.25039925  0.74135845  0.50000000  1
  C  C21  1  0.74843254  0.25317315  0.50000000  1
  C  C22  1  0.74843254  0.74682685  0.50000000  1
  C  C23  1  0.00280725  -0.00000000  0.50000000  1
  C  C24  1  0.01361176  0.50000000  0.50000000  1
  C  C25  1  0.49692704  -0.00000000  0.50000000  1
  C  C26  1  0.48212322  0.50000000  0.50000000  1
  C  C27  1  0.00662687  0.24325910  -0.00000000  1
  C  C28  1  0.00662687  0.75674090  -0.00000000  1
  C  C29  1  0.48630934  0.26124173  -0.00000000  1
  C  C30  1  0.48630934  0.73875827  -0.00000000  1
