# generated using pymatgen
data_Cu2(Ni3C)3
_symmetry_space_group_name_H-M   'P 1'
_cell_length_a   8.08969023
_cell_length_b   8.08969023
_cell_length_c   8.08969023
_cell_angle_alpha   149.39840270
_cell_angle_beta   108.43025308
_cell_angle_gamma   79.81204406
_symmetry_Int_Tables_number   1
_chemical_formula_structural   Cu2(Ni3C)3
_chemical_formula_sum   'Cu2 Ni9 C3'
_cell_volume   250.66226046
_cell_formula_units_Z   1
loop_
 _symmetry_equiv_pos_site_id
 _symmetry_equiv_pos_as_xyz
  1  'x, y, z'
loop_
 _atom_site_type_symbol
 _atom_site_label
 _atom_site_symmetry_multiplicity
 _atom_site_fract_x
 _atom_site_fract_y
 _atom_site_fract_z
 _atom_site_occupancy
  C  C0  1  0.50000000  0.50000000  0.00000000  1
  C  C1  1  0.20022600  0.20022600  0.00000000  1
  C  C2  1  0.79977400  0.79977400  0.00000000  1
  Ni  Ni3  1  0.64579200  0.36317900  0.28261300  1
  Ni  Ni4  1  0.35420800  0.63682100  0.71738700  1
  Ni  Ni5  1  0.08056600  0.36317900  0.71738700  1
  Ni  Ni6  1  0.91943400  0.63682100  0.28261300  1
  Ni  Ni7  1  0.52280500  0.15505700  0.36774700  1
  Ni  Ni8  1  0.47719500  0.84494300  0.63225300  1
  Ni  Ni9  1  0.78731000  0.15505700  0.63225300  1
  Ni  Ni10  1  0.21269000  0.84494300  0.36774700  1
  Ni  Ni11  1  0.00000000  0.50000000  0.50000000  1
  Cu  Cu12  1  0.18099800  0.00000000  0.18099800  1
  Cu  Cu13  1  0.81900200  0.00000000  0.81900200  1
