# generated using pymatgen
data_Cu7NiC3
_symmetry_space_group_name_H-M   'P 1'
_cell_length_a   8.17167373
_cell_length_b   8.17167373
_cell_length_c   10.27441394
_cell_angle_alpha   72.29860060
_cell_angle_beta   72.29860060
_cell_angle_gamma   100.43450390
_symmetry_Int_Tables_number   1
_chemical_formula_structural   Cu7NiC3
_chemical_formula_sum   'Cu28 Ni4 C12'
_cell_volume   593.69729987
_cell_formula_units_Z   4
loop_
 _symmetry_equiv_pos_site_id
 _symmetry_equiv_pos_as_xyz
  1  'x, y, z'
loop_
 _atom_site_type_symbol
 _atom_site_label
 _atom_site_symmetry_multiplicity
 _atom_site_fract_x
 _atom_site_fract_y
 _atom_site_fract_z
 _atom_site_occupancy
  C  C0  1  0.26933400  0.98119700  0.75356100  1
  C  C1  1  0.98119700  0.26933400  0.75356100  1
  C  C2  1  0.50996200  0.75778200  0.23410200  1
  C  C3  1  0.75778200  0.50996200  0.23410200  1
  C  C4  1  0.93572600  0.93572600  0.65125700  1
  C  C5  1  0.44111300  0.44111300  0.66647000  1
  C  C6  1  0.56192900  0.06128900  0.34282700  1
  C  C7  1  0.06128900  0.56192900  0.34282700  1
  C  C8  1  0.20122900  0.69857300  0.56888800  1
  C  C9  1  0.69857300  0.20122900  0.56888800  1
  C  C10  1  0.30549800  0.30549800  0.43020200  1
  C  C11  1  0.79654100  0.79654100  0.43269800  1
  Ni  Ni12  1  0.78156900  0.78156900  0.91727200  1
  Ni  Ni13  1  0.27220200  0.27220200  0.93276100  1
  Ni  Ni14  1  0.71929000  0.22067000  0.07698600  1
  Ni  Ni15  1  0.22067000  0.71929000  0.07698600  1
  Cu  Cu16  1  0.30634400  0.79774200  0.94289900  1
  Cu  Cu17  1  0.79774200  0.30634400  0.94289900  1
  Cu  Cu18  1  0.41477800  0.41477800  0.87085300  1
  Cu  Cu19  1  0.92528600  0.92528600  0.85241300  1
  Cu  Cu20  1  0.73577600  0.73577600  0.81869000  1
  Cu  Cu21  1  0.23087700  0.23087700  0.82672000  1
  Cu  Cu22  1  0.26855300  0.57657600  0.67530600  1
  Cu  Cu23  1  0.09497300  0.78885000  0.66457100  1
  Cu  Cu24  1  0.78885000  0.09497300  0.66457100  1
  Cu  Cu25  1  0.57657600  0.26855300  0.67530600  1
  Cu  Cu26  1  0.15768700  0.15768700  0.57429600  1
  Cu  Cu27  1  0.57559100  0.07396800  0.52681800  1
  Cu  Cu28  1  0.07396800  0.57559100  0.52681800  1
  Cu  Cu29  1  0.65154300  0.65154300  0.57581800  1
  Cu  Cu30  1  0.35320900  0.84081400  0.42685600  1
  Cu  Cu31  1  0.43195700  0.43195700  0.47090500  1
  Cu  Cu32  1  0.92265100  0.92265100  0.47212900  1
  Cu  Cu33  1  0.84081400  0.35320900  0.42685600  1
  Cu  Cu34  1  0.22693600  0.42168000  0.33020400  1
  Cu  Cu35  1  0.42168000  0.22693600  0.33020400  1
  Cu  Cu36  1  0.71397200  0.90577600  0.33043800  1
  Cu  Cu37  1  0.90577600  0.71397200  0.33043800  1
  Cu  Cu38  1  0.76439100  0.26314300  0.17890900  1
  Cu  Cu39  1  0.26314300  0.76439100  0.17890900  1
  Cu  Cu40  1  0.57860900  0.07510200  0.14161400  1
  Cu  Cu41  1  0.07510200  0.57860900  0.14161400  1
  Cu  Cu42  1  0.70151600  0.70151600  0.05360800  1
  Cu  Cu43  1  0.18779000  0.18779000  0.06595700  1
