# generated using pymatgen
data_Cu15Ni3C13
_symmetry_space_group_name_H-M   'P 1'
_cell_length_a   6.87294500
_cell_length_b   9.28581631
_cell_length_c   11.86150082
_cell_angle_alpha   109.75772750
_cell_angle_beta   91.14635910
_cell_angle_gamma   111.45685349
_symmetry_Int_Tables_number   1
_chemical_formula_structural   Cu15Ni3C13
_chemical_formula_sum   'Cu30 Ni6 C26'
_cell_volume   654.08983834
_cell_formula_units_Z   2
loop_
 _symmetry_equiv_pos_site_id
 _symmetry_equiv_pos_as_xyz
  1  'x, y, z'
loop_
 _atom_site_type_symbol
 _atom_site_label
 _atom_site_symmetry_multiplicity
 _atom_site_fract_x
 _atom_site_fract_y
 _atom_site_fract_z
 _atom_site_occupancy
  C  C0  1  0.87517500  0.17865700  0.22495800  1
  C  C1  1  0.12482500  0.82134300  0.77504200  1
  C  C2  1  0.28493000  0.38381300  0.97365600  1
  C  C3  1  0.71507000  0.61618700  0.02634400  1
  C  C4  1  0.21552100  0.51690400  0.00934100  1
  C  C5  1  0.78447900  0.48309600  0.99065900  1
  C  C6  1  0.81928700  0.89933800  0.44937200  1
  C  C7  1  0.18071300  0.10066200  0.55062800  1
  C  C8  1  0.73093800  0.01154500  0.50754000  1
  C  C9  1  0.26906200  0.98845500  0.49246000  1
  C  C10  1  0.14139100  0.98986100  0.12189600  1
  C  C11  1  0.85860900  0.01013900  0.87810400  1
  C  C12  1  0.25120100  0.06632900  0.20695000  1
  C  C13  1  0.74879900  0.93367100  0.79305000  1
  C  C14  1  0.31384000  0.43343800  0.22549100  1
  C  C15  1  0.68616000  0.56656200  0.77450900  1
  C  C16  1  0.17542300  0.30768600  0.36413700  1
  C  C17  1  0.82457700  0.69231400  0.63586300  1
  C  C18  1  0.60278300  0.66848000  0.19732200  1
  C  C19  1  0.39721700  0.33151900  0.80267800  1
  C  C20  1  0.46883500  0.70294200  0.11721500  1
  C  C21  1  0.53116500  0.29705800  0.88278500  1
  C  C22  1  0.01196800  0.27497700  0.55926700  1
  C  C23  1  0.98803200  0.72502300  0.44073300  1
  C  C24  1  0.27587400  0.37117800  0.51790500  1
  C  C25  1  0.72412600  0.62882200  0.48209500  1
  Ni  Ni26  1  0.42426600  0.85494000  0.32313300  1
  Ni  Ni27  1  0.57573400  0.14506000  0.67686700  1
  Ni  Ni28  1  0.74222200  0.17477300  0.99780300  1
  Ni  Ni29  1  0.25777800  0.82522700  0.00219700  1
  Ni  Ni30  1  0.73419800  0.41409600  0.31571900  1
  Ni  Ni31  1  0.26580200  0.58590400  0.68428100  1
  Cu  Cu32  1  0.18637800  0.40099500  0.04090100  1
  Cu  Cu33  1  0.81362200  0.59900500  0.95909900  1
  Cu  Cu34  1  0.80845000  0.00592500  0.43002200  1
  Cu  Cu35  1  0.19155000  0.99407500  0.56997800  1
  Cu  Cu36  1  0.13012900  0.05203200  0.17649200  1
  Cu  Cu37  1  0.86987100  0.94796800  0.82350800  1
  Cu  Cu38  1  0.18889300  0.32098100  0.27891900  1
  Cu  Cu39  1  0.81110700  0.67901900  0.72108100  1
  Cu  Cu40  1  0.53676900  0.62967600  0.14129400  1
  Cu  Cu41  1  0.46323100  0.37032400  0.85870600  1
  Cu  Cu42  1  0.15685500  0.28016500  0.51068200  1
  Cu  Cu43  1  0.84314500  0.71983500  0.48931800  1
  Cu  Cu44  1  0.42183400  0.99195400  0.32877200  1
  Cu  Cu45  1  0.57816600  0.00804600  0.67122800  1
  Cu  Cu46  1  0.61621400  0.86340500  0.26983900  1
  Cu  Cu47  1  0.38378600  0.13659500  0.73016100  1
  Cu  Cu48  1  0.24754700  0.72220700  0.36720900  1
  Cu  Cu49  1  0.75245300  0.27779300  0.63279100  1
  Cu  Cu50  1  0.68970900  0.24748800  0.07026100  1
  Cu  Cu51  1  0.31029100  0.75251200  0.92973900  1
  Cu  Cu52  1  0.85468500  0.09745700  0.01905100  1
  Cu  Cu53  1  0.14531500  0.90254300  0.98094900  1
  Cu  Cu54  1  0.68293600  0.17933800  0.90931700  1
  Cu  Cu55  1  0.31706400  0.82066200  0.09068300  1
  Cu  Cu56  1  0.84907700  0.45217000  0.20327500  1
  Cu  Cu57  1  0.15092300  0.54783000  0.79672500  1
  Cu  Cu58  1  0.68603300  0.27154000  0.38807700  1
  Cu  Cu59  1  0.31396700  0.72846000  0.61192300  1
  Cu  Cu60  1  0.67098100  0.51050500  0.35193000  1
  Cu  Cu61  1  0.32901900  0.48949500  0.64807000  1
