# generated using pymatgen
data_CuNiC8
_symmetry_space_group_name_H-M   'P 1'
_cell_length_a   5.38017600
_cell_length_b   5.65800200
_cell_length_c   7.75830700
_cell_angle_alpha   90.00000000
_cell_angle_beta   90.00000000
_cell_angle_gamma   90.00000000
_symmetry_Int_Tables_number   1
_chemical_formula_structural   CuNiC8
_chemical_formula_sum   'Cu2 Ni2 C16'
_cell_volume   236.17098468
_cell_formula_units_Z   2
loop_
 _symmetry_equiv_pos_site_id
 _symmetry_equiv_pos_as_xyz
  1  'x, y, z'
loop_
 _atom_site_type_symbol
 _atom_site_label
 _atom_site_symmetry_multiplicity
 _atom_site_fract_x
 _atom_site_fract_y
 _atom_site_fract_z
 _atom_site_occupancy
  Ni  Ni0  1  0.23249600  0.43672700  0.50000000  1
  Ni  Ni1  1  0.76750400  0.93672700  0.50000000  1
  Cu  Cu2  1  0.26680600  0.56634300  0.00000000  1
  Cu  Cu3  1  0.73319400  0.06634300  0.00000000  1
  C  C4  1  0.24995700  0.00049100  0.24842600  1
  C  C5  1  0.75004300  0.50049100  0.75157400  1
  C  C6  1  0.24995700  0.00049100  0.75157400  1
  C  C7  1  0.75004300  0.50049100  0.24842600  1
  C  C8  1  0.55593900  0.80411500  0.80998800  1
  C  C9  1  0.44406100  0.30411500  0.19001200  1
  C  C10  1  0.94379300  0.19641200  0.30512400  1
  C  C11  1  0.05620700  0.69641200  0.69487600  1
  C  C12  1  0.94379300  0.19641200  0.69487600  1
  C  C13  1  0.05620700  0.69641200  0.30512400  1
  C  C14  1  0.55593900  0.80411500  0.19001200  1
  C  C15  1  0.44406100  0.30411500  0.80998800  1
  C  C16  1  0.13485000  0.95632300  0.00000000  1
  C  C17  1  0.86515000  0.45632300  0.00000000  1
  C  C18  1  0.35834500  0.03856900  0.50000000  1
  C  C19  1  0.64165500  0.53856900  0.50000000  1
