# generated using pymatgen
data_Cu6NiC7
_symmetry_space_group_name_H-M   'P 1'
_cell_length_a   4.83659600
_cell_length_b   5.65746200
_cell_length_c   17.82464400
_cell_angle_alpha   90.00000000
_cell_angle_beta   90.00000000
_cell_angle_gamma   90.00000000
_symmetry_Int_Tables_number   1
_chemical_formula_structural   Cu6NiC7
_chemical_formula_sum   'Cu24 Ni4 C28'
_cell_volume   487.73320409
_cell_formula_units_Z   4
loop_
 _symmetry_equiv_pos_site_id
 _symmetry_equiv_pos_as_xyz
  1  'x, y, z'
loop_
 _atom_site_type_symbol
 _atom_site_label
 _atom_site_symmetry_multiplicity
 _atom_site_fract_x
 _atom_site_fract_y
 _atom_site_fract_z
 _atom_site_occupancy
  C  C0  1  0.88497300  0.75000000  0.23870200  1
  C  C1  1  0.61502700  0.75000000  0.73870200  1
  C  C2  1  0.11502700  0.25000000  0.76129800  1
  C  C3  1  0.38497300  0.25000000  0.26129800  1
  Ni  Ni4  1  0.32004800  0.75000000  0.34606700  1
  Ni  Ni5  1  0.17995200  0.75000000  0.84606700  1
  Ni  Ni6  1  0.67995200  0.25000000  0.65393300  1
  Ni  Ni7  1  0.82004800  0.25000000  0.15393300  1
  Cu  Cu8  1  0.30064800  0.61090800  0.15134200  1
  Cu  Cu9  1  0.19935200  0.88909200  0.65134200  1
  Cu  Cu10  1  0.69935200  0.11090800  0.84865800  1
  Cu  Cu11  1  0.80064800  0.38909200  0.34865800  1
  Cu  Cu12  1  0.69935200  0.38909200  0.84865800  1
  Cu  Cu13  1  0.80064800  0.11090800  0.34865800  1
  Cu  Cu14  1  0.30064800  0.88909200  0.15134200  1
  Cu  Cu15  1  0.19935200  0.61090800  0.65134200  1
  Cu  Cu16  1  0.57804700  0.75000000  0.48057700  1
  Cu  Cu17  1  0.92195300  0.75000000  0.98057700  1
  Cu  Cu18  1  0.42195300  0.25000000  0.51942300  1
  Cu  Cu19  1  0.07804700  0.25000000  0.01942300  1
  Cu  Cu20  1  0.93435900  0.75000000  0.47892400  1
  Cu  Cu21  1  0.56564100  0.75000000  0.97892400  1
  Cu  Cu22  1  0.06564100  0.25000000  0.52107600  1
  Cu  Cu23  1  0.43435900  0.25000000  0.02107600  1
  Cu  Cu24  1  0.75746900  0.59916000  0.54663300  1
  Cu  Cu25  1  0.74253100  0.90084000  0.04663300  1
  Cu  Cu26  1  0.24253100  0.09916000  0.45336700  1
  Cu  Cu27  1  0.25746900  0.40084000  0.95336700  1
  Cu  Cu28  1  0.24253100  0.40084000  0.45336700  1
  Cu  Cu29  1  0.25746900  0.09916000  0.95336700  1
  Cu  Cu30  1  0.75746900  0.90084000  0.54663300  1
  Cu  Cu31  1  0.74253100  0.59916000  0.04663300  1
  C  C32  1  0.75837600  0.75000000  0.51369800  1
  C  C33  1  0.74162400  0.75000000  0.01369800  1
  C  C34  1  0.24162400  0.25000000  0.48630200  1
  C  C35  1  0.25837600  0.25000000  0.98630200  1
  C  C36  1  0.18090700  0.75000000  0.14481900  1
  C  C37  1  0.31909300  0.75000000  0.64481900  1
  C  C38  1  0.81909300  0.25000000  0.85518100  1
  C  C39  1  0.68090700  0.25000000  0.35518100  1
  C  C40  1  0.63243800  0.75000000  0.33433700  1
  C  C41  1  0.86756200  0.75000000  0.83433700  1
  C  C42  1  0.36756200  0.25000000  0.66566300  1
  C  C43  1  0.13243800  0.25000000  0.16566300  1
  C  C44  1  0.17494900  0.53199300  0.30700900  1
  C  C45  1  0.32505100  0.96800700  0.80700900  1
  C  C46  1  0.82505100  0.03199300  0.69299100  1
  C  C47  1  0.67494900  0.46800700  0.19299100  1
  C  C48  1  0.82505100  0.46800700  0.69299100  1
  C  C49  1  0.67494900  0.03199300  0.19299100  1
  C  C50  1  0.17494900  0.96800700  0.30700900  1
  C  C51  1  0.32505100  0.53199300  0.80700900  1
  C  C52  1  0.25677600  0.75000000  0.43178000  1
  C  C53  1  0.24322400  0.75000000  0.93178000  1
  C  C54  1  0.74322400  0.25000000  0.56822000  1
  C  C55  1  0.75677600  0.25000000  0.06822000  1
