# generated using pymatgen
data_Cu3Ni9C2
_symmetry_space_group_name_H-M   'P 1'
_cell_length_a   7.67044170
_cell_length_b   7.67044170
_cell_length_c   9.51216600
_cell_angle_alpha   90.00000000
_cell_angle_beta   90.00000000
_cell_angle_gamma   119.70785191
_symmetry_Int_Tables_number   1
_chemical_formula_structural   Cu3Ni9C2
_chemical_formula_sum   'Cu6 Ni18 C4'
_cell_volume   486.09571885
_cell_formula_units_Z   2
loop_
 _symmetry_equiv_pos_site_id
 _symmetry_equiv_pos_as_xyz
  1  'x, y, z'
loop_
 _atom_site_type_symbol
 _atom_site_label
 _atom_site_symmetry_multiplicity
 _atom_site_fract_x
 _atom_site_fract_y
 _atom_site_fract_z
 _atom_site_occupancy
  C  C0  1  0.99439100  0.66942600  0.25000000  1
  C  C1  1  0.00560900  0.33057400  0.75000000  1
  C  C2  1  0.66942600  0.99439100  0.25000000  1
  C  C3  1  0.33057400  0.00560900  0.75000000  1
  Ni  Ni4  1  0.12780200  0.12780200  0.25000000  1
  Ni  Ni5  1  0.87219800  0.87219800  0.75000000  1
  Ni  Ni6  1  0.00051500  0.33417300  0.07602000  1
  Ni  Ni7  1  0.99948500  0.66582700  0.92398000  1
  Ni  Ni8  1  0.99948500  0.66582700  0.57602000  1
  Ni  Ni9  1  0.33417300  0.00051500  0.42398000  1
  Ni  Ni10  1  0.00051500  0.33417300  0.42398000  1
  Ni  Ni11  1  0.66582700  0.99948500  0.57602000  1
  Ni  Ni12  1  0.66582700  0.99948500  0.92398000  1
  Ni  Ni13  1  0.33417300  0.00051500  0.07602000  1
  Ni  Ni14  1  0.33400600  0.33400600  0.55929700  1
  Ni  Ni15  1  0.66599400  0.66599400  0.44070300  1
  Ni  Ni16  1  0.66599400  0.66599400  0.05929700  1
  Ni  Ni17  1  0.33400600  0.33400600  0.94070300  1
  Ni  Ni18  1  0.33709000  0.54544800  0.25000000  1
  Ni  Ni19  1  0.66291000  0.45455200  0.75000000  1
  Ni  Ni20  1  0.54544800  0.33709000  0.25000000  1
  Ni  Ni21  1  0.45455200  0.66291000  0.75000000  1
  Cu  Cu22  1  0.67133000  0.32867000  0.00000000  1
  Cu  Cu23  1  0.32867000  0.67133000  0.00000000  1
  Cu  Cu24  1  0.32867000  0.67133000  0.50000000  1
  Cu  Cu25  1  0.67133000  0.32867000  0.50000000  1
  Cu  Cu26  1  0.00000000  0.00000000  0.00000000  1
  Cu  Cu27  1  0.00000000  0.00000000  0.50000000  1
