# generated using pymatgen
data_Cu5Ni2C25
_symmetry_space_group_name_H-M   'P 1'
_cell_length_a   5.84064400
_cell_length_b   5.91276353
_cell_length_c   9.72778264
_cell_angle_alpha   91.84789041
_cell_angle_beta   99.20324324
_cell_angle_gamma   119.38861318
_symmetry_Int_Tables_number   1
_chemical_formula_structural   Cu5Ni2C25
_chemical_formula_sum   'Cu5 Ni2 C25'
_cell_volume   286.53799277
_cell_formula_units_Z   1
loop_
 _symmetry_equiv_pos_site_id
 _symmetry_equiv_pos_as_xyz
  1  'x, y, z'
loop_
 _atom_site_type_symbol
 _atom_site_label
 _atom_site_symmetry_multiplicity
 _atom_site_fract_x
 _atom_site_fract_y
 _atom_site_fract_z
 _atom_site_occupancy
  C  C0  1  0.25977000  0.12940000  0.73900700  1
  C  C1  1  0.99995500  0.25580900  0.49856700  1
  C  C2  1  0.73767800  0.35653800  0.26491600  1
  C  C3  1  0.49981300  0.50468900  0.00341000  1
  C  C4  1  0.25906000  0.63641400  0.74272900  1
  C  C5  1  0.99981200  0.74368000  0.49454200  1
  C  C6  1  0.74423500  0.86858300  0.25561900  1
  C  C7  1  0.49737300  0.99696200  0.00427800  1
  C  C8  1  0.50087200  0.24657300  0.50055000  1
  Ni  Ni9  1  0.00348200  0.00527700  0.99973200  1
  Ni  Ni10  1  0.75036300  0.62216400  0.74516700  1
  Cu  Cu11  1  0.24652700  0.87794700  0.25385400  1
  Cu  Cu12  1  0.00549500  0.50397000  0.00476900  1
  Cu  Cu13  1  0.75444600  0.13019400  0.74391800  1
  Cu  Cu14  1  0.49430600  0.74339700  0.49787500  1
  Cu  Cu15  1  0.24938100  0.36586600  0.26149500  1
  C  C16  1  0.10590000  0.81536700  0.87898600  1
  C  C17  1  0.85993700  0.92048100  0.63694100  1
  C  C18  1  0.58836400  0.03023200  0.37040300  1
  C  C19  1  0.35549800  0.19341600  0.11434200  1
  C  C20  1  0.09214500  0.28291700  0.87867500  1
  C  C21  1  0.87756700  0.45490200  0.63712300  1
  C  C22  1  0.60082000  0.55891900  0.37063800  1
  C  C23  1  0.34284700  0.68681700  0.12616800  1
  C  C24  1  0.40424000  0.45571500  0.63274100  1
  C  C25  1  0.12225100  0.54900400  0.37476200  1
  C  C26  1  0.90416500  0.72688700  0.11803400  1
  C  C27  1  0.65077200  0.81000600  0.87856800  1
  C  C28  1  0.41446400  0.94292400  0.63024200  1
  C  C29  1  0.13319500  0.05540500  0.36367400  1
  C  C30  1  0.88765700  0.19049400  0.11471600  1
  C  C31  1  0.65760800  0.33905600  0.86355900  1
