# generated using pymatgen
data_Cu3Ni4
_symmetry_space_group_name_H-M   'P 1'
_cell_length_a   10.49430027
_cell_length_b   10.49430027
_cell_length_c   10.49429968
_cell_angle_alpha   90.10102370
_cell_angle_beta   90.10102370
_cell_angle_gamma   90.10102404
_symmetry_Int_Tables_number   1
_chemical_formula_structural   Cu3Ni4
_chemical_formula_sum   'Cu36 Ni48'
_cell_volume   1155.73537658
_cell_formula_units_Z   12
loop_
 _symmetry_equiv_pos_site_id
 _symmetry_equiv_pos_as_xyz
  1  'x, y, z'
loop_
 _atom_site_type_symbol
 _atom_site_label
 _atom_site_symmetry_multiplicity
 _atom_site_fract_x
 _atom_site_fract_y
 _atom_site_fract_z
 _atom_site_occupancy
  Ni  Ni0  1  0.51468600  0.19827800  0.61810500  1
  Ni  Ni1  1  0.19827800  0.61810500  0.51468600  1
  Ni  Ni2  1  0.61810500  0.51468600  0.19827800  1
  Ni  Ni3  1  0.41946800  0.30277000  0.60973300  1
  Ni  Ni4  1  0.30277000  0.60973300  0.41946800  1
  Ni  Ni5  1  0.60973300  0.41946800  0.30277000  1
  Ni  Ni6  1  0.17709000  0.99243400  0.11550200  1
  Ni  Ni7  1  0.99243400  0.11550200  0.17709000  1
  Ni  Ni8  1  0.11550200  0.17709000  0.99243400  1
  Ni  Ni9  1  0.23872700  0.87079500  0.15398700  1
  Ni  Ni10  1  0.87079500  0.15398700  0.23872700  1
  Ni  Ni11  1  0.15398700  0.23872700  0.87079500  1
  Ni  Ni12  1  0.67861100  0.69906100  0.07418100  1
  Ni  Ni13  1  0.69906100  0.07418100  0.67861100  1
  Ni  Ni14  1  0.07418100  0.67861100  0.69906100  1
  Ni  Ni15  1  0.77470200  0.80311800  0.08176200  1
  Ni  Ni16  1  0.80311800  0.08176200  0.77470200  1
  Ni  Ni17  1  0.08176200  0.77470200  0.80311800  1
  Ni  Ni18  1  0.01347700  0.49406000  0.57485600  1
  Ni  Ni19  1  0.49406000  0.57485600  0.01347700  1
  Ni  Ni20  1  0.57485600  0.01347700  0.49406000  1
  Ni  Ni21  1  0.91765900  0.38971200  0.58239400  1
  Ni  Ni22  1  0.38971200  0.58239400  0.91765900  1
  Ni  Ni23  1  0.58239400  0.91765900  0.38971200  1
  Ni  Ni24  1  0.67736800  0.99192400  0.57655900  1
  Ni  Ni25  1  0.99192400  0.57655900  0.67736800  1
  Ni  Ni26  1  0.57655900  0.67736800  0.99192400  1
  Ni  Ni27  1  0.74007800  0.87122700  0.53662900  1
  Ni  Ni28  1  0.87122700  0.53662900  0.74007800  1
  Ni  Ni29  1  0.53662900  0.74007800  0.87122700  1
  Ni  Ni30  1  0.01421700  0.19872900  0.07529500  1
  Ni  Ni31  1  0.19872900  0.07529500  0.01421700  1
  Ni  Ni32  1  0.07529500  0.01421700  0.19872900  1
  Ni  Ni33  1  0.91854500  0.30282000  0.08381400  1
  Ni  Ni34  1  0.30282000  0.08381400  0.91854500  1
  Ni  Ni35  1  0.08381400  0.91854500  0.30282000  1
  Ni  Ni36  1  0.51607500  0.49240000  0.11506500  1
  Ni  Ni37  1  0.49240000  0.11506500  0.51607500  1
  Ni  Ni38  1  0.11506500  0.51607500  0.49240000  1
  Ni  Ni39  1  0.45331900  0.37159100  0.15434800  1
  Ni  Ni40  1  0.37159100  0.15434800  0.45331900  1
  Ni  Ni41  1  0.15434800  0.45331900  0.37159100  1
  Ni  Ni42  1  0.17595200  0.70112300  0.61605800  1
  Ni  Ni43  1  0.70112300  0.61605800  0.17595200  1
  Ni  Ni44  1  0.61605800  0.17595200  0.70112300  1
  Ni  Ni45  1  0.23772800  0.82268700  0.65533700  1
  Ni  Ni46  1  0.82268700  0.65533700  0.23772800  1
  Ni  Ni47  1  0.65533700  0.23772800  0.82268700  1
  Cu  Cu48  1  0.33281100  0.26801800  0.51304200  1
  Cu  Cu49  1  0.26801800  0.51304200  0.33281100  1
  Cu  Cu50  1  0.51304200  0.33281100  0.26801800  1
  Cu  Cu51  1  0.41187400  0.40379200  0.66349700  1
  Cu  Cu52  1  0.40379200  0.66349700  0.41187400  1
  Cu  Cu53  1  0.66349700  0.41187400  0.40379200  1
  Cu  Cu54  1  0.31779600  0.80631400  0.10181500  1
  Cu  Cu55  1  0.80631400  0.10181500  0.31779600  1
  Cu  Cu56  1  0.10181500  0.31779600  0.80631400  1
  Cu  Cu57  1  0.86178200  0.76830300  0.17802600  1
  Cu  Cu58  1  0.76830300  0.17802600  0.86178200  1
  Cu  Cu59  1  0.17802600  0.86178200  0.76830300  1
  Cu  Cu60  1  0.78217600  0.90382100  0.02789100  1
  Cu  Cu61  1  0.90382100  0.02789100  0.78217600  1
  Cu  Cu62  1  0.02789100  0.78217600  0.90382100  1
  Cu  Cu63  1  0.83227300  0.42312600  0.67999100  1
  Cu  Cu64  1  0.42312600  0.67999100  0.83227300  1
  Cu  Cu65  1  0.67999100  0.83227300  0.42312600  1
  Cu  Cu66  1  0.90937800  0.28978600  0.52669100  1
  Cu  Cu67  1  0.28978600  0.52669100  0.90937800  1
  Cu  Cu68  1  0.52669100  0.90937800  0.28978600  1
  Cu  Cu69  1  0.82174600  0.80845600  0.58656500  1
  Cu  Cu70  1  0.80845600  0.58656500  0.82174600  1
  Cu  Cu71  1  0.58656500  0.82174600  0.80845600  1
  Cu  Cu72  1  0.83249700  0.26806100  0.18061000  1
  Cu  Cu73  1  0.26806100  0.18061000  0.83249700  1
  Cu  Cu74  1  0.18061000  0.83249700  0.26806100  1
  Cu  Cu75  1  0.90986400  0.40283800  0.02882600  1
  Cu  Cu76  1  0.40283800  0.02882600  0.90986400  1
  Cu  Cu77  1  0.02882600  0.90986400  0.40283800  1
  Cu  Cu78  1  0.37093700  0.30881400  0.10490800  1
  Cu  Cu79  1  0.30881400  0.10490800  0.37093700  1
  Cu  Cu80  1  0.10490800  0.37093700  0.30881400  1
  Cu  Cu81  1  0.31945700  0.88570800  0.60529000  1
  Cu  Cu82  1  0.88570800  0.60529000  0.31945700  1
  Cu  Cu83  1  0.60529000  0.31945700  0.88570800  1
