# generated using pymatgen
data_Cu4NiC5
_symmetry_space_group_name_H-M   'P 1'
_cell_length_a   6.50913600
_cell_length_b   8.28441900
_cell_length_c   9.74186400
_cell_angle_alpha   90.00000000
_cell_angle_beta   90.00000000
_cell_angle_gamma   90.00000000
_symmetry_Int_Tables_number   1
_chemical_formula_structural   Cu4NiC5
_chemical_formula_sum   'Cu8 Ni2 C10'
_cell_volume   525.32426803
_cell_formula_units_Z   2
loop_
 _symmetry_equiv_pos_site_id
 _symmetry_equiv_pos_as_xyz
  1  'x, y, z'
loop_
 _atom_site_type_symbol
 _atom_site_label
 _atom_site_symmetry_multiplicity
 _atom_site_fract_x
 _atom_site_fract_y
 _atom_site_fract_z
 _atom_site_occupancy
  C  C0  1  0.89452500  0.74011800  0.77172300  1
  C  C1  1  0.89452500  0.74011800  0.22827700  1
  C  C2  1  0.10547500  0.24011800  0.72827700  1
  C  C3  1  0.10547500  0.24011800  0.27172300  1
  C  C4  1  0.50114900  0.49846100  0.50000000  1
  C  C5  1  0.49885100  0.99846100  0.00000000  1
  C  C6  1  0.49944500  0.99025500  0.50000000  1
  C  C7  1  0.50055500  0.49025500  0.00000000  1
  Ni  Ni8  1  0.09106600  0.66623700  0.50000000  1
  Ni  Ni9  1  0.90893400  0.16623700  0.00000000  1
  Cu  Cu10  1  0.40641600  0.85139100  0.68561700  1
  Cu  Cu11  1  0.40641600  0.85139100  0.31438300  1
  Cu  Cu12  1  0.59358400  0.35139100  0.81438300  1
  Cu  Cu13  1  0.59358400  0.35139100  0.18561700  1
  Cu  Cu14  1  0.83876500  0.02162600  0.50000000  1
  Cu  Cu15  1  0.16123500  0.52162600  0.00000000  1
  Cu  Cu16  1  0.99729000  0.52029500  0.50000000  1
  Cu  Cu17  1  0.00271000  0.02029500  0.00000000  1
  C  C18  1  0.37134400  0.17927800  0.50000000  1
  C  C19  1  0.62865600  0.67927800  0.00000000  1
