# generated using pymatgen
data_Cu10Ni10C3
_symmetry_space_group_name_H-M   'P 1'
_cell_length_a   7.28425426
_cell_length_b   7.28425426
_cell_length_c   11.91348738
_cell_angle_alpha   75.89990176
_cell_angle_beta   75.89990176
_cell_angle_gamma   69.45533131
_symmetry_Int_Tables_number   1
_chemical_formula_structural   Cu10Ni10C3
_chemical_formula_sum   'Cu10 Ni10 C3'
_cell_volume   565.32721438
_cell_formula_units_Z   1
loop_
 _symmetry_equiv_pos_site_id
 _symmetry_equiv_pos_as_xyz
  1  'x, y, z'
loop_
 _atom_site_type_symbol
 _atom_site_label
 _atom_site_symmetry_multiplicity
 _atom_site_fract_x
 _atom_site_fract_y
 _atom_site_fract_z
 _atom_site_occupancy
  C  C0  1  0.33181500  0.33181500  0.29071700  1
  C  C1  1  0.66818500  0.66818500  0.70928300  1
  C  C2  1  0.00000000  0.00000000  0.00000000  1
  Ni  Ni3  1  0.48910000  0.48910000  0.23830700  1
  Ni  Ni4  1  0.51090000  0.51090000  0.76169300  1
  Ni  Ni5  1  0.46649100  0.11492300  0.22975500  1
  Ni  Ni6  1  0.11492300  0.46649100  0.22975500  1
  Ni  Ni7  1  0.53350900  0.88507700  0.77024500  1
  Ni  Ni8  1  0.88507700  0.53350900  0.77024500  1
  Ni  Ni9  1  0.50085600  0.19149100  0.45314800  1
  Ni  Ni10  1  0.19149100  0.50085600  0.45314800  1
  Ni  Ni11  1  0.49914400  0.80850900  0.54685200  1
  Ni  Ni12  1  0.80850900  0.49914400  0.54685200  1
  Cu  Cu13  1  0.95729700  0.95729700  0.20073500  1
  Cu  Cu14  1  0.04270300  0.04270300  0.79926500  1
  Cu  Cu15  1  0.12085900  0.12085900  0.40279600  1
  Cu  Cu16  1  0.87914100  0.87914100  0.59720400  1
  Cu  Cu17  1  0.80429900  0.80429900  0.01664600  1
  Cu  Cu18  1  0.19570100  0.19570100  0.98335400  1
  Cu  Cu19  1  0.72026400  0.27973600  0.00000000  1
  Cu  Cu20  1  0.27973600  0.72026400  0.00000000  1
  Cu  Cu21  1  0.65243000  0.65243000  0.47664700  1
  Cu  Cu22  1  0.34757000  0.34757000  0.52335300  1
