# generated using pymatgen
data_Cu2NiC13
_symmetry_space_group_name_H-M   'P 1'
_cell_length_a   3.79458300
_cell_length_b   3.93131600
_cell_length_c   28.36305800
_cell_angle_alpha   90.00000000
_cell_angle_beta   90.00000000
_cell_angle_gamma   90.00000000
_symmetry_Int_Tables_number   1
_chemical_formula_structural   Cu2NiC13
_chemical_formula_sum   'Cu4 Ni2 C26'
_cell_volume   423.11172821
_cell_formula_units_Z   2
loop_
 _symmetry_equiv_pos_site_id
 _symmetry_equiv_pos_as_xyz
  1  'x, y, z'
loop_
 _atom_site_type_symbol
 _atom_site_label
 _atom_site_symmetry_multiplicity
 _atom_site_fract_x
 _atom_site_fract_y
 _atom_site_fract_z
 _atom_site_occupancy
  C  C0  1  0.00000000  0.00000000  0.57898900  1
  C  C1  1  0.50000000  0.50000000  0.07136200  1
  C  C2  1  0.50000000  0.50000000  0.92761300  1
  C  C3  1  0.00000000  0.00000000  0.43252200  1
  C  C4  1  0.50000000  0.50000000  0.20426000  1
  C  C5  1  0.50000000  0.50000000  0.78980200  1
  C  C6  1  0.00000000  0.00000000  0.29371300  1
  C  C7  1  0.00000000  0.00000000  0.70774500  1
  Ni  Ni8  1  0.00000000  0.00000000  0.86395800  1
  Ni  Ni9  1  0.50000000  0.50000000  0.36448600  1
  Cu  Cu10  1  0.00000000  0.00000000  0.99957700  1
  Cu  Cu11  1  0.50000000  0.50000000  0.50051100  1
  Cu  Cu12  1  0.50000000  0.50000000  0.64020700  1
  Cu  Cu13  1  0.00000000  0.00000000  0.14059500  1
  C  C14  1  0.50000000  0.50000000  0.56522200  1
  C  C15  1  0.00000000  0.00000000  0.06532500  1
  C  C16  1  0.00000000  0.00000000  0.93186600  1
  C  C17  1  0.50000000  0.50000000  0.43105800  1
  C  C18  1  0.00000000  0.50000000  0.64765000  1
  C  C19  1  0.50000000  0.00000000  0.15098600  1
  C  C20  1  0.50000000  0.00000000  0.64733800  1
  C  C21  1  0.00000000  0.50000000  0.15057700  1
  C  C22  1  0.50000000  0.00000000  0.85217800  1
  C  C23  1  0.00000000  0.50000000  0.34810100  1
  C  C24  1  0.00000000  0.50000000  0.85249500  1
  C  C25  1  0.50000000  0.00000000  0.34952600  1
  C  C26  1  0.00000000  0.50000000  0.74830700  1
  C  C27  1  0.50000000  0.00000000  0.24850900  1
  C  C28  1  0.50000000  0.00000000  0.75121700  1
  C  C29  1  0.00000000  0.50000000  0.24996300  1
  C  C30  1  0.00000000  0.50000000  0.99847100  1
  C  C31  1  0.50000000  0.00000000  0.49587200  1
