# generated using pymatgen
data_Cu2NiC4
_symmetry_space_group_name_H-M   'P 1'
_cell_length_a   5.25133159
_cell_length_b   5.12233765
_cell_length_c   6.10477383
_cell_angle_alpha   112.66114137
_cell_angle_beta   113.72819088
_cell_angle_gamma   95.07133467
_symmetry_Int_Tables_number   1
_chemical_formula_structural   Cu2NiC4
_chemical_formula_sum   'Cu4 Ni2 C8'
_cell_volume   132.84119547
_cell_formula_units_Z   2
loop_
 _symmetry_equiv_pos_site_id
 _symmetry_equiv_pos_as_xyz
  1  'x, y, z'
loop_
 _atom_site_type_symbol
 _atom_site_label
 _atom_site_symmetry_multiplicity
 _atom_site_fract_x
 _atom_site_fract_y
 _atom_site_fract_z
 _atom_site_occupancy
  Ni  Ni0  1  0.91881100  0.17490500  0.84514400  1
  Ni  Ni1  1  0.08118900  0.82509500  0.15485600  1
  Cu  Cu2  1  0.50000000  0.00000000  0.00000000  1
  Cu  Cu3  1  0.50000000  0.50000000  0.00000000  1
  Cu  Cu4  1  0.00000000  0.50000000  0.50000000  1
  Cu  Cu5  1  0.50000000  0.50000000  0.50000000  1
  C  C6  1  0.73257900  0.48211300  0.83341600  1
  C  C7  1  0.09350100  0.85401600  0.82954500  1
  C  C8  1  0.26742100  0.51788700  0.16658400  1
  C  C9  1  0.90649900  0.14598400  0.17045500  1
  C  C10  1  0.45291000  0.09798000  0.30729600  1
  C  C11  1  0.86836700  0.70423000  0.30855500  1
  C  C12  1  0.13163300  0.29577000  0.69144500  1
  C  C13  1  0.54709000  0.90202000  0.69270400  1
