# generated using pymatgen
data_Cu6Ni18C5
_symmetry_space_group_name_H-M   'P 1'
_cell_length_a   6.07473336
_cell_length_b   18.16061788
_cell_length_c   8.58140847
_cell_angle_alpha   44.84726994
_cell_angle_beta   90.28939300
_cell_angle_gamma   90.20773978
_symmetry_Int_Tables_number   1
_chemical_formula_structural   Cu6Ni18C5
_chemical_formula_sum   'Cu12 Ni36 C10'
_cell_volume   667.62887469
_cell_formula_units_Z   2
loop_
 _symmetry_equiv_pos_site_id
 _symmetry_equiv_pos_as_xyz
  1  'x, y, z'
loop_
 _atom_site_type_symbol
 _atom_site_label
 _atom_site_symmetry_multiplicity
 _atom_site_fract_x
 _atom_site_fract_y
 _atom_site_fract_z
 _atom_site_occupancy
  C  C0  1  0.98748600  0.99800100  0.01294400  1
  C  C1  1  0.98807900  0.33541100  0.00705700  1
  C  C2  1  0.01582800  0.66652500  0.00088000  1
  Ni  Ni3  1  0.25503200  0.07041000  0.25373100  1
  Ni  Ni4  1  0.25435400  0.40362800  0.25243000  1
  Ni  Ni5  1  0.25473700  0.26295700  0.46502500  1
  Ni  Ni6  1  0.25300800  0.59644900  0.46238900  1
  Ni  Ni7  1  0.25555500  0.07002400  0.53497900  1
  Ni  Ni8  1  0.25295700  0.73693900  0.25162400  1
  Ni  Ni9  1  0.25555000  0.26323000  0.74520800  1
  Ni  Ni10  1  0.25454300  0.92975400  0.46309800  1
  Ni  Ni11  1  0.25472300  0.40398000  0.53582600  1
  Ni  Ni12  1  0.25350400  0.59673500  0.74593400  1
  Ni  Ni13  1  0.25347000  0.73650900  0.53634900  1
  Ni  Ni14  1  0.25471900  0.92929100  0.74786700  1
  Ni  Ni15  1  0.46530400  0.00045100  0.25330900  1
  Ni  Ni16  1  0.46373900  0.99944300  0.74710800  1
  Ni  Ni17  1  0.46491500  0.33294900  0.25456900  1
  Ni  Ni18  1  0.46374900  0.33381500  0.74557900  1
  Ni  Ni19  1  0.46415500  0.66670300  0.25344900  1
  Ni  Ni20  1  0.46490700  0.66661700  0.74584200  1
  Ni  Ni21  1  0.53622700  0.16400800  0.25460000  1
  Ni  Ni22  1  0.53620000  0.16928400  0.74669700  1
  Ni  Ni23  1  0.53771300  0.49925300  0.25060500  1
  Ni  Ni24  1  0.53740800  0.50195900  0.74638900  1
  Ni  Ni25  1  0.53753900  0.83150500  0.25197200  1
  Ni  Ni26  1  0.53783500  0.83405000  0.74851300  1
  Ni  Ni27  1  0.74810300  0.09419600  0.46317900  1
  Ni  Ni28  1  0.74630800  0.09348100  0.25434700  1
  Ni  Ni29  1  0.74622400  0.23987100  0.53472300  1
  Ni  Ni30  1  0.74808000  0.23909500  0.74576600  1
  Ni  Ni31  1  0.74534900  0.42804500  0.25192200  1
  Ni  Ni32  1  0.74770900  0.42886600  0.46102600  1
  Ni  Ni33  1  0.74473000  0.57300100  0.74624600  1
  Ni  Ni34  1  0.74574400  0.76016800  0.25483800  1
  Ni  Ni35  1  0.74487500  0.76039400  0.46506400  1
  Ni  Ni36  1  0.74576000  0.57320000  0.53538500  1
  Ni  Ni37  1  0.74546500  0.90529800  0.53614100  1
  Ni  Ni38  1  0.74776800  0.90449900  0.74773800  1
  Cu  Cu39  1  0.35764300  0.00010700  0.35635100  1
  Cu  Cu40  1  0.35786800  0.99954900  0.64306200  1
  Cu  Cu41  1  0.35739900  0.33328800  0.35668400  1
  Cu  Cu42  1  0.35788300  0.33370600  0.64181000  1
  Cu  Cu43  1  0.35770400  0.66664500  0.64279600  1
  Cu  Cu44  1  0.35691300  0.66669400  0.35582300  1
  Cu  Cu45  1  0.64362300  0.09522000  0.35701100  1
  Cu  Cu46  1  0.64358100  0.23808100  0.64265500  1
  Cu  Cu47  1  0.64350200  0.42978900  0.35466200  1
  Cu  Cu48  1  0.64322200  0.57137000  0.64284700  1
  Cu  Cu49  1  0.64326200  0.76203800  0.35675000  1
  Cu  Cu50  1  0.64358100  0.90354000  0.64416100  1
  C  C51  1  0.50100800  0.33398500  0.49877500  1
  C  C52  1  0.50110800  0.99932200  0.50078900  1
  C  C53  1  0.49902500  0.66670000  0.49955500  1
  C  C54  1  0.16070000  0.22568500  0.16010100  1
  C  C55  1  0.16071000  0.10756200  0.83738000  1
  C  C56  1  0.83181700  0.66677200  0.84199100  1
  C  C57  1  0.83010600  0.66661900  0.15644900  1
