# generated using pymatgen
data_Cu3(NiC)5
_symmetry_space_group_name_H-M   'P 1'
_cell_length_a   5.83302726
_cell_length_b   13.60148302
_cell_length_c   16.77118498
_cell_angle_alpha   67.42857748
_cell_angle_beta   79.81657932
_cell_angle_gamma   77.42427849
_symmetry_Int_Tables_number   1
_chemical_formula_structural   Cu3(NiC)5
_chemical_formula_sum   'Cu12 Ni20 C20'
_cell_volume   1192.75846850
_cell_formula_units_Z   4
loop_
 _symmetry_equiv_pos_site_id
 _symmetry_equiv_pos_as_xyz
  1  'x, y, z'
loop_
 _atom_site_type_symbol
 _atom_site_label
 _atom_site_symmetry_multiplicity
 _atom_site_fract_x
 _atom_site_fract_y
 _atom_site_fract_z
 _atom_site_occupancy
  Ni  Ni0  1  0.03138900  0.82016400  0.08597300  1
  Ni  Ni1  1  0.93985600  0.67945400  0.41414400  1
  Ni  Ni2  1  0.96635800  0.17967000  0.91383200  1
  Ni  Ni3  1  0.06103000  0.32142400  0.58626300  1
  Ni  Ni4  1  0.52154600  0.02394400  0.08534700  1
  Ni  Ni5  1  0.63322700  0.47690700  0.41409400  1
  Ni  Ni6  1  0.47909900  0.97620200  0.91468800  1
  Ni  Ni7  1  0.37173900  0.52392200  0.58549100  1
  Ni  Ni8  1  0.20648500  0.56301000  0.25861000  1
  Ni  Ni9  1  0.02550500  0.93664000  0.24152300  1
  Ni  Ni10  1  0.79671900  0.43682100  0.74208000  1
  Ni  Ni11  1  0.97464400  0.06372700  0.75810200  1
  Ni  Ni12  1  0.46960300  0.87389400  0.45577100  1
  Ni  Ni13  1  0.79339900  0.62777500  0.04442000  1
  Ni  Ni14  1  0.52993700  0.12781100  0.54368100  1
  Ni  Ni15  1  0.20204000  0.37253000  0.95517400  1
  Ni  Ni16  1  0.68984600  0.33077000  0.13288400  1
  Ni  Ni17  1  0.15363200  0.17058400  0.36719400  1
  Ni  Ni18  1  0.30672900  0.66935300  0.86685400  1
  Ni  Ni19  1  0.84426600  0.83066200  0.63357600  1
  Cu  Cu20  1  0.23293600  0.56073100  0.02452000  1
  Cu  Cu21  1  0.82337500  0.93909000  0.47572900  1
  Cu  Cu22  1  0.76254300  0.43850500  0.97532100  1
  Cu  Cu23  1  0.17880400  0.06105100  0.52483600  1
  Cu  Cu24  1  0.41255500  0.03212000  0.31466800  1
  Cu  Cu25  1  0.75701700  0.46941400  0.18528800  1
  Cu  Cu26  1  0.59053100  0.97016900  0.68587700  1
  Cu  Cu27  1  0.24032900  0.53084900  0.81406700  1
  Cu  Cu28  1  0.42832600  0.28154400  0.36569800  1
  Cu  Cu29  1  0.07245900  0.21835600  0.13724300  1
  Cu  Cu30  1  0.56603100  0.72183900  0.63551500  1
  Cu  Cu31  1  0.92536600  0.78224200  0.86274400  1
  C  C32  1  0.64147500  0.56809500  0.48274100  1
  C  C33  1  0.69370600  0.93313500  0.01642700  1
  C  C34  1  0.36123900  0.43332300  0.51646800  1
  C  C35  1  0.30883300  0.06761000  0.98323200  1
  C  C36  1  0.64777200  0.79138900  0.38534900  1
  C  C37  1  0.82154900  0.70964100  0.11502000  1
  C  C38  1  0.35244700  0.20937100  0.61538800  1
  C  C39  1  0.17501900  0.29135100  0.88412400  1
  C  C40  1  0.39618600  0.57732200  0.33894600  1
  C  C41  1  0.31209900  0.92254300  0.16117500  1
  C  C42  1  0.61080900  0.42382300  0.65980800  1
  C  C43  1  0.68933200  0.07729900  0.83915800  1
  C  C44  1  0.24349000  0.70412800  0.17129400  1
  C  C45  1  0.11951600  0.79474800  0.32739700  1
  C  C46  1  0.75807700  0.29474400  0.82725300  1
  C  C47  1  0.88222600  0.20571200  0.67265500  1
  C  C48  1  0.84691500  0.89764100  0.16660300  1
  C  C49  1  0.91192700  0.60262800  0.33344600  1
  C  C50  1  0.15248600  0.10204100  0.83361600  1
  C  C51  1  0.09023300  0.39674600  0.66734800  1
