# generated using pymatgen
data_Cu3Ni14C69
_symmetry_space_group_name_H-M   'P 1'
_cell_length_a   13.03281956
_cell_length_b   12.17626311
_cell_length_c   12.29872233
_cell_angle_alpha   90.25267789
_cell_angle_beta   90.15007727
_cell_angle_gamma   90.61979320
_symmetry_Int_Tables_number   1
_chemical_formula_structural   Cu3Ni14C69
_chemical_formula_sum   'Cu3 Ni14 C69'
_cell_volume   1951.55692951
_cell_formula_units_Z   1
loop_
 _symmetry_equiv_pos_site_id
 _symmetry_equiv_pos_as_xyz
  1  'x, y, z'
loop_
 _atom_site_type_symbol
 _atom_site_label
 _atom_site_symmetry_multiplicity
 _atom_site_fract_x
 _atom_site_fract_y
 _atom_site_fract_z
 _atom_site_occupancy
  C  C0  1  0.26803451  0.25919695  0.25388971  1
  C  C1  1  0.42530042  0.49818841  0.99642255  1
  C  C2  1  0.54752303  0.99564734  0.50094315  1
  C  C3  1  0.72009689  0.26811734  0.72254426  1
  C  C4  1  0.74483108  0.24343827  0.24318807  1
  C  C5  1  0.71888296  0.70647310  0.25714473  1
  C  C6  1  0.73548047  0.75188633  0.75423913  1
  C  C7  1  0.85416944  0.10814283  0.89918677  1
  C  C8  1  0.85009180  0.90188477  0.11226142  1
  C  C9  1  0.14582414  0.90268241  0.89029533  1
  C  C10  1  0.04059825  0.52989268  0.52595433  1
  Ni  Ni11  1  0.17119778  0.36268228  0.00135501  1
  Ni  Ni12  1  0.36976927  0.99462451  0.19874298  1
  Ni  Ni13  1  0.37700895  0.19562236  0.00338177  1
  Ni  Ni14  1  0.37560843  0.00368216  0.79653147  1
  Ni  Ni15  1  0.37406409  0.80415259  0.99608510  1
  Ni  Ni16  1  0.60887910  0.99090548  0.19858700  1
  Ni  Ni17  1  0.61556635  0.19411335  0.00101286  1
  Ni  Ni18  1  0.61095073  0.00804296  0.80638932  1
  Ni  Ni19  1  0.61361001  0.80453876  0.00374670  1
  Ni  Ni20  1  0.81964535  0.99735387  0.37349600  1
  Ni  Ni21  1  0.82249674  0.99712388  0.63398574  1
  Ni  Ni22  1  0.82317187  0.37137226  0.00132588  1
  Ni  Ni23  1  0.82384381  0.63165776  0.99576506  1
  Ni  Ni24  1  0.00189894  0.81310176  0.62738334  1
  C  C25  1  0.17430416  0.00586841  0.62728595  1
  C  C26  1  0.17356453  0.62828359  0.99281814  1
  C  C27  1  0.16957341  0.00791041  0.36954752  1
  C  C28  1  0.00098344  0.18664897  0.62949326  1
  C  C29  1  0.99846067  0.18830354  0.37330725  1
  C  C30  1  0.00306764  0.37541888  0.18894069  1
  C  C31  1  0.99985322  0.36330611  0.81971825  1
  C  C32  1  0.00472287  0.63216671  0.17940923  1
  C  C33  1  0.00386161  0.62528848  0.81389138  1
  C  C34  1  0.99948771  0.81795621  0.36748309  1
  Cu  Cu35  1  0.51422653  0.48109349  0.30284358  1
  Cu  Cu36  1  0.47668722  0.51705021  0.68958170  1
  Cu  Cu37  1  0.47989643  0.58755894  0.48654419  1
  C  C38  1  0.99718666  0.50614896  0.22922022  1
  C  C39  1  0.00321547  0.30257982  0.69855082  1
  C  C40  1  0.01407045  0.71121035  0.28673164  1
  C  C41  1  0.01033257  0.77034682  0.48953375  1
  C  C42  1  0.01102360  0.68586232  0.69688228  1
  C  C43  1  0.10867731  0.12697442  0.35138184  1
  C  C44  1  0.11161151  0.35145138  0.13144453  1
  C  C45  1  0.08744770  0.31587375  0.89833205  1
  C  C46  1  0.08994959  0.90802521  0.33736371  1
  C  C47  1  0.10730084  0.11985579  0.64695182  1
  C  C48  1  0.10785498  0.64779855  0.10621903  1
  C  C49  1  0.09936554  0.67016837  0.89133637  1
  C  C50  1  0.10540606  0.90023348  0.66291528  1
  C  C51  1  0.20267592  0.00045369  0.49720852  1
  C  C52  1  0.20212164  0.50132767  0.97792472  1
  C  C53  1  0.28882003  0.30108886  0.01482144  1
  C  C54  1  0.27724230  0.01103944  0.69854880  1
  C  C55  1  0.27609956  0.70228371  0.99202837  1
  C  C56  1  0.27007783  0.01107639  0.29581909  1
  C  C57  1  0.35992289  0.11249646  0.11813011  1
  C  C58  1  0.36197512  0.11364572  0.88725320  1
  C  C59  1  0.35376516  0.88182508  0.11314291  1
  C  C60  1  0.35285372  0.89001101  0.88272320  1
  C  C61  1  0.49005312  0.99852675  0.26712637  1
  C  C62  1  0.49854137  0.26391347  0.01470265  1
  C  C63  1  0.49376871  0.73603591  0.99054086  1
  C  C64  1  0.49590379  0.99725298  0.73170951  1
  C  C65  1  0.62381919  0.10413974  0.11189976  1
  C  C66  1  0.62671363  0.13442339  0.87228946  1
  C  C67  1  0.62782924  0.86502005  0.13257432  1
  C  C68  1  0.62199122  0.89344912  0.89164497  1
  C  C69  1  0.71969533  0.00557706  0.72354778  1
  C  C70  1  0.72895007  0.27110799  0.01207407  1
  C  C71  1  0.72766517  0.72916836  0.99429239  1
  C  C72  1  0.71607154  0.00217462  0.28517404  1
  C  C73  1  0.77446697  0.50140626  0.00868674  1
  C  C74  1  0.77303080  0.00799645  0.50368992  1
  C  C75  1  0.90256263  0.11101499  0.33897284  1
  C  C76  1  0.90538103  0.34324304  0.11437082  1
  C  C77  1  0.88584697  0.34296920  0.87238837  1
  C  C78  1  0.88777757  0.87275821  0.34147915  1
  C  C79  1  0.90030931  0.11749595  0.66721424  1
  C  C80  1  0.90217682  0.66724540  0.11294732  1
  C  C81  1  0.89651106  0.64945672  0.87484278  1
  C  C82  1  0.88787044  0.87616153  0.65993616  1
  C  C83  1  0.99302241  0.22778866  0.50155725  1
  C  C84  1  0.99783778  0.30480438  0.30511391  1
  C  C85  1  0.01787554  0.49341512  0.78673971  1
