# generated using pymatgen
data_Cu10NiC2
_symmetry_space_group_name_H-M   'P 1'
_cell_length_a   4.20166600
_cell_length_b   5.64338300
_cell_length_c   11.25426100
_cell_angle_alpha   90.00000000
_cell_angle_beta   90.00000000
_cell_angle_gamma   90.00000000
_symmetry_Int_Tables_number   1
_chemical_formula_structural   Cu10NiC2
_chemical_formula_sum   'Cu20 Ni2 C4'
_cell_volume   266.85665303
_cell_formula_units_Z   2
loop_
 _symmetry_equiv_pos_site_id
 _symmetry_equiv_pos_as_xyz
  1  'x, y, z'
loop_
 _atom_site_type_symbol
 _atom_site_label
 _atom_site_symmetry_multiplicity
 _atom_site_fract_x
 _atom_site_fract_y
 _atom_site_fract_z
 _atom_site_occupancy
  C  C0  1  0.50000000  0.19376900  0.36368400  1
  C  C1  1  0.50000000  0.80623100  0.63631600  1
  C  C2  1  0.50000000  0.30623100  0.86368400  1
  C  C3  1  0.50000000  0.69376900  0.13631600  1
  Ni  Ni4  1  0.00000000  0.00000000  0.00000000  1
  Ni  Ni5  1  0.00000000  0.50000000  0.50000000  1
  Cu  Cu6  1  0.00000000  0.37479400  0.04151800  1
  Cu  Cu7  1  0.00000000  0.62520600  0.95848200  1
  Cu  Cu8  1  0.00000000  0.12520600  0.54151800  1
  Cu  Cu9  1  0.00000000  0.87479400  0.45848200  1
  Cu  Cu10  1  0.00000000  0.34603600  0.19705600  1
  Cu  Cu11  1  0.00000000  0.65396400  0.80294400  1
  Cu  Cu12  1  0.00000000  0.15396400  0.69705600  1
  Cu  Cu13  1  0.00000000  0.84603600  0.30294400  1
  Cu  Cu14  1  0.00000000  0.03719200  0.18807900  1
  Cu  Cu15  1  0.00000000  0.96280800  0.81192100  1
  Cu  Cu16  1  0.00000000  0.46280800  0.68807900  1
  Cu  Cu17  1  0.00000000  0.53719200  0.31192100  1
  Cu  Cu18  1  0.29979100  0.20310500  0.11364600  1
  Cu  Cu19  1  0.70020900  0.79689500  0.88635400  1
  Cu  Cu20  1  0.29979100  0.79689500  0.88635400  1
  Cu  Cu21  1  0.70020900  0.29689500  0.61364600  1
  Cu  Cu22  1  0.70020900  0.20310500  0.11364600  1
  Cu  Cu23  1  0.29979100  0.70310500  0.38635400  1
  Cu  Cu24  1  0.70020900  0.70310500  0.38635400  1
  Cu  Cu25  1  0.29979100  0.29689500  0.61364600  1
