# generated using pymatgen
data_Cu5NiC2
_symmetry_space_group_name_H-M   'P 1'
_cell_length_a   9.72036623
_cell_length_b   11.69709702
_cell_length_c   29.51380345
_cell_angle_alpha   90.00000000
_cell_angle_beta   90.00000000
_cell_angle_gamma   90.00000000
_symmetry_Int_Tables_number   1
_chemical_formula_structural   Cu5NiC2
_chemical_formula_sum   'Cu120 Ni24 C48'
_cell_volume   3355.72142562
_cell_formula_units_Z   24
loop_
 _symmetry_equiv_pos_site_id
 _symmetry_equiv_pos_as_xyz
  1  'x, y, z'
loop_
 _atom_site_type_symbol
 _atom_site_label
 _atom_site_symmetry_multiplicity
 _atom_site_fract_x
 _atom_site_fract_y
 _atom_site_fract_z
 _atom_site_occupancy
  C  C0  1  0.77093253  0.66164449  0.83378920  1
  C  C1  1  0.22906747  0.33835551  0.16621080  1
  C  C2  1  0.27093253  0.83835551  0.66621080  1
  C  C3  1  0.72906747  0.66164449  0.16621080  1
  C  C4  1  0.72906747  0.16164449  0.33378920  1
  C  C5  1  0.27093253  0.33835551  0.83378920  1
  C  C6  1  0.22906747  0.83835551  0.33378920  1
  C  C7  1  0.77093253  0.16164449  0.66621080  1
  C  C8  1  0.75000000  0.17958246  0.00000000  1
  C  C9  1  0.25000000  0.82041754  0.00000000  1
  C  C10  1  0.25000000  0.32041754  0.50000000  1
  C  C11  1  0.75000000  0.67958246  0.50000000  1
  C  C12  1  0.74966609  0.67658164  0.66738156  1
  C  C13  1  0.25033391  0.32341836  0.33261844  1
  C  C14  1  0.24966609  0.82341836  0.83261844  1
  C  C15  1  0.75033391  0.67658164  0.33261844  1
  C  C16  1  0.75033391  0.17658164  0.16738156  1
  C  C17  1  0.24966609  0.32341836  0.66738156  1
  C  C18  1  0.25033391  0.82341836  0.16738156  1
  C  C19  1  0.74966609  0.17658164  0.83261844  1
  C  C20  1  0.75000000  0.65962603  0.00000000  1
  C  C21  1  0.25000000  0.34037397  0.00000000  1
  C  C22  1  0.25000000  0.84037397  0.50000000  1
  C  C23  1  0.75000000  0.15962603  0.50000000  1
  C  C24  1  0.57917380  0.89409307  0.75753247  1
  C  C25  1  0.42082620  0.10590693  0.24246753  1
  C  C26  1  0.07917380  0.60590693  0.74246753  1
  C  C27  1  0.92082620  0.89409307  0.24246753  1
  C  C28  1  0.92082620  0.39409307  0.25753247  1
  C  C29  1  0.07917380  0.10590693  0.75753247  1
  C  C30  1  0.42082620  0.60590693  0.25753247  1
  C  C31  1  0.57917380  0.39409307  0.74246753  1
  C  C32  1  0.89195389  0.90391535  0.58377863  1
  C  C33  1  0.10804611  0.09608465  0.41622137  1
  C  C34  1  0.39195389  0.59608465  0.91622137  1
  C  C35  1  0.60804611  0.90391535  0.41622137  1
  C  C36  1  0.60804611  0.40391535  0.08377863  1
  C  C37  1  0.39195389  0.09608465  0.58377863  1
  C  C38  1  0.10804611  0.59608465  0.08377863  1
  C  C39  1  0.89195389  0.40391535  0.91622137  1
  C  C40  1  0.92806877  0.89580455  0.91924312  1
  C  C41  1  0.07193123  0.10419545  0.08075688  1
  C  C42  1  0.42806877  0.60419545  0.58075688  1
  C  C43  1  0.57193123  0.89580455  0.08075688  1
  C  C44  1  0.57193123  0.39580455  0.41924312  1
  C  C45  1  0.42806877  0.10419545  0.91924312  1
  C  C46  1  0.07193123  0.60419545  0.41924312  1
  C  C47  1  0.92806877  0.39580455  0.58075688  1
  Ni  Ni48  1  0.76207309  0.82472081  0.91836694  1
  Ni  Ni49  1  0.23792691  0.17527919  0.08163306  1
  Ni  Ni50  1  0.26207309  0.67527919  0.58163306  1
  Ni  Ni51  1  0.73792691  0.82472081  0.08163306  1
  Ni  Ni52  1  0.73792691  0.32472081  0.41836694  1
  Ni  Ni53  1  0.26207309  0.17527919  0.91836694  1
  Ni  Ni54  1  0.23792691  0.67527919  0.41836694  1
  Ni  Ni55  1  0.76207309  0.32472081  0.58163306  1
  Ni  Ni56  1  0.74924999  0.83099502  0.75539165  1
  Ni  Ni57  1  0.25075001  0.16900498  0.24460835  1
  Ni  Ni58  1  0.24924999  0.66900498  0.74460835  1
  Ni  Ni59  1  0.75075001  0.83099502  0.24460835  1
  Ni  Ni60  1  0.75075001  0.33099502  0.25539165  1
  Ni  Ni61  1  0.24924999  0.16900498  0.75539165  1
  Ni  Ni62  1  0.25075001  0.66900498  0.25539165  1
  Ni  Ni63  1  0.74924999  0.33099502  0.74460835  1
  Ni  Ni64  1  0.89676708  0.55810911  0.92016729  1
  Ni  Ni65  1  0.10323292  0.44189089  0.07983271  1
  Ni  Ni66  1  0.39676708  0.94189089  0.57983271  1
  Ni  Ni67  1  0.60323292  0.55810911  0.07983271  1
  Ni  Ni68  1  0.60323292  0.05810911  0.42016729  1
  Ni  Ni69  1  0.39676708  0.44189089  0.92016729  1
  Ni  Ni70  1  0.10323292  0.94189089  0.42016729  1
  Ni  Ni71  1  0.89676708  0.05810911  0.57983271  1
  Cu  Cu72  1  0.87926579  0.99414282  0.87630896  1
  Cu  Cu73  1  0.12073421  0.00585718  0.12369104  1
  Cu  Cu74  1  0.37926579  0.50585718  0.62369104  1
  Cu  Cu75  1  0.62073421  0.99414282  0.12369104  1
  Cu  Cu76  1  0.62073421  0.49414282  0.37630896  1
  Cu  Cu77  1  0.37926579  0.00585718  0.87630896  1
  Cu  Cu78  1  0.12073421  0.50585718  0.37630896  1
  Cu  Cu79  1  0.87926579  0.49414282  0.62369104  1
  Cu  Cu80  1  0.72779724  0.91738432  0.55665945  1
  Cu  Cu81  1  0.27220276  0.08261568  0.44334055  1
  Cu  Cu82  1  0.22779724  0.58261568  0.94334055  1
  Cu  Cu83  1  0.77220276  0.91738432  0.44334055  1
  Cu  Cu84  1  0.77220276  0.41738432  0.05665945  1
  Cu  Cu85  1  0.22779724  0.08261568  0.55665945  1
  Cu  Cu86  1  0.27220276  0.58261568  0.05665945  1
  Cu  Cu87  1  0.72779724  0.41738432  0.94334055  1
  Cu  Cu88  1  0.97892566  0.79625726  0.96285270  1
  Cu  Cu89  1  0.02107434  0.20374274  0.03714730  1
  Cu  Cu90  1  0.47892566  0.70374274  0.53714730  1
  Cu  Cu91  1  0.52107434  0.79625726  0.03714730  1
  Cu  Cu92  1  0.52107434  0.29625726  0.46285270  1
  Cu  Cu93  1  0.47892566  0.20374274  0.96285270  1
  Cu  Cu94  1  0.02107434  0.70374274  0.46285270  1
  Cu  Cu95  1  0.97892566  0.29625726  0.53714730  1
  Cu  Cu96  1  0.62384780  0.98521933  0.80338303  1
  Cu  Cu97  1  0.37615220  0.01478067  0.19661697  1
  Cu  Cu98  1  0.12384780  0.51478067  0.69661697  1
  Cu  Cu99  1  0.87615220  0.98521933  0.19661697  1
  Cu  Cu100  1  0.87615220  0.48521933  0.30338303  1
  Cu  Cu101  1  0.12384780  0.01478067  0.80338303  1
  Cu  Cu102  1  0.37615220  0.51478067  0.30338303  1
  Cu  Cu103  1  0.62384780  0.48521933  0.69661697  1
  Cu  Cu104  1  0.55642943  0.60445443  0.89012232  1
  Cu  Cu105  1  0.44357057  0.39554557  0.10987768  1
  Cu  Cu106  1  0.05642943  0.89554557  0.60987768  1
  Cu  Cu107  1  0.94357057  0.60445443  0.10987768  1
  Cu  Cu108  1  0.94357057  0.10445443  0.39012232  1
  Cu  Cu109  1  0.05642943  0.39554557  0.89012232  1
  Cu  Cu110  1  0.44357057  0.89554557  0.39012232  1
  Cu  Cu111  1  0.55642943  0.10445443  0.60987768  1
  Cu  Cu112  1  0.62275457  0.50462159  0.78130762  1
  Cu  Cu113  1  0.37724543  0.49537841  0.21869238  1
  Cu  Cu114  1  0.12275457  0.99537841  0.71869238  1
  Cu  Cu115  1  0.87724543  0.50462159  0.21869238  1
  Cu  Cu116  1  0.87724543  0.00462159  0.28130762  1
  Cu  Cu117  1  0.12275457  0.49537841  0.78130762  1
  Cu  Cu118  1  0.37724543  0.99537841  0.28130762  1
  Cu  Cu119  1  0.62275457  0.00462159  0.71869238  1
  Cu  Cu120  1  0.59805270  0.54987776  0.57999655  1
  Cu  Cu121  1  0.40194730  0.45012224  0.42000345  1
  Cu  Cu122  1  0.09805270  0.95012224  0.92000345  1
  Cu  Cu123  1  0.90194730  0.54987776  0.42000345  1
  Cu  Cu124  1  0.90194730  0.04987776  0.07999655  1
  Cu  Cu125  1  0.09805270  0.45012224  0.57999655  1
  Cu  Cu126  1  0.40194730  0.95012224  0.07999655  1
  Cu  Cu127  1  0.59805270  0.04987776  0.92000345  1
  Cu  Cu128  1  0.53138651  0.78324020  0.79697193  1
  Cu  Cu129  1  0.46861349  0.21675980  0.20302807  1
  Cu  Cu130  1  0.03138651  0.71675980  0.70302807  1
  Cu  Cu131  1  0.96861349  0.78324020  0.20302807  1
  Cu  Cu132  1  0.96861349  0.28324020  0.29697193  1
  Cu  Cu133  1  0.03138651  0.21675980  0.79697193  1
  Cu  Cu134  1  0.46861349  0.71675980  0.29697193  1
  Cu  Cu135  1  0.53138651  0.28324020  0.70302807  1
  Cu  Cu136  1  0.98352378  0.79535757  0.87645623  1
  Cu  Cu137  1  0.01647622  0.20464243  0.12354377  1
  Cu  Cu138  1  0.48352378  0.70464243  0.62354377  1
  Cu  Cu139  1  0.51647622  0.79535757  0.12354377  1
  Cu  Cu140  1  0.51647622  0.29535757  0.37645623  1
  Cu  Cu141  1  0.48352378  0.20464243  0.87645623  1
  Cu  Cu142  1  0.01647622  0.70464243  0.37645623  1
  Cu  Cu143  1  0.98352378  0.29535757  0.62354377  1
  Cu  Cu144  1  0.86867755  0.75251300  0.58668408  1
  Cu  Cu145  1  0.13132245  0.24748700  0.41331592  1
  Cu  Cu146  1  0.36867755  0.74748700  0.91331592  1
  Cu  Cu147  1  0.63132245  0.75251300  0.41331592  1
  Cu  Cu148  1  0.63132245  0.25251300  0.08668408  1
  Cu  Cu149  1  0.36867755  0.24748700  0.58668408  1
  Cu  Cu150  1  0.13132245  0.74748700  0.08668408  1
  Cu  Cu151  1  0.86867755  0.25251300  0.91331592  1
  Cu  Cu152  1  0.81193815  0.91135896  0.63848675  1
  Cu  Cu153  1  0.18806185  0.08864104  0.36151325  1
  Cu  Cu154  1  0.31193815  0.58864104  0.86151325  1
  Cu  Cu155  1  0.68806185  0.91135896  0.36151325  1
  Cu  Cu156  1  0.68806185  0.41135896  0.13848675  1
  Cu  Cu157  1  0.31193815  0.08864104  0.63848675  1
  Cu  Cu158  1  0.18806185  0.58864104  0.13848675  1
  Cu  Cu159  1  0.81193815  0.41135896  0.86151325  1
  Cu  Cu160  1  0.53190310  0.80207743  0.71110760  1
  Cu  Cu161  1  0.46809690  0.19792257  0.28889240  1
  Cu  Cu162  1  0.03190310  0.69792257  0.78889240  1
  Cu  Cu163  1  0.96809690  0.80207743  0.28889240  1
  Cu  Cu164  1  0.96809690  0.30207743  0.21110760  1
  Cu  Cu165  1  0.03190310  0.19792257  0.71110760  1
  Cu  Cu166  1  0.46809690  0.69792257  0.21110760  1
  Cu  Cu167  1  0.53190310  0.30207743  0.78889240  1
  Cu  Cu168  1  0.97193600  0.88327473  0.52995188  1
  Cu  Cu169  1  0.02806400  0.11672527  0.47004812  1
  Cu  Cu170  1  0.47193600  0.61672527  0.97004812  1
  Cu  Cu171  1  0.52806400  0.88327473  0.47004812  1
  Cu  Cu172  1  0.52806400  0.38327473  0.02995188  1
  Cu  Cu173  1  0.47193600  0.11672527  0.52995188  1
  Cu  Cu174  1  0.02806400  0.61672527  0.02995188  1
  Cu  Cu175  1  0.97193600  0.38327473  0.97004812  1
  Cu  Cu176  1  0.87575257  0.99510011  0.96136377  1
  Cu  Cu177  1  0.12424743  0.00489989  0.03863623  1
  Cu  Cu178  1  0.37575257  0.50489989  0.53863623  1
  Cu  Cu179  1  0.62424743  0.99510011  0.03863623  1
  Cu  Cu180  1  0.62424743  0.49510011  0.46136377  1
  Cu  Cu181  1  0.37575257  0.00489989  0.96136377  1
  Cu  Cu182  1  0.12424743  0.50489989  0.46136377  1
  Cu  Cu183  1  0.87575257  0.49510011  0.53863623  1
  Cu  Cu184  1  0.90608666  0.55754255  0.74089862  1
  Cu  Cu185  1  0.09391334  0.44245745  0.25910138  1
  Cu  Cu186  1  0.40608666  0.94245745  0.75910138  1
  Cu  Cu187  1  0.59391334  0.55754255  0.25910138  1
  Cu  Cu188  1  0.59391334  0.05754255  0.24089862  1
  Cu  Cu189  1  0.40608666  0.44245745  0.74089862  1
  Cu  Cu190  1  0.09391334  0.94245745  0.24089862  1
  Cu  Cu191  1  0.90608666  0.05754255  0.75910138  1
