# generated using pymatgen
data_CuNiC7
_symmetry_space_group_name_H-M   'P 1'
_cell_length_a   6.95148900
_cell_length_b   7.25083700
_cell_length_c   10.00154400
_cell_angle_alpha   90.00000000
_cell_angle_beta   90.00000000
_cell_angle_gamma   90.00000000
_symmetry_Int_Tables_number   1
_chemical_formula_structural   CuNiC7
_chemical_formula_sum   'Cu4 Ni4 C28'
_cell_volume   504.11896041
_cell_formula_units_Z   4
loop_
 _symmetry_equiv_pos_site_id
 _symmetry_equiv_pos_as_xyz
  1  'x, y, z'
loop_
 _atom_site_type_symbol
 _atom_site_label
 _atom_site_symmetry_multiplicity
 _atom_site_fract_x
 _atom_site_fract_y
 _atom_site_fract_z
 _atom_site_occupancy
  Ni  Ni0  1  0.50000000  0.00000000  0.00000000  1
  Ni  Ni1  1  0.00000000  0.50000000  0.50000000  1
  Ni  Ni2  1  0.00000000  0.00000000  0.00000000  1
  Ni  Ni3  1  0.50000000  0.50000000  0.50000000  1
  Cu  Cu4  1  0.25000000  0.22494600  0.73531400  1
  Cu  Cu5  1  0.25000000  0.72494600  0.76468600  1
  Cu  Cu6  1  0.75000000  0.77505400  0.26468600  1
  Cu  Cu7  1  0.75000000  0.27505400  0.23531400  1
  C  C8  1  0.25000000  0.01236600  0.37353000  1
  C  C9  1  0.25000000  0.51236600  0.12647000  1
  C  C10  1  0.75000000  0.98763400  0.62647000  1
  C  C11  1  0.75000000  0.48763400  0.87353000  1
  C  C12  1  0.25000000  0.46765300  0.82059500  1
  C  C13  1  0.25000000  0.96765300  0.67940500  1
  C  C14  1  0.75000000  0.53234700  0.17940500  1
  C  C15  1  0.75000000  0.03234700  0.32059500  1
  C  C16  1  0.25000000  0.01665800  0.05494900  1
  C  C17  1  0.25000000  0.51665800  0.44505100  1
  C  C18  1  0.75000000  0.98334200  0.94505100  1
  C  C19  1  0.75000000  0.48334200  0.55494900  1
  C  C20  1  0.44726000  0.15516800  0.86102900  1
  C  C21  1  0.05274000  0.65516800  0.63897100  1
  C  C22  1  0.94726000  0.84483200  0.13897100  1
  C  C23  1  0.55274000  0.34483200  0.36102900  1
  C  C24  1  0.55274000  0.84483200  0.13897100  1
  C  C25  1  0.94726000  0.34483200  0.36102900  1
  C  C26  1  0.05274000  0.15516800  0.86102900  1
  C  C27  1  0.44726000  0.65516800  0.63897100  1
  C  C28  1  0.43751200  0.79972100  0.89459700  1
  C  C29  1  0.06248800  0.29972100  0.60540300  1
  C  C30  1  0.93751200  0.20027900  0.10540300  1
  C  C31  1  0.56248800  0.70027900  0.39459700  1
  C  C32  1  0.56248800  0.20027900  0.10540300  1
  C  C33  1  0.93751200  0.70027900  0.39459700  1
  C  C34  1  0.06248800  0.79972100  0.89459700  1
  C  C35  1  0.43751200  0.29972100  0.60540300  1
