# generated using pymatgen
data_Cu8(NiC5)5
_symmetry_space_group_name_H-M   'P 1'
_cell_length_a   10.24409088
_cell_length_b   10.24409088
_cell_length_c   10.24409088
_cell_angle_alpha   94.53034897
_cell_angle_beta   94.53034897
_cell_angle_gamma   147.35465266
_symmetry_Int_Tables_number   1
_chemical_formula_structural   Cu8(NiC5)5
_chemical_formula_sum   'Cu8 Ni5 C25'
_cell_volume   556.53714492
_cell_formula_units_Z   1
loop_
 _symmetry_equiv_pos_site_id
 _symmetry_equiv_pos_as_xyz
  1  'x, y, z'
loop_
 _atom_site_type_symbol
 _atom_site_label
 _atom_site_symmetry_multiplicity
 _atom_site_fract_x
 _atom_site_fract_y
 _atom_site_fract_z
 _atom_site_occupancy
  Ni  Ni0  1  0.46512700  0.86075800  0.32588500  1
  Ni  Ni1  1  0.13924200  0.46512700  0.60436800  1
  Ni  Ni2  1  0.86075800  0.53487300  0.39563200  1
  Ni  Ni3  1  0.53487300  0.13924200  0.67411500  1
  Ni  Ni4  1  0.00000000  0.00000000  0.00000000  1
  Cu  Cu5  1  0.58866700  0.64217000  0.23083700  1
  Cu  Cu6  1  0.35783000  0.58866700  0.94649700  1
  Cu  Cu7  1  0.64217000  0.41133300  0.05350300  1
  Cu  Cu8  1  0.41133300  0.35783000  0.76916300  1
  Cu  Cu9  1  0.75269700  0.83214700  0.58484400  1
  Cu  Cu10  1  0.16785300  0.75269700  0.92055000  1
  Cu  Cu11  1  0.83214700  0.24730300  0.07945000  1
  Cu  Cu12  1  0.24730300  0.16785300  0.41515600  1
  C  C13  1  0.95938500  0.74918000  0.70856600  1
  C  C14  1  0.25082000  0.95938500  0.21020500  1
  C  C15  1  0.74918000  0.04061500  0.78979500  1
  C  C16  1  0.04061500  0.25082000  0.29143400  1
  C  C17  1  0.09959200  0.99046500  0.59429900  1
  C  C18  1  0.50529300  0.09959200  0.10912700  1
  C  C19  1  0.99046500  0.39616600  0.89087300  1
  C  C20  1  0.39616600  0.50529300  0.40570100  1
  C  C21  1  0.90040800  0.00953500  0.40570100  1
  C  C22  1  0.49470700  0.90040800  0.89087300  1
  C  C23  1  0.00953500  0.60383400  0.10912700  1
  C  C24  1  0.60383400  0.49470700  0.59429900  1
  C  C25  1  0.92782300  0.79779000  0.22564400  1
  C  C26  1  0.70217900  0.92782300  0.13003300  1
  C  C27  1  0.79779000  0.57214600  0.86996700  1
  C  C28  1  0.57214600  0.70217900  0.77435600  1
  C  C29  1  0.07217700  0.20221000  0.77435600  1
  C  C30  1  0.29782100  0.07217700  0.86996700  1
  C  C31  1  0.20221000  0.42785400  0.13003300  1
  C  C32  1  0.42785400  0.29782100  0.22564400  1
  C  C33  1  0.37197800  0.03727100  0.40924900  1
  C  C34  1  0.50000000  0.50000000  0.00000000  1
  C  C35  1  0.62802200  0.96272900  0.59075100  1
  C  C36  1  0.03727100  0.62802200  0.66529300  1
  C  C37  1  0.96272900  0.37197800  0.33470700  1
