# generated using pymatgen
data_Cu2NiC8
_symmetry_space_group_name_H-M   'P 1'
_cell_length_a   9.73415800
_cell_length_b   7.60959500
_cell_length_c   9.59909847
_cell_angle_alpha   66.54049469
_cell_angle_beta   90.00000000
_cell_angle_gamma   90.00000000
_symmetry_Int_Tables_number   1
_chemical_formula_structural   Cu2NiC8
_chemical_formula_sum   'Cu8 Ni4 C32'
_cell_volume   652.26113507
_cell_formula_units_Z   4
loop_
 _symmetry_equiv_pos_site_id
 _symmetry_equiv_pos_as_xyz
  1  'x, y, z'
loop_
 _atom_site_type_symbol
 _atom_site_label
 _atom_site_symmetry_multiplicity
 _atom_site_fract_x
 _atom_site_fract_y
 _atom_site_fract_z
 _atom_site_occupancy
  C  C0  1  0.94800300  0.28854400  0.82191100  1
  C  C1  1  0.44800300  0.71145600  0.67808900  1
  C  C2  1  0.55199700  0.28854400  0.32191100  1
  C  C3  1  0.05199700  0.71145600  0.17808900  1
  Ni  Ni4  1  0.08150400  0.76562200  0.60845000  1
  Ni  Ni5  1  0.91849600  0.23437800  0.39155000  1
  Ni  Ni6  1  0.58150400  0.23437800  0.89155000  1
  Ni  Ni7  1  0.41849600  0.76562200  0.10845000  1
  Cu  Cu8  1  0.73916800  0.93052500  0.25522700  1
  Cu  Cu9  1  0.22307800  0.46864500  0.97331800  1
  Cu  Cu10  1  0.76083200  0.93052500  0.75522700  1
  Cu  Cu11  1  0.27692200  0.46864500  0.47331800  1
  Cu  Cu12  1  0.23916800  0.06947500  0.24477300  1
  Cu  Cu13  1  0.72307800  0.53135500  0.52668200  1
  Cu  Cu14  1  0.77692200  0.53135500  0.02668200  1
  Cu  Cu15  1  0.26083200  0.06947500  0.74477300  1
  C  C16  1  0.19115500  0.25415700  0.09627300  1
  C  C17  1  0.62219100  0.89332100  0.70038700  1
  C  C18  1  0.87780900  0.89332100  0.20038700  1
  C  C19  1  0.36486600  0.47871400  0.90235800  1
  C  C20  1  0.80884500  0.74584300  0.90372700  1
  C  C21  1  0.12029000  0.03239400  0.35785600  1
  C  C22  1  0.63513400  0.52128600  0.09764200  1
  C  C23  1  0.10341300  0.49982400  0.86055400  1
  C  C24  1  0.28501800  0.60443600  0.55704800  1
  C  C25  1  0.87971000  0.96760600  0.64214400  1
  C  C26  1  0.37971000  0.03239400  0.85785600  1
  C  C27  1  0.75694200  0.09526100  0.81320800  1
  C  C28  1  0.25694200  0.90473900  0.68679200  1
  C  C29  1  0.30884500  0.25415700  0.59627300  1
  C  C30  1  0.62029000  0.96760600  0.14214400  1
  C  C31  1  0.12219100  0.10667900  0.79961300  1
  C  C32  1  0.24305800  0.90473900  0.18679200  1
  C  C33  1  0.89658700  0.50017600  0.13944600  1
  C  C34  1  0.21498200  0.60443600  0.05704800  1
  C  C35  1  0.78501800  0.39556400  0.94295200  1
  C  C36  1  0.86486600  0.52128600  0.59764200  1
  C  C37  1  0.39658700  0.49982400  0.36055400  1
  C  C38  1  0.60341300  0.50017600  0.63944600  1
  C  C39  1  0.37780900  0.10667900  0.29961300  1
  C  C40  1  0.74305800  0.09526100  0.31320800  1
  C  C41  1  0.13513400  0.47871400  0.40235800  1
  C  C42  1  0.71498200  0.39556400  0.44295200  1
  C  C43  1  0.69115500  0.74584300  0.40372700  1
