# generated using pymatgen
data_Cu3(NiC3)4
_symmetry_space_group_name_H-M   'P 1'
_cell_length_a   5.75123722
_cell_length_b   5.75123722
_cell_length_c   13.90918689
_cell_angle_alpha   89.70135018
_cell_angle_beta   89.70135018
_cell_angle_gamma   59.98089101
_symmetry_Int_Tables_number   1
_chemical_formula_structural   Cu3(NiC3)4
_chemical_formula_sum   'Cu6 Ni8 C24'
_cell_volume   398.34870939
_cell_formula_units_Z   2
loop_
 _symmetry_equiv_pos_site_id
 _symmetry_equiv_pos_as_xyz
  1  'x, y, z'
loop_
 _atom_site_type_symbol
 _atom_site_label
 _atom_site_symmetry_multiplicity
 _atom_site_fract_x
 _atom_site_fract_y
 _atom_site_fract_z
 _atom_site_occupancy
  Ni  Ni0  1  0.83289300  0.33575200  0.79139300  1
  Ni  Ni1  1  0.83320300  0.83320300  0.79273200  1
  Ni  Ni2  1  0.33575200  0.83289300  0.79139300  1
  Ni  Ni3  1  0.16172600  0.66914100  0.46163400  1
  Ni  Ni4  1  0.66914100  0.16172600  0.46163400  1
  Ni  Ni5  1  0.50444700  0.00015100  0.12353700  1
  Ni  Ni6  1  0.33416900  0.33416900  0.29157800  1
  Ni  Ni7  1  0.00015100  0.50444700  0.12353700  1
  Cu  Cu8  1  0.00889000  0.00889000  0.99973200  1
  Cu  Cu9  1  0.33584300  0.33584300  0.67348000  1
  Cu  Cu10  1  0.66468300  0.66468300  0.95343100  1
  Cu  Cu11  1  0.66567300  0.66567300  0.57638500  1
  Cu  Cu12  1  0.67120100  0.67120100  0.33234800  1
  Cu  Cu13  1  0.99810000  0.99810000  0.25381400  1
  C  C14  1  0.95139300  0.52430800  0.86846100  1
  C  C15  1  0.66829800  0.66829800  0.71173900  1
  C  C16  1  0.52256900  0.52256900  0.86785900  1
  C  C17  1  0.52430800  0.95139300  0.86846100  1
  C  C18  1  0.16258300  0.67383800  0.72159400  1
  C  C19  1  0.34600700  0.80987900  0.53629700  1
  C  C20  1  0.16539300  0.16539300  0.72042500  1
  C  C21  1  0.99146500  0.99146500  0.38704700  1
  C  C22  1  0.83947000  0.83947000  0.53234800  1
  C  C23  1  0.00019700  0.00019700  0.86035500  1
  C  C24  1  0.80987900  0.34600700  0.53629700  1
  C  C25  1  0.67383800  0.16258300  0.72159400  1
  C  C26  1  0.64528100  0.15718500  0.21145900  1
  C  C27  1  0.51016700  0.02446900  0.37238900  1
  C  C28  1  0.48293900  0.48293900  0.37871800  1
  C  C29  1  0.32231000  0.32231000  0.05595700  1
  C  C30  1  0.34907600  0.34907600  0.53986800  1
  C  C31  1  0.18060300  0.18060300  0.20751000  1
  C  C32  1  0.15718500  0.64528100  0.21145900  1
  C  C33  1  0.02446900  0.51016700  0.37238900  1
  C  C34  1  0.84953700  0.36118600  0.03722400  1
  C  C35  1  0.82215000  0.82215000  0.04599000  1
  C  C36  1  0.68070700  0.68070700  0.20113700  1
  C  C37  1  0.36118600  0.84953700  0.03722400  1
