# generated using pymatgen
data_Cu3NiC16
_symmetry_space_group_name_H-M   'P 1'
_cell_length_a   4.03729300
_cell_length_b   5.65726500
_cell_length_c   11.32376300
_cell_angle_alpha   90.00000000
_cell_angle_beta   90.00000000
_cell_angle_gamma   90.00000000
_symmetry_Int_Tables_number   1
_chemical_formula_structural   Cu3NiC16
_chemical_formula_sum   'Cu3 Ni1 C16'
_cell_volume   258.63515892
_cell_formula_units_Z   1
loop_
 _symmetry_equiv_pos_site_id
 _symmetry_equiv_pos_as_xyz
  1  'x, y, z'
loop_
 _atom_site_type_symbol
 _atom_site_label
 _atom_site_symmetry_multiplicity
 _atom_site_fract_x
 _atom_site_fract_y
 _atom_site_fract_z
 _atom_site_occupancy
  C  C0  1  0.50000000  0.50000000  0.50000000  1
  C  C1  1  0.50000000  0.00000000  0.73767000  1
  C  C2  1  0.50000000  0.50000000  0.00000000  1
  C  C3  1  0.50000000  0.00000000  0.26233000  1
  Ni  Ni4  1  0.00000000  0.00000000  0.00000000  1
  Cu  Cu5  1  0.00000000  0.50000000  0.25490100  1
  Cu  Cu6  1  0.00000000  0.00000000  0.50000000  1
  Cu  Cu7  1  0.00000000  0.50000000  0.74509900  1
  C  C8  1  0.00000000  0.24770700  0.37789300  1
  C  C9  1  0.00000000  0.75229300  0.62210700  1
  C  C10  1  0.00000000  0.26035800  0.86779800  1
  C  C11  1  0.00000000  0.73964200  0.13220200  1
  C  C12  1  0.00000000  0.24770700  0.62210700  1
  C  C13  1  0.00000000  0.73964200  0.86779800  1
  C  C14  1  0.00000000  0.26035800  0.13220200  1
  C  C15  1  0.00000000  0.75229300  0.37789300  1
  C  C16  1  0.50000000  0.50000000  0.25842100  1
  C  C17  1  0.50000000  0.00000000  0.50000000  1
  C  C18  1  0.50000000  0.50000000  0.74157900  1
  C  C19  1  0.50000000  0.00000000  0.00000000  1
