# generated using pymatgen
data_Cu2NiC
_symmetry_space_group_name_H-M   'P 1'
_cell_length_a   6.39990800
_cell_length_b   6.25405600
_cell_length_c   9.17160200
_cell_angle_alpha   90.00000000
_cell_angle_beta   90.00000000
_cell_angle_gamma   90.00000000
_symmetry_Int_Tables_number   1
_chemical_formula_structural   Cu2NiC
_chemical_formula_sum   'Cu4 Ni2 C2'
_cell_volume   367.09688302
_cell_formula_units_Z   2
loop_
 _symmetry_equiv_pos_site_id
 _symmetry_equiv_pos_as_xyz
  1  'x, y, z'
loop_
 _atom_site_type_symbol
 _atom_site_label
 _atom_site_symmetry_multiplicity
 _atom_site_fract_x
 _atom_site_fract_y
 _atom_site_fract_z
 _atom_site_occupancy
  C  C0  1  0.75000000  0.38978300  0.60512200  1
  C  C1  1  0.75000000  0.88978300  0.89487800  1
  Ni  Ni2  1  0.75000000  0.77639100  0.62870800  1
  Ni  Ni3  1  0.75000000  0.27639100  0.87129200  1
  Cu  Cu4  1  0.25000000  0.85772600  0.76700000  1
  Cu  Cu5  1  0.25000000  0.35772600  0.73300000  1
  Cu  Cu6  1  0.75000000  0.51087900  0.25222100  1
  Cu  Cu7  1  0.75000000  0.01087900  0.24777900  1
