# generated using pymatgen
data_Cu2NiC20
_symmetry_space_group_name_H-M   'P 1'
_cell_length_a   6.94475114
_cell_length_b   7.14851800
_cell_length_c   8.72499896
_cell_angle_alpha   114.18330503
_cell_angle_beta   111.51598328
_cell_angle_gamma   90.00000000
_symmetry_Int_Tables_number   1
_chemical_formula_structural   Cu2NiC20
_chemical_formula_sum   'Cu2 Ni1 C20'
_cell_volume   361.79480720
_cell_formula_units_Z   1
loop_
 _symmetry_equiv_pos_site_id
 _symmetry_equiv_pos_as_xyz
  1  'x, y, z'
loop_
 _atom_site_type_symbol
 _atom_site_label
 _atom_site_symmetry_multiplicity
 _atom_site_fract_x
 _atom_site_fract_y
 _atom_site_fract_z
 _atom_site_occupancy
  Ni  Ni0  1  0.00000000  0.00000000  0.00000000  1
  C  C1  1  0.64046700  0.75345300  0.50690500  1
  C  C2  1  0.35953300  0.24654700  0.49309500  1
  Cu  Cu3  1  0.83541600  0.26382600  0.52765200  1
  Cu  Cu4  1  0.16458400  0.73617400  0.47234800  1
  C  C5  1  0.97376500  0.59662400  0.19324900  1
  C  C6  1  0.02623500  0.40337600  0.80675100  1
  C  C7  1  0.73944900  0.88036500  0.76073000  1
  C  C8  1  0.26055100  0.11963500  0.23927000  1
  C  C9  1  0.69027900  0.43583700  0.51770100  1
  C  C10  1  0.30972100  0.56416300  0.48229900  1
  C  C11  1  0.30972100  0.91813600  0.48229900  1
  C  C12  1  0.69027900  0.08186400  0.51770100  1
  C  C13  1  0.97106300  0.76441800  0.52883700  1
  C  C14  1  0.02893700  0.23558200  0.47116300  1
  C  C15  1  0.20560400  0.93408900  0.86817800  1
  C  C16  1  0.79439600  0.06591100  0.13182200  1
  C  C17  1  0.54227100  0.63081300  0.26162600  1
  C  C18  1  0.45772900  0.36918700  0.73837400  1
  C  C19  1  0.90408200  0.71178200  0.10290900  1
  C  C20  1  0.09591800  0.28821800  0.89709100  1
  C  C21  1  0.09591800  0.60887300  0.89709100  1
  C  C22  1  0.90408200  0.39112700  0.10290900  1
