# generated using pymatgen
data_Cu4NiC12
_symmetry_space_group_name_H-M   'P 1'
_cell_length_a   3.08588211
_cell_length_b   6.58370528
_cell_length_c   13.68211302
_cell_angle_alpha   79.03660676
_cell_angle_beta   89.79687388
_cell_angle_gamma   89.97751053
_symmetry_Int_Tables_number   1
_chemical_formula_structural   Cu4NiC12
_chemical_formula_sum   'Cu4 Ni1 C12'
_cell_volume   272.89812943
_cell_formula_units_Z   1
loop_
 _symmetry_equiv_pos_site_id
 _symmetry_equiv_pos_as_xyz
  1  'x, y, z'
loop_
 _atom_site_type_symbol
 _atom_site_label
 _atom_site_symmetry_multiplicity
 _atom_site_fract_x
 _atom_site_fract_y
 _atom_site_fract_z
 _atom_site_occupancy
  C  C0  1  0.24272500  0.43624100  0.09913400  1
  C  C1  1  0.24961400  0.06805400  0.65801800  1
  C  C2  1  0.74862400  0.50139600  0.84272500  1
  C  C3  1  0.75213400  0.02062700  0.36529600  1
  Ni  Ni4  1  0.25466700  0.65418800  0.28097000  1
  Cu  Cu5  1  0.24617000  0.95200400  0.09600200  1
  Cu  Cu6  1  0.74912400  0.00907000  0.90760100  1
  Cu  Cu7  1  0.75244600  0.44897300  0.42799800  1
  Cu  Cu8  1  0.25013200  0.59507800  0.59164800  1
  C  C9  1  0.75540800  0.76972600  0.19832800  1
  C  C10  1  0.24972800  0.16471100  0.83677400  1
  C  C11  1  0.25323100  0.35298000  0.33625400  1
  C  C12  1  0.74931100  0.73999500  0.64122400  1
  C  C13  1  0.74556800  0.15545500  0.03900200  1
  C  C14  1  0.24879300  0.81394300  0.95802400  1
  C  C15  1  0.75049500  0.39604800  0.58139500  1
  C  C16  1  0.25204300  0.69234400  0.42532400  1
