# generated using pymatgen
data_Cu7(NiC7)3
_symmetry_space_group_name_H-M   'P 1'
_cell_length_a   3.80467398
_cell_length_b   6.70140999
_cell_length_c   17.07988523
_cell_angle_alpha   98.26848864
_cell_angle_beta   100.89240293
_cell_angle_gamma   91.51843726
_symmetry_Int_Tables_number   1
_chemical_formula_structural   Cu7(NiC7)3
_chemical_formula_sum   'Cu7 Ni3 C21'
_cell_volume   422.54341066
_cell_formula_units_Z   1
loop_
 _symmetry_equiv_pos_site_id
 _symmetry_equiv_pos_as_xyz
  1  'x, y, z'
loop_
 _atom_site_type_symbol
 _atom_site_label
 _atom_site_symmetry_multiplicity
 _atom_site_fract_x
 _atom_site_fract_y
 _atom_site_fract_z
 _atom_site_occupancy
  C  C0  1  0.33230665  0.10209687  0.89964135  1
  Ni  Ni1  1  0.53828261  0.83497855  0.76405615  1
  Ni  Ni2  1  0.18466480  0.40499959  0.40168379  1
  Ni  Ni3  1  0.38942265  0.47149219  0.03186668  1
  Cu  Cu4  1  0.99409181  0.39280606  0.78308501  1
  Cu  Cu5  1  0.85851211  0.63702411  0.58392822  1
  Cu  Cu6  1  0.70360216  0.90157443  0.39923235  1
  Cu  Cu7  1  0.35007484  0.13895849  0.58262847  1
  Cu  Cu8  1  0.05356640  0.66024841  0.21587363  1
  Cu  Cu9  1  0.56040022  0.16942671  0.21966163  1
  Cu  Cu10  1  0.92124193  0.91687133  0.02337017  1
  C  C11  1  0.81218853  0.95924001  0.88843696  1
  C  C12  1  0.38932291  0.75280400  0.98997743  1
  C  C13  1  0.81695679  0.94991984  0.53793423  1
  C  C14  1  0.41078954  0.83251428  0.63539298  1
  C  C15  1  0.52799985  0.56075584  0.80864458  1
  C  C16  1  0.13051530  0.37073388  0.91259248  1
  C  C17  1  0.99442309  0.71837743  0.73067120  1
  C  C18  1  0.16530854  0.71121990  0.35679774  1
  C  C19  1  0.89339421  0.31354182  0.64400962  1
  C  C20  1  0.59233205  0.84796035  0.25834737  1
  C  C21  1  0.31199582  0.45420481  0.53930618  1
  C  C22  1  0.73967749  0.57030140  0.44381233  1
  C  C23  1  0.35564480  0.13116336  0.77960778  1
  C  C24  1  0.67196289  0.21977545  0.35534666  1
  C  C25  1  0.50663622  0.46789604  0.16409348  1
  C  C26  1  0.10211136  0.35484734  0.26771214  1
  C  C27  1  0.24457107  0.09772073  0.44541205  1
  C  C28  1  0.93211190  0.58282428  0.06827081  1
  C  C29  1  0.01353812  0.99517381  0.15912836  1
  C  C30  1  0.47546235  0.15510171  0.02366919  1
