# generated using pymatgen
data_Cu2NiC2
_symmetry_space_group_name_H-M   'P 1'
_cell_length_a   5.78790584
_cell_length_b   5.78790584
_cell_length_c   7.80425805
_cell_angle_alpha   78.99328844
_cell_angle_beta   78.99328844
_cell_angle_gamma   59.92957872
_symmetry_Int_Tables_number   1
_chemical_formula_structural   Cu2NiC2
_chemical_formula_sum   'Cu4 Ni2 C4'
_cell_volume   220.69138883
_cell_formula_units_Z   2
loop_
 _symmetry_equiv_pos_site_id
 _symmetry_equiv_pos_as_xyz
  1  'x, y, z'
loop_
 _atom_site_type_symbol
 _atom_site_label
 _atom_site_symmetry_multiplicity
 _atom_site_fract_x
 _atom_site_fract_y
 _atom_site_fract_z
 _atom_site_occupancy
  C  C0  1  0.78000900  0.52004100  0.35081600  1
  C  C1  1  0.47995900  0.21999100  0.14918400  1
  C  C2  1  0.21999100  0.47995900  0.64918400  1
  C  C3  1  0.52004100  0.78000900  0.85081600  1
  Ni  Ni4  1  0.12061400  0.87938600  0.25000000  1
  Ni  Ni5  1  0.87938600  0.12061400  0.75000000  1
  Cu  Cu6  1  0.00441600  0.74082900  0.00344200  1
  Cu  Cu7  1  0.25917100  0.99558400  0.49655800  1
  Cu  Cu8  1  0.99558400  0.25917100  0.99655800  1
  Cu  Cu9  1  0.74082900  0.00441600  0.50344200  1
