# generated using pymatgen
data_Cu2Ni2C3
_symmetry_space_group_name_H-M   'P 1'
_cell_length_a   5.93582700
_cell_length_b   5.93582700
_cell_length_c   14.61917600
_cell_angle_alpha   90.00000000
_cell_angle_beta   90.00000000
_cell_angle_gamma   90.00000000
_symmetry_Int_Tables_number   1
_chemical_formula_structural   Cu2Ni2C3
_chemical_formula_sum   'Cu8 Ni8 C12'
_cell_volume   515.09266373
_cell_formula_units_Z   4
loop_
 _symmetry_equiv_pos_site_id
 _symmetry_equiv_pos_as_xyz
  1  'x, y, z'
loop_
 _atom_site_type_symbol
 _atom_site_label
 _atom_site_symmetry_multiplicity
 _atom_site_fract_x
 _atom_site_fract_y
 _atom_site_fract_z
 _atom_site_occupancy
  C  C0  1  0.00000000  0.50000000  0.20727800  1
  C  C1  1  0.00000000  0.50000000  0.70727800  1
  C  C2  1  0.50000000  0.00000000  0.29272200  1
  C  C3  1  0.50000000  0.00000000  0.79272200  1
  Ni  Ni4  1  0.31751300  0.50000000  0.30353900  1
  Ni  Ni5  1  0.68248700  0.50000000  0.30353900  1
  Ni  Ni6  1  0.00000000  0.18248700  0.80353900  1
  Ni  Ni7  1  0.00000000  0.81751300  0.80353900  1
  Ni  Ni8  1  0.18248700  0.00000000  0.19646100  1
  Ni  Ni9  1  0.81751300  0.00000000  0.19646100  1
  Ni  Ni10  1  0.50000000  0.31751300  0.69646100  1
  Ni  Ni11  1  0.50000000  0.68248700  0.69646100  1
  C  C12  1  0.25451600  0.50000000  0.08934600  1
  C  C13  1  0.74548400  0.50000000  0.08934600  1
  C  C14  1  0.00000000  0.24548400  0.58934600  1
  C  C15  1  0.00000000  0.75451600  0.58934600  1
  C  C16  1  0.24548400  0.00000000  0.41065400  1
  C  C17  1  0.75451600  0.00000000  0.41065400  1
  C  C18  1  0.50000000  0.25451600  0.91065400  1
  C  C19  1  0.50000000  0.74548400  0.91065400  1
  Cu  Cu20  1  0.00000000  0.16503900  0.23118100  1
  Cu  Cu21  1  0.00000000  0.83496100  0.23118100  1
  Cu  Cu22  1  0.66503900  0.50000000  0.73118100  1
  Cu  Cu23  1  0.33496100  0.50000000  0.73118100  1
  Cu  Cu24  1  0.50000000  0.33496100  0.26881900  1
  Cu  Cu25  1  0.50000000  0.66503900  0.26881900  1
  Cu  Cu26  1  0.83496100  0.00000000  0.76881900  1
  Cu  Cu27  1  0.16503900  0.00000000  0.76881900  1
