# generated using pymatgen
data_Cu4Ni11
_symmetry_space_group_name_H-M   'P 1'
_cell_length_a   3.54172900
_cell_length_b   3.54172900
_cell_length_c   6.99318400
_cell_angle_alpha   90.00000000
_cell_angle_beta   90.00000000
_cell_angle_gamma   90.00000000
_symmetry_Int_Tables_number   1
_chemical_formula_structural   Cu4Ni11
_chemical_formula_sum   'Cu4 Ni11'
_cell_volume   87.72141132
_cell_formula_units_Z   1
loop_
 _symmetry_equiv_pos_site_id
 _symmetry_equiv_pos_as_xyz
  1  'x, y, z'
loop_
 _atom_site_type_symbol
 _atom_site_label
 _atom_site_symmetry_multiplicity
 _atom_site_fract_x
 _atom_site_fract_y
 _atom_site_fract_z
 _atom_site_occupancy
  Ni  Ni0  1  0.50000000  0.00000000  0.25700300  1
  Ni  Ni1  1  0.50000000  0.00000000  0.74299700  1
  Ni  Ni2  1  0.00000000  0.50000000  0.74299700  1
  Ni  Ni3  1  0.00000000  0.50000000  0.25700300  1
  Ni  Ni4  1  0.00000000  0.00000000  0.00000000  1
  Ni  Ni5  1  0.50000000  0.50000000  0.00000000  1
  Ni  Ni6  1  0.74481100  0.74481100  0.12819600  1
  Ni  Ni7  1  0.25518900  0.25518900  0.12819600  1
  Ni  Ni8  1  0.25518900  0.74481100  0.87180400  1
  Ni  Ni9  1  0.74481100  0.25518900  0.87180400  1
  Ni  Ni10  1  0.00000000  0.00000000  0.50000000  1
  Cu  Cu11  1  0.76309900  0.76309900  0.62459600  1
  Cu  Cu12  1  0.23690100  0.23690100  0.62459600  1
  Cu  Cu13  1  0.23690100  0.76309900  0.37540400  1
  Cu  Cu14  1  0.76309900  0.23690100  0.37540400  1
