# generated using pymatgen
data_CuNiC30
_symmetry_space_group_name_H-M   'P 1'
_cell_length_a   8.61067600
_cell_length_b   8.61067600
_cell_length_c   4.31536900
_cell_angle_alpha   90.00000000
_cell_angle_beta   90.00000000
_cell_angle_gamma   90.00000000
_symmetry_Int_Tables_number   1
_chemical_formula_structural   CuNiC30
_chemical_formula_sum   'Cu1 Ni1 C30'
_cell_volume   319.95760222
_cell_formula_units_Z   1
loop_
 _symmetry_equiv_pos_site_id
 _symmetry_equiv_pos_as_xyz
  1  'x, y, z'
loop_
 _atom_site_type_symbol
 _atom_site_label
 _atom_site_symmetry_multiplicity
 _atom_site_fract_x
 _atom_site_fract_y
 _atom_site_fract_z
 _atom_site_occupancy
  C  C0  1  0.50000000  0.00000000  0.00000000  1
  C  C1  1  0.00000000  0.50000000  0.00000000  1
  C  C2  1  0.24960700  0.00000000  0.50000000  1
  C  C3  1  0.75039300  0.00000000  0.50000000  1
  C  C4  1  0.24441300  0.50000000  0.50000000  1
  C  C5  1  0.75558700  0.50000000  0.50000000  1
  C  C6  1  0.00000000  0.24960700  0.50000000  1
  C  C7  1  0.50000000  0.24441300  0.50000000  1
  C  C8  1  0.00000000  0.75039300  0.50000000  1
  C  C9  1  0.50000000  0.75558700  0.50000000  1
  C  C10  1  0.24739400  0.24739400  0.00000000  1
  C  C11  1  0.75260600  0.24739400  0.00000000  1
  C  C12  1  0.24739400  0.75260600  0.00000000  1
  C  C13  1  0.75260600  0.75260600  0.00000000  1
  Ni  Ni14  1  0.00000000  0.00000000  0.00000000  1
  Cu  Cu15  1  0.50000000  0.50000000  0.00000000  1
  C  C16  1  0.00000000  0.25107600  0.00000000  1
  C  C17  1  0.50000000  0.23452000  0.00000000  1
  C  C18  1  0.00000000  0.74892400  0.00000000  1
  C  C19  1  0.50000000  0.76548000  0.00000000  1
  C  C20  1  0.25031500  0.25031500  0.50000000  1
  C  C21  1  0.74968500  0.25031500  0.50000000  1
  C  C22  1  0.25031500  0.74968500  0.50000000  1
  C  C23  1  0.74968500  0.74968500  0.50000000  1
  C  C24  1  0.00000000  0.00000000  0.50000000  1
  C  C25  1  0.50000000  0.00000000  0.50000000  1
  C  C26  1  0.00000000  0.50000000  0.50000000  1
  C  C27  1  0.50000000  0.50000000  0.50000000  1
  C  C28  1  0.25107600  0.00000000  0.00000000  1
  C  C29  1  0.74892400  0.00000000  0.00000000  1
  C  C30  1  0.23452000  0.50000000  0.00000000  1
  C  C31  1  0.76548000  0.50000000  0.00000000  1
