# generated using pymatgen
data_CuNiC8
_symmetry_space_group_name_H-M   'P 1'
_cell_length_a   7.77614300
_cell_length_b   7.84313005
_cell_length_c   8.03277400
_cell_angle_alpha   90.00000000
_cell_angle_beta   90.00000000
_cell_angle_gamma   90.08252775
_symmetry_Int_Tables_number   1
_chemical_formula_structural   CuNiC8
_chemical_formula_sum   'Cu4 Ni4 C32'
_cell_volume   489.91276188
_cell_formula_units_Z   4
loop_
 _symmetry_equiv_pos_site_id
 _symmetry_equiv_pos_as_xyz
  1  'x, y, z'
loop_
 _atom_site_type_symbol
 _atom_site_label
 _atom_site_symmetry_multiplicity
 _atom_site_fract_x
 _atom_site_fract_y
 _atom_site_fract_z
 _atom_site_occupancy
  Ni  Ni0  1  0.25000000  0.25000000  0.24977500  1
  Ni  Ni1  1  0.75000000  0.75000000  0.75022500  1
  Ni  Ni2  1  0.25000000  0.75000000  0.72639400  1
  Ni  Ni3  1  0.75000000  0.25000000  0.27360600  1
  Cu  Cu4  1  0.25000000  0.75000000  0.22400900  1
  Cu  Cu5  1  0.75000000  0.25000000  0.77599100  1
  Cu  Cu6  1  0.75000000  0.75000000  0.25404600  1
  Cu  Cu7  1  0.25000000  0.25000000  0.74595400  1
  C  C8  1  0.00000000  0.50000000  0.00000000  1
  C  C9  1  0.50000000  0.00000000  0.00000000  1
  C  C10  1  0.00000000  0.00000000  0.50000000  1
  C  C11  1  0.50000000  0.50000000  0.50000000  1
  C  C12  1  0.50000000  0.00000000  0.50000000  1
  C  C13  1  0.00000000  0.50000000  0.50000000  1
  C  C14  1  0.50000000  0.50000000  0.00000000  1
  C  C15  1  0.00000000  0.00000000  0.00000000  1
  C  C16  1  0.55078600  0.24469700  0.53846000  1
  C  C17  1  0.94921400  0.25530300  0.53846000  1
  C  C18  1  0.74735100  0.45062000  0.01928000  1
  C  C19  1  0.75264900  0.04938000  0.01928000  1
  C  C20  1  0.44921400  0.75530300  0.46154000  1
  C  C21  1  0.05078600  0.74469700  0.46154000  1
  C  C22  1  0.25264900  0.54938000  0.98072000  1
  C  C23  1  0.24735100  0.95062000  0.98072000  1
  C  C24  1  0.47474500  0.02376500  0.25818600  1
  C  C25  1  0.02525500  0.47623500  0.25818600  1
  C  C26  1  0.52971100  0.51274600  0.75625200  1
  C  C27  1  0.97028900  0.98725400  0.75625200  1
  C  C28  1  0.52525500  0.97623500  0.74181400  1
  C  C29  1  0.97474500  0.52376500  0.74181400  1
  C  C30  1  0.47028900  0.48725400  0.24374800  1
  C  C31  1  0.02971100  0.01274600  0.24374800  1
  C  C32  1  0.24966400  0.04776400  0.53365800  1
  C  C33  1  0.25033600  0.45223600  0.53365800  1
  C  C34  1  0.54172600  0.74968600  0.03817300  1
  C  C35  1  0.95827400  0.75031400  0.03817300  1
  C  C36  1  0.75033600  0.95223600  0.46634200  1
  C  C37  1  0.74966400  0.54776400  0.46634200  1
  C  C38  1  0.45827400  0.25031400  0.96182700  1
  C  C39  1  0.04172600  0.24968600  0.96182700  1
