# generated using pymatgen
data_CuNiC8
_symmetry_space_group_name_H-M   'P 1'
_cell_length_a   5.92610731
_cell_length_b   5.92610731
_cell_length_c   8.69621163
_cell_angle_alpha   90.00000000
_cell_angle_beta   90.00000000
_cell_angle_gamma   90.00000000
_symmetry_Int_Tables_number   1
_chemical_formula_structural   CuNiC8
_chemical_formula_sum   'Cu2 Ni2 C16'
_cell_volume   305.40006348
_cell_formula_units_Z   2
loop_
 _symmetry_equiv_pos_site_id
 _symmetry_equiv_pos_as_xyz
  1  'x, y, z'
loop_
 _atom_site_type_symbol
 _atom_site_label
 _atom_site_symmetry_multiplicity
 _atom_site_fract_x
 _atom_site_fract_y
 _atom_site_fract_z
 _atom_site_occupancy
  C  C0  1  0.00000000  0.50000000  0.25000000  1
  C  C1  1  0.50000000  0.00000000  0.75000000  1
  Ni  Ni2  1  0.50000000  0.00000000  0.25000000  1
  Ni  Ni3  1  0.00000000  0.50000000  0.75000000  1
  Cu  Cu4  1  -0.00000000  -0.00000000  -0.00000000  1
  Cu  Cu5  1  0.50000000  0.50000000  0.50000000  1
  C  C6  1  0.00000000  0.00000000  0.50000000  1
  C  C7  1  0.50000000  0.50000000  -0.00000000  1
  C  C8  1  0.00000000  0.00000000  0.27134466  1
  C  C9  1  0.50000000  0.50000000  0.22865534  1
  C  C10  1  -0.00000000  0.00000000  0.72865534  1
  C  C11  1  0.50000000  0.50000000  0.77134466  1
  C  C12  1  0.35040449  0.20491373  0.02196869  1
  C  C13  1  0.64959551  0.79508627  0.02196869  1
  C  C14  1  0.79508627  0.35040449  0.97803131  1
  C  C15  1  0.20491373  0.64959551  0.97803131  1
  C  C16  1  0.85040449  0.29508627  0.52196869  1
  C  C17  1  0.14959551  0.70491373  0.52196869  1
  C  C18  1  0.29508627  0.14959551  0.47803131  1
  C  C19  1  0.70491373  0.85040449  0.47803131  1
