# generated using pymatgen
data_Cu6Ni3C2
_symmetry_space_group_name_H-M   'P 1'
_cell_length_a   10.84843000
_cell_length_b   11.17113300
_cell_length_c   15.61266154
_cell_angle_alpha   53.98437230
_cell_angle_beta   90.00000000
_cell_angle_gamma   90.00000000
_symmetry_Int_Tables_number   1
_chemical_formula_structural   Cu6Ni3C2
_chemical_formula_sum   'Cu24 Ni12 C8'
_cell_volume   1530.42698585
_cell_formula_units_Z   4
loop_
 _symmetry_equiv_pos_site_id
 _symmetry_equiv_pos_as_xyz
  1  'x, y, z'
loop_
 _atom_site_type_symbol
 _atom_site_label
 _atom_site_symmetry_multiplicity
 _atom_site_fract_x
 _atom_site_fract_y
 _atom_site_fract_z
 _atom_site_occupancy
  C  C0  1  0.99896700  0.75592800  0.25402800  1
  C  C1  1  0.00103300  0.24407200  0.74597200  1
  C  C2  1  0.49896700  0.24407200  0.24597200  1
  C  C3  1  0.50103300  0.75592800  0.75402800  1
  C  C4  1  0.99959600  0.34523500  0.17841600  1
  C  C5  1  0.00040400  0.65476500  0.82158400  1
  C  C6  1  0.49959600  0.65476500  0.32158400  1
  C  C7  1  0.50040400  0.34523500  0.67841600  1
  Ni  Ni8  1  0.95084600  0.99581000  0.43811800  1
  Ni  Ni9  1  0.04915400  0.00419000  0.56188200  1
  Ni  Ni10  1  0.45084600  0.00419000  0.06188200  1
  Ni  Ni11  1  0.54915400  0.99581000  0.93811800  1
  Ni  Ni12  1  0.68319700  0.85262200  0.44307700  1
  Ni  Ni13  1  0.31680300  0.14737800  0.55692300  1
  Ni  Ni14  1  0.18319700  0.14737800  0.05692300  1
  Ni  Ni15  1  0.81680300  0.85262200  0.94307700  1
  Ni  Ni16  1  0.70085200  0.63966300  0.05563900  1
  Ni  Ni17  1  0.29914800  0.36033700  0.94436100  1
  Ni  Ni18  1  0.20085200  0.36033700  0.44436100  1
  Ni  Ni19  1  0.79914800  0.63966300  0.55563900  1
  Cu  Cu20  1  0.49268500  0.79865000  0.48940100  1
  Cu  Cu21  1  0.50731500  0.20135000  0.51059900  1
  Cu  Cu22  1  0.99268500  0.20135000  0.01059900  1
  Cu  Cu23  1  0.00731500  0.79865000  0.98940100  1
  Cu  Cu24  1  0.78803400  0.50197200  0.50071300  1
  Cu  Cu25  1  0.21196600  0.49802800  0.49928700  1
  Cu  Cu26  1  0.28803400  0.49802800  0.99928700  1
  Cu  Cu27  1  0.71196600  0.50197200  0.00071300  1
  Cu  Cu28  1  0.50287000  0.74703800  0.01414900  1
  Cu  Cu29  1  0.49713000  0.25296200  0.98585100  1
  Cu  Cu30  1  0.00287000  0.25296200  0.48585100  1
  Cu  Cu31  1  0.99713000  0.74703800  0.51414900  1
  Cu  Cu32  1  0.73476100  0.95879100  0.28025900  1
  Cu  Cu33  1  0.26523900  0.04120900  0.71974100  1
  Cu  Cu34  1  0.23476100  0.04120900  0.21974100  1
  Cu  Cu35  1  0.76523900  0.95879100  0.78025900  1
  Cu  Cu36  1  0.74285600  0.98455700  0.00458600  1
  Cu  Cu37  1  0.25714400  0.01544300  0.99541400  1
  Cu  Cu38  1  0.24285600  0.01544300  0.49541400  1
  Cu  Cu39  1  0.75714400  0.98455700  0.50458600  1
  Cu  Cu40  1  0.74503000  0.53319500  0.22040400  1
  Cu  Cu41  1  0.25497000  0.46680500  0.77959600  1
  Cu  Cu42  1  0.24503000  0.46680500  0.27959600  1
  Cu  Cu43  1  0.75497000  0.53319500  0.72040400  1
