# generated using pymatgen
data_Cu5Ni2C15
_symmetry_space_group_name_H-M   'P 1'
_cell_length_a   15.96205575
_cell_length_b   15.96205575
_cell_length_c   15.96205563
_cell_angle_alpha   37.22495794
_cell_angle_beta   37.22495794
_cell_angle_gamma   37.22495724
_symmetry_Int_Tables_number   1
_chemical_formula_structural   Cu5Ni2C15
_chemical_formula_sum   'Cu10 Ni4 C30'
_cell_volume   1334.10832292
_cell_formula_units_Z   2
loop_
 _symmetry_equiv_pos_site_id
 _symmetry_equiv_pos_as_xyz
  1  'x, y, z'
loop_
 _atom_site_type_symbol
 _atom_site_label
 _atom_site_symmetry_multiplicity
 _atom_site_fract_x
 _atom_site_fract_y
 _atom_site_fract_z
 _atom_site_occupancy
  C  C0  1  0.31983800  0.94175800  0.31983800  1
  C  C1  1  0.31983800  0.31983800  0.94175800  1
  C  C2  1  0.94175800  0.31983800  0.31983800  1
  C  C3  1  0.17344800  0.77920600  0.17344800  1
  C  C4  1  0.17344800  0.17344800  0.77920600  1
  C  C5  1  0.77920600  0.17344800  0.17344800  1
  C  C6  1  0.32402800  0.70640500  0.32402800  1
  C  C7  1  0.32402800  0.32402800  0.70640500  1
  C  C8  1  0.70640500  0.32402800  0.32402800  1
  C  C9  1  0.47711600  0.84887300  0.47711600  1
  C  C10  1  0.47711600  0.47711600  0.84887300  1
  C  C11  1  0.84887300  0.47711600  0.47711600  1
  C  C12  1  0.79779100  0.42030800  0.79779100  1
  C  C13  1  0.79779100  0.79779100  0.42030800  1
  C  C14  1  0.42030800  0.79779100  0.79779100  1
  C  C15  1  0.61652700  0.99515500  0.61652700  1
  C  C16  1  0.61652700  0.61652700  0.99515500  1
  C  C17  1  0.99515500  0.61652700  0.61652700  1
  C  C18  1  0.75925700  0.13442400  0.75925700  1
  C  C19  1  0.75925700  0.75925700  0.13442400  1
  C  C20  1  0.13442400  0.75925700  0.75925700  1
  C  C21  1  0.08258000  0.70552600  0.08258000  1
  C  C22  1  0.08258000  0.08258000  0.70552600  1
  C  C23  1  0.70552600  0.08258000  0.08258000  1
  C  C24  1  0.94013000  0.55960900  0.94013000  1
  C  C25  1  0.94013000  0.94013000  0.55960900  1
  C  C26  1  0.55960900  0.94013000  0.94013000  1
  C  C27  1  0.11194600  0.11194600  0.11194600  1
  C  C28  1  0.26542900  0.26542900  0.26542900  1
  C  C29  1  0.52156500  0.52156500  0.52156500  1
  Ni  Ni30  1  0.44018700  0.12285600  0.44018700  1
  Ni  Ni31  1  0.44018700  0.44018700  0.12285600  1
  Ni  Ni32  1  0.12285600  0.44018700  0.44018700  1
  Ni  Ni33  1  0.39237300  0.39237300  0.39237300  1
  Cu  Cu34  1  0.63194100  0.19648100  0.63194100  1
  Cu  Cu35  1  0.63194100  0.63194100  0.19648100  1
  Cu  Cu36  1  0.19648100  0.63194100  0.63194100  1
  Cu  Cu37  1  0.93120000  0.37236800  0.93120000  1
  Cu  Cu38  1  0.93120000  0.93120000  0.37236800  1
  Cu  Cu39  1  0.37236800  0.93120000  0.93120000  1
  Cu  Cu40  1  0.08851100  0.51745000  0.08851100  1
  Cu  Cu41  1  0.08851100  0.08851100  0.51745000  1
  Cu  Cu42  1  0.51745000  0.08851100  0.08851100  1
  Cu  Cu43  1  0.99954800  0.99954800  0.99954800  1
