# generated using pymatgen
data_CuNi2C17
_symmetry_space_group_name_H-M   'P 1'
_cell_length_a   9.16826200
_cell_length_b   9.16814110
_cell_length_c   16.32893398
_cell_angle_alpha   89.05549064
_cell_angle_beta   106.26391639
_cell_angle_gamma   119.97663260
_symmetry_Int_Tables_number   1
_chemical_formula_structural   CuNi2C17
_chemical_formula_sum   'Cu4 Ni8 C68'
_cell_volume   1128.71148065
_cell_formula_units_Z   4
loop_
 _symmetry_equiv_pos_site_id
 _symmetry_equiv_pos_as_xyz
  1  'x, y, z'
loop_
 _atom_site_type_symbol
 _atom_site_label
 _atom_site_symmetry_multiplicity
 _atom_site_fract_x
 _atom_site_fract_y
 _atom_site_fract_z
 _atom_site_occupancy
  C  C0  1  0.07180300  0.55055800  0.80464100  1
  C  C1  1  0.30346900  0.81848800  0.54407300  1
  C  C2  1  0.96432500  0.90082300  0.72114300  1
  C  C3  1  0.40062000  0.12423000  0.87432900  1
  C  C4  1  0.05401700  0.08093000  0.28598300  1
  C  C5  1  0.60655900  0.36730600  0.61968800  1
  C  C6  1  0.30408700  0.31623100  0.04379800  1
  C  C7  1  0.68527300  0.67091700  0.96262300  1
  C  C8  1  0.39404300  0.62080100  0.37123400  1
  C  C9  1  0.60233000  0.86515200  0.11888800  1
  C  C10  1  0.68723600  0.17048900  0.46255700  1
  C  C11  1  0.94890000  0.43197600  0.20784800  1
  C  C12  1  0.65092700  0.08119000  0.71937500  1
  C  C13  1  0.14622200  0.81789900  0.97167900  1
  C  C14  1  0.64985100  0.58287800  0.22081700  1
  C  C15  1  0.85152700  0.67015900  0.52986600  1
  C  C16  1  0.14404300  0.31661500  0.47098800  1
  C  C17  1  0.34979900  0.42175800  0.77889500  1
  C  C18  1  0.84967000  0.16804400  0.02948000  1
  C  C19  1  0.34819400  0.92328500  0.28089900  1
  Ni  Ni20  1  0.47240800  0.83783700  0.88081500  1
  Ni  Ni21  1  0.95679500  0.37568200  0.62390400  1
  Ni  Ni22  1  0.24848900  0.08681600  0.63303400  1
  Ni  Ni23  1  0.75188400  0.40816000  0.87031300  1
  Ni  Ni24  1  0.47284600  0.33883000  0.38188100  1
  Ni  Ni25  1  0.95595300  0.87328900  0.12443800  1
  Ni  Ni26  1  0.24755500  0.58655400  0.13200100  1
  Ni  Ni27  1  0.75073100  0.90895400  0.36899700  1
  Cu  Cu28  1  0.04394200  0.12440300  0.87390100  1
  Cu  Cu29  1  0.52889000  0.66107900  0.61942600  1
  Cu  Cu30  1  0.04461900  0.62487000  0.37507900  1
  Cu  Cu31  1  0.52902300  0.16039500  0.12083700  1
  C  C32  1  0.00194000  0.15607400  0.95521300  1
  C  C33  1  0.12079000  0.41024800  0.70966700  1
  C  C34  1  0.42963700  0.64521400  0.85423900  1
  C  C35  1  0.63323900  0.91953700  0.97371400  1
  C  C36  1  0.00514100  0.65599600  0.45716600  1
  C  C37  1  0.29195800  0.82660200  0.88890400  1
  C  C38  1  0.53152500  0.95975000  0.80786100  1
  C  C39  1  0.76875900  0.20624600  0.62446000  1
  C  C40  1  0.11913700  0.91277800  0.21158900  1
  C  C41  1  0.42100900  0.06748500  0.63977200  1
  C  C42  1  0.06848000  0.89808600  0.60358100  1
  C  C43  1  0.43671500  0.14926000  0.35480200  1
  C  C44  1  0.74679200  0.28210600  0.94299300  1
  C  C45  1  0.07536300  0.97245400  0.87758400  1
  C  C46  1  0.74363700  0.32363400  0.77957200  1
  C  C47  1  0.26581200  0.17047900  0.72605500  1
  C  C48  1  0.93273800  0.54179600  0.62490400  1
  C  C49  1  0.25020300  0.21408800  0.56082300  1
  C  C50  1  0.63283900  0.42213700  0.47478000  1
  C  C51  1  0.93637800  0.59491400  0.89821000  1
  C  C52  1  0.58176600  0.43167800  0.85973300  1
  C  C53  1  0.29022300  0.32431700  0.38845300  1
  C  C54  1  0.53028200  0.46179000  0.30878000  1
  C  C55  1  0.22103600  0.28864800  0.87605400  1
  C  C56  1  0.76815200  0.70311500  0.12437400  1
  C  C57  1  0.48096500  0.54440600  0.68921000  1
  C  C58  1  0.70387000  0.68075500  0.61271500  1
  C  C59  1  0.41779600  0.56305300  0.13987400  1
  C  C60  1  0.06511300  0.39913000  0.10112300  1
  C  C61  1  0.37742500  0.58123700  0.53210100  1
  C  C62  1  0.75327600  0.78483900  0.44170000  1
  C  C63  1  0.07117900  0.47044600  0.37550400  1
  C  C64  1  0.73777000  0.82594300  0.27641600  1
  C  C65  1  0.26024800  0.67120100  0.22344200  1
  C  C66  1  0.93113100  0.03960100  0.12464200  1
  C  C67  1  0.25560900  0.71529500  0.05983500  1
  C  C68  1  0.55992900  0.83771100  0.64567000  1
  C  C69  1  0.93248900  0.09749900  0.39529000  1
  C  C70  1  0.57809200  0.92757300  0.36009000  1
  C  C71  1  0.89313300  0.08375900  0.78991200  1
  C  C72  1  0.22332400  0.78714100  0.37722100  1
  C  C73  1  0.47877400  0.04277400  0.18967300  1
  C  C74  1  0.70199400  0.17695500  0.11267200  1
  C  C75  1  0.99483800  0.34194900  0.53595100  1
  C  C76  1  0.37697900  0.08395300  0.03344200  1
  C  C77  1  0.56617800  0.33929100  0.14813600  1
  C  C78  1  0.89346500  0.59102600  0.29223600  1
  C  C79  1  0.99594100  0.84018600  0.03707900  1
