# generated using pymatgen
data_Cu10Ni5C33
_symmetry_space_group_name_H-M   'P 1'
_cell_length_a   6.60563500
_cell_length_b   7.47743428
_cell_length_c   22.56701076
_cell_angle_alpha   85.65933092
_cell_angle_beta   86.22952556
_cell_angle_gamma   85.55266947
_symmetry_Int_Tables_number   1
_chemical_formula_structural   Cu10Ni5C33
_chemical_formula_sum   'Cu20 Ni10 C66'
_cell_volume   1106.10041692
_cell_formula_units_Z   2
loop_
 _symmetry_equiv_pos_site_id
 _symmetry_equiv_pos_as_xyz
  1  'x, y, z'
loop_
 _atom_site_type_symbol
 _atom_site_label
 _atom_site_symmetry_multiplicity
 _atom_site_fract_x
 _atom_site_fract_y
 _atom_site_fract_z
 _atom_site_occupancy
  C  C0  1  0.81412300  0.92346100  0.89086400  1
  C  C1  1  0.01418200  0.32310200  0.69095200  1
  C  C2  1  0.21469900  0.72303300  0.49096300  1
  C  C3  1  0.41356700  0.12337700  0.29157800  1
  C  C4  1  0.18573500  0.07566000  0.10858900  1
  C  C5  1  0.61504200  0.52274900  0.09080100  1
  Ni  Ni6  1  0.13428600  0.16536800  0.96829900  1
  Ni  Ni7  1  0.07239700  0.24287600  0.83007000  1
  Ni  Ni8  1  0.33378600  0.56283300  0.77084500  1
  Ni  Ni9  1  0.27282400  0.64227000  0.63069400  1
  Ni  Ni10  1  0.53414600  0.96272900  0.57091500  1
  Ni  Ni11  1  0.47317800  0.04255500  0.43083400  1
  Ni  Ni12  1  0.73455400  0.36277900  0.37102900  1
  Ni  Ni13  1  0.67280500  0.44033800  0.23135900  1
  Ni  Ni14  1  0.92998700  0.75804900  0.17285400  1
  Ni  Ni15  1  0.87066900  0.84169400  0.02994600  1
  Cu  Cu16  1  0.06613500  0.92275400  0.72813800  1
  Cu  Cu17  1  0.33318000  0.87417800  0.87226100  1
  Cu  Cu18  1  0.62677800  0.22063800  0.99211000  1
  Cu  Cu19  1  0.86541500  0.52396400  0.92789300  1
  Cu  Cu20  1  0.82590100  0.62083600  0.79236300  1
  Cu  Cu21  1  0.02658300  0.02050300  0.59247600  1
  Cu  Cu22  1  0.57264700  0.18145500  0.80646800  1
  Cu  Cu23  1  0.26603400  0.32277000  0.52836200  1
  Cu  Cu24  1  0.53351800  0.27422800  0.67234800  1
  Cu  Cu25  1  0.22691900  0.42093800  0.39262800  1
  Cu  Cu26  1  0.77275700  0.58146700  0.60656700  1
  Cu  Cu27  1  0.46688300  0.72322400  0.32857800  1
  Cu  Cu28  1  0.73352300  0.67471300  0.47247900  1
  Cu  Cu29  1  0.42824300  0.81728500  0.19291300  1
  Cu  Cu30  1  0.97325800  0.98163300  0.40653000  1
  Cu  Cu31  1  0.17165600  0.38235900  0.20784600  1
  Cu  Cu32  1  0.13107700  0.47663400  0.07208200  1
  Cu  Cu33  1  0.37333100  0.78078600  0.00651700  1
  Cu  Cu34  1  0.66964000  0.12350400  0.12805900  1
  Cu  Cu35  1  0.93225000  0.07363700  0.27261300  1
  C  C36  1  0.04485700  0.36849200  0.90997200  1
  C  C37  1  0.42520800  0.78268100  0.93440500  1
  C  C38  1  0.26182500  0.71826300  0.83418500  1
  C  C39  1  0.02561900  0.47862000  0.77882200  1
  C  C40  1  0.51783000  0.97931300  0.83527700  1
  C  C41  1  0.24532700  0.76597600  0.71049800  1
  C  C42  1  0.14681400  0.02676200  0.88888700  1
  C  C43  1  0.42524300  0.17286800  0.96120400  1
  C  C44  1  0.68539100  0.42522300  0.96901900  1
  C  C45  1  0.22604400  0.87796100  0.57904300  1
  C  C46  1  0.36922200  0.32001000  0.81792200  1
  C  C47  1  0.13006100  0.09015000  0.76317600  1
  C  C48  1  0.93113400  0.69051900  0.96306200  1
  C  C49  1  0.78196800  0.62300600  0.86508100  1
  C  C50  1  0.34698400  0.42651900  0.68908300  1
  C  C51  1  0.62457900  0.57175100  0.76188000  1
  C  C52  1  0.02875800  0.98414000  0.33439600  1
  C  C53  1  0.82699900  0.07901300  0.97914200  1
  C  C54  1  0.08349200  0.22468400  0.56822600  1
  C  C55  1  0.88322200  0.82481500  0.76805500  1
  C  C56  1  0.56944200  0.71983000  0.61811400  1
  C  C57  1  0.32990800  0.49028300  0.56344500  1
  C  C58  1  0.77817600  0.21624800  0.83859000  1
  C  C59  1  0.18462300  0.42265800  0.46542900  1
  C  C60  1  0.62663100  0.18264000  0.73433400  1
  C  C61  1  0.54725300  0.82709600  0.48938400  1
  C  C62  1  0.82481900  0.97177500  0.56213300  1
  C  C63  1  0.02537700  0.37171200  0.36229900  1
  C  C64  1  0.46230500  0.11803700  0.63437800  1
  C  C65  1  0.28352700  0.62501400  0.36825600  1
  C  C66  1  0.71805600  0.37941000  0.63529600  1
  C  C67  1  0.52954000  0.89089200  0.36378600  1
  C  C68  1  0.17861500  0.01549300  0.43898200  1
  C  C69  1  0.97843800  0.61609700  0.63856400  1
  C  C70  1  0.44544600  0.16637200  0.51072200  1
  C  C71  1  0.38695800  0.82282900  0.26535700  1
  C  C72  1  0.82644000  0.58248700  0.53437700  1
  C  C73  1  0.22254800  0.78257400  0.16159200  1
  C  C74  1  0.66165500  0.51862000  0.43450900  1
  C  C75  1  0.42639800  0.27803000  0.37936700  1
  C  C76  1  0.11633600  0.17636300  0.23350900  1
  C  C77  1  0.91809200  0.77935700  0.43524500  1
  C  C78  1  0.17276000  0.92212000  0.01982100  1
  C  C79  1  0.98455100  0.02228300  0.66522600  1
  C  C80  1  0.37821900  0.41536000  0.23893800  1
  C  C81  1  0.64591400  0.56654100  0.31113200  1
  C  C82  1  0.22022300  0.38003600  0.13488000  1
  C  C83  1  0.85767200  0.91821500  0.23499300  1
  C  C84  1  0.06991600  0.30967600  0.03673700  1
  C  C85  1  0.62650900  0.67599100  0.17910100  1
  C  C86  1  0.76965700  0.11974500  0.41825200  1
  C  C87  1  0.31734300  0.57897900  0.03527900  1
  C  C88  1  0.57700400  0.81707500  0.03925600  1
  C  C89  1  0.85380800  0.97121900  0.11089600  1
  C  C90  1  0.74797000  0.22714800  0.28977200  1
  C  C91  1  0.48302600  0.02199200  0.16574200  1
  C  C92  1  0.96993500  0.51973000  0.21965400  1
  C  C93  1  0.73163900  0.29037900  0.16310200  1
  C  C94  1  0.57867300  0.21841100  0.06528600  1
  C  C95  1  0.94593200  0.62784600  0.08901200  1
