# generated using pymatgen
data_Cu10Ni22C27
_symmetry_space_group_name_H-M   'P 1'
_cell_length_a   7.74264200
_cell_length_b   11.58738100
_cell_length_c   16.25991999
_cell_angle_alpha   90.00000000
_cell_angle_beta   107.14534792
_cell_angle_gamma   90.00000000
_symmetry_Int_Tables_number   1
_chemical_formula_structural   Cu10Ni22C27
_chemical_formula_sum   'Cu20 Ni44 C54'
_cell_volume   1393.96165717
_cell_formula_units_Z   2
loop_
 _symmetry_equiv_pos_site_id
 _symmetry_equiv_pos_as_xyz
  1  'x, y, z'
loop_
 _atom_site_type_symbol
 _atom_site_label
 _atom_site_symmetry_multiplicity
 _atom_site_fract_x
 _atom_site_fract_y
 _atom_site_fract_z
 _atom_site_occupancy
  C  C0  1  0.50000000  0.66079000  0.75000000  1
  C  C1  1  0.50000000  0.33921000  0.25000000  1
  C  C2  1  0.55894200  0.68163500  0.92881800  1
  C  C3  1  0.44105800  0.68163500  0.57118200  1
  C  C4  1  0.44105800  0.31836500  0.07118200  1
  C  C5  1  0.55894200  0.31836500  0.42881800  1
  C  C6  1  0.34470300  0.67691600  0.88130300  1
  C  C7  1  0.65529700  0.67691600  0.61869700  1
  C  C8  1  0.65529700  0.32308400  0.11869700  1
  C  C9  1  0.34470300  0.32308400  0.38130300  1
  C  C10  1  0.66725400  0.45768300  0.87545800  1
  C  C11  1  0.33274600  0.45768300  0.62454200  1
  C  C12  1  0.33274600  0.54231700  0.12454200  1
  C  C13  1  0.66725400  0.54231700  0.37545800  1
  C  C14  1  0.67318800  0.24422400  0.88136300  1
  C  C15  1  0.32681200  0.24422400  0.61863700  1
  C  C16  1  0.32681200  0.75577600  0.11863700  1
  C  C17  1  0.67318800  0.75577600  0.38136300  1
  C  C18  1  0.58136100  0.07484200  0.88946100  1
  C  C19  1  0.41863900  0.07484200  0.61053900  1
  C  C20  1  0.41863900  0.92515800  0.11053900  1
  C  C21  1  0.58136100  0.92515800  0.38946100  1
  C  C22  1  0.58081600  0.86281600  0.88319600  1
  C  C23  1  0.41918400  0.86281600  0.61680400  1
  C  C24  1  0.41918400  0.13718400  0.11680400  1
  C  C25  1  0.58081600  0.13718400  0.38319600  1
  C  C26  1  0.21581500  0.11601500  0.96930000  1
  C  C27  1  0.78418500  0.11601500  0.53070000  1
  C  C28  1  0.78418500  0.88398500  0.03070000  1
  C  C29  1  0.21581500  0.88398500  0.46930000  1
  C  C30  1  0.02627700  0.10843400  0.81936300  1
  C  C31  1  0.97372300  0.10843400  0.68063700  1
  C  C32  1  0.97372300  0.89156600  0.18063700  1
  C  C33  1  0.02627700  0.89156600  0.31936300  1
  C  C34  1  0.11293800  0.47553100  0.80287600  1
  C  C35  1  0.88706200  0.47553100  0.69712400  1
  C  C36  1  0.88706200  0.52446900  0.19712400  1
  C  C37  1  0.11293800  0.52446900  0.30287600  1
  C  C38  1  0.29666500  0.46949100  0.95469400  1
  C  C39  1  0.70333500  0.46949100  0.54530600  1
  C  C40  1  0.70333500  0.53050900  0.04530600  1
  C  C41  1  0.29666500  0.53050900  0.45469400  1
  Ni  Ni42  1  0.59257800  0.40732600  0.81970700  1
  Ni  Ni43  1  0.40742200  0.40732600  0.68029300  1
  Ni  Ni44  1  0.40742200  0.59267400  0.18029300  1
  Ni  Ni45  1  0.59257800  0.59267400  0.31970700  1
  Ni  Ni46  1  0.59561300  0.28735000  0.82259100  1
  Ni  Ni47  1  0.40438700  0.28735000  0.67740900  1
  Ni  Ni48  1  0.40438700  0.71265000  0.17740900  1
  Ni  Ni49  1  0.59561300  0.71265000  0.32259100  1
  Ni  Ni50  1  0.50000000  0.22368500  0.75000000  1
  Ni  Ni51  1  0.50000000  0.77631500  0.25000000  1
  Ni  Ni52  1  0.50000000  0.09595100  0.75000000  1
  Ni  Ni53  1  0.50000000  0.90404900  0.25000000  1
  Ni  Ni54  1  0.54545500  0.03261900  0.82692100  1
  Ni  Ni55  1  0.45454500  0.03261900  0.67307900  1
  Ni  Ni56  1  0.45454500  0.96738100  0.17307900  1
  Ni  Ni57  1  0.54545500  0.96738100  0.32692100  1
  Ni  Ni58  1  0.54481200  0.91279000  0.82394800  1
  Ni  Ni59  1  0.45518800  0.91279000  0.67605200  1
  Ni  Ni60  1  0.45518800  0.08721000  0.17605200  1
  Ni  Ni61  1  0.54481200  0.08721000  0.32394800  1
  Ni  Ni62  1  0.19208800  0.19515000  0.93113600  1
  Ni  Ni63  1  0.80791200  0.19515000  0.56886400  1
  Ni  Ni64  1  0.80791200  0.80485000  0.06886400  1
  Ni  Ni65  1  0.19208800  0.80485000  0.43113600  1
  Ni  Ni66  1  0.08517700  0.19075700  0.84562800  1
  Ni  Ni67  1  0.91482300  0.19075700  0.65437200  1
  Ni  Ni68  1  0.91482300  0.80924300  0.15437200  1
  Ni  Ni69  1  0.08517700  0.80924300  0.34562800  1
  Ni  Ni70  1  0.05413700  0.29173200  0.79582800  1
  Ni  Ni71  1  0.94586300  0.29173200  0.70417200  1
  Ni  Ni72  1  0.94586300  0.70826800  0.20417200  1
  Ni  Ni73  1  0.05413700  0.70826800  0.29582800  1
  Ni  Ni74  1  0.13062900  0.39375700  0.83720400  1
  Ni  Ni75  1  0.86937100  0.39375700  0.66279600  1
  Ni  Ni76  1  0.86937100  0.60624300  0.16279600  1
  Ni  Ni77  1  0.13062900  0.60624300  0.33720400  1
  Ni  Ni78  1  0.23522800  0.39026600  0.92283800  1
  Ni  Ni79  1  0.76477200  0.39026600  0.57716200  1
  Ni  Ni80  1  0.76477200  0.60973400  0.07716200  1
  Ni  Ni81  1  0.23522800  0.60973400  0.42283800  1
  Ni  Ni82  1  0.92293500  0.70075300  0.84929300  1
  Ni  Ni83  1  0.07706500  0.70075300  0.65070700  1
  Ni  Ni84  1  0.07706500  0.29924700  0.15070700  1
  Ni  Ni85  1  0.92293500  0.29924700  0.34929300  1
  Cu  Cu86  1  0.11444800  0.83954900  0.91667900  1
  Cu  Cu87  1  0.88555200  0.83954900  0.58332100  1
  Cu  Cu88  1  0.88555200  0.16045100  0.08332100  1
  Cu  Cu89  1  0.11444800  0.16045100  0.41667900  1
  Cu  Cu90  1  0.77838800  0.66802800  0.80936200  1
  Cu  Cu91  1  0.22161200  0.66802800  0.69063800  1
  Cu  Cu92  1  0.22161200  0.33197200  0.19063800  1
  Cu  Cu93  1  0.77838800  0.33197200  0.30936200  1
  Cu  Cu94  1  0.08941200  0.72421300  0.89461800  1
  Cu  Cu95  1  0.91058800  0.72421300  0.60538200  1
  Cu  Cu96  1  0.91058800  0.27578700  0.10538200  1
  Cu  Cu97  1  0.08941200  0.27578700  0.39461800  1
  Cu  Cu98  1  0.50000000  0.46802000  0.75000000  1
  Cu  Cu99  1  0.50000000  0.53198000  0.25000000  1
  Cu  Cu100  1  0.50000000  0.85227500  0.75000000  1
  Cu  Cu101  1  0.50000000  0.14772500  0.25000000  1
  Cu  Cu102  1  0.26890500  0.29294900  0.97003700  1
  Cu  Cu103  1  0.73109500  0.29294900  0.52996300  1
  Cu  Cu104  1  0.73109500  0.70705100  0.02996300  1
  Cu  Cu105  1  0.26890500  0.70705100  0.47003700  1
  C  C106  1  0.98911400  0.91061400  0.88922500  1
  C  C107  1  0.01088600  0.91061400  0.61077500  1
  C  C108  1  0.01088600  0.08938600  0.11077500  1
  C  C109  1  0.98911400  0.08938600  0.38922500  1
  C  C110  1  0.26803400  0.86535900  0.96423100  1
  C  C111  1  0.73196600  0.86535900  0.53576900  1
  C  C112  1  0.73196600  0.13464100  0.03576900  1
  C  C113  1  0.26803400  0.13464100  0.46423100  1
  C  C114  1  0.46330200  0.65502800  0.87545600  1
  C  C115  1  0.53669800  0.65502800  0.62454400  1
  C  C116  1  0.53669800  0.34497200  0.12454400  1
  C  C117  1  0.46330200  0.34497200  0.37545600  1
