# generated using pymatgen
data_Cu16Ni5C2
_symmetry_space_group_name_H-M   'P 1'
_cell_length_a   18.36937700
_cell_length_b   7.59215600
_cell_length_c   12.76654919
_cell_angle_alpha   55.90851037
_cell_angle_beta   90.00000000
_cell_angle_gamma   90.00000000
_symmetry_Int_Tables_number   1
_chemical_formula_structural   Cu16Ni5C2
_chemical_formula_sum   'Cu64 Ni20 C8'
_cell_volume   1474.47944689
_cell_formula_units_Z   4
loop_
 _symmetry_equiv_pos_site_id
 _symmetry_equiv_pos_as_xyz
  1  'x, y, z'
loop_
 _atom_site_type_symbol
 _atom_site_label
 _atom_site_symmetry_multiplicity
 _atom_site_fract_x
 _atom_site_fract_y
 _atom_site_fract_z
 _atom_site_occupancy
  C  C0  1  0.23337100  0.00790700  0.24172600  1
  C  C1  1  0.26662900  0.00790700  0.74172600  1
  C  C2  1  0.76662900  0.99209300  0.75827400  1
  C  C3  1  0.73337100  0.99209300  0.25827400  1
  C  C4  1  0.99895800  0.49910100  0.23146700  1
  C  C5  1  0.50104200  0.49910100  0.73146700  1
  C  C6  1  0.00104200  0.50089900  0.76853300  1
  C  C7  1  0.49895800  0.50089900  0.26853300  1
  Ni  Ni8  1  0.12395400  0.46118400  0.43655000  1
  Ni  Ni9  1  0.37604600  0.46118400  0.93655000  1
  Ni  Ni10  1  0.87604600  0.53881600  0.56345000  1
  Ni  Ni11  1  0.62395400  0.53881600  0.06345000  1
  Ni  Ni12  1  0.37044600  0.87534700  0.05214700  1
  Ni  Ni13  1  0.12955400  0.87534700  0.55214700  1
  Ni  Ni14  1  0.62955400  0.12465300  0.94785300  1
  Ni  Ni15  1  0.87044600  0.12465300  0.44785300  1
  Ni  Ni16  1  0.16385400  0.65426800  0.06606600  1
  Ni  Ni17  1  0.33614600  0.65426800  0.56606600  1
  Ni  Ni18  1  0.83614600  0.34573200  0.93393400  1
  Ni  Ni19  1  0.66385400  0.34573200  0.43393400  1
  Ni  Ni20  1  0.82522400  0.68741000  0.10140000  1
  Ni  Ni21  1  0.67477600  0.68741000  0.60140000  1
  Ni  Ni22  1  0.17477600  0.31259000  0.89860000  1
  Ni  Ni23  1  0.32522400  0.31259000  0.39860000  1
  Ni  Ni24  1  0.00482400  0.97830600  0.24109800  1
  Ni  Ni25  1  0.49517600  0.97830600  0.74109800  1
  Ni  Ni26  1  0.99517600  0.02169400  0.75890200  1
  Ni  Ni27  1  0.50482400  0.02169400  0.25890200  1
  Cu  Cu28  1  0.08805100  0.35040400  0.34870300  1
  Cu  Cu29  1  0.41194900  0.35040400  0.84870300  1
  Cu  Cu30  1  0.91194900  0.64959600  0.65129700  1
  Cu  Cu31  1  0.58805100  0.64959600  0.15129700  1
  Cu  Cu32  1  0.18659800  0.65034700  0.31261600  1
  Cu  Cu33  1  0.31340200  0.65034700  0.81261600  1
  Cu  Cu34  1  0.81340200  0.34965300  0.68738400  1
  Cu  Cu35  1  0.68659800  0.34965300  0.18738400  1
  Cu  Cu36  1  0.19409300  0.25176000  0.52352600  1
  Cu  Cu37  1  0.30590700  0.25176000  0.02352600  1
  Cu  Cu38  1  0.80590700  0.74824000  0.47647400  1
  Cu  Cu39  1  0.69409300  0.74824000  0.97647400  1
  Cu  Cu40  1  0.42928700  0.63984000  0.11234100  1
  Cu  Cu41  1  0.07071300  0.63984000  0.61234100  1
  Cu  Cu42  1  0.57071300  0.36016000  0.88765900  1
  Cu  Cu43  1  0.92928700  0.36016000  0.38765900  1
  Cu  Cu44  1  0.30346300  0.80053200  0.97569000  1
  Cu  Cu45  1  0.19653700  0.80053200  0.47569000  1
  Cu  Cu46  1  0.69653700  0.19946800  0.02431000  1
  Cu  Cu47  1  0.80346300  0.19946800  0.52431000  1
  Cu  Cu48  1  0.31669100  0.78350900  0.19380800  1
  Cu  Cu49  1  0.18330900  0.78350900  0.69380800  1
  Cu  Cu50  1  0.68330900  0.21649100  0.80619200  1
  Cu  Cu51  1  0.81669100  0.21649100  0.30619200  1
  Cu  Cu52  1  0.06487900  0.68401900  0.08379700  1
  Cu  Cu53  1  0.43512100  0.68401900  0.58379700  1
  Cu  Cu54  1  0.93512100  0.31598100  0.91620300  1
  Cu  Cu55  1  0.56487900  0.31598100  0.41620300  1
  Cu  Cu56  1  0.16785900  0.39493200  0.08670300  1
  Cu  Cu57  1  0.33214100  0.39493200  0.58670300  1
  Cu  Cu58  1  0.83214100  0.60506800  0.91329700  1
  Cu  Cu59  1  0.66785900  0.60506800  0.41329700  1
  Cu  Cu60  1  0.16132900  0.82598100  0.89393100  1
  Cu  Cu61  1  0.33867100  0.82598100  0.39393100  1
  Cu  Cu62  1  0.83867100  0.17401900  0.10606900  1
  Cu  Cu63  1  0.66132900  0.17401900  0.60606900  1
  Cu  Cu64  1  0.77869700  0.73971800  0.20783200  1
  Cu  Cu65  1  0.72130300  0.73971800  0.70783200  1
  Cu  Cu66  1  0.22130300  0.26028200  0.79216800  1
  Cu  Cu67  1  0.27869700  0.26028200  0.29216800  1
  Cu  Cu68  1  0.92177300  0.71879900  0.13252100  1
  Cu  Cu69  1  0.57822700  0.71879900  0.63252100  1
  Cu  Cu70  1  0.07822700  0.28120100  0.86747900  1
  Cu  Cu71  1  0.42177300  0.28120100  0.36747900  1
  Cu  Cu72  1  0.82370900  0.95059500  0.95117300  1
  Cu  Cu73  1  0.67629100  0.95059500  0.45117300  1
  Cu  Cu74  1  0.17629100  0.04940500  0.04882700  1
  Cu  Cu75  1  0.32370900  0.04940500  0.54882700  1
  Cu  Cu76  1  0.94856800  0.90178500  0.37781700  1
  Cu  Cu77  1  0.55143200  0.90178500  0.87781700  1
  Cu  Cu78  1  0.05143200  0.09821500  0.62218300  1
  Cu  Cu79  1  0.44856800  0.09821500  0.12218300  1
  Cu  Cu80  1  0.09456200  0.00501200  0.29138400  1
  Cu  Cu81  1  0.40543800  0.00501200  0.79138400  1
  Cu  Cu82  1  0.90543800  0.99498800  0.70861600  1
  Cu  Cu83  1  0.59456200  0.99498800  0.20861600  1
  Cu  Cu84  1  0.02303800  0.69054500  0.29860200  1
  Cu  Cu85  1  0.47696200  0.69054500  0.79860200  1
  Cu  Cu86  1  0.97696200  0.30945500  0.70139800  1
  Cu  Cu87  1  0.52303800  0.30945500  0.20139800  1
  Cu  Cu88  1  0.98281000  0.31737000  0.19771100  1
  Cu  Cu89  1  0.51719000  0.31737000  0.69771100  1
  Cu  Cu90  1  0.01719000  0.68263000  0.80228900  1
  Cu  Cu91  1  0.48281000  0.68263000  0.30228900  1
