# generated using pymatgen
data_Cu19Ni24C65
_symmetry_space_group_name_H-M   'P 1'
_cell_length_a   11.48769487
_cell_length_b   11.48769487
_cell_length_c   28.16072439
_cell_angle_alpha   90.00000000
_cell_angle_beta   90.00000000
_cell_angle_gamma   120.00000000
_symmetry_Int_Tables_number   1
_chemical_formula_structural   Cu19Ni24C65
_chemical_formula_sum   'Cu19 Ni24 C65'
_cell_volume   3218.40160937
_cell_formula_units_Z   1
loop_
 _symmetry_equiv_pos_site_id
 _symmetry_equiv_pos_as_xyz
  1  'x, y, z'
loop_
 _atom_site_type_symbol
 _atom_site_label
 _atom_site_symmetry_multiplicity
 _atom_site_fract_x
 _atom_site_fract_y
 _atom_site_fract_z
 _atom_site_occupancy
  C  C0  1  0.33353513  0.33379183  0.83354292  1
  C  C1  1  0.01454943  0.66666700  0.16666700  1
  C  C2  1  0.66640930  0.99954117  0.49979008  1
  C  C3  1  0.55504454  0.44495546  0.94575810  1
  C  C4  1  0.22739022  0.77260978  0.27186212  1
  C  C5  1  0.88909094  0.11090906  0.61094274  1
  C  C6  1  0.66620817  0.66646487  0.83354292  1
  C  C7  1  0.33333300  0.98545057  0.16666700  1
  C  C8  1  0.00045883  0.33359070  0.49979008  1
  C  C9  1  0.55504454  0.11008808  0.94575810  1
  C  C10  1  0.22739022  0.45478145  0.27186212  1
  C  C11  1  0.88909094  0.77818188  0.61094274  1
  C  C12  1  0.33353513  0.99974230  0.83354292  1
  C  C13  1  0.01454943  0.34788343  0.16666700  1
  C  C14  1  0.66640930  0.66686813  0.49979008  1
  C  C15  1  0.66620817  0.99974230  0.83354292  1
  C  C16  1  0.33333300  0.34788343  0.16666700  1
  C  C17  1  0.00045883  0.66686813  0.49979008  1
  C  C18  1  0.77757606  0.55515112  0.72239026  1
  C  C19  1  0.43927578  0.87855255  0.06147188  1
  C  C20  1  0.11162246  0.22324492  0.38757490  1
  C  C21  1  0.77757606  0.22242394  0.72239026  1
  C  C22  1  0.43927578  0.56072422  0.06147188  1
  C  C23  1  0.11162246  0.88837754  0.38757490  1
  C  C24  1  0.44484888  0.22242394  0.72239026  1
  C  C25  1  0.12144745  0.56072422  0.06147188  1
  C  C26  1  0.77675508  0.88837754  0.38757490  1
  C  C27  1  0.00025770  0.33379183  0.83354292  1
  C  C28  1  0.65211657  0.66666700  0.16666700  1
  C  C29  1  0.33313187  0.99954117  0.49979008  1
  C  C30  1  0.00025770  0.66646487  0.83354292  1
  C  C31  1  0.65211657  0.98545057  0.16666700  1
  C  C32  1  0.33313187  0.33359070  0.49979008  1
  C  C33  1  0.88991192  0.44495546  0.94575810  1
  C  C34  1  0.54521855  0.77260978  0.27186212  1
  C  C35  1  0.22181812  0.11090906  0.61094274  1
  C  C36  1  0.33333300  0.66666700  0.66666700  1
  C  C37  1  -0.00000000  -0.00000000  0.00150521  1
  C  C38  1  0.66666700  0.33333300  0.33182779  1
  C  C39  1  0.15962552  0.84037448  0.71012197  1
  C  C40  1  0.82694550  0.17305450  0.04432569  1
  C  C41  1  0.49274883  0.50725117  0.37589179  1
  C  C42  1  0.15962552  0.31925004  0.71012197  1
  C  C43  1  0.82694550  0.65389199  0.04432569  1
  C  C44  1  0.49274883  0.98549766  0.37589179  1
  C  C45  1  -0.00000000  0.00000000  0.86975366  1
  C  C46  1  0.66666700  0.33333300  0.20360478  1
  C  C47  1  0.33333300  0.66666700  0.53618532  1
  C  C48  1  0.68074996  0.84037448  0.71012197  1
  C  C49  1  0.34610801  0.17305450  0.04432569  1
  C  C50  1  0.01450234  0.50725117  0.37589179  1
  C  C51  1  0.17391817  0.82608183  0.95744121  1
  C  C52  1  0.83972050  0.16027950  0.28900831  1
  C  C53  1  0.50704148  0.49295852  0.62321103  1
  C  C54  1  0.17391817  0.34783534  0.95744121  1
  C  C55  1  0.83972050  0.67944201  0.28900831  1
  C  C56  1  0.50704148  0.01408296  0.62321103  1
  C  C57  1  0.33333300  0.66666700  0.79714868  1
  C  C58  1  -0.00000000  -0.00000000  0.12972822  1
  C  C59  1  0.66666700  0.33333300  0.46357934  1
  C  C60  1  0.65216466  0.82608183  0.95744121  1
  C  C61  1  0.32055799  0.16027950  0.28900831  1
  C  C62  1  0.98591704  0.49295852  0.62321103  1
  C  C63  1  -0.00000000  0.00000000  0.49911690  1
  C  C64  1  0.66666700  0.33333300  0.83421610  1
  Ni  Ni65  1  0.92127723  0.07872277  0.76963742  1
  Ni  Ni66  1  0.58763106  0.41236894  0.10314841  1
  Ni  Ni67  1  0.25457021  0.74542979  0.43670460  1
  Ni  Ni68  1  0.92127723  0.84255546  0.76963742  1
  Ni  Ni69  1  0.58763106  0.17526212  0.10314841  1
  Ni  Ni70  1  0.25457021  0.50913943  0.43670460  1
  Ni  Ni71  1  -0.00000000  -0.00000000  0.69061989  1
  Ni  Ni72  1  0.66666700  0.33333300  0.02443960  1
  Ni  Ni73  1  0.33333300  0.66666700  0.35744763  1
  Ni  Ni74  1  0.15744454  0.07872277  0.76963742  1
  Ni  Ni75  1  0.82473788  0.41236894  0.10314841  1
  Ni  Ni76  1  0.49086057  0.74542979  0.43670460  1
  Ni  Ni77  1  0.41209679  0.58790321  0.89662840  1
  Ni  Ni78  1  0.07903594  0.92096406  0.23018459  1
  Ni  Ni79  1  0.74538877  0.25461123  0.56369658  1
  Ni  Ni80  1  0.41209679  0.82419357  0.89662840  1
  Ni  Ni81  1  0.07903594  0.15807088  0.23018459  1
  Ni  Ni82  1  0.74538877  0.49077854  0.56369658  1
  Ni  Ni83  1  0.33333300  0.66666700  0.97588637  1
  Ni  Ni84  1  0.00000000  -0.00000000  0.30889340  1
  Ni  Ni85  1  0.66666700  0.33333300  0.64271311  1
  Ni  Ni86  1  0.17580643  0.58790321  0.89662840  1
  Ni  Ni87  1  0.84192912  0.92096406  0.23018459  1
  Ni  Ni88  1  0.50922146  0.25461123  0.56369658  1
  Cu  Cu89  1  0.47800073  0.95600045  0.73868810  1
  Cu  Cu90  1  0.14118759  0.28237619  0.06952392  1
  Cu  Cu91  1  0.81176085  0.62352170  0.40689399  1
  Cu  Cu92  1  0.85490615  0.14509385  0.92643901  1
  Cu  Cu93  1  0.52547841  0.47452159  0.26381008  1
  Cu  Cu94  1  0.18866627  0.81133373  0.59464490  1
  Cu  Cu95  1  0.04399955  0.52199927  0.73868810  1
  Cu  Cu96  1  0.71762381  0.85881241  0.06952392  1
  Cu  Cu97  1  0.37647830  0.18823915  0.40689399  1
  Cu  Cu98  1  0.85490615  0.70981130  0.92643901  1
  Cu  Cu99  1  0.52547841  0.05095781  0.26381008  1
  Cu  Cu100  1  0.18866627  0.37733255  0.59464490  1
  Cu  Cu101  1  0.47800073  0.52199927  0.73868810  1
  Cu  Cu102  1  0.14118759  0.85881241  0.06952392  1
  Cu  Cu103  1  0.81176085  0.18823915  0.40689399  1
  Cu  Cu104  1  0.29018870  0.14509385  0.92643901  1
  Cu  Cu105  1  0.94904219  0.47452159  0.26381008  1
  Cu  Cu106  1  0.62266745  0.81133373  0.59464490  1
  Cu  Cu107  1  0.33333300  0.66666700  0.16666700  1
