# generated using pymatgen
data_Cu2Ni2C15
_symmetry_space_group_name_H-M   'P 1'
_cell_length_a   8.56373165
_cell_length_b   8.53274895
_cell_length_c   5.62797337
_cell_angle_alpha   71.07855338
_cell_angle_beta   70.48286927
_cell_angle_gamma   38.43857735
_symmetry_Int_Tables_number   1
_chemical_formula_structural   Cu2Ni2C15
_chemical_formula_sum   'Cu2 Ni2 C15'
_cell_volume   239.59430310
_cell_formula_units_Z   1
loop_
 _symmetry_equiv_pos_site_id
 _symmetry_equiv_pos_as_xyz
  1  'x, y, z'
loop_
 _atom_site_type_symbol
 _atom_site_label
 _atom_site_symmetry_multiplicity
 _atom_site_fract_x
 _atom_site_fract_y
 _atom_site_fract_z
 _atom_site_occupancy
  C  C0  1  0.62192100  0.12371800  0.87628200  1
  C  C1  1  0.12371800  0.62192100  0.37807900  1
  C  C2  1  0.37807900  0.87628200  0.12371800  1
  C  C3  1  0.87628200  0.37807900  0.62192100  1
  Ni  Ni4  1  0.00000000  0.50000000  0.00000000  1
  Ni  Ni5  1  0.50000000  0.00000000  0.50000000  1
  Cu  Cu6  1  0.73143800  0.26856200  0.26856200  1
  Cu  Cu7  1  0.26856200  0.73143800  0.73143800  1
  C  C8  1  0.07805200  0.67589100  0.92194800  1
  C  C9  1  0.67589100  0.07805200  0.32410900  1
  C  C10  1  0.92194800  0.32410900  0.07805200  1
  C  C11  1  0.32410900  0.92194800  0.67589100  1
  C  C12  1  0.72699500  0.72699500  0.27300500  1
  C  C13  1  0.27300500  0.27300500  0.72699500  1
  C  C14  1  0.75000000  0.75000000  0.75000000  1
  C  C15  1  0.25000000  0.25000000  0.25000000  1
  C  C16  1  0.50000000  0.50000000  0.50000000  1
  C  C17  1  0.00000000  0.00000000  0.50000000  1
  C  C18  1  0.50000000  0.50000000  0.00000000  1
