# generated using pymatgen
data_Cu3NiC10
_symmetry_space_group_name_H-M   'P 1'
_cell_length_a   3.01166600
_cell_length_b   9.29997700
_cell_length_c   10.90831000
_cell_angle_alpha   90.00000000
_cell_angle_beta   90.00000000
_cell_angle_gamma   90.00000000
_symmetry_Int_Tables_number   1
_chemical_formula_structural   Cu3NiC10
_chemical_formula_sum   'Cu6 Ni2 C20'
_cell_volume   305.52457740
_cell_formula_units_Z   2
loop_
 _symmetry_equiv_pos_site_id
 _symmetry_equiv_pos_as_xyz
  1  'x, y, z'
loop_
 _atom_site_type_symbol
 _atom_site_label
 _atom_site_symmetry_multiplicity
 _atom_site_fract_x
 _atom_site_fract_y
 _atom_site_fract_z
 _atom_site_occupancy
  C  C0  1  0.75000000  0.25759500  0.84576100  1
  C  C1  1  0.25000000  0.24240500  0.34576100  1
  C  C2  1  0.75000000  0.75819600  0.65761300  1
  C  C3  1  0.25000000  0.74180400  0.15761300  1
  Ni  Ni4  1  0.75000000  0.41147400  0.10285200  1
  Ni  Ni5  1  0.25000000  0.08852600  0.60285200  1
  Cu  Cu6  1  0.75000000  0.43367800  0.61169000  1
  Cu  Cu7  1  0.75000000  0.94014400  0.89152500  1
  Cu  Cu8  1  0.25000000  0.55985600  0.39152500  1
  Cu  Cu9  1  0.25000000  0.06632200  0.11169000  1
  Cu  Cu10  1  0.75000000  0.91798000  0.39358500  1
  Cu  Cu11  1  0.25000000  0.58202000  0.89358500  1
  C  C12  1  0.75000000  0.11629000  0.48704400  1
  C  C13  1  0.75000000  0.61410300  0.02521600  1
  C  C14  1  0.25000000  0.88589700  0.52521600  1
  C  C15  1  0.25000000  0.38371000  0.98704400  1
  C  C16  1  0.75000000  0.02592000  0.71043200  1
  C  C17  1  0.75000000  0.52359900  0.78527300  1
  C  C18  1  0.25000000  0.97640100  0.28527300  1
  C  C19  1  0.25000000  0.47408000  0.21043200  1
  C  C20  1  0.75000000  0.42289200  0.42786200  1
  C  C21  1  0.75000000  0.91498900  0.07628900  1
  C  C22  1  0.25000000  0.58501100  0.57628900  1
  C  C23  1  0.25000000  0.07710800  0.92786200  1
  C  C24  1  0.75000000  0.21143100  0.14976200  1
  C  C25  1  0.75000000  0.70458900  0.33509600  1
  C  C26  1  0.25000000  0.79541100  0.83509600  1
  C  C27  1  0.25000000  0.28856900  0.64976200  1
