# generated using pymatgen
data_Cu2NiC7
_symmetry_space_group_name_H-M   'P 1'
_cell_length_a   5.70544026
_cell_length_b   5.70541410
_cell_length_c   9.88212017
_cell_angle_alpha   73.22121951
_cell_angle_beta   90.00001230
_cell_angle_gamma   119.99985651
_symmetry_Int_Tables_number   1
_chemical_formula_structural   Cu2NiC7
_chemical_formula_sum   'Cu4 Ni2 C14'
_cell_volume   262.65227509
_cell_formula_units_Z   2
loop_
 _symmetry_equiv_pos_site_id
 _symmetry_equiv_pos_as_xyz
  1  'x, y, z'
loop_
 _atom_site_type_symbol
 _atom_site_label
 _atom_site_symmetry_multiplicity
 _atom_site_fract_x
 _atom_site_fract_y
 _atom_site_fract_z
 _atom_site_occupancy
  Ni  Ni0  1  0.74999500  0.49999600  0.74999900  1
  Ni  Ni1  1  0.25000200  0.50000400  0.24999800  1
  Cu  Cu2  1  0.87501100  0.75000800  0.37499400  1
  Cu  Cu3  1  0.37500500  0.74999900  0.87499400  1
  Cu  Cu4  1  0.62500600  0.25000200  0.12501500  1
  Cu  Cu5  1  0.12499100  0.25000500  0.62499300  1
  C  C6  1  0.99999500  0.00000100  0.99999400  1
  C  C7  1  0.49999500  0.99999200  0.49999800  1
  C  C8  1  0.63670400  0.75779700  0.12110000  1
  C  C9  1  0.13670700  0.75779900  0.62110200  1
  C  C10  1  0.86328800  0.24219500  0.37890200  1
  C  C11  1  0.36328500  0.24218500  0.87890400  1
  C  C12  1  0.37890900  0.24220000  0.37889700  1
  C  C13  1  0.87889800  0.24218700  0.87890900  1
  C  C14  1  0.12110000  0.75781000  0.12109800  1
  C  C15  1  0.62109500  0.75781000  0.62109800  1
  C  C16  1  0.37890000  0.75780800  0.37889900  1
  C  C17  1  0.87890700  0.75781100  0.87890500  1
  C  C18  1  0.12110200  0.24219500  0.12110100  1
  C  C19  1  0.62110500  0.24219700  0.62110000  1
