# generated using pymatgen
data_Cu6Ni2C5
_symmetry_space_group_name_H-M   'P 1'
_cell_length_a   8.23224294
_cell_length_b   8.23224294
_cell_length_c   6.98999453
_cell_angle_alpha   89.04689437
_cell_angle_beta   89.04689437
_cell_angle_gamma   72.83619300
_symmetry_Int_Tables_number   1
_chemical_formula_structural   Cu6Ni2C5
_chemical_formula_sum   'Cu12 Ni4 C10'
_cell_volume   452.51726723
_cell_formula_units_Z   2
loop_
 _symmetry_equiv_pos_site_id
 _symmetry_equiv_pos_as_xyz
  1  'x, y, z'
loop_
 _atom_site_type_symbol
 _atom_site_label
 _atom_site_symmetry_multiplicity
 _atom_site_fract_x
 _atom_site_fract_y
 _atom_site_fract_z
 _atom_site_occupancy
  C  C0  1  0.88854400  0.11145600  0.75000000  1
  C  C1  1  0.11145600  0.88854400  0.25000000  1
  C  C2  1  0.00000000  0.50000000  0.00000000  1
  C  C3  1  0.50000000  0.00000000  0.50000000  1
  C  C4  1  0.65737200  0.34262800  0.25000000  1
  C  C5  1  0.34262800  0.65737200  0.75000000  1
  C  C6  1  0.73180800  0.93260200  0.08829500  1
  C  C7  1  0.06739800  0.26819200  0.41170500  1
  C  C8  1  0.26819200  0.06739800  0.91170500  1
  C  C9  1  0.93260200  0.73180800  0.58829500  1
  Ni  Ni10  1  0.27099800  0.47663100  0.11865900  1
  Ni  Ni11  1  0.52336900  0.72900200  0.38134100  1
  Ni  Ni12  1  0.72900200  0.52336900  0.88134100  1
  Ni  Ni13  1  0.47663100  0.27099800  0.61865900  1
  Cu  Cu14  1  0.79814900  0.10616600  0.00678700  1
  Cu  Cu15  1  0.89383400  0.20185100  0.49321300  1
  Cu  Cu16  1  0.20185100  0.89383400  0.99321300  1
  Cu  Cu17  1  0.10616600  0.79814900  0.50678700  1
  Cu  Cu18  1  0.94644400  0.37497100  0.21667400  1
  Cu  Cu19  1  0.62502900  0.05355600  0.28332600  1
  Cu  Cu20  1  0.05355600  0.62502900  0.78332600  1
  Cu  Cu21  1  0.37497100  0.94644400  0.71667400  1
  Cu  Cu22  1  0.91705900  0.79841200  0.17832400  1
  Cu  Cu23  1  0.20158800  0.08294100  0.32167600  1
  Cu  Cu24  1  0.08294100  0.20158800  0.82167600  1
  Cu  Cu25  1  0.79841200  0.91705900  0.67832400  1
