# generated using pymatgen
data_Cu(NiC)4
_symmetry_space_group_name_H-M   'P 1'
_cell_length_a   8.24218700
_cell_length_b   6.99169100
_cell_length_c   12.12481260
_cell_angle_alpha   90.00000000
_cell_angle_beta   90.56933739
_cell_angle_gamma   90.00000000
_symmetry_Int_Tables_number   1
_chemical_formula_structural   Cu(NiC)4
_chemical_formula_sum   'Cu8 Ni32 C32'
_cell_volume   698.67995442
_cell_formula_units_Z   8
loop_
 _symmetry_equiv_pos_site_id
 _symmetry_equiv_pos_as_xyz
  1  'x, y, z'
loop_
 _atom_site_type_symbol
 _atom_site_label
 _atom_site_symmetry_multiplicity
 _atom_site_fract_x
 _atom_site_fract_y
 _atom_site_fract_z
 _atom_site_occupancy
  C  C0  1  0.25438800  0.97319300  0.50621300  1
  C  C1  1  0.74561200  0.47319300  0.99378700  1
  C  C2  1  0.74561200  0.02680700  0.49378700  1
  C  C3  1  0.25438800  0.52680700  0.00621300  1
  Ni  Ni4  1  0.47033800  0.95783100  0.88548200  1
  Ni  Ni5  1  0.52966200  0.45783100  0.61451800  1
  Ni  Ni6  1  0.52966200  0.04216900  0.11451800  1
  Ni  Ni7  1  0.47033800  0.54216900  0.38548200  1
  Ni  Ni8  1  0.64542500  0.86048800  0.84300300  1
  Ni  Ni9  1  0.35457500  0.36048800  0.65699700  1
  Ni  Ni10  1  0.35457500  0.13951200  0.15699700  1
  Ni  Ni11  1  0.64542500  0.63951200  0.34300300  1
  Ni  Ni12  1  0.99638000  0.88540900  0.86609200  1
  Ni  Ni13  1  0.00362000  0.38540900  0.63390800  1
  Ni  Ni14  1  0.00362000  0.11459100  0.13390800  1
  Ni  Ni15  1  0.99638000  0.61459100  0.36609200  1
  Ni  Ni16  1  0.11368800  0.08435200  0.88495200  1
  Ni  Ni17  1  0.88631200  0.58435200  0.61504800  1
  Ni  Ni18  1  0.88631200  0.91564800  0.11504800  1
  Ni  Ni19  1  0.11368800  0.41564800  0.38495200  1
  Ni  Ni20  1  0.51228900  0.95236000  0.74962700  1
  Ni  Ni21  1  0.48771100  0.45236000  0.75037300  1
  Ni  Ni22  1  0.48771100  0.04764000  0.25037300  1
  Ni  Ni23  1  0.51228900  0.54764000  0.24962700  1
  Ni  Ni24  1  0.98810700  0.06375400  0.77396900  1
  Ni  Ni25  1  0.01189300  0.56375400  0.72603100  1
  Ni  Ni26  1  0.01189300  0.93624600  0.22603100  1
  Ni  Ni27  1  0.98810700  0.43624600  0.27396900  1
  Ni  Ni28  1  0.15519500  0.92800500  0.78268400  1
  Ni  Ni29  1  0.84480500  0.42800500  0.71731600  1
  Ni  Ni30  1  0.84480500  0.07199500  0.21731600  1
  Ni  Ni31  1  0.15519500  0.57199500  0.28268400  1
  Ni  Ni32  1  0.61869000  0.09975300  0.83295100  1
  Ni  Ni33  1  0.38131000  0.59975400  0.66704900  1
  Ni  Ni34  1  0.38131000  0.90024600  0.16704900  1
  Ni  Ni35  1  0.61869000  0.40024700  0.33295100  1
  Cu  Cu36  1  0.06342200  0.99132900  0.82826800  1
  Cu  Cu37  1  0.93657800  0.49132900  0.67173200  1
  Cu  Cu38  1  0.93657800  0.00867100  0.17173200  1
  Cu  Cu39  1  0.06342200  0.50867100  0.32826800  1
  Cu  Cu40  1  0.56141800  0.96803700  0.82783300  1
  Cu  Cu41  1  0.43858200  0.46803700  0.67216700  1
  Cu  Cu42  1  0.43858200  0.03196300  0.17216700  1
  Cu  Cu43  1  0.56141800  0.53196300  0.32783300  1
  C  C44  1  0.01852400  0.83808600  0.54432500  1
  C  C45  1  0.98147600  0.33808600  0.95567500  1
  C  C46  1  0.98147600  0.16191400  0.45567500  1
  C  C47  1  0.01852400  0.66191400  0.04432500  1
  C  C48  1  0.28914000  0.83912600  0.67515800  1
  C  C49  1  0.71086000  0.33912600  0.82484200  1
  C  C50  1  0.71086000  0.16087400  0.32484200  1
  C  C51  1  0.28914000  0.66087400  0.17515800  1
  C  C52  1  0.50076100  0.93154400  0.40630400  1
  C  C53  1  0.49923900  0.43154400  0.09369600  1
  C  C54  1  0.49923900  0.06845600  0.59369600  1
  C  C55  1  0.50076100  0.56845600  0.90630400  1
  C  C56  1  0.30574800  0.24184700  0.42559500  1
  C  C57  1  0.69425200  0.74184700  0.07440500  1
  C  C58  1  0.69425200  0.75815300  0.57440500  1
  C  C59  1  0.30574800  0.25815300  0.92559500  1
  C  C60  1  0.30734100  0.67108600  0.48127800  1
  C  C61  1  0.69265900  0.17108600  0.01872200  1
  C  C62  1  0.69265900  0.32891400  0.51872200  1
  C  C63  1  0.30734100  0.82891400  0.98127800  1
  C  C64  1  0.18619800  0.19611700  0.62881300  1
  C  C65  1  0.81380200  0.69611700  0.87118700  1
  C  C66  1  0.81380200  0.80388300  0.37118700  1
  C  C67  1  0.18619800  0.30388300  0.12881300  1
  C  C68  1  0.17078200  0.92211300  0.33919000  1
  C  C69  1  0.82921800  0.42211300  0.16081000  1
  C  C70  1  0.82921800  0.07788700  0.66081000  1
  C  C71  1  0.17078200  0.57788700  0.83919000  1
