# generated using pymatgen
data_CuNi7C3
_symmetry_space_group_name_H-M   'P 1'
_cell_length_a   3.94206000
_cell_length_b   6.20886894
_cell_length_c   6.20886867
_cell_angle_alpha   114.75401877
_cell_angle_beta   90.00000000
_cell_angle_gamma   90.00000000
_symmetry_Int_Tables_number   1
_chemical_formula_structural   CuNi7C3
_chemical_formula_sum   'Cu1 Ni7 C3'
_cell_volume   138.00298334
_cell_formula_units_Z   1
loop_
 _symmetry_equiv_pos_site_id
 _symmetry_equiv_pos_as_xyz
  1  'x, y, z'
loop_
 _atom_site_type_symbol
 _atom_site_label
 _atom_site_symmetry_multiplicity
 _atom_site_fract_x
 _atom_site_fract_y
 _atom_site_fract_z
 _atom_site_occupancy
  C  C0  1  0.00000000  0.00000000  0.00000000  1
  C  C1  1  0.00000000  0.31648800  0.68351200  1
  C  C2  1  0.00000000  0.68351200  0.31648800  1
  Ni  Ni3  1  0.00000000  0.33085100  0.04828000  1
  Ni  Ni4  1  0.00000000  0.50000000  0.50000000  1
  Ni  Ni5  1  0.50000000  0.30149900  0.69850100  1
  Ni  Ni6  1  0.50000000  0.69850100  0.30149900  1
  Ni  Ni7  1  0.00000000  0.04828000  0.33085100  1
  Ni  Ni8  1  0.00000000  0.66914900  0.95172000  1
  Ni  Ni9  1  0.00000000  0.95172000  0.66914900  1
  Cu  Cu10  1  0.50000000  0.00000000  0.00000000  1
