# generated using pymatgen
data_CuNi3C2
_symmetry_space_group_name_H-M   'P 1'
_cell_length_a   5.78596381
_cell_length_b   5.78596381
_cell_length_c   7.37820800
_cell_angle_alpha   50.86221203
_cell_angle_beta   50.86221203
_cell_angle_gamma   46.31404708
_symmetry_Int_Tables_number   1
_chemical_formula_structural   CuNi3C2
_chemical_formula_sum   'Cu1 Ni3 C2'
_cell_volume   129.87798132
_cell_formula_units_Z   1
loop_
 _symmetry_equiv_pos_site_id
 _symmetry_equiv_pos_as_xyz
  1  'x, y, z'
loop_
 _atom_site_type_symbol
 _atom_site_label
 _atom_site_symmetry_multiplicity
 _atom_site_fract_x
 _atom_site_fract_y
 _atom_site_fract_z
 _atom_site_occupancy
  C  C0  1  0.45574500  0.45574500  0.79466300  1
  C  C1  1  0.54354100  0.54354100  0.20508500  1
  Ni  Ni2  1  0.16440400  0.16440400  0.38743300  1
  Ni  Ni3  1  0.16545300  0.16545300  0.78210700  1
  Ni  Ni4  1  0.83525500  0.83525500  0.22175600  1
  Cu  Cu5  1  0.83560100  0.83560100  0.60895600  1
