# generated using pymatgen
data_CuNi5C7
_symmetry_space_group_name_H-M   'P 1'
_cell_length_a   6.04307571
_cell_length_b   6.04307571
_cell_length_c   12.55737500
_cell_angle_alpha   90.00000000
_cell_angle_beta   90.00000000
_cell_angle_gamma   119.99999684
_symmetry_Int_Tables_number   1
_chemical_formula_structural   CuNi5C7
_chemical_formula_sum   'Cu2 Ni10 C14'
_cell_volume   397.14178191
_cell_formula_units_Z   2
loop_
 _symmetry_equiv_pos_site_id
 _symmetry_equiv_pos_as_xyz
  1  'x, y, z'
loop_
 _atom_site_type_symbol
 _atom_site_label
 _atom_site_symmetry_multiplicity
 _atom_site_fract_x
 _atom_site_fract_y
 _atom_site_fract_z
 _atom_site_occupancy
  Ni  Ni0  1  0.00000000  0.00000000  0.87832000  1
  Ni  Ni1  1  0.00000000  0.00000000  0.37832000  1
  Ni  Ni2  1  0.00000000  0.00000000  0.12168000  1
  Ni  Ni3  1  0.00000000  0.00000000  0.62168000  1
  Ni  Ni4  1  0.50000000  0.50000000  0.00000000  1
  Ni  Ni5  1  0.00000000  0.50000000  0.00000000  1
  Ni  Ni6  1  0.50000000  0.00000000  0.00000000  1
  Ni  Ni7  1  0.00000000  0.50000000  0.50000000  1
  Ni  Ni8  1  0.50000000  0.00000000  0.50000000  1
  Ni  Ni9  1  0.50000000  0.50000000  0.50000000  1
  Cu  Cu10  1  0.66666700  0.33333300  0.75000000  1
  Cu  Cu11  1  0.33333300  0.66666700  0.25000000  1
  C  C12  1  0.33333300  0.66666700  0.75000000  1
  C  C13  1  0.66666700  0.33333300  0.25000000  1
  C  C14  1  0.60488300  0.65121000  0.84213800  1
  C  C15  1  0.04632700  0.39511700  0.84213800  1
  C  C16  1  0.34879000  0.95367300  0.84213800  1
  C  C17  1  0.95367300  0.34879000  0.34213800  1
  C  C18  1  0.39511700  0.04632700  0.34213800  1
  C  C19  1  0.65121000  0.60488300  0.34213800  1
  C  C20  1  0.39511700  0.34879000  0.15786200  1
  C  C21  1  0.95367300  0.60488300  0.15786200  1
  C  C22  1  0.65121000  0.04632700  0.15786200  1
  C  C23  1  0.04632700  0.65121000  0.65786200  1
  C  C24  1  0.60488300  0.95367300  0.65786200  1
  C  C25  1  0.34879000  0.39511700  0.65786200  1
