# generated using pymatgen
data_Cu7NiC5
_symmetry_space_group_name_H-M   'P 1'
_cell_length_a   6.52958419
_cell_length_b   12.19781765
_cell_length_c   11.75428547
_cell_angle_alpha   97.51376349
_cell_angle_beta   73.87384011
_cell_angle_gamma   118.08580153
_symmetry_Int_Tables_number   1
_chemical_formula_structural   Cu7NiC5
_chemical_formula_sum   'Cu28 Ni4 C20'
_cell_volume   793.44838932
_cell_formula_units_Z   4
loop_
 _symmetry_equiv_pos_site_id
 _symmetry_equiv_pos_as_xyz
  1  'x, y, z'
loop_
 _atom_site_type_symbol
 _atom_site_label
 _atom_site_symmetry_multiplicity
 _atom_site_fract_x
 _atom_site_fract_y
 _atom_site_fract_z
 _atom_site_occupancy
  C  C0  1  0.51704400  0.75000000  0.96591100  1
  C  C1  1  0.48295600  0.25000000  0.03408900  1
  C  C2  1  0.38845400  0.75000000  0.22309200  1
  C  C3  1  0.61154600  0.25000000  0.77690800  1
  Ni  Ni4  1  0.91583400  0.85557900  0.29228500  1
  Ni  Ni5  1  0.08416600  0.14442100  0.70771500  1
  Ni  Ni6  1  0.79188100  0.64442100  0.29228500  1
  Ni  Ni7  1  0.20811900  0.35557900  0.70771500  1
  Cu  Cu8  1  0.97684500  0.50349000  0.30186700  1
  Cu  Cu9  1  0.02315500  0.49651000  0.69813300  1
  Cu  Cu10  1  0.72128800  0.99651000  0.30186700  1
  Cu  Cu11  1  0.27871200  0.00349000  0.69813300  1
  Cu  Cu12  1  0.58778800  0.62429800  0.60007800  1
  Cu  Cu13  1  0.41221200  0.37570200  0.39992200  1
  Cu  Cu14  1  0.81213400  0.87570200  0.60007800  1
  Cu  Cu15  1  0.18786600  0.12429800  0.39992200  1
  Cu  Cu16  1  0.99947600  0.86567600  0.80570200  1
  Cu  Cu17  1  0.00052400  0.13432400  0.19429800  1
  Cu  Cu18  1  0.19482200  0.63432400  0.80570200  1
  Cu  Cu19  1  0.80517800  0.36567600  0.19429800  1
  Cu  Cu20  1  0.10809400  0.65334200  0.94681200  1
  Cu  Cu21  1  0.89190600  0.34665800  0.05318800  1
  Cu  Cu22  1  0.94509500  0.84665800  0.94681200  1
  Cu  Cu23  1  0.05490500  0.15334200  0.05318800  1
  Cu  Cu24  1  0.49108700  0.42054800  0.89944400  1
  Cu  Cu25  1  0.50891300  0.57945200  0.10055600  1
  Cu  Cu26  1  0.60946900  0.07945200  0.89944400  1
  Cu  Cu27  1  0.39053100  0.92054800  0.10055600  1
  Cu  Cu28  1  0.20861800  0.62977500  0.63351900  1
  Cu  Cu29  1  0.79138200  0.37022500  0.36648100  1
  Cu  Cu30  1  0.15786300  0.87022500  0.63351900  1
  Cu  Cu31  1  0.84213700  0.12977500  0.36648100  1
  Cu  Cu32  1  0.84809200  0.86750400  0.53378400  1
  Cu  Cu33  1  0.15190800  0.13249600  0.46621600  1
  Cu  Cu34  1  0.61812400  0.63249600  0.53378400  1
  Cu  Cu35  1  0.38187600  0.36750400  0.46621600  1
  C  C36  1  0.40607500  0.84489400  0.09199100  1
  C  C37  1  0.59392500  0.15510600  0.90800900  1
  C  C38  1  0.50193400  0.65510600  0.09199100  1
  C  C39  1  0.49806600  0.34489400  0.90800900  1
  C  C40  1  0.20389000  0.90670400  0.70666100  1
  C  C41  1  0.79611000  0.09329600  0.29333900  1
  C  C42  1  0.08944900  0.59329600  0.70666100  1
  C  C43  1  0.91055100  0.40670400  0.29333900  1
  C  C44  1  0.05737700  0.64011400  0.30349800  1
  C  C45  1  0.94262300  0.35988600  0.69650200  1
  C  C46  1  0.63912500  0.85988600  0.30349800  1
  C  C47  1  0.36087500  0.14011400  0.69650200  1
  C  C48  1  0.25104000  0.66154400  0.88649700  1
  C  C49  1  0.74896000  0.33845600  0.11350300  1
  C  C50  1  0.86246300  0.83845600  0.88649700  1
  C  C51  1  0.13753700  0.16154400  0.11350300  1
