# generated using pymatgen
data_Cu3NiC36
_symmetry_space_group_name_H-M   'P 1'
_cell_length_a   9.84316700
_cell_length_b   9.84847221
_cell_length_c   9.89396781
_cell_angle_alpha   86.98584670
_cell_angle_beta   86.96458691
_cell_angle_gamma   87.50298340
_symmetry_Int_Tables_number   1
_chemical_formula_structural   Cu3NiC36
_chemical_formula_sum   'Cu6 Ni2 C72'
_cell_volume   955.65193262
_cell_formula_units_Z   2
loop_
 _symmetry_equiv_pos_site_id
 _symmetry_equiv_pos_as_xyz
  1  'x, y, z'
loop_
 _atom_site_type_symbol
 _atom_site_label
 _atom_site_symmetry_multiplicity
 _atom_site_fract_x
 _atom_site_fract_y
 _atom_site_fract_z
 _atom_site_occupancy
  C  C0  1  0.01609500  0.95323400  0.99843100  1
  C  C1  1  0.85582800  0.26677500  0.94727000  1
  C  C2  1  0.26564100  0.92881700  0.86741800  1
  C  C3  1  0.35209500  0.44466000  0.77133200  1
  C  C4  1  0.05015300  0.15037300  0.72832400  1
  C  C5  1  0.57561700  0.23360100  0.63505800  1
  C  C6  1  0.23640800  0.64037800  0.55716000  1
  C  C7  1  0.54888300  0.48288800  0.50344100  1
  C  C8  1  0.45299200  0.76382000  0.35415500  1
  C  C9  1  0.65255500  0.53801100  0.22829500  1
  C  C10  1  0.95510600  0.85476100  0.26679700  1
  C  C11  1  0.73191400  0.04978900  0.14809300  1
  Ni  Ni12  1  0.75473900  0.97798900  0.52930300  1
  Ni  Ni13  1  0.46875200  0.24779500  0.02874900  1
  Cu  Cu14  1  0.52440900  0.74517400  0.96711500  1
  Cu  Cu15  1  0.74834000  0.75325100  0.74887500  1
  Cu  Cu16  1  0.96372300  0.53390900  0.74837400  1
  Cu  Cu17  1  0.25264200  0.03919000  0.46504600  1
  Cu  Cu18  1  0.02837900  0.46859500  0.25009800  1
  Cu  Cu19  1  0.24968600  0.25242100  0.24765700  1
  C  C20  1  0.14153400  0.33008300  0.94780800  1
  C  C21  1  0.66835800  0.05022700  0.86007700  1
  C  C22  1  0.64459100  0.44995800  0.82542700  1
  C  C23  1  0.04813200  0.85664000  0.67200500  1
  C  C24  1  0.45382000  0.83498600  0.64298100  1
  C  C25  1  0.17026500  0.35351800  0.55068300  1
  C  C26  1  0.82448800  0.65144400  0.45034600  1
  C  C27  1  0.55238300  0.17941400  0.35619000  1
  C  C28  1  0.95122300  0.14760600  0.32590500  1
  C  C29  1  0.35223400  0.54587700  0.16849400  1
  C  C30  1  0.32552100  0.95208600  0.14844200  1
  C  C31  1  0.84490600  0.67650800  0.04727500  1
  C  C32  1  0.59814900  0.38274500  0.96514400  1
  C  C33  1  0.77619400  0.09289600  0.95316200  1
  C  C34  1  0.87631700  0.67130200  0.88676200  1
  C  C35  1  0.66328900  0.88892600  0.87914200  1
  C  C36  1  0.29400600  0.30728500  0.90758000  1
  C  C37  1  0.52430800  0.11161800  0.90288700  1
  C  C38  1  0.05010800  0.21830100  0.90695000  1
  C  C39  1  0.09536100  0.47019000  0.88298900  1
  C  C40  1  0.61929900  0.60996400  0.82852800  1
  C  C41  1  0.79906800  0.41202600  0.80880100  1
  C  C42  1  0.41874300  0.80956300  0.79802800  1
  C  C43  1  0.08977300  0.93897400  0.79007500  1
  C  C44  1  0.88695700  0.88374800  0.66813700  1
  C  C45  1  0.55687800  0.40717000  0.71247500  1
  C  C46  1  0.69469000  0.09253900  0.70937100  1
  C  C47  1  0.08427100  0.70136600  0.68482400  1
  C  C48  1  0.61553100  0.84012100  0.61840600  1
  C  C49  1  0.82718200  0.62263800  0.61251900  1
  C  C50  1  0.38800000  0.97421700  0.60191100  1
  C  C51  1  0.03090400  0.39218100  0.62166200  1
  C  C52  1  0.28140800  0.44378900  0.59434800  1
  C  C53  1  0.41019600  0.72182500  0.55612000  1
  C  C54  1  0.19501400  0.19800500  0.58761500  1
  C  C55  1  0.11376000  0.91008800  0.53613600  1
  C  C56  1  0.88751100  0.10993700  0.46998000  1
  C  C57  1  0.82504700  0.80598800  0.41557400  1
  C  C58  1  0.69827000  0.58557200  0.40630000  1
  C  C59  1  0.58764600  0.29356500  0.44349200  1
  C  C60  1  0.96083800  0.59078900  0.39022000  1
  C  C61  1  0.61533700  0.03825300  0.40692900  1
  C  C62  1  0.16415100  0.37559900  0.39179000  1
  C  C63  1  0.38922700  0.17049000  0.37600200  1
  C  C64  1  0.31000400  0.91612400  0.30474000  1
  C  C65  1  0.92073600  0.29929400  0.29060400  1
  C  C66  1  0.44584900  0.59038000  0.27527800  1
  C  C67  1  0.11295400  0.12103900  0.32979400  1
  C  C68  1  0.90653500  0.05127500  0.22224500  1
  C  C69  1  0.19960300  0.57310400  0.20112200  1
  C  C70  1  0.59402000  0.19375200  0.20411400  1
  C  C71  1  0.38255800  0.38358800  0.16270100  1
  C  C72  1  0.89136900  0.53978300  0.11676300  1
  C  C73  1  0.91324200  0.80045100  0.09194000  1
  C  C74  1  0.46245500  0.88256600  0.10195500  1
  C  C75  1  0.68678000  0.68369300  0.07610900  1
  C  C76  1  0.33789800  0.11401600  0.12314200  1
  C  C77  1  0.20787800  0.91632000  0.06517600  1
  C  C78  1  0.12268400  0.33495900  0.10827500  1
  C  C79  1  0.39332500  0.60746900  0.02555400  1
