# generated using pymatgen
data_Cu9NiC8
_symmetry_space_group_name_H-M   'P 1'
_cell_length_a   8.75354794
_cell_length_b   8.75354794
_cell_length_c   7.44533300
_cell_angle_alpha   90.00000000
_cell_angle_beta   90.00000000
_cell_angle_gamma   109.78463931
_symmetry_Int_Tables_number   1
_chemical_formula_structural   Cu9NiC8
_chemical_formula_sum   'Cu18 Ni2 C16'
_cell_volume   536.82019787
_cell_formula_units_Z   2
loop_
 _symmetry_equiv_pos_site_id
 _symmetry_equiv_pos_as_xyz
  1  'x, y, z'
loop_
 _atom_site_type_symbol
 _atom_site_label
 _atom_site_symmetry_multiplicity
 _atom_site_fract_x
 _atom_site_fract_y
 _atom_site_fract_z
 _atom_site_occupancy
  C  C0  1  0.23858600  0.23858600  0.00000000  1
  C  C1  1  0.76141400  0.76141400  0.50000000  1
  C  C2  1  0.99495800  0.73973900  0.06127600  1
  C  C3  1  0.73973900  0.99495800  0.93872400  1
  C  C4  1  0.00504200  0.26026100  0.56127600  1
  C  C5  1  0.26026100  0.00504200  0.43872400  1
  C  C6  1  0.63540400  0.36459600  0.25000000  1
  C  C7  1  0.36459600  0.63540400  0.75000000  1
  C  C8  1  0.36206900  0.63793100  0.25000000  1
  C  C9  1  0.63793100  0.36206900  0.75000000  1
  C  C10  1  0.41032400  0.98583500  0.03123900  1
  C  C11  1  0.98583500  0.41032400  0.96876100  1
  C  C12  1  0.58967600  0.01416500  0.53123900  1
  C  C13  1  0.01416500  0.58967600  0.46876100  1
  C  C14  1  0.63045900  0.63045900  0.00000000  1
  C  C15  1  0.36954100  0.36954100  0.50000000  1
  Ni  Ni16  1  0.94811900  0.05188100  0.25000000  1
  Ni  Ni17  1  0.05188100  0.94811900  0.75000000  1
  Cu  Cu18  1  0.49112900  0.49112900  0.00000000  1
  Cu  Cu19  1  0.50887100  0.50887100  0.50000000  1
  Cu  Cu20  1  0.52228300  0.13990700  0.99237800  1
  Cu  Cu21  1  0.13990700  0.52228300  0.00762200  1
  Cu  Cu22  1  0.47771700  0.86009300  0.49237800  1
  Cu  Cu23  1  0.86009300  0.47771700  0.50762200  1
  Cu  Cu24  1  0.84796200  0.44636600  0.01265800  1
  Cu  Cu25  1  0.44636600  0.84796200  0.98734200  1
  Cu  Cu26  1  0.15203800  0.55363400  0.51265800  1
  Cu  Cu27  1  0.55363400  0.15203800  0.48734200  1
  Cu  Cu28  1  0.30319000  0.30354700  0.66283900  1
  Cu  Cu29  1  0.30354700  0.30319000  0.33716100  1
  Cu  Cu30  1  0.69681000  0.69645300  0.16283900  1
  Cu  Cu31  1  0.69645300  0.69681000  0.83716100  1
  Cu  Cu32  1  0.26622800  0.97197400  0.11713400  1
  Cu  Cu33  1  0.97197400  0.26622800  0.88286600  1
  Cu  Cu34  1  0.73377200  0.02802600  0.61713400  1
  Cu  Cu35  1  0.02802600  0.73377200  0.38286600  1
