# generated using pymatgen
data_Cu2Ni5C
_symmetry_space_group_name_H-M   'P 1'
_cell_length_a   9.31332961
_cell_length_b   9.31332961
_cell_length_c   9.31332961
_cell_angle_alpha   120.74373441
_cell_angle_beta   120.74373441
_cell_angle_gamma   88.71657006
_symmetry_Int_Tables_number   1
_chemical_formula_structural   Cu2Ni5C
_chemical_formula_sum   'Cu4 Ni10 C2'
_cell_volume   564.64040338
_cell_formula_units_Z   2
loop_
 _symmetry_equiv_pos_site_id
 _symmetry_equiv_pos_as_xyz
  1  'x, y, z'
loop_
 _atom_site_type_symbol
 _atom_site_label
 _atom_site_symmetry_multiplicity
 _atom_site_fract_x
 _atom_site_fract_y
 _atom_site_fract_z
 _atom_site_occupancy
  Ni  Ni0  1  0.00000000  0.00000000  0.00000000  1
  Ni  Ni1  1  0.50000000  0.50000000  0.00000000  1
  Ni  Ni2  1  0.99635900  0.49635900  0.79411900  1
  Ni  Ni3  1  0.70224000  0.20224000  0.20588100  1
  Ni  Ni4  1  0.49635900  0.70224000  0.50000000  1
  Ni  Ni5  1  0.20224000  0.99635900  0.50000000  1
  Ni  Ni6  1  0.00364100  0.50364100  0.20588100  1
  Ni  Ni7  1  0.29776000  0.79776000  0.79411900  1
  Ni  Ni8  1  0.50364100  0.29776000  0.50000000  1
  Ni  Ni9  1  0.79776000  0.00364100  0.50000000  1
  Cu  Cu10  1  0.34390800  0.84390800  0.18781500  1
  Cu  Cu11  1  0.65609200  0.15609200  0.81218500  1
  Cu  Cu12  1  0.84390800  0.65609200  0.50000000  1
  Cu  Cu13  1  0.15609200  0.34390800  0.50000000  1
  C  C14  1  0.75000000  0.75000000  0.00000000  1
  C  C15  1  0.25000000  0.25000000  0.00000000  1
