# generated using pymatgen
data_CuNiC40
_symmetry_space_group_name_H-M   'P 1'
_cell_length_a   9.17717098
_cell_length_b   9.17717098
_cell_length_c   9.17717098
_cell_angle_alpha   134.08435223
_cell_angle_beta   132.01440210
_cell_angle_gamma   68.59032291
_symmetry_Int_Tables_number   1
_chemical_formula_structural   CuNiC40
_chemical_formula_sum   'Cu1 Ni1 C40'
_cell_volume   405.09602828
_cell_formula_units_Z   1
loop_
 _symmetry_equiv_pos_site_id
 _symmetry_equiv_pos_as_xyz
  1  'x, y, z'
loop_
 _atom_site_type_symbol
 _atom_site_label
 _atom_site_symmetry_multiplicity
 _atom_site_fract_x
 _atom_site_fract_y
 _atom_site_fract_z
 _atom_site_occupancy
  Ni  Ni0  1  0.50000000  0.50000000  0.00000000  1
  C  C1  1  0.20400300  0.79546000  0.16735200  1
  C  C2  1  0.62810800  0.03665100  0.83264800  1
  C  C3  1  0.79599700  0.96334900  0.59145700  1
  C  C4  1  0.37189200  0.20454000  0.40854300  1
  C  C5  1  0.18856500  0.01450200  0.39077000  1
  C  C6  1  0.62373200  0.79779500  0.60923000  1
  C  C7  1  0.81143500  0.20220500  0.82593700  1
  C  C8  1  0.37626800  0.98549800  0.17406300  1
  C  C9  1  0.99273900  0.81889100  0.12103400  1
  C  C10  1  0.69785700  0.87170500  0.87896600  1
  C  C11  1  0.00726100  0.12829500  0.82615200  1
  C  C12  1  0.30214300  0.18110900  0.17384800  1
  C  C13  1  0.09213400  0.44473700  0.64465900  1
  C  C14  1  0.80007800  0.44747500  0.35534100  1
  C  C15  1  0.90786600  0.55252500  0.35260300  1
  C  C16  1  0.19992200  0.55526300  0.64739700  1
  C  C17  1  0.17934000  0.57377000  0.38556800  1
  C  C18  1  0.18820100  0.79377200  0.61443200  1
  C  C19  1  0.82066000  0.20622800  0.39442900  1
  C  C20  1  0.81179900  0.42623000  0.60557100  1
  Cu  Cu21  1  0.00000000  0.00000000  0.00000000  1
  C  C22  1  0.32086900  0.42855000  0.11223200  1
  C  C23  1  0.31631800  0.20863700  0.88776800  1
  C  C24  1  0.67913100  0.79136300  0.10768100  1
  C  C25  1  0.68368200  0.57145000  0.89231900  1
  C  C26  1  0.11006500  0.89785800  0.19364500  1
  C  C27  1  0.70421300  0.91642000  0.80635500  1
  C  C28  1  0.88993500  0.08358000  0.78779300  1
  C  C29  1  0.29578700  0.10214200  0.21220700  1
  C  C30  1  0.39808900  0.58440700  0.19450700  1
  C  C31  1  0.38990000  0.20358100  0.80549300  1
  C  C32  1  0.60191100  0.79641900  0.18631800  1
  C  C33  1  0.61010000  0.41559300  0.81368200  1
  C  C34  1  0.24903100  0.43344600  0.19317200  1
  C  C35  1  0.24027400  0.05585900  0.80682800  1
  C  C36  1  0.75096900  0.94414100  0.18441500  1
  C  C37  1  0.75972600  0.56655400  0.81558500  1
  C  C38  1  0.22243300  0.50000000  0.72243300  1
  C  C39  1  0.77756700  0.50000000  0.27756700  1
  C  C40  1  0.14363300  0.64363300  0.50000000  1
  C  C41  1  0.85636700  0.35636700  0.50000000  1
