# generated using pymatgen
data_CuNiC15
_symmetry_space_group_name_H-M   'P 1'
_cell_length_a   8.74907200
_cell_length_b   8.74907200
_cell_length_c   11.99583200
_cell_angle_alpha   90.00000000
_cell_angle_beta   90.00000000
_cell_angle_gamma   90.00000000
_symmetry_Int_Tables_number   1
_chemical_formula_structural   CuNiC15
_chemical_formula_sum   'Cu4 Ni4 C60'
_cell_volume   918.23608552
_cell_formula_units_Z   4
loop_
 _symmetry_equiv_pos_site_id
 _symmetry_equiv_pos_as_xyz
  1  'x, y, z'
loop_
 _atom_site_type_symbol
 _atom_site_label
 _atom_site_symmetry_multiplicity
 _atom_site_fract_x
 _atom_site_fract_y
 _atom_site_fract_z
 _atom_site_occupancy
  Ni  Ni0  1  0.64637000  0.64637000  0.50000000  1
  Ni  Ni1  1  0.35363000  0.35363000  0.50000000  1
  Ni  Ni2  1  0.85363000  0.14637000  0.00000000  1
  Ni  Ni3  1  0.14637000  0.85363000  0.00000000  1
  Cu  Cu4  1  0.23373000  0.76627000  0.50000000  1
  Cu  Cu5  1  0.76627000  0.23373000  0.50000000  1
  Cu  Cu6  1  0.26627000  0.26627000  0.00000000  1
  Cu  Cu7  1  0.73373000  0.73373000  0.00000000  1
  C  C8  1  0.93212900  0.72496300  0.37241100  1
  C  C9  1  0.06787100  0.27503700  0.37241100  1
  C  C10  1  0.56787100  0.22496300  0.87241100  1
  C  C11  1  0.43212900  0.77503700  0.87241100  1
  C  C12  1  0.06787100  0.27503700  0.62758900  1
  C  C13  1  0.93212900  0.72496300  0.62758900  1
  C  C14  1  0.43212900  0.77503700  0.12758900  1
  C  C15  1  0.56787100  0.22496300  0.12758900  1
  C  C16  1  0.72496300  0.93212900  0.37241100  1
  C  C17  1  0.27503700  0.06787100  0.37241100  1
  C  C18  1  0.22496300  0.56787100  0.87241100  1
  C  C19  1  0.77503700  0.43212900  0.87241100  1
  C  C20  1  0.27503700  0.06787100  0.62758900  1
  C  C21  1  0.72496300  0.93212900  0.62758900  1
  C  C22  1  0.77503700  0.43212900  0.12758900  1
  C  C23  1  0.22496300  0.56787100  0.12758900  1
  C  C24  1  0.14100200  0.53665100  0.32463000  1
  C  C25  1  0.85899800  0.46334900  0.32463000  1
  C  C26  1  0.35899800  0.03665100  0.82463000  1
  C  C27  1  0.64100200  0.96334900  0.82463000  1
  C  C28  1  0.85899800  0.46334900  0.67537000  1
  C  C29  1  0.14100200  0.53665100  0.67537000  1
  C  C30  1  0.64100200  0.96334900  0.17537000  1
  C  C31  1  0.35899800  0.03665100  0.17537000  1
  C  C32  1  0.53665100  0.14100200  0.32463000  1
  C  C33  1  0.46334900  0.85899800  0.32463000  1
  C  C34  1  0.03665100  0.35899800  0.82463000  1
  C  C35  1  0.96334900  0.64100200  0.82463000  1
  C  C36  1  0.46334900  0.85899800  0.67537000  1
  C  C37  1  0.53665100  0.14100200  0.67537000  1
  C  C38  1  0.96334900  0.64100200  0.17537000  1
  C  C39  1  0.03665100  0.35899800  0.17537000  1
  C  C40  1  0.18215200  0.81784800  0.25173800  1
  C  C41  1  0.81784800  0.18215200  0.25173800  1
  C  C42  1  0.31784800  0.31784800  0.75173800  1
  C  C43  1  0.68215200  0.68215200  0.75173800  1
  C  C44  1  0.81784800  0.18215200  0.74826200  1
  C  C45  1  0.18215200  0.81784800  0.74826200  1
  C  C46  1  0.68215200  0.68215200  0.24826200  1
  C  C47  1  0.31784800  0.31784800  0.24826200  1
  C  C48  1  0.40297200  0.59702800  0.30129400  1
  C  C49  1  0.59702800  0.40297200  0.30129400  1
  C  C50  1  0.09702800  0.09702800  0.80129400  1
  C  C51  1  0.90297200  0.90297200  0.80129400  1
  C  C52  1  0.59702800  0.40297200  0.69870600  1
  C  C53  1  0.40297200  0.59702800  0.69870600  1
  C  C54  1  0.90297200  0.90297200  0.19870600  1
  C  C55  1  0.09702800  0.09702800  0.19870600  1
  C  C56  1  0.50000000  0.50000000  0.11769300  1
  C  C57  1  0.00000000  0.00000000  0.61769300  1
  C  C58  1  0.50000000  0.50000000  0.88230700  1
  C  C59  1  0.00000000  0.00000000  0.38230700  1
  C  C60  1  0.00000000  0.50000000  0.50000000  1
  C  C61  1  0.50000000  0.00000000  0.00000000  1
  C  C62  1  0.50000000  0.00000000  0.50000000  1
  C  C63  1  0.00000000  0.50000000  0.00000000  1
  C  C64  1  0.87661600  0.87661600  0.50000000  1
  C  C65  1  0.12338400  0.12338400  0.50000000  1
  C  C66  1  0.62338400  0.37661600  0.00000000  1
  C  C67  1  0.37661600  0.62338400  0.00000000  1
