# generated using pymatgen
data_Cu4Ni9C26
_symmetry_space_group_name_H-M   'P 1'
_cell_length_a   9.27066262
_cell_length_b   9.27066262
_cell_length_c   5.71036493
_cell_angle_alpha   89.69804354
_cell_angle_beta   89.69804354
_cell_angle_gamma   129.63019072
_symmetry_Int_Tables_number   1
_chemical_formula_structural   Cu4Ni9C26
_chemical_formula_sum   'Cu4 Ni9 C26'
_cell_volume   377.95735415
_cell_formula_units_Z   1
loop_
 _symmetry_equiv_pos_site_id
 _symmetry_equiv_pos_as_xyz
  1  'x, y, z'
loop_
 _atom_site_type_symbol
 _atom_site_label
 _atom_site_symmetry_multiplicity
 _atom_site_fract_x
 _atom_site_fract_y
 _atom_site_fract_z
 _atom_site_occupancy
  Ni  Ni0  1  0.32465900  0.67534100  0.50000000  1
  Ni  Ni1  1  0.32374300  0.67625700  0.00000000  1
  Ni  Ni2  1  0.67534100  0.32465900  0.50000000  1
  Ni  Ni3  1  0.67625700  0.32374300  0.00000000  1
  Ni  Ni4  1  0.00000000  0.00000000  0.50000000  1
  Ni  Ni5  1  0.67485300  0.84884000  0.23721500  1
  Ni  Ni6  1  0.15116000  0.32514700  0.76278500  1
  Ni  Ni7  1  0.32514700  0.15116000  0.76278500  1
  Ni  Ni8  1  0.84884000  0.67485300  0.23721500  1
  C  C9  1  0.61799500  0.61799500  0.76033900  1
  C  C10  1  0.38200500  0.38200500  0.23966100  1
  Cu  Cu11  1  0.70131000  0.03133900  0.74243900  1
  Cu  Cu12  1  0.96866100  0.29869000  0.25756100  1
  Cu  Cu13  1  0.29869000  0.96866100  0.25756100  1
  Cu  Cu14  1  0.03133900  0.70131000  0.74243900  1
  C  C15  1  0.91152500  0.08918600  0.73032400  1
  C  C16  1  0.91081400  0.08847500  0.26967600  1
  C  C17  1  0.08847500  0.91081400  0.26967600  1
  C  C18  1  0.08918600  0.91152500  0.73032400  1
  C  C19  1  0.37695900  0.57831900  0.74880300  1
  C  C20  1  0.42168100  0.62304100  0.25119700  1
  C  C21  1  0.62304100  0.42168100  0.25119700  1
  C  C22  1  0.57831900  0.37695900  0.74880300  1
  C  C23  1  0.76777700  0.76777700  0.46642400  1
  C  C24  1  0.23222300  0.23222300  0.53357600  1
  C  C25  1  0.74304200  0.74304200  0.03744800  1
  C  C26  1  0.25695800  0.25695800  0.96255200  1
  C  C27  1  0.58100500  0.90356100  0.51232000  1
  C  C28  1  0.09643900  0.41899500  0.48768000  1
  C  C29  1  0.58567100  0.90719600  0.98120600  1
  C  C30  1  0.09280400  0.41432900  0.01879400  1
  C  C31  1  0.41899500  0.09643900  0.48768000  1
  C  C32  1  0.90356100  0.58100500  0.51232000  1
  C  C33  1  0.41432900  0.09280400  0.01879400  1
  C  C34  1  0.90719600  0.58567100  0.98120600  1
  C  C35  1  0.72801900  0.22614800  0.74945700  1
  C  C36  1  0.77385200  0.27198100  0.25054300  1
  C  C37  1  0.27198100  0.77385200  0.25054300  1
  C  C38  1  0.22614800  0.72801900  0.74945700  1
