# generated using pymatgen
data_Cu5Ni2C25
_symmetry_space_group_name_H-M   'P 1'
_cell_length_a   5.88715700
_cell_length_b   5.89556808
_cell_length_c   8.09207604
_cell_angle_alpha   90.72646232
_cell_angle_beta   90.90764216
_cell_angle_gamma   93.13607656
_symmetry_Int_Tables_number   1
_chemical_formula_structural   Cu5Ni2C25
_chemical_formula_sum   'Cu5 Ni2 C25'
_cell_volume   280.37925914
_cell_formula_units_Z   1
loop_
 _symmetry_equiv_pos_site_id
 _symmetry_equiv_pos_as_xyz
  1  'x, y, z'
loop_
 _atom_site_type_symbol
 _atom_site_label
 _atom_site_symmetry_multiplicity
 _atom_site_fract_x
 _atom_site_fract_y
 _atom_site_fract_z
 _atom_site_occupancy
  C  C0  1  0.25478000  0.75415300  0.74191500  1
  C  C1  1  0.00000000  0.50000000  0.50000000  1
  C  C2  1  0.50000000  0.50000000  0.00000000  1
  C  C3  1  0.25522300  0.24644100  0.74327800  1
  C  C4  1  0.74522000  0.24584700  0.25808500  1
  C  C5  1  0.50000000  0.00000000  0.00000000  1
  C  C6  1  0.00000000  0.00000000  0.50000000  1
  C  C7  1  0.74477700  0.75355900  0.25672200  1
  C  C8  1  0.50000000  0.00000000  0.50000000  1
  Ni  Ni9  1  0.74483600  0.75634700  0.74680400  1
  Ni  Ni10  1  0.25516400  0.24365300  0.25319600  1
  Cu  Cu11  1  0.50000000  0.50000000  0.50000000  1
  Cu  Cu12  1  0.00000000  0.00000000  0.00000000  1
  Cu  Cu13  1  0.74479800  0.25391500  0.74640200  1
  Cu  Cu14  1  0.25520200  0.74608500  0.25359800  1
  Cu  Cu15  1  0.00000000  0.50000000  0.00000000  1
  C  C16  1  0.99642100  0.98448600  0.75904700  1
  C  C17  1  0.74400400  0.73926600  0.51278200  1
  C  C18  1  0.23400800  0.73540000  0.01538300  1
  C  C19  1  0.96811300  0.51334400  0.76110000  1
  C  C20  1  0.49830300  0.47772700  0.25946100  1
  C  C21  1  0.23801600  0.23532000  0.00771100  1
  C  C22  1  0.72729400  0.27009800  0.51843200  1
  C  C23  1  0.46644600  0.00659700  0.24843400  1
  C  C24  1  0.50169700  0.52227300  0.74053900  1
  C  C25  1  0.25599600  0.26073400  0.48721800  1
  C  C26  1  0.76599200  0.26460000  0.98461700  1
  C  C27  1  0.53355400  0.99340300  0.75156600  1
  C  C28  1  0.00357900  0.01551400  0.24095300  1
  C  C29  1  0.76198400  0.76468000  0.99228900  1
  C  C30  1  0.27270600  0.72990200  0.48156800  1
  C  C31  1  0.03188700  0.48665600  0.23890000  1
