# generated using pymatgen
data_Cu5Ni2C25
_symmetry_space_group_name_H-M   'P 1'
_cell_length_a   7.83568602
_cell_length_b   7.83568602
_cell_length_c   12.95961266
_cell_angle_alpha   88.28777426
_cell_angle_beta   88.28777426
_cell_angle_gamma   21.53336270
_symmetry_Int_Tables_number   1
_chemical_formula_structural   Cu5Ni2C25
_chemical_formula_sum   'Cu5 Ni2 C25'
_cell_volume   291.91873835
_cell_formula_units_Z   1
loop_
 _symmetry_equiv_pos_site_id
 _symmetry_equiv_pos_as_xyz
  1  'x, y, z'
loop_
 _atom_site_type_symbol
 _atom_site_label
 _atom_site_symmetry_multiplicity
 _atom_site_fract_x
 _atom_site_fract_y
 _atom_site_fract_z
 _atom_site_occupancy
  C  C0  1  0.68587500  0.68587500  0.93736900  1
  C  C1  1  0.55549600  0.55549600  0.32645200  1
  C  C2  1  0.44450400  0.44450400  0.67354800  1
  C  C3  1  0.31412500  0.31412500  0.06263100  1
  C  C4  1  0.18612100  0.18612100  0.43844800  1
  C  C5  1  0.05989500  0.05989500  0.80811000  1
  C  C6  1  0.94010500  0.94010500  0.19189000  1
  C  C7  1  0.81387900  0.81387900  0.56155200  1
  C  C8  1  0.00000000  0.00000000  0.50000000  1
  Ni  Ni9  1  0.24799500  0.24799500  0.74851000  1
  Ni  Ni10  1  0.75200500  0.75200500  0.25149000  1
  Cu  Cu11  1  0.12407000  0.12407000  0.12379200  1
  Cu  Cu12  1  0.87593000  0.87593000  0.87620800  1
  Cu  Cu13  1  0.61603700  0.61603700  0.61044800  1
  Cu  Cu14  1  0.50000000  0.50000000  0.00000000  1
  Cu  Cu15  1  0.38396300  0.38396300  0.38955200  1
  C  C16  1  0.66762500  0.66762500  0.77970200  1
  C  C17  1  0.53781000  0.53781000  0.14877400  1
  C  C18  1  0.40120400  0.40120400  0.52505600  1
  C  C19  1  0.28652100  0.28652100  0.89685400  1
  C  C20  1  0.16785000  0.16785000  0.27491300  1
  C  C21  1  0.03700400  0.03700400  0.65826000  1
  C  C22  1  0.91001400  0.91001400  0.02681500  1
  C  C23  1  0.78507700  0.78507700  0.39081600  1
  C  C24  1  0.71347900  0.71347900  0.10314600  1
  C  C25  1  0.59879600  0.59879600  0.47494400  1
  C  C26  1  0.46219000  0.46219000  0.85122600  1
  C  C27  1  0.33237500  0.33237500  0.22029800  1
  C  C28  1  0.21492300  0.21492300  0.60918400  1
  C  C29  1  0.08998600  0.08998600  0.97318500  1
  C  C30  1  0.96299600  0.96299600  0.34174000  1
  C  C31  1  0.83215000  0.83215000  0.72508700  1
