# generated using pymatgen
data_Cu2NiC3
_symmetry_space_group_name_H-M   'P 1'
_cell_length_a   3.34200009
_cell_length_b   3.34200009
_cell_length_c   38.12599000
_cell_angle_alpha   90.00000000
_cell_angle_beta   90.00000000
_cell_angle_gamma   120.00000172
_symmetry_Int_Tables_number   1
_chemical_formula_structural   Cu2NiC3
_chemical_formula_sum   'Cu4 Ni2 C6'
_cell_volume   368.77771371
_cell_formula_units_Z   2
loop_
 _symmetry_equiv_pos_site_id
 _symmetry_equiv_pos_as_xyz
  1  'x, y, z'
loop_
 _atom_site_type_symbol
 _atom_site_label
 _atom_site_symmetry_multiplicity
 _atom_site_fract_x
 _atom_site_fract_y
 _atom_site_fract_z
 _atom_site_occupancy
  Ni  Ni0  1  0.33333300  0.66666700  0.70756500  1
  Ni  Ni1  1  0.33333300  0.66666700  0.60756100  1
  C  C2  1  0.33333300  0.66666700  0.09392700  1
  C  C3  1  0.33333300  0.66666700  0.46962600  1
  C  C4  1  0.66666700  0.33333300  0.28179300  1
  C  C5  1  0.66666700  0.33333300  0.65757300  1
  Cu  Cu6  1  0.33333300  0.66666700  0.32567300  1
  Cu  Cu7  1  0.66666700  0.33333300  0.42574800  1
  Cu  Cu8  1  0.66666700  0.33333300  0.51353900  1
  Cu  Cu9  1  0.33333300  0.66666700  0.23789100  1
  C  C10  1  0.66666700  0.33333300  0.05398400  1
  C  C11  1  0.66666700  0.33333300  0.13386800  1
