# generated using pymatgen
data_Cu3NiC13
_symmetry_space_group_name_H-M   'P 1'
_cell_length_a   15.70512116
_cell_length_b   15.70512116
_cell_length_c   15.70512116
_cell_angle_alpha   109.47122063
_cell_angle_beta   109.47122063
_cell_angle_gamma   109.47122063
_symmetry_Int_Tables_number   1
_chemical_formula_structural   Cu3NiC13
_chemical_formula_sum   'Cu48 Ni16 C208'
_cell_volume   2981.96116299
_cell_formula_units_Z   16
loop_
 _symmetry_equiv_pos_site_id
 _symmetry_equiv_pos_as_xyz
  1  'x, y, z'
loop_
 _atom_site_type_symbol
 _atom_site_label
 _atom_site_symmetry_multiplicity
 _atom_site_fract_x
 _atom_site_fract_y
 _atom_site_fract_z
 _atom_site_occupancy
  C  C0  1  0.12897247  0.75000000  0.37897247  1
  C  C1  1  0.37102753  0.25000000  0.12102753  1
  C  C2  1  0.75000000  0.37897247  0.12897247  1
  C  C3  1  0.25000000  0.12102753  0.37102753  1
  C  C4  1  0.37897247  0.12897247  0.75000000  1
  C  C5  1  0.12102753  0.37102753  0.25000000  1
  C  C6  1  0.87102753  0.25000000  0.62102753  1
  C  C7  1  0.62897247  0.75000000  0.87897247  1
  C  C8  1  0.25000000  0.62102753  0.87102753  1
  C  C9  1  0.75000000  0.87897247  0.62897247  1
  C  C10  1  0.62102753  0.87102753  0.25000000  1
  C  C11  1  0.87897247  0.62897247  0.75000000  1
  C  C12  1  0.00000000  0.50000000  0.50000000  1
  C  C13  1  0.50000000  0.00000000  0.50000000  1
  C  C14  1  0.50000000  0.50000000  0.00000000  1
  C  C15  1  0.00000000  0.00000000  0.00000000  1
  Ni  Ni16  1  0.87710500  0.75000000  0.12710500  1
  Ni  Ni17  1  0.62289500  0.25000000  0.37289500  1
  Ni  Ni18  1  0.75000000  0.12710500  0.87710500  1
  Ni  Ni19  1  0.25000000  0.37289500  0.62289500  1
  Ni  Ni20  1  0.12710500  0.87710500  0.75000000  1
  Ni  Ni21  1  0.37289500  0.62289500  0.25000000  1
  Ni  Ni22  1  0.12289500  0.25000000  0.87289500  1
  Ni  Ni23  1  0.37710500  0.75000000  0.62710500  1
  Ni  Ni24  1  0.25000000  0.87289500  0.12289500  1
  Ni  Ni25  1  0.75000000  0.62710500  0.37710500  1
  Ni  Ni26  1  0.87289500  0.12289500  0.25000000  1
  Ni  Ni27  1  0.62710500  0.37710500  0.75000000  1
  Ni  Ni28  1  0.00000000  0.50000000  0.00000000  1
  Ni  Ni29  1  0.00000000  0.00000000  0.50000000  1
  Ni  Ni30  1  0.50000000  0.00000000  0.00000000  1
  Ni  Ni31  1  0.50000000  0.50000000  0.50000000  1
  Cu  Cu32  1  0.61179576  0.11767512  0.93481783  1
  Cu  Cu33  1  0.31714271  0.38232488  0.49412063  1
  Cu  Cu34  1  0.88820424  0.32302207  0.00587937  1
  Cu  Cu35  1  0.18285729  0.17697793  0.56518217  1
  Cu  Cu36  1  0.11767512  0.93481783  0.61179576  1
  Cu  Cu37  1  0.38232488  0.49412063  0.31714271  1
  Cu  Cu38  1  0.32302207  0.00587937  0.88820424  1
  Cu  Cu39  1  0.17697793  0.56518217  0.18285729  1
  Cu  Cu40  1  0.93481783  0.61179576  0.11767512  1
  Cu  Cu41  1  0.49412063  0.31714271  0.38232488  1
  Cu  Cu42  1  0.00587937  0.88820424  0.32302207  1
  Cu  Cu43  1  0.56518217  0.18285729  0.17697793  1
  Cu  Cu44  1  0.38820424  0.88232488  0.06518217  1
  Cu  Cu45  1  0.68285729  0.61767512  0.50587937  1
  Cu  Cu46  1  0.11179576  0.67697793  0.99412063  1
  Cu  Cu47  1  0.81714271  0.82302207  0.43481783  1
  Cu  Cu48  1  0.88232488  0.06518217  0.38820424  1
  Cu  Cu49  1  0.61767512  0.50587937  0.68285729  1
  Cu  Cu50  1  0.67697793  0.99412063  0.11179576  1
  Cu  Cu51  1  0.82302207  0.43481783  0.81714271  1
  Cu  Cu52  1  0.06518217  0.38820424  0.88232488  1
  Cu  Cu53  1  0.50587937  0.68285729  0.61767512  1
  Cu  Cu54  1  0.99412063  0.11179576  0.67697793  1
  Cu  Cu55  1  0.43481783  0.81714271  0.82302207  1
  Cu  Cu56  1  0.26604483  0.89377368  0.29402344  1
  Cu  Cu57  1  0.90024976  0.60622632  0.37227116  1
  Cu  Cu58  1  0.23395517  0.02797861  0.12772884  1
  Cu  Cu59  1  0.59975024  0.47202139  0.20597656  1
  Cu  Cu60  1  0.89377368  0.29402344  0.26604483  1
  Cu  Cu61  1  0.60622632  0.37227116  0.90024976  1
  Cu  Cu62  1  0.02797861  0.12772884  0.23395517  1
  Cu  Cu63  1  0.47202139  0.20597656  0.59975024  1
  Cu  Cu64  1  0.29402344  0.26604483  0.89377368  1
  Cu  Cu65  1  0.37227116  0.90024976  0.60622632  1
  Cu  Cu66  1  0.12772884  0.23395517  0.02797861  1
  Cu  Cu67  1  0.20597656  0.59975024  0.47202139  1
  Cu  Cu68  1  0.73395517  0.10622632  0.70597656  1
  Cu  Cu69  1  0.09975024  0.39377368  0.62772884  1
  Cu  Cu70  1  0.76604483  0.97202139  0.87227116  1
  Cu  Cu71  1  0.40024976  0.52797861  0.79402344  1
  Cu  Cu72  1  0.10622632  0.70597656  0.73395517  1
  Cu  Cu73  1  0.39377368  0.62772884  0.09975024  1
  Cu  Cu74  1  0.97202139  0.87227116  0.76604483  1
  Cu  Cu75  1  0.52797861  0.79402344  0.40024976  1
  Cu  Cu76  1  0.70597656  0.73395517  0.10622632  1
  Cu  Cu77  1  0.62772884  0.09975024  0.39377368  1
  Cu  Cu78  1  0.87227116  0.76604483  0.97202139  1
  Cu  Cu79  1  0.79402344  0.40024976  0.52797861  1
  C  C80  1  0.54903617  0.14537501  0.93856260  1
  C  C81  1  0.29318760  0.35462499  0.40366116  1
  C  C82  1  0.95096383  0.38952644  0.09633884  1
  C  C83  1  0.20681240  0.11047356  0.56143740  1
  C  C84  1  0.14537501  0.93856260  0.54903617  1
  C  C85  1  0.35462499  0.40366116  0.29318760  1
  C  C86  1  0.38952644  0.09633884  0.95096383  1
  C  C87  1  0.11047356  0.56143740  0.20681240  1
  C  C88  1  0.93856260  0.54903617  0.14537501  1
  C  C89  1  0.40366116  0.29318760  0.35462499  1
  C  C90  1  0.09633884  0.95096383  0.38952644  1
  C  C91  1  0.56143740  0.20681240  0.11047356  1
  C  C92  1  0.45096383  0.85462499  0.06143740  1
  C  C93  1  0.70681240  0.64537501  0.59633884  1
  C  C94  1  0.04903617  0.61047356  0.90366116  1
  C  C95  1  0.79318760  0.88952644  0.43856260  1
  C  C96  1  0.85462499  0.06143740  0.45096383  1
  C  C97  1  0.64537501  0.59633884  0.70681240  1
  C  C98  1  0.61047356  0.90366116  0.04903617  1
  C  C99  1  0.88952644  0.43856260  0.79318760  1
  C  C100  1  0.06143740  0.45096383  0.85462499  1
  C  C101  1  0.59633884  0.70681240  0.64537501  1
  C  C102  1  0.90366116  0.04903617  0.61047356  1
  C  C103  1  0.43856260  0.79318760  0.88952644  1
  C  C104  1  0.69605355  0.17635096  0.01450097  1
  C  C105  1  0.33815001  0.32364904  0.51970259  1
  C  C106  1  0.80394645  0.31844743  0.98029741  1
  C  C107  1  0.16184999  0.18155257  0.48549903  1
  C  C108  1  0.17635096  0.01450097  0.69605355  1
  C  C109  1  0.32364904  0.51970259  0.33815001  1
  C  C110  1  0.31844743  0.98029741  0.80394645  1
  C  C111  1  0.18155257  0.48549903  0.16184999  1
  C  C112  1  0.01450097  0.69605355  0.17635096  1
  C  C113  1  0.51970259  0.33815001  0.32364904  1
  C  C114  1  0.98029741  0.80394645  0.31844743  1
  C  C115  1  0.48549903  0.16184999  0.18155257  1
  C  C116  1  0.30394645  0.82364904  0.98549903  1
  C  C117  1  0.66184999  0.67635096  0.48029741  1
  C  C118  1  0.19605355  0.68155257  0.01970259  1
  C  C119  1  0.83815001  0.81844743  0.51450097  1
  C  C120  1  0.82364904  0.98549903  0.30394645  1
  C  C121  1  0.67635096  0.48029741  0.66184999  1
  C  C122  1  0.68155257  0.01970259  0.19605355  1
  C  C123  1  0.81844743  0.51450097  0.83815001  1
  C  C124  1  0.98549903  0.30394645  0.82364904  1
  C  C125  1  0.48029741  0.66184999  0.67635096  1
  C  C126  1  0.01970259  0.19605355  0.68155257  1
  C  C127  1  0.51450097  0.83815001  0.81844743  1
  C  C128  1  0.60985228  0.11492233  0.85333100  1
  C  C129  1  0.23840866  0.38507767  0.49492995  1
  C  C130  1  0.89014772  0.24347872  0.00507005  1
  C  C131  1  0.26159134  0.25652128  0.64666900  1
  C  C132  1  0.11492233  0.85333100  0.60985228  1
  C  C133  1  0.38507767  0.49492995  0.23840866  1
  C  C134  1  0.24347872  0.00507005  0.89014772  1
  C  C135  1  0.25652128  0.64666900  0.26159134  1
  C  C136  1  0.85333100  0.60985228  0.11492233  1
  C  C137  1  0.49492995  0.23840866  0.38507767  1
  C  C138  1  0.00507005  0.89014772  0.24347872  1
  C  C139  1  0.64666900  0.26159134  0.25652128  1
  C  C140  1  0.39014772  0.88507767  0.14666900  1
  C  C141  1  0.76159134  0.61492233  0.50507005  1
  C  C142  1  0.10985228  0.75652128  0.99492995  1
  C  C143  1  0.73840866  0.74347872  0.35333100  1
  C  C144  1  0.88507767  0.14666900  0.39014772  1
  C  C145  1  0.61492233  0.50507005  0.76159134  1
  C  C146  1  0.75652128  0.99492995  0.10985228  1
  C  C147  1  0.74347872  0.35333100  0.73840866  1
  C  C148  1  0.14666900  0.39014772  0.88507767  1
  C  C149  1  0.50507005  0.76159134  0.61492233  1
  C  C150  1  0.99492995  0.10985228  0.75652128  1
  C  C151  1  0.35333100  0.73840866  0.74347872  1
  C  C152  1  0.58493164  0.02830613  0.91820360  1
  C  C153  1  0.38989747  0.47169387  0.55662551  1
  C  C154  1  0.91506836  0.33327196  0.94337449  1
  C  C155  1  0.11010253  0.16672804  0.58179640  1
  C  C156  1  0.02830613  0.91820360  0.58493164  1
  C  C157  1  0.47169387  0.55662551  0.38989747  1
  C  C158  1  0.33327196  0.94337449  0.91506836  1
  C  C159  1  0.16672804  0.58179640  0.11010253  1
  C  C160  1  0.91820360  0.58493164  0.02830613  1
  C  C161  1  0.55662551  0.38989747  0.47169387  1
  C  C162  1  0.94337449  0.91506836  0.33327196  1
  C  C163  1  0.58179640  0.11010253  0.16672804  1
  C  C164  1  0.41506836  0.97169387  0.08179640  1
  C  C165  1  0.61010253  0.52830613  0.44337449  1
  C  C166  1  0.08493164  0.66672804  0.05662551  1
  C  C167  1  0.88989747  0.83327196  0.41820360  1
  C  C168  1  0.97169387  0.08179640  0.41506836  1
  C  C169  1  0.52830613  0.44337449  0.61010253  1
  C  C170  1  0.66672804  0.05662551  0.08493164  1
  C  C171  1  0.83327196  0.41820360  0.88989747  1
  C  C172  1  0.08179640  0.41506836  0.97169387  1
  C  C173  1  0.44337449  0.61010253  0.52830613  1
  C  C174  1  0.05662551  0.08493164  0.66672804  1
  C  C175  1  0.41820360  0.88989747  0.83327196  1
  C  C176  1  0.33717487  0.96873438  0.30443868  1
  C  C177  1  0.83570430  0.53126562  0.36844049  1
  C  C178  1  0.16282513  0.96726381  0.13155951  1
  C  C179  1  0.66429570  0.53273619  0.19556132  1
  C  C180  1  0.96873438  0.30443868  0.33717487  1
  C  C181  1  0.53126562  0.36844049  0.83570430  1
  C  C182  1  0.96726381  0.13155951  0.16282513  1
  C  C183  1  0.53273619  0.19556132  0.66429570  1
  C  C184  1  0.30443868  0.33717487  0.96873438  1
  C  C185  1  0.36844049  0.83570430  0.53126562  1
  C  C186  1  0.13155951  0.16282513  0.96726381  1
  C  C187  1  0.19556132  0.66429570  0.53273619  1
  C  C188  1  0.66282513  0.03126562  0.69556132  1
  C  C189  1  0.16429570  0.46873438  0.63155951  1
  C  C190  1  0.83717487  0.03273619  0.86844049  1
  C  C191  1  0.33570430  0.46726381  0.80443868  1
  C  C192  1  0.03126562  0.69556132  0.66282513  1
  C  C193  1  0.46873438  0.63155951  0.16429570  1
  C  C194  1  0.03273619  0.86844049  0.83717487  1
  C  C195  1  0.46726381  0.80443868  0.33570430  1
  C  C196  1  0.69556132  0.66282513  0.03126562  1
  C  C197  1  0.63155951  0.16429570  0.46873438  1
  C  C198  1  0.86844049  0.83717487  0.03273619  1
  C  C199  1  0.80443868  0.33570430  0.46726381  1
  C  C200  1  0.24226740  0.80839968  0.22464051  1
  C  C201  1  0.91624082  0.69160032  0.43386772  1
  C  C202  1  0.25773260  0.98237311  0.06613228  1
  C  C203  1  0.58375918  0.51762689  0.27535949  1
  C  C204  1  0.80839968  0.22464051  0.24226740  1
  C  C205  1  0.69160032  0.43386772  0.91624082  1
  C  C206  1  0.98237311  0.06613228  0.25773260  1
  C  C207  1  0.51762689  0.27535949  0.58375918  1
  C  C208  1  0.22464051  0.24226740  0.80839968  1
  C  C209  1  0.43386772  0.91624082  0.69160032  1
  C  C210  1  0.06613228  0.25773260  0.98237311  1
  C  C211  1  0.27535949  0.58375918  0.51762689  1
  C  C212  1  0.75773260  0.19160032  0.77535949  1
  C  C213  1  0.08375918  0.30839968  0.56613228  1
  C  C214  1  0.74226740  0.01762689  0.93386772  1
  C  C215  1  0.41624082  0.48237311  0.72464051  1
  C  C216  1  0.19160032  0.77535949  0.75773260  1
  C  C217  1  0.30839968  0.56613228  0.08375918  1
  C  C218  1  0.01762689  0.93386772  0.74226740  1
  C  C219  1  0.48237311  0.72464051  0.41624082  1
  C  C220  1  0.77535949  0.75773260  0.19160032  1
  C  C221  1  0.56613228  0.08375918  0.30839968  1
  C  C222  1  0.93386772  0.74226740  0.01762689  1
  C  C223  1  0.72464051  0.41624082  0.48237311  1
  C  C224  1  0.18942564  0.90299674  0.27908947  1
  C  C225  1  0.87609273  0.59700326  0.28642890  1
  C  C226  1  0.31057436  0.08966383  0.21357110  1
  C  C227  1  0.62390727  0.41033617  0.22091053  1
  C  C228  1  0.90299674  0.27908947  0.18942564  1
  C  C229  1  0.59700326  0.28642890  0.87609273  1
  C  C230  1  0.08966383  0.21357110  0.31057436  1
  C  C231  1  0.41033617  0.22091053  0.62390727  1
  C  C232  1  0.27908947  0.18942564  0.90299674  1
  C  C233  1  0.28642890  0.87609273  0.59700326  1
  C  C234  1  0.21357110  0.31057436  0.08966383  1
  C  C235  1  0.22091053  0.62390727  0.41033617  1
  C  C236  1  0.81057436  0.09700326  0.72091053  1
  C  C237  1  0.12390727  0.40299674  0.71357110  1
  C  C238  1  0.68942564  0.91033617  0.78642890  1
  C  C239  1  0.37609273  0.58966383  0.77908947  1
  C  C240  1  0.09700326  0.72091053  0.81057436  1
  C  C241  1  0.40299674  0.71357110  0.12390727  1
  C  C242  1  0.91033617  0.78642890  0.68942564  1
  C  C243  1  0.58966383  0.77908947  0.37609273  1
  C  C244  1  0.72091053  0.81057436  0.09700326  1
  C  C245  1  0.71357110  0.12390727  0.40299674  1
  C  C246  1  0.78642890  0.68942564  0.91033617  1
  C  C247  1  0.77908947  0.37609273  0.58966383  1
  C  C248  1  0.30043980  0.88913865  0.37331235  1
  C  C249  1  0.98417369  0.61086135  0.41130115  1
  C  C250  1  0.19956020  0.07287255  0.08869885  1
  C  C251  1  0.51582631  0.42712745  0.12668765  1
  C  C252  1  0.88913865  0.37331235  0.30043980  1
  C  C253  1  0.61086135  0.41130115  0.98417369  1
  C  C254  1  0.07287255  0.08869885  0.19956020  1
  C  C255  1  0.42712745  0.12668765  0.51582631  1
  C  C256  1  0.37331235  0.30043980  0.88913865  1
  C  C257  1  0.41130115  0.98417369  0.61086135  1
  C  C258  1  0.08869885  0.19956020  0.07287255  1
  C  C259  1  0.12668765  0.51582631  0.42712745  1
  C  C260  1  0.69956020  0.11086135  0.62668765  1
  C  C261  1  0.01582631  0.38913865  0.58869885  1
  C  C262  1  0.80043980  0.92712745  0.91130115  1
  C  C263  1  0.48417369  0.57287255  0.87331235  1
  C  C264  1  0.11086135  0.62668765  0.69956020  1
  C  C265  1  0.38913865  0.58869885  0.01582631  1
  C  C266  1  0.92712745  0.91130115  0.80043980  1
  C  C267  1  0.57287255  0.87331235  0.48417369  1
  C  C268  1  0.62668765  0.69956020  0.11086135  1
  C  C269  1  0.58869885  0.01582631  0.38913865  1
  C  C270  1  0.91130115  0.80043980  0.92712745  1
  C  C271  1  0.87331235  0.48417369  0.57287255  1
