# generated using pymatgen
data_CuNiC6
_symmetry_space_group_name_H-M   'P 1'
_cell_length_a   10.96686400
_cell_length_b   9.00970100
_cell_length_c   11.17353913
_cell_angle_alpha   61.87825532
_cell_angle_beta   90.00000000
_cell_angle_gamma   90.00000000
_symmetry_Int_Tables_number   1
_chemical_formula_structural   CuNiC6
_chemical_formula_sum   'Cu8 Ni8 C48'
_cell_volume   973.70319003
_cell_formula_units_Z   8
loop_
 _symmetry_equiv_pos_site_id
 _symmetry_equiv_pos_as_xyz
  1  'x, y, z'
loop_
 _atom_site_type_symbol
 _atom_site_label
 _atom_site_symmetry_multiplicity
 _atom_site_fract_x
 _atom_site_fract_y
 _atom_site_fract_z
 _atom_site_occupancy
  C  C0  1  0.02463100  0.71818000  0.07568100  1
  C  C1  1  0.47536900  0.71818000  0.57568100  1
  C  C2  1  0.97536900  0.28182000  0.92431900  1
  C  C3  1  0.52463100  0.28182000  0.42431900  1
  C  C4  1  0.79346200  0.47955900  0.62171700  1
  C  C5  1  0.70653800  0.47955900  0.12171700  1
  C  C6  1  0.20653800  0.52044100  0.37828300  1
  C  C7  1  0.29346200  0.52044100  0.87828300  1
  C  C8  1  0.92685400  0.60917100  0.54947600  1
  C  C9  1  0.57314600  0.60917100  0.04947600  1
  C  C10  1  0.07314600  0.39082900  0.45052400  1
  C  C11  1  0.42685400  0.39082900  0.95052400  1
  C  C12  1  0.78749000  0.70061900  0.56989500  1
  C  C13  1  0.71251000  0.70061900  0.06989500  1
  C  C14  1  0.21251000  0.29938100  0.43010500  1
  C  C15  1  0.28749000  0.29938100  0.93010500  1
  C  C16  1  0.65989900  0.01990700  0.05107600  1
  C  C17  1  0.84010100  0.01990700  0.55107600  1
  C  C18  1  0.34010100  0.98009300  0.94892400  1
  C  C19  1  0.15989900  0.98009300  0.44892400  1
  C  C20  1  0.56305000  0.89225000  0.19401000  1
  C  C21  1  0.93695000  0.89225000  0.69401000  1
  C  C22  1  0.43695000  0.10775000  0.80599000  1
  C  C23  1  0.06305000  0.10775000  0.30599000  1
  C  C24  1  0.56265400  0.11664800  0.12530300  1
  C  C25  1  0.93734600  0.11664800  0.62530300  1
  C  C26  1  0.43734600  0.88335200  0.87469700  1
  C  C27  1  0.06265400  0.88335200  0.37469700  1
  Ni  Ni28  1  0.82706700  0.60424000  0.54822300  1
  Ni  Ni29  1  0.67293300  0.60424000  0.04822300  1
  Ni  Ni30  1  0.17293300  0.39576000  0.45177700  1
  Ni  Ni31  1  0.32706700  0.39576000  0.95177700  1
  Ni  Ni32  1  0.61841800  0.00664900  0.14486200  1
  Ni  Ni33  1  0.88158200  0.00664900  0.64486200  1
  Ni  Ni34  1  0.38158200  0.99335100  0.85513800  1
  Ni  Ni35  1  0.11841800  0.99335100  0.35513800  1
  Cu  Cu36  1  0.77831300  0.64336500  0.38354000  1
  Cu  Cu37  1  0.72168700  0.64336500  0.88354000  1
  Cu  Cu38  1  0.22168700  0.35663500  0.61646000  1
  Cu  Cu39  1  0.27831300  0.35663500  0.11646000  1
  Cu  Cu40  1  0.73849800  0.99259600  0.25708500  1
  Cu  Cu41  1  0.76150200  0.99259600  0.75708500  1
  Cu  Cu42  1  0.26150200  0.00740400  0.74291500  1
  Cu  Cu43  1  0.23849800  0.00740400  0.24291500  1
  C  C44  1  0.81854300  0.83180900  0.28017300  1
  C  C45  1  0.68145700  0.83180900  0.78017300  1
  C  C46  1  0.18145700  0.16819100  0.71982700  1
  C  C47  1  0.31854300  0.16819100  0.21982700  1
  C  C48  1  0.84925700  0.53329300  0.34723200  1
  C  C49  1  0.65074300  0.53329300  0.84723200  1
  C  C50  1  0.15074300  0.46670700  0.65276800  1
  C  C51  1  0.34925700  0.46670700  0.15276800  1
  C  C52  1  0.64554700  0.61683700  0.39245300  1
  C  C53  1  0.85445300  0.61683700  0.89245300  1
  C  C54  1  0.35445300  0.38316300  0.60754700  1
  C  C55  1  0.14554700  0.38316300  0.10754700  1
  C  C56  1  0.81608500  0.13941400  0.18437400  1
  C  C57  1  0.68391500  0.13941400  0.68437400  1
  C  C58  1  0.18391500  0.86058600  0.81562600  1
  C  C59  1  0.31608500  0.86058600  0.31562600  1
  C  C60  1  0.68153200  0.97521900  0.38249900  1
  C  C61  1  0.81846800  0.97521900  0.88249900  1
  C  C62  1  0.31846800  0.02478100  0.61750100  1
  C  C63  1  0.18153200  0.02478100  0.11750100  1
