# generated using pymatgen
data_Cu(NiC2)4
_symmetry_space_group_name_H-M   'P 1'
_cell_length_a   3.36165111
_cell_length_b   3.36165111
_cell_length_c   33.20366600
_cell_angle_alpha   90.00000000
_cell_angle_beta   90.00000000
_cell_angle_gamma   119.99998243
_symmetry_Int_Tables_number   1
_chemical_formula_structural   Cu(NiC2)4
_chemical_formula_sum   'Cu2 Ni8 C16'
_cell_volume   324.95409977
_cell_formula_units_Z   2
loop_
 _symmetry_equiv_pos_site_id
 _symmetry_equiv_pos_as_xyz
  1  'x, y, z'
loop_
 _atom_site_type_symbol
 _atom_site_label
 _atom_site_symmetry_multiplicity
 _atom_site_fract_x
 _atom_site_fract_y
 _atom_site_fract_z
 _atom_site_occupancy
  C  C0  1  0.00000000  0.00000000  0.50000000  1
  C  C1  1  0.00000000  0.00000000  0.00000000  1
  Ni  Ni2  1  0.33333300  0.66666700  0.40810400  1
  Ni  Ni3  1  0.66666700  0.33333300  0.59189600  1
  Ni  Ni4  1  0.66666700  0.33333300  0.90810400  1
  Ni  Ni5  1  0.33333300  0.66666700  0.09189600  1
  Ni  Ni6  1  0.00000000  0.00000000  0.32977600  1
  Ni  Ni7  1  0.00000000  0.00000000  0.67022400  1
  Ni  Ni8  1  0.00000000  0.00000000  0.82977600  1
  Ni  Ni9  1  0.00000000  0.00000000  0.17022400  1
  Cu  Cu10  1  0.33333300  0.66666700  0.25000000  1
  Cu  Cu11  1  0.66666700  0.33333300  0.75000000  1
  C  C12  1  0.00000000  0.00000000  0.39007900  1
  C  C13  1  0.00000000  0.00000000  0.60992100  1
  C  C14  1  0.00000000  0.00000000  0.89007900  1
  C  C15  1  0.00000000  0.00000000  0.10992100  1
  C  C16  1  0.33333300  0.66666700  0.31136800  1
  C  C17  1  0.66666700  0.33333300  0.68863200  1
  C  C18  1  0.66666700  0.33333300  0.81136800  1
  C  C19  1  0.33333300  0.66666700  0.18863200  1
  C  C20  1  0.33333300  0.66666700  0.46764600  1
  C  C21  1  0.66666700  0.33333300  0.53235400  1
  C  C22  1  0.66666700  0.33333300  0.96764600  1
  C  C23  1  0.33333300  0.66666700  0.03235400  1
  C  C24  1  0.00000000  0.00000000  0.25000000  1
  C  C25  1  0.00000000  0.00000000  0.75000000  1
