# generated using pymatgen
data_CuNiC7
_symmetry_space_group_name_H-M   'P 1'
_cell_length_a   6.61258472
_cell_length_b   6.61252533
_cell_length_c   9.18279800
_cell_angle_alpha   89.99984701
_cell_angle_beta   90.00015299
_cell_angle_gamma   89.99996324
_symmetry_Int_Tables_number   1
_chemical_formula_structural   CuNiC7
_chemical_formula_sum   'Cu4 Ni4 C28'
_cell_volume   401.52595990
_cell_formula_units_Z   4
loop_
 _symmetry_equiv_pos_site_id
 _symmetry_equiv_pos_as_xyz
  1  'x, y, z'
loop_
 _atom_site_type_symbol
 _atom_site_label
 _atom_site_symmetry_multiplicity
 _atom_site_fract_x
 _atom_site_fract_y
 _atom_site_fract_z
 _atom_site_occupancy
  Ni  Ni0  1  0.50000000  0.99999100  0.49564600  1
  Ni  Ni1  1  0.99994600  0.49998700  0.49568900  1
  Ni  Ni2  1  0.99997500  0.00002700  0.99567700  1
  Ni  Ni3  1  0.50005800  0.50000700  0.99563400  1
  Cu  Cu4  1  0.99995300  0.49998900  0.16700000  1
  Cu  Cu5  1  0.49998400  0.49999600  0.66700300  1
  Cu  Cu6  1  0.49998400  0.99997800  0.16701200  1
  Cu  Cu7  1  0.00001900  0.99999900  0.66696900  1
  C  C8  1  0.49999600  0.99999800  0.83322600  1
  C  C9  1  0.99998800  0.49999600  0.83325700  1
  C  C10  1  0.99999200  0.00001200  0.33325100  1
  C  C11  1  0.50002500  0.50000300  0.33322200  1
  C  C12  1  0.49999800  0.30747900  0.16491800  1
  C  C13  1  0.00001400  0.80748200  0.16492600  1
  C  C14  1  0.50000000  0.69252900  0.16491500  1
  C  C15  1  0.00001400  0.19253200  0.16492300  1
  C  C16  1  0.30745200  0.99999600  0.66490700  1
  C  C17  1  0.80746100  0.50000000  0.66490100  1
  C  C18  1  0.69253500  0.99999800  0.66490400  1
  C  C19  1  0.19253300  0.50000400  0.66490600  1
  C  C20  1  0.49999900  0.30340100  0.49906900  1
  C  C21  1  0.00000100  0.80339600  0.49908500  1
  C  C22  1  0.50000200  0.69659700  0.49907200  1
  C  C23  1  0.00000100  0.19660000  0.49909200  1
  C  C24  1  0.30338200  0.00000200  0.99905100  1
  C  C25  1  0.80342500  0.50000500  0.99908600  1
  C  C26  1  0.69659600  0.00000300  0.99906100  1
  C  C27  1  0.19662100  0.50000200  0.99906600  1
  C  C28  1  0.50000300  0.30604000  0.83805000  1
  C  C29  1  0.00000500  0.80603500  0.83807100  1
  C  C30  1  0.50000200  0.69395500  0.83804700  1
  C  C31  1  0.00000200  0.19395500  0.83806700  1
  C  C32  1  0.30601700  0.99999900  0.33806900  1
  C  C33  1  0.80604200  0.50000200  0.33808100  1
  C  C34  1  0.69396300  0.00000100  0.33806600  1
  C  C35  1  0.19401500  0.50000400  0.33808900  1
