# generated using pymatgen
data_CuNi5C
_symmetry_space_group_name_H-M   'P 1'
_cell_length_a   4.77082700
_cell_length_b   6.56227856
_cell_length_c   6.56227856
_cell_angle_alpha   97.88097503
_cell_angle_beta   111.31554054
_cell_angle_gamma   68.68445946
_symmetry_Int_Tables_number   1
_chemical_formula_structural   CuNi5C
_chemical_formula_sum   'Cu2 Ni10 C2'
_cell_volume   178.29861212
_cell_formula_units_Z   2
loop_
 _symmetry_equiv_pos_site_id
 _symmetry_equiv_pos_as_xyz
  1  'x, y, z'
loop_
 _atom_site_type_symbol
 _atom_site_label
 _atom_site_symmetry_multiplicity
 _atom_site_fract_x
 _atom_site_fract_y
 _atom_site_fract_z
 _atom_site_occupancy
  C  C0  1  0.00000000  0.00000000  0.00000000  1
  Ni  Ni1  1  0.71985000  0.78015000  0.21985000  1
  Ni  Ni2  1  0.28015000  0.21985000  0.78015000  1
  Ni  Ni3  1  0.50000000  0.77932900  0.77932900  1
  Ni  Ni4  1  0.50000000  0.22067100  0.22067100  1
  Ni  Ni5  1  0.50000000  0.00000000  0.50000000  1
  Ni  Ni6  1  0.00000000  0.00000000  0.50000000  1
  Ni  Ni7  1  0.50000000  0.50000000  0.00000000  1
  Ni  Ni8  1  0.00000000  0.50000000  0.00000000  1
  Ni  Ni9  1  0.64036700  0.35963300  0.64036700  1
  Ni  Ni10  1  0.35963300  0.64036700  0.35963300  1
  Cu  Cu11  1  0.00000000  0.35859000  0.35859000  1
  Cu  Cu12  1  0.00000000  0.64141000  0.64141000  1
  C  C13  1  0.50000000  0.00000000  0.00000000  1
