# generated using pymatgen
data_Cu2NiC6
_symmetry_space_group_name_H-M   'P 1'
_cell_length_a   3.88849100
_cell_length_b   5.27557000
_cell_length_c   17.74481182
_cell_angle_alpha   80.52320276
_cell_angle_beta   90.00000000
_cell_angle_gamma   90.00000000
_symmetry_Int_Tables_number   1
_chemical_formula_structural   Cu2NiC6
_chemical_formula_sum   'Cu8 Ni4 C24'
_cell_volume   359.04920857
_cell_formula_units_Z   4
loop_
 _symmetry_equiv_pos_site_id
 _symmetry_equiv_pos_as_xyz
  1  'x, y, z'
loop_
 _atom_site_type_symbol
 _atom_site_label
 _atom_site_symmetry_multiplicity
 _atom_site_fract_x
 _atom_site_fract_y
 _atom_site_fract_z
 _atom_site_occupancy
  C  C0  1  0.64692000  0.78407800  0.92828400  1
  C  C1  1  0.85308000  0.78407800  0.42828400  1
  C  C2  1  0.35308000  0.21592200  0.07171600  1
  C  C3  1  0.14692000  0.21592200  0.57171600  1
  Ni  Ni4  1  0.76318600  0.89202000  0.71368800  1
  Ni  Ni5  1  0.73681400  0.89202000  0.21368800  1
  Ni  Ni6  1  0.23681400  0.10798000  0.28631200  1
  Ni  Ni7  1  0.26318600  0.10798000  0.78631200  1
  Cu  Cu8  1  0.01157400  0.29756200  0.90064400  1
  Cu  Cu9  1  0.48842600  0.29756200  0.40064400  1
  Cu  Cu10  1  0.98842600  0.70243800  0.09935600  1
  Cu  Cu11  1  0.51157400  0.70243800  0.59935600  1
  Cu  Cu12  1  0.27866900  0.59709200  0.78558900  1
  Cu  Cu13  1  0.22133100  0.59709200  0.28558900  1
  Cu  Cu14  1  0.72133100  0.40290800  0.21441100  1
  Cu  Cu15  1  0.77866900  0.40290800  0.71441100  1
  C  C16  1  0.12906500  0.54091900  0.86464700  1
  C  C17  1  0.37093500  0.54091900  0.36464700  1
  C  C18  1  0.87093500  0.45908100  0.13535300  1
  C  C19  1  0.62906500  0.45908100  0.63535300  1
  C  C20  1  0.46658800  0.84090800  0.77956700  1
  C  C21  1  0.03341200  0.84090800  0.27956700  1
  C  C22  1  0.53341200  0.15909200  0.22043300  1
  C  C23  1  0.96658800  0.15909200  0.72043300  1
  C  C24  1  0.11677700  0.08171800  0.87257800  1
  C  C25  1  0.38322300  0.08171800  0.37257800  1
  C  C26  1  0.88322300  0.91828200  0.12742200  1
  C  C27  1  0.61677700  0.91828200  0.62742200  1
  C  C28  1  0.00111400  0.62529600  0.72628600  1
  C  C29  1  0.49888600  0.62529600  0.22628600  1
  C  C30  1  0.99888600  0.37470400  0.27371400  1
  C  C31  1  0.50111400  0.37470400  0.77371400  1
  C  C32  1  0.80596500  0.28286700  0.96373100  1
  C  C33  1  0.69403500  0.28286700  0.46373100  1
  C  C34  1  0.19403500  0.71713300  0.03626900  1
  C  C35  1  0.30596500  0.71713300  0.53626900  1
