# generated using pymatgen
data_Cu16NiC15
_symmetry_space_group_name_H-M   'P 1'
_cell_length_a   8.49980647
_cell_length_b   8.49980647
_cell_length_c   4.26860843
_cell_angle_alpha   90.00000000
_cell_angle_beta   90.00000000
_cell_angle_gamma   90.00000000
_symmetry_Int_Tables_number   1
_chemical_formula_structural   Cu16NiC15
_chemical_formula_sum   'Cu16 Ni1 C15'
_cell_volume   308.39291546
_cell_formula_units_Z   1
loop_
 _symmetry_equiv_pos_site_id
 _symmetry_equiv_pos_as_xyz
  1  'x, y, z'
loop_
 _atom_site_type_symbol
 _atom_site_label
 _atom_site_symmetry_multiplicity
 _atom_site_fract_x
 _atom_site_fract_y
 _atom_site_fract_z
 _atom_site_occupancy
  C  C0  1  -0.00000000  -0.00000000  -0.00000000  1
  C  C1  1  -0.00000000  0.50000000  -0.00000000  1
  C  C2  1  0.50000000  -0.00000000  -0.00000000  1
  C  C3  1  -0.00000000  0.24617166  0.50000000  1
  C  C4  1  -0.00000000  0.75382834  0.50000000  1
  C  C5  1  0.50000000  0.25289750  0.50000000  1
  C  C6  1  0.50000000  0.74710250  0.50000000  1
  C  C7  1  0.24617166  -0.00000000  0.50000000  1
  C  C8  1  0.25289750  0.50000000  0.50000000  1
  C  C9  1  0.75382834  -0.00000000  0.50000000  1
  C  C10  1  0.74710250  0.50000000  0.50000000  1
  C  C11  1  0.24793892  0.24793892  -0.00000000  1
  C  C12  1  0.24793892  0.75206108  0.00000000  1
  C  C13  1  0.75206108  0.24793892  -0.00000000  1
  C  C14  1  0.75206108  0.75206108  0.00000000  1
  Ni  Ni15  1  0.50000000  0.50000000  -0.00000000  1
  Cu  Cu16  1  0.26806154  -0.00000000  -0.00000000  1
  Cu  Cu17  1  0.27211160  0.50000000  -0.00000000  1
  Cu  Cu18  1  0.73193846  -0.00000000  -0.00000000  1
  Cu  Cu19  1  0.72788840  0.50000000  -0.00000000  1
  Cu  Cu20  1  0.25203344  0.25203344  0.50000000  1
  Cu  Cu21  1  0.25203344  0.74796656  0.50000000  1
  Cu  Cu22  1  0.74796656  0.25203344  0.50000000  1
  Cu  Cu23  1  0.74796656  0.74796656  0.50000000  1
  Cu  Cu24  1  -0.00000000  -0.00000000  0.50000000  1
  Cu  Cu25  1  -0.00000000  0.50000000  0.50000000  1
  Cu  Cu26  1  0.50000000  -0.00000000  0.50000000  1
  Cu  Cu27  1  0.50000000  0.50000000  0.50000000  1
  Cu  Cu28  1  -0.00000000  0.26806154  -0.00000000  1
  Cu  Cu29  1  -0.00000000  0.73193846  -0.00000000  1
  Cu  Cu30  1  0.50000000  0.27211160  -0.00000000  1
  Cu  Cu31  1  0.50000000  0.72788840  -0.00000000  1
