# generated using pymatgen
data_Cu9(NiC2)2
_symmetry_space_group_name_H-M   'P 1'
_cell_length_a   8.46970366
_cell_length_b   12.31315854
_cell_length_c   18.34449629
_cell_angle_alpha   85.36898298
_cell_angle_beta   76.65280024
_cell_angle_gamma   69.88357069
_symmetry_Int_Tables_number   1
_chemical_formula_structural   Cu9(NiC2)2
_chemical_formula_sum   'Cu36 Ni8 C16'
_cell_volume   1747.89179182
_cell_formula_units_Z   4
loop_
 _symmetry_equiv_pos_site_id
 _symmetry_equiv_pos_as_xyz
  1  'x, y, z'
loop_
 _atom_site_type_symbol
 _atom_site_label
 _atom_site_symmetry_multiplicity
 _atom_site_fract_x
 _atom_site_fract_y
 _atom_site_fract_z
 _atom_site_occupancy
  C  C0  1  0.63699918  0.28234465  0.94368212  1
  C  C1  1  0.13697404  0.28234465  0.94368212  1
  C  C2  1  0.36300082  0.71765535  0.05631788  1
  C  C3  1  0.86302596  0.71765535  0.05631788  1
  C  C4  1  0.08197953  0.78256428  0.55665355  1
  C  C5  1  0.57880263  0.78256428  0.55665355  1
  C  C6  1  0.91802047  0.21743572  0.44334645  1
  C  C7  1  0.42119737  0.21743572  0.44334645  1
  C  C8  1  0.04284747  0.61641393  0.79679440  1
  C  C9  1  0.54394420  0.61641393  0.79679440  1
  C  C10  1  0.95715253  0.38358607  0.20320560  1
  C  C11  1  0.45605580  0.38358607  0.20320560  1
  C  C12  1  0.84102614  0.11641529  0.70351337  1
  C  C13  1  0.33904521  0.11641529  0.70351337  1
  C  C14  1  0.15897386  0.88358471  0.29648663  1
  C  C15  1  0.66095479  0.88358471  0.29648663  1
  Ni  Ni16  1  0.96150532  0.44183926  0.63515009  1
  Ni  Ni17  1  0.03849468  0.55816074  0.36484991  1
  Ni  Ni18  1  0.09750414  0.93907040  0.86592131  1
  Ni  Ni19  1  0.90249586  0.06092960  0.13407869  1
  Ni  Ni20  1  0.46884130  0.45414811  0.60816929  1
  Ni  Ni21  1  0.53115870  0.54585189  0.39183071  1
  Ni  Ni22  1  0.57590164  0.95706864  0.89112807  1
  Ni  Ni23  1  0.42409836  0.04293136  0.10887193  1
  Cu  Cu24  1  0.82012274  0.48602367  0.87373084  1
  Cu  Cu25  1  0.17987726  0.51397633  0.12626916  1
  Cu  Cu26  1  0.60959532  0.18554213  0.59526723  1
  Cu  Cu27  1  0.39040468  0.81445787  0.40473277  1
  Cu  Cu28  1  0.32512746  0.47990936  0.86983572  1
  Cu  Cu29  1  0.67487254  0.52009064  0.13016428  1
  Cu  Cu30  1  0.19337353  0.98536136  0.62789158  1
  Cu  Cu31  1  0.80662647  0.01463864  0.37210842  1
  Cu  Cu32  1  0.70176003  0.68937059  0.90710935  1
  Cu  Cu33  1  0.29823997  0.31062941  0.09289065  1
  Cu  Cu34  1  0.69467585  0.98162743  0.62902086  1
  Cu  Cu35  1  0.30532415  0.01837257  0.37097914  1
  Cu  Cu36  1  0.20518693  0.67986882  0.90975731  1
  Cu  Cu37  1  0.79481307  0.32013118  0.09024269  1
  Cu  Cu38  1  0.11323198  0.18565385  0.58788218  1
  Cu  Cu39  1  0.88676802  0.81434615  0.41211782  1
  Cu  Cu40  1  0.82949706  0.65902471  0.68198117  1
  Cu  Cu41  1  0.17050294  0.34097529  0.31801883  1
  Cu  Cu42  1  0.50992064  0.15971881  0.82043992  1
  Cu  Cu43  1  0.49007936  0.84028119  0.17956008  1
  Cu  Cu44  1  0.33305912  0.65559452  0.67828725  1
  Cu  Cu45  1  0.66694088  0.34440548  0.32171275  1
  Cu  Cu46  1  0.01237861  0.15555625  0.81968653  1
  Cu  Cu47  1  0.98762139  0.84444375  0.18031347  1
  Cu  Cu48  1  0.70543879  0.38301181  0.71984104  1
  Cu  Cu49  1  0.19170836  0.38301181  0.71984104  1
  Cu  Cu50  1  0.29456121  0.61698819  0.28015896  1
  Cu  Cu51  1  0.80829164  0.61698819  0.28015896  1
  Cu  Cu52  1  0.92499024  0.88283515  0.78058225  1
  Cu  Cu53  1  0.41159235  0.88283515  0.78058225  1
  Cu  Cu54  1  0.07500976  0.11716485  0.21941775  1
  Cu  Cu55  1  0.58840765  0.11716485  0.21941775  1
  Cu  Cu56  1  0.27215491  0.50000000  0.50000000  1
  Cu  Cu57  1  0.72784509  0.50000000  0.50000000  1
  Cu  Cu58  1  0.72734079  0.00000000  -0.00000000  1
  Cu  Cu59  1  0.27265921  0.00000000  -0.00000000  1
