# generated using pymatgen
data_Cu(Ni3C5)2
_symmetry_space_group_name_H-M   'P 1'
_cell_length_a   7.84188781
_cell_length_b   7.84188781
_cell_length_c   5.29210600
_cell_angle_alpha   90.00000000
_cell_angle_beta   90.00000000
_cell_angle_gamma   119.99999838
_symmetry_Int_Tables_number   1
_chemical_formula_structural   Cu(Ni3C5)2
_chemical_formula_sum   'Cu1 Ni6 C10'
_cell_volume   281.83856735
_cell_formula_units_Z   1
loop_
 _symmetry_equiv_pos_site_id
 _symmetry_equiv_pos_as_xyz
  1  'x, y, z'
loop_
 _atom_site_type_symbol
 _atom_site_label
 _atom_site_symmetry_multiplicity
 _atom_site_fract_x
 _atom_site_fract_y
 _atom_site_fract_z
 _atom_site_occupancy
  C  C0  1  0.33333300  0.66666700  0.50000000  1
  C  C1  1  0.66666700  0.33333300  0.50000000  1
  C  C2  1  0.66666700  0.33333300  0.00000000  1
  C  C3  1  0.33333300  0.66666700  0.00000000  1
  C  C4  1  0.00000000  0.76128400  0.24216500  1
  C  C5  1  0.23871600  0.23871600  0.24216500  1
  C  C6  1  0.76128400  0.00000000  0.24216500  1
  C  C7  1  0.00000000  0.23871600  0.75783500  1
  C  C8  1  0.76128400  0.76128400  0.75783500  1
  C  C9  1  0.23871600  0.00000000  0.75783500  1
  Ni  Ni10  1  0.00000000  0.40121100  0.25218100  1
  Ni  Ni11  1  0.59878900  0.59878900  0.25218100  1
  Ni  Ni12  1  0.40121100  0.00000000  0.25218100  1
  Ni  Ni13  1  0.00000000  0.59878900  0.74781900  1
  Ni  Ni14  1  0.40121100  0.40121100  0.74781900  1
  Ni  Ni15  1  0.59878900  0.00000000  0.74781900  1
  Cu  Cu16  1  0.00000000  0.00000000  0.50000000  1
