# generated using pymatgen
data_Cu2NiC7
_symmetry_space_group_name_H-M   'P 1'
_cell_length_a   9.54264500
_cell_length_b   10.62613600
_cell_length_c   11.16304128
_cell_angle_alpha   85.63492537
_cell_angle_beta   90.00000000
_cell_angle_gamma   90.00000000
_symmetry_Int_Tables_number   1
_chemical_formula_structural   Cu2NiC7
_chemical_formula_sum   'Cu12 Ni6 C42'
_cell_volume   1128.66509329
_cell_formula_units_Z   6
loop_
 _symmetry_equiv_pos_site_id
 _symmetry_equiv_pos_as_xyz
  1  'x, y, z'
loop_
 _atom_site_type_symbol
 _atom_site_label
 _atom_site_symmetry_multiplicity
 _atom_site_fract_x
 _atom_site_fract_y
 _atom_site_fract_z
 _atom_site_occupancy
  Ni  Ni0  1  0.93691000  0.40951300  0.19608000  1
  Ni  Ni1  1  0.06309000  0.59048700  0.80392000  1
  Ni  Ni2  1  0.43518100  0.25000000  0.50000000  1
  Ni  Ni3  1  0.93691000  0.09048700  0.80392000  1
  Ni  Ni4  1  0.56481900  0.75000000  0.50000000  1
  Ni  Ni5  1  0.06309000  0.90951300  0.19608000  1
  Cu  Cu6  1  0.21189900  0.29313200  0.83370400  1
  Cu  Cu7  1  0.75487400  0.37764200  0.83826300  1
  Cu  Cu8  1  0.24512600  0.87764200  0.83826300  1
  Cu  Cu9  1  0.78810100  0.79313200  0.83370400  1
  Cu  Cu10  1  0.28454900  0.95846000  0.52212000  1
  Cu  Cu11  1  0.75487400  0.12235800  0.16173700  1
  Cu  Cu12  1  0.71545100  0.45846000  0.52212000  1
  Cu  Cu13  1  0.24512600  0.62235800  0.16173700  1
  Cu  Cu14  1  0.28454900  0.54154000  0.47788000  1
  Cu  Cu15  1  0.71545100  0.04154000  0.47788000  1
  Cu  Cu16  1  0.78810100  0.70686800  0.16629600  1
  Cu  Cu17  1  0.21189900  0.20686800  0.16629600  1
  C  C18  1  0.78851900  0.96768600  0.80526900  1
  C  C19  1  0.78264400  0.29418700  0.17373200  1
  C  C20  1  0.85363500  0.75000000  0.00000000  1
  C  C21  1  0.88686700  0.10879000  0.49458200  1
  C  C22  1  0.36975400  0.58302700  0.04983100  1
  C  C23  1  0.93455200  0.72031100  0.75361900  1
  C  C24  1  0.34367700  0.93774000  0.69025600  1
  C  C25  1  0.11313300  0.60879000  0.49458200  1
  C  C26  1  0.71564600  0.86859600  0.51739000  1
  C  C27  1  0.36975400  0.91697300  0.95016900  1
  C  C28  1  0.71564600  0.63140400  0.48261000  1
  C  C29  1  0.43310100  0.88067300  0.44881100  1
  C  C30  1  0.92507300  0.03829700  0.15062200  1
  C  C31  1  0.06544800  0.22031100  0.75361900  1
  C  C32  1  0.65632300  0.06226000  0.30974400  1
  C  C33  1  0.34367700  0.56226000  0.30974400  1
  C  C34  1  0.93455200  0.77968900  0.24638100  1
  C  C35  1  0.63024600  0.41697300  0.95016900  1
  C  C36  1  0.21148100  0.46768600  0.80526900  1
  C  C37  1  0.56689900  0.11932700  0.55118900  1
  C  C38  1  0.38185600  0.27241800  0.19437500  1
  C  C39  1  0.28435400  0.13140400  0.48261000  1
  C  C40  1  0.07492700  0.53829700  0.15062200  1
  C  C41  1  0.28435400  0.36859600  0.51739000  1
  C  C42  1  0.88686700  0.39121000  0.50541800  1
  C  C43  1  0.56689900  0.38067300  0.44881100  1
  C  C44  1  0.11313300  0.89121000  0.50541800  1
  C  C45  1  0.61814400  0.77241800  0.19437500  1
  C  C46  1  0.61814400  0.72758200  0.80562500  1
  C  C47  1  0.07492700  0.96170300  0.84937800  1
  C  C48  1  0.06544800  0.27968900  0.24638100  1
  C  C49  1  0.78851900  0.53231400  0.19473100  1
  C  C50  1  0.14636500  0.25000000  0.00000000  1
  C  C51  1  0.21735600  0.79418700  0.17373200  1
  C  C52  1  0.63024600  0.08302700  0.04983100  1
  C  C53  1  0.92507300  0.46170300  0.84937800  1
  C  C54  1  0.21148100  0.03231400  0.19473100  1
  C  C55  1  0.78264400  0.20581300  0.82626800  1
  C  C56  1  0.43310100  0.61932700  0.55118900  1
  C  C57  1  0.65632300  0.43774000  0.69025600  1
  C  C58  1  0.21735600  0.70581300  0.82626800  1
  C  C59  1  0.38185600  0.22758200  0.80562500  1
