# generated using pymatgen
data_CuNi2C11
_symmetry_space_group_name_H-M   'P 1'
_cell_length_a   7.47440178
_cell_length_b   7.42378215
_cell_length_c   7.41746404
_cell_angle_alpha   59.80332766
_cell_angle_beta   59.02297517
_cell_angle_gamma   59.01240840
_symmetry_Int_Tables_number   1
_chemical_formula_structural   CuNi2C11
_chemical_formula_sum   'Cu1 Ni2 C11'
_cell_volume   286.22127859
_cell_formula_units_Z   1
loop_
 _symmetry_equiv_pos_site_id
 _symmetry_equiv_pos_as_xyz
  1  'x, y, z'
loop_
 _atom_site_type_symbol
 _atom_site_label
 _atom_site_symmetry_multiplicity
 _atom_site_fract_x
 _atom_site_fract_y
 _atom_site_fract_z
 _atom_site_occupancy
  Ni  Ni0  1  0.87391200  0.87430800  0.87422100  1
  Ni  Ni1  1  0.12610400  0.12570600  0.12575000  1
  C  C2  1  0.49996400  0.49993900  0.00012000  1
  C  C3  1  0.99998600  0.49998700  0.50005700  1
  C  C4  1  0.49995100  0.99989700  0.50011500  1
  Cu  Cu5  1  0.50000600  0.50010900  0.49988900  1
  C  C6  1  0.74114900  0.73918400  0.73915700  1
  C  C7  1  0.25249700  0.25309600  0.71730600  1
  C  C8  1  0.25252200  0.71745400  0.25285700  1
  C  C9  1  0.71717800  0.24879700  0.24886200  1
  C  C10  1  0.74748800  0.28255300  0.74706900  1
  C  C11  1  0.28283400  0.75121600  0.75110700  1
  C  C12  1  0.25886800  0.26080400  0.26083800  1
  C  C13  1  0.74754600  0.74694700  0.28265400  1
