# generated using pymatgen
data_Cu2Ni4C15
_symmetry_space_group_name_H-M   'P 1'
_cell_length_a   8.21328551
_cell_length_b   8.21328551
_cell_length_c   10.95879884
_cell_angle_alpha   82.88894919
_cell_angle_beta   82.88894919
_cell_angle_gamma   88.42884435
_symmetry_Int_Tables_number   1
_chemical_formula_structural   Cu2Ni4C15
_chemical_formula_sum   'Cu4 Ni8 C30'
_cell_volume   727.87548457
_cell_formula_units_Z   2
loop_
 _symmetry_equiv_pos_site_id
 _symmetry_equiv_pos_as_xyz
  1  'x, y, z'
loop_
 _atom_site_type_symbol
 _atom_site_label
 _atom_site_symmetry_multiplicity
 _atom_site_fract_x
 _atom_site_fract_y
 _atom_site_fract_z
 _atom_site_occupancy
  C  C0  1  0.50000000  0.00000000  0.50000000  1
  C  C1  1  0.00000000  0.50000000  0.00000000  1
  Ni  Ni2  1  0.12735500  0.75323100  0.55546700  1
  Ni  Ni3  1  0.24676900  0.87264500  0.94453300  1
  Ni  Ni4  1  0.87264500  0.24676900  0.44453300  1
  Ni  Ni5  1  0.75323100  0.12735500  0.05546700  1
  Ni  Ni6  1  0.75536500  0.66917200  0.71049100  1
  Ni  Ni7  1  0.33082800  0.24463500  0.78950900  1
  Ni  Ni8  1  0.24463500  0.33082800  0.28950900  1
  Ni  Ni9  1  0.66917200  0.75536500  0.21049100  1
  Cu  Cu10  1  0.95075400  0.04924600  0.75000000  1
  Cu  Cu11  1  0.04924600  0.95075400  0.25000000  1
  Cu  Cu12  1  0.50000000  0.50000000  0.50000000  1
  Cu  Cu13  1  0.50000000  0.50000000  0.00000000  1
  C  C14  1  0.14365600  0.95280200  0.61838100  1
  C  C15  1  0.04719800  0.85634400  0.88161900  1
  C  C16  1  0.85634400  0.04719800  0.38161900  1
  C  C17  1  0.95280200  0.14365600  0.11838100  1
  C  C18  1  0.32583800  0.65048800  0.56838300  1
  C  C19  1  0.34951200  0.67416200  0.93161700  1
  C  C20  1  0.67416200  0.34951200  0.43161700  1
  C  C21  1  0.65048800  0.32583800  0.06838300  1
  C  C22  1  0.10372600  0.79087100  0.38879500  1
  C  C23  1  0.20912900  0.89627400  0.11120500  1
  C  C24  1  0.89627400  0.20912900  0.61120500  1
  C  C25  1  0.79087100  0.10372600  0.88879500  1
  C  C26  1  0.97696100  0.60042700  0.66237300  1
  C  C27  1  0.39957300  0.02303900  0.83762700  1
  C  C28  1  0.02303900  0.39957300  0.33762700  1
  C  C29  1  0.60042700  0.97696100  0.16237300  1
  C  C30  1  0.77721800  0.89497800  0.70908400  1
  C  C31  1  0.10502200  0.22278200  0.79091600  1
  C  C32  1  0.22278200  0.10502200  0.29091600  1
  C  C33  1  0.89497800  0.77721800  0.20908400  1
  C  C34  1  0.63734500  0.64259000  0.58329600  1
  C  C35  1  0.35741000  0.36265500  0.91670400  1
  C  C36  1  0.36265500  0.35741000  0.41670400  1
  C  C37  1  0.64259000  0.63734500  0.08329600  1
  C  C38  1  0.68421900  0.54442300  0.85984100  1
  C  C39  1  0.45557700  0.31578100  0.64015900  1
  C  C40  1  0.31578100  0.45557700  0.14015900  1
  C  C41  1  0.54442300  0.68421900  0.35984100  1
