# generated using pymatgen
data_Cu7NiC4
_symmetry_space_group_name_H-M   'P 1'
_cell_length_a   8.92647500
_cell_length_b   8.92647500
_cell_length_c   12.15926100
_cell_angle_alpha   90.00000000
_cell_angle_beta   90.00000000
_cell_angle_gamma   90.00000000
_symmetry_Int_Tables_number   1
_chemical_formula_structural   Cu7NiC4
_chemical_formula_sum   'Cu28 Ni4 C16'
_cell_volume   968.87369909
_cell_formula_units_Z   4
loop_
 _symmetry_equiv_pos_site_id
 _symmetry_equiv_pos_as_xyz
  1  'x, y, z'
loop_
 _atom_site_type_symbol
 _atom_site_label
 _atom_site_symmetry_multiplicity
 _atom_site_fract_x
 _atom_site_fract_y
 _atom_site_fract_z
 _atom_site_occupancy
  C  C0  1  0.90652100  0.35500100  0.52961100  1
  C  C1  1  0.09347900  0.64499900  0.02961100  1
  C  C2  1  0.35500100  0.09347900  0.27961100  1
  C  C3  1  0.64499900  0.90652100  0.77961100  1
  C  C4  1  0.62500500  0.14428300  0.96523200  1
  C  C5  1  0.37499500  0.85571700  0.46523200  1
  C  C6  1  0.14428300  0.37499500  0.71523200  1
  C  C7  1  0.85571700  0.62500500  0.21523200  1
  C  C8  1  0.53581100  0.41154000  0.95988900  1
  C  C9  1  0.46418900  0.58846000  0.45988900  1
  C  C10  1  0.41154000  0.46418900  0.70988900  1
  C  C11  1  0.58846000  0.53581100  0.20988900  1
  C  C12  1  0.29087200  0.67293600  0.74322500  1
  C  C13  1  0.70912800  0.32706400  0.24322500  1
  C  C14  1  0.67293600  0.70912800  0.49322500  1
  C  C15  1  0.32706400  0.29087200  0.99322500  1
  Ni  Ni16  1  0.85020000  0.09297700  0.71804300  1
  Ni  Ni17  1  0.14980000  0.90702300  0.21804300  1
  Ni  Ni18  1  0.09297700  0.14980000  0.46804300  1
  Ni  Ni19  1  0.90702300  0.85020000  0.96804300  1
  Cu  Cu20  1  0.05609200  0.51694900  0.61250500  1
  Cu  Cu21  1  0.94390800  0.48305100  0.11250500  1
  Cu  Cu22  1  0.51694900  0.94390800  0.36250500  1
  Cu  Cu23  1  0.48305100  0.05609200  0.86250500  1
  Cu  Cu24  1  0.40801300  0.52806800  0.77547300  1
  Cu  Cu25  1  0.59198700  0.47193200  0.27547300  1
  Cu  Cu26  1  0.52806800  0.59198700  0.52547300  1
  Cu  Cu27  1  0.47193200  0.40801300  0.02547300  1
  Cu  Cu28  1  0.39735100  0.80424400  0.74687900  1
  Cu  Cu29  1  0.60264900  0.19575600  0.24687900  1
  Cu  Cu30  1  0.80424400  0.60264900  0.49687900  1
  Cu  Cu31  1  0.19575600  0.39735100  0.99687900  1
  Cu  Cu32  1  0.19821100  0.67779100  0.84770700  1
  Cu  Cu33  1  0.80178900  0.32220900  0.34770700  1
  Cu  Cu34  1  0.67779100  0.80178900  0.59770700  1
  Cu  Cu35  1  0.32220900  0.19821100  0.09770700  1
  Cu  Cu36  1  0.73463500  0.14359400  0.66551200  1
  Cu  Cu37  1  0.26536500  0.85640600  0.16551200  1
  Cu  Cu38  1  0.14359400  0.26536500  0.41551200  1
  Cu  Cu39  1  0.85640600  0.73463500  0.91551200  1
  Cu  Cu40  1  0.96983700  0.16068500  0.70420900  1
  Cu  Cu41  1  0.03016300  0.83931500  0.20420900  1
  Cu  Cu42  1  0.16068500  0.03016300  0.45420900  1
  Cu  Cu43  1  0.83931500  0.96983700  0.95420900  1
  Cu  Cu44  1  0.61158800  0.15709000  0.88562500  1
  Cu  Cu45  1  0.38841200  0.84291000  0.38562500  1
  Cu  Cu46  1  0.15709000  0.38841200  0.63562500  1
  Cu  Cu47  1  0.84291000  0.61158800  0.13562500  1
