# generated using pymatgen
data_Cu2NiC4
_symmetry_space_group_name_H-M   'P 1'
_cell_length_a   5.05326685
_cell_length_b   5.05326685
_cell_length_c   9.94085400
_cell_angle_alpha   90.00000000
_cell_angle_beta   90.00000000
_cell_angle_gamma   146.22369376
_symmetry_Int_Tables_number   1
_chemical_formula_structural   Cu2NiC4
_chemical_formula_sum   'Cu4 Ni2 C8'
_cell_volume   141.12546985
_cell_formula_units_Z   2
loop_
 _symmetry_equiv_pos_site_id
 _symmetry_equiv_pos_as_xyz
  1  'x, y, z'
loop_
 _atom_site_type_symbol
 _atom_site_label
 _atom_site_symmetry_multiplicity
 _atom_site_fract_x
 _atom_site_fract_y
 _atom_site_fract_z
 _atom_site_occupancy
  Ni  Ni0  1  0.60802700  0.39197300  0.75000000  1
  Ni  Ni1  1  0.39197300  0.60802700  0.25000000  1
  Cu  Cu2  1  0.13289300  0.86710700  0.07070100  1
  Cu  Cu3  1  0.86710700  0.13289300  0.92929900  1
  Cu  Cu4  1  0.13289300  0.86710700  0.42929900  1
  Cu  Cu5  1  0.86710700  0.13289300  0.57070100  1
  C  C6  1  0.76867500  0.23132500  0.38894300  1
  C  C7  1  0.23132500  0.76867500  0.61105700  1
  C  C8  1  0.23132500  0.76867500  0.88894300  1
  C  C9  1  0.76867500  0.23132500  0.11105700  1
  C  C10  1  0.03720100  0.96279900  0.25000000  1
  C  C11  1  0.96279900  0.03720100  0.75000000  1
  C  C12  1  0.50000000  0.50000000  0.00000000  1
  C  C13  1  0.50000000  0.50000000  0.50000000  1
