# generated using pymatgen
data_Cu4Ni4C13
_symmetry_space_group_name_H-M   'P 1'
_cell_length_a   3.60778700
_cell_length_b   7.59403321
_cell_length_c   9.56351283
_cell_angle_alpha   71.91852828
_cell_angle_beta   81.75813329
_cell_angle_gamma   76.25555801
_symmetry_Int_Tables_number   1
_chemical_formula_structural   Cu4Ni4C13
_chemical_formula_sum   'Cu4 Ni4 C13'
_cell_volume   241.25756629
_cell_formula_units_Z   1
loop_
 _symmetry_equiv_pos_site_id
 _symmetry_equiv_pos_as_xyz
  1  'x, y, z'
loop_
 _atom_site_type_symbol
 _atom_site_label
 _atom_site_symmetry_multiplicity
 _atom_site_fract_x
 _atom_site_fract_y
 _atom_site_fract_z
 _atom_site_occupancy
  C  C0  1  0.30986400  0.70126500  0.57342300  1
  C  C1  1  0.69013600  0.29873500  0.42657700  1
  C  C2  1  0.00000000  0.00000000  0.00000000  1
  Ni  Ni3  1  0.55980000  0.47095900  0.80764800  1
  Ni  Ni4  1  0.44020000  0.52904100  0.19235200  1
  Ni  Ni5  1  0.67427500  0.67627500  0.82770200  1
  Ni  Ni6  1  0.32572500  0.32372500  0.17229800  1
  Cu  Cu7  1  0.95965700  0.78029100  0.27572000  1
  Cu  Cu8  1  0.04034300  0.21970900  0.72428000  1
  Cu  Cu9  1  0.26566600  0.97170200  0.25451000  1
  Cu  Cu10  1  0.73433400  0.02829800  0.74549000  1
  C  C11  1  0.80823300  0.76544000  0.16278800  1
  C  C12  1  0.19176700  0.23456000  0.83721200  1
  C  C13  1  0.33664600  0.09332200  0.12517300  1
  C  C14  1  0.66335400  0.90667800  0.87482700  1
  C  C15  1  0.87484400  0.65513300  0.39641000  1
  C  C16  1  0.12515600  0.34486700  0.60359000  1
  C  C17  1  0.42579700  0.99864800  0.35737000  1
  C  C18  1  0.57420300  0.00135200  0.64263000  1
  C  C19  1  0.70941200  0.60340500  0.75742400  1
  C  C20  1  0.29058800  0.39659500  0.24257600  1
