# generated using pymatgen
data_CuNiC11
_symmetry_space_group_name_H-M   'P 1'
_cell_length_a   8.65786500
_cell_length_b   8.81983300
_cell_length_c   13.13737800
_cell_angle_alpha   90.00000000
_cell_angle_beta   90.00000000
_cell_angle_gamma   90.00000000
_symmetry_Int_Tables_number   1
_chemical_formula_structural   CuNiC11
_chemical_formula_sum   'Cu4 Ni4 C44'
_cell_volume   1003.18231561
_cell_formula_units_Z   4
loop_
 _symmetry_equiv_pos_site_id
 _symmetry_equiv_pos_as_xyz
  1  'x, y, z'
loop_
 _atom_site_type_symbol
 _atom_site_label
 _atom_site_symmetry_multiplicity
 _atom_site_fract_x
 _atom_site_fract_y
 _atom_site_fract_z
 _atom_site_occupancy
  Ni  Ni0  1  0.80217300  0.75000000  0.44034000  1
  Ni  Ni1  1  0.69782700  0.75000000  0.94034000  1
  Ni  Ni2  1  0.19782700  0.25000000  0.55966000  1
  Ni  Ni3  1  0.30217300  0.25000000  0.05966000  1
  Cu  Cu4  1  0.27477300  0.75000000  0.22436300  1
  Cu  Cu5  1  0.22522700  0.75000000  0.72436300  1
  Cu  Cu6  1  0.72522700  0.25000000  0.77563700  1
  Cu  Cu7  1  0.77477300  0.25000000  0.27563700  1
  C  C8  1  0.45910900  0.75000000  0.09576100  1
  C  C9  1  0.04089100  0.75000000  0.59576100  1
  C  C10  1  0.54089100  0.25000000  0.90423900  1
  C  C11  1  0.95910900  0.25000000  0.40423900  1
  C  C12  1  0.10109200  0.75000000  0.12807600  1
  C  C13  1  0.39890800  0.75000000  0.62807600  1
  C  C14  1  0.89890800  0.25000000  0.87192400  1
  C  C15  1  0.60109200  0.25000000  0.37192400  1
  C  C16  1  0.25556000  0.57162100  0.31315700  1
  C  C17  1  0.24444000  0.92837900  0.81315700  1
  C  C18  1  0.74444000  0.07162100  0.68684300  1
  C  C19  1  0.75556000  0.42837900  0.18684300  1
  C  C20  1  0.74444000  0.42837900  0.68684300  1
  C  C21  1  0.75556000  0.07162100  0.18684300  1
  C  C22  1  0.25556000  0.92837900  0.31315700  1
  C  C23  1  0.24444000  0.57162100  0.81315700  1
  C  C24  1  0.43303900  0.75000000  0.17372700  1
  C  C25  1  0.06696100  0.75000000  0.67372700  1
  C  C26  1  0.56696100  0.25000000  0.82627300  1
  C  C27  1  0.93303900  0.25000000  0.32627300  1
  C  C28  1  0.73714400  0.75000000  0.56833200  1
  C  C29  1  0.76285600  0.75000000  0.06833200  1
  C  C30  1  0.26285600  0.25000000  0.43166800  1
  C  C31  1  0.23714400  0.25000000  0.93166800  1
  C  C32  1  0.00128800  0.75000000  0.49206800  1
  C  C33  1  0.49871200  0.75000000  0.99206800  1
  C  C34  1  0.99871200  0.25000000  0.50793200  1
  C  C35  1  0.50128800  0.25000000  0.00793200  1
  C  C36  1  0.61097500  0.75000000  0.39558700  1
  C  C37  1  0.88902500  0.75000000  0.89558700  1
  C  C38  1  0.38902500  0.25000000  0.60441300  1
  C  C39  1  0.11097500  0.25000000  0.10441300  1
  C  C40  1  0.88160100  0.75000000  0.31718700  1
  C  C41  1  0.61839900  0.75000000  0.81718700  1
  C  C42  1  0.11839900  0.25000000  0.68281300  1
  C  C43  1  0.38160100  0.25000000  0.18281300  1
  C  C44  1  0.80865700  0.54982800  0.44159300  1
  C  C45  1  0.69134300  0.95017200  0.94159300  1
  C  C46  1  0.19134300  0.04982800  0.55840700  1
  C  C47  1  0.30865700  0.45017200  0.05840700  1
  C  C48  1  0.19134300  0.45017200  0.55840700  1
  C  C49  1  0.30865700  0.04982800  0.05840700  1
  C  C50  1  0.80865700  0.95017200  0.44159300  1
  C  C51  1  0.69134300  0.54982800  0.94159300  1
