# generated using pymatgen
data_Cu3(Ni2C3)4
_symmetry_space_group_name_H-M   'P 1'
_cell_length_a   5.87490700
_cell_length_b   5.87490700
_cell_length_c   17.75311500
_cell_angle_alpha   90.00000000
_cell_angle_beta   90.00000000
_cell_angle_gamma   90.00000000
_symmetry_Int_Tables_number   1
_chemical_formula_structural   Cu3(Ni2C3)4
_chemical_formula_sum   'Cu3 Ni8 C12'
_cell_volume   612.74046036
_cell_formula_units_Z   1
loop_
 _symmetry_equiv_pos_site_id
 _symmetry_equiv_pos_as_xyz
  1  'x, y, z'
loop_
 _atom_site_type_symbol
 _atom_site_label
 _atom_site_symmetry_multiplicity
 _atom_site_fract_x
 _atom_site_fract_y
 _atom_site_fract_z
 _atom_site_occupancy
  Ni  Ni0  1  0.00000000  0.00000000  0.33221700  1
  Ni  Ni1  1  0.00000000  0.50000000  0.50022200  1
  Ni  Ni2  1  0.00000000  0.00000000  0.66778300  1
  Ni  Ni3  1  0.00000000  0.50000000  0.83929300  1
  Ni  Ni4  1  0.50000000  0.00000000  0.16070700  1
  Ni  Ni5  1  0.50000000  0.50000000  0.33377900  1
  Ni  Ni6  1  0.50000000  0.00000000  0.49977800  1
  Ni  Ni7  1  0.50000000  0.50000000  0.66622100  1
  Cu  Cu8  1  0.00000000  0.50000000  0.15928600  1
  Cu  Cu9  1  0.50000000  0.50000000  0.00000000  1
  Cu  Cu10  1  0.50000000  0.00000000  0.84071400  1
  C  C11  1  0.50000000  0.50000000  0.16366600  1
  C  C12  1  0.50000000  0.00000000  0.33238000  1
  C  C13  1  0.00000000  0.00000000  0.16868500  1
  C  C14  1  0.50000000  0.50000000  0.50000000  1
  C  C15  1  0.50000000  0.00000000  0.67200900  1
  C  C16  1  0.00000000  0.50000000  0.32799100  1
  C  C17  1  0.00000000  0.00000000  0.50000000  1
  C  C18  1  0.50000000  0.50000000  0.83633400  1
  C  C19  1  0.50000000  0.00000000  0.99693600  1
  C  C20  1  0.00000000  0.50000000  0.66762000  1
  C  C21  1  0.00000000  0.00000000  0.83131500  1
  C  C22  1  0.00000000  0.50000000  0.00306400  1
