# generated using pymatgen
data_Cu6Ni2C5
_symmetry_space_group_name_H-M   'P 1'
_cell_length_a   4.16802100
_cell_length_b   12.30717700
_cell_length_c   13.91667200
_cell_angle_alpha   90.00000000
_cell_angle_beta   90.00000000
_cell_angle_gamma   90.00000000
_symmetry_Int_Tables_number   1
_chemical_formula_structural   Cu6Ni2C5
_chemical_formula_sum   'Cu12 Ni4 C10'
_cell_volume   713.87756985
_cell_formula_units_Z   2
loop_
 _symmetry_equiv_pos_site_id
 _symmetry_equiv_pos_as_xyz
  1  'x, y, z'
loop_
 _atom_site_type_symbol
 _atom_site_label
 _atom_site_symmetry_multiplicity
 _atom_site_fract_x
 _atom_site_fract_y
 _atom_site_fract_z
 _atom_site_occupancy
  C  C0  1  0.00000000  0.62897600  0.06954800  1
  C  C1  1  0.00000000  0.61886000  0.74217500  1
  C  C2  1  0.00000000  0.12897600  0.43045200  1
  C  C3  1  0.00000000  0.87102400  0.56954800  1
  C  C4  1  0.00000000  0.50000000  0.50000000  1
  C  C5  1  0.00000000  0.00000000  0.00000000  1
  C  C6  1  0.00000000  0.88114000  0.24217500  1
  C  C7  1  0.00000000  0.11886000  0.75782500  1
  C  C8  1  0.00000000  0.38114000  0.25782500  1
  C  C9  1  0.00000000  0.37102400  0.93045200  1
  Ni  Ni10  1  0.50000000  0.28531600  0.60347000  1
  Ni  Ni11  1  0.50000000  0.21468400  0.10347000  1
  Ni  Ni12  1  0.50000000  0.78531600  0.89653000  1
  Ni  Ni13  1  0.50000000  0.71468400  0.39653000  1
  Cu  Cu14  1  0.00000000  0.63450000  0.30642300  1
  Cu  Cu15  1  0.50000000  0.07981500  0.60185000  1
  Cu  Cu16  1  0.50000000  0.42018500  0.10185000  1
  Cu  Cu17  1  0.50000000  0.57981500  0.89815000  1
  Cu  Cu18  1  0.50000000  0.66987000  0.57585900  1
  Cu  Cu19  1  0.50000000  0.33013000  0.42414100  1
  Cu  Cu20  1  0.50000000  0.16987000  0.92414100  1
  Cu  Cu21  1  0.50000000  0.83013000  0.07585900  1
  Cu  Cu22  1  0.50000000  0.92018500  0.39815000  1
  Cu  Cu23  1  0.00000000  0.86550000  0.80642300  1
  Cu  Cu24  1  0.00000000  0.36550000  0.69357700  1
  Cu  Cu25  1  0.00000000  0.13450000  0.19357700  1
