# generated using pymatgen
data_Cu12Ni3C11
_symmetry_space_group_name_H-M   'P 1'
_cell_length_a   9.66085864
_cell_length_b   9.66085864
_cell_length_c   9.74717550
_cell_angle_alpha   83.42125687
_cell_angle_beta   83.42125687
_cell_angle_gamma   82.05645749
_symmetry_Int_Tables_number   1
_chemical_formula_structural   Cu12Ni3C11
_chemical_formula_sum   'Cu24 Ni6 C22'
_cell_volume   890.54504998
_cell_formula_units_Z   2
loop_
 _symmetry_equiv_pos_site_id
 _symmetry_equiv_pos_as_xyz
  1  'x, y, z'
loop_
 _atom_site_type_symbol
 _atom_site_label
 _atom_site_symmetry_multiplicity
 _atom_site_fract_x
 _atom_site_fract_y
 _atom_site_fract_z
 _atom_site_occupancy
  C  C0  1  0.46285000  0.24751600  0.03213200  1
  C  C1  1  0.53715000  0.75248400  0.96786800  1
  C  C2  1  0.75248400  0.53715000  0.46786800  1
  C  C3  1  0.24751600  0.46285000  0.53213200  1
  C  C4  1  0.03514400  0.96485600  0.25000000  1
  C  C5  1  0.96485600  0.03514400  0.75000000  1
  C  C6  1  0.60521000  0.80970300  0.40800400  1
  C  C7  1  0.39479000  0.19029700  0.59199600  1
  C  C8  1  0.19029700  0.39479000  0.09199600  1
  C  C9  1  0.80970300  0.60521000  0.90800400  1
  C  C10  1  0.65528000  0.13108900  0.40705600  1
  C  C11  1  0.34472000  0.86891100  0.59294400  1
  C  C12  1  0.86891100  0.34472000  0.09294400  1
  C  C13  1  0.13108900  0.65528000  0.90705600  1
  C  C14  1  0.37716400  0.19206600  0.20555900  1
  C  C15  1  0.62283600  0.80793400  0.79444100  1
  C  C16  1  0.80793400  0.62283600  0.29444100  1
  C  C17  1  0.19206600  0.37716400  0.70555900  1
  C  C18  1  0.25971700  0.90852000  0.30233400  1
  C  C19  1  0.74028300  0.09148000  0.69766600  1
  C  C20  1  0.09148000  0.74028300  0.19766600  1
  C  C21  1  0.90852000  0.25971700  0.80233400  1
  Ni  Ni22  1  0.49852500  0.50147500  0.25000000  1
  Ni  Ni23  1  0.50147500  0.49852500  0.75000000  1
  Ni  Ni24  1  0.75035600  0.98940800  0.04618800  1
  Ni  Ni25  1  0.24964400  0.01059200  0.95381200  1
  Ni  Ni26  1  0.01059200  0.24964400  0.45381200  1
  Ni  Ni27  1  0.98940800  0.75035600  0.54618800  1
  Cu  Cu28  1  0.51414200  0.64688300  0.18954300  1
  Cu  Cu29  1  0.48585800  0.35311700  0.81045700  1
  Cu  Cu30  1  0.35311700  0.48585800  0.31045700  1
  Cu  Cu31  1  0.64688300  0.51414200  0.68954300  1
  Cu  Cu32  1  0.54279200  0.40693300  0.13628500  1
  Cu  Cu33  1  0.45720800  0.59306700  0.86371500  1
  Cu  Cu34  1  0.59306700  0.45720800  0.36371500  1
  Cu  Cu35  1  0.40693300  0.54279200  0.63628500  1
  Cu  Cu36  1  0.64403100  0.88749300  0.07918200  1
  Cu  Cu37  1  0.35596900  0.11250700  0.92081800  1
  Cu  Cu38  1  0.11250700  0.35596900  0.42081800  1
  Cu  Cu39  1  0.88749300  0.64403100  0.57918200  1
  Cu  Cu40  1  0.14197700  0.06430100  0.06522900  1
  Cu  Cu41  1  0.85802300  0.93569900  0.93477100  1
  Cu  Cu42  1  0.93569900  0.85802300  0.43477100  1
  Cu  Cu43  1  0.06430100  0.14197700  0.56522900  1
  Cu  Cu44  1  0.68288000  0.13076600  0.99623100  1
  Cu  Cu45  1  0.31712000  0.86923400  0.00376900  1
  Cu  Cu46  1  0.86923400  0.31712000  0.50376900  1
  Cu  Cu47  1  0.13076600  0.68288000  0.49623100  1
  Cu  Cu48  1  0.81608500  0.99234000  0.17496300  1
  Cu  Cu49  1  0.18391500  0.00766000  0.82503700  1
  Cu  Cu50  1  0.00766000  0.18391500  0.32503700  1
  Cu  Cu51  1  0.99234000  0.81608500  0.67496300  1
