# generated using pymatgen
data_CuNi4C5
_symmetry_space_group_name_H-M   'P 1'
_cell_length_a   18.57712386
_cell_length_b   18.57712386
_cell_length_c   18.57712387
_cell_angle_alpha   13.63435379
_cell_angle_beta   13.63435379
_cell_angle_gamma   13.63435250
_symmetry_Int_Tables_number   1
_chemical_formula_structural   CuNi4C5
_chemical_formula_sum   'Cu1 Ni4 C5'
_cell_volume   309.97110828
_cell_formula_units_Z   1
loop_
 _symmetry_equiv_pos_site_id
 _symmetry_equiv_pos_as_xyz
  1  'x, y, z'
loop_
 _atom_site_type_symbol
 _atom_site_label
 _atom_site_symmetry_multiplicity
 _atom_site_fract_x
 _atom_site_fract_y
 _atom_site_fract_z
 _atom_site_occupancy
  Ni  Ni0  1  0.39241300  0.39241300  0.39241300  1
  Ni  Ni1  1  0.79601500  0.79601500  0.79601500  1
  Ni  Ni2  1  0.19893500  0.19893500  0.19893500  1
  Ni  Ni3  1  0.60178300  0.60178300  0.60178300  1
  Cu  Cu4  1  0.00094100  0.00094100  0.00094100  1
  C  C5  1  0.09819900  0.09819900  0.09819900  1
  C  C6  1  0.50116700  0.50116700  0.50116700  1
  C  C7  1  0.90383800  0.90383800  0.90383800  1
  C  C8  1  0.30739200  0.30739200  0.30739200  1
  C  C9  1  0.69931800  0.69931800  0.69931800  1
