# generated using pymatgen
data_Cu12Ni7C29
_symmetry_space_group_name_H-M   'P 1'
_cell_length_a   11.64595535
_cell_length_b   11.64595535
_cell_length_c   11.64595535
_cell_angle_alpha   60.00000000
_cell_angle_beta   60.00000000
_cell_angle_gamma   60.00000000
_symmetry_Int_Tables_number   1
_chemical_formula_structural   Cu12Ni7C29
_chemical_formula_sum   'Cu12 Ni7 C29'
_cell_volume   1116.88990114
_cell_formula_units_Z   1
loop_
 _symmetry_equiv_pos_site_id
 _symmetry_equiv_pos_as_xyz
  1  'x, y, z'
loop_
 _atom_site_type_symbol
 _atom_site_label
 _atom_site_symmetry_multiplicity
 _atom_site_fract_x
 _atom_site_fract_y
 _atom_site_fract_z
 _atom_site_occupancy
  C  C0  1  0.00000000  0.00000000  0.34033300  1
  C  C1  1  0.65966700  0.00000000  0.34033300  1
  C  C2  1  0.00000000  0.65966700  0.34033300  1
  C  C3  1  0.65966700  0.34033300  0.00000000  1
  C  C4  1  0.00000000  0.34033300  0.00000000  1
  C  C5  1  0.00000000  0.34033300  0.65966700  1
  C  C6  1  0.34033300  0.65966700  0.00000000  1
  C  C7  1  0.34033300  0.00000000  0.65966700  1
  C  C8  1  0.34033300  0.00000000  0.00000000  1
  C  C9  1  0.00000000  0.00000000  0.65966700  1
  C  C10  1  0.00000000  0.65966700  0.00000000  1
  C  C11  1  0.65966700  0.00000000  0.00000000  1
  C  C12  1  0.63505400  0.63505400  0.09483900  1
  C  C13  1  0.63505400  0.09483900  0.63505400  1
  C  C14  1  0.09483900  0.63505400  0.63505400  1
  C  C15  1  0.63505400  0.63505400  0.63505400  1
  C  C16  1  0.36494600  0.36494600  0.90516100  1
  C  C17  1  0.36494600  0.90516100  0.36494600  1
  C  C18  1  0.90516100  0.36494600  0.36494600  1
  C  C19  1  0.36494600  0.36494600  0.36494600  1
  C  C20  1  0.50000000  0.50000000  0.50000000  1
  C  C21  1  0.80189000  0.80189000  0.59432900  1
  C  C22  1  0.80189000  0.59432900  0.80189000  1
  C  C23  1  0.59432900  0.80189000  0.80189000  1
  C  C24  1  0.80189000  0.80189000  0.80189000  1
  C  C25  1  0.19811000  0.19811000  0.40567100  1
  C  C26  1  0.19811000  0.40567100  0.19811000  1
  C  C27  1  0.40567100  0.19811000  0.19811000  1
  C  C28  1  0.19811000  0.19811000  0.19811000  1
  Ni  Ni29  1  0.70896400  0.70896400  0.29103600  1
  Ni  Ni30  1  0.29103600  0.70896400  0.29103600  1
  Ni  Ni31  1  0.70896400  0.29103600  0.29103600  1
  Ni  Ni32  1  0.29103600  0.29103600  0.70896400  1
  Ni  Ni33  1  0.70896400  0.29103600  0.70896400  1
  Ni  Ni34  1  0.29103600  0.70896400  0.70896400  1
  Ni  Ni35  1  0.00000000  0.00000000  0.00000000  1
  Cu  Cu36  1  0.89364500  0.89364500  0.60635500  1
  Cu  Cu37  1  0.60635500  0.89364500  0.60635500  1
  Cu  Cu38  1  0.89364500  0.60635500  0.60635500  1
  Cu  Cu39  1  0.60635500  0.60635500  0.89364500  1
  Cu  Cu40  1  0.89364500  0.60635500  0.89364500  1
  Cu  Cu41  1  0.60635500  0.89364500  0.89364500  1
  Cu  Cu42  1  0.10635500  0.10635500  0.39364500  1
  Cu  Cu43  1  0.39364500  0.10635500  0.39364500  1
  Cu  Cu44  1  0.10635500  0.39364500  0.39364500  1
  Cu  Cu45  1  0.39364500  0.39364500  0.10635500  1
  Cu  Cu46  1  0.10635500  0.39364500  0.10635500  1
  Cu  Cu47  1  0.39364500  0.10635500  0.10635500  1
