# generated using pymatgen
data_Cu2NiC8
_symmetry_space_group_name_H-M   'P 1'
_cell_length_a   6.93074800
_cell_length_b   8.10917400
_cell_length_c   22.12755900
_cell_angle_alpha   90.00000000
_cell_angle_beta   90.00000000
_cell_angle_gamma   90.00000000
_symmetry_Int_Tables_number   1
_chemical_formula_structural   Cu2NiC8
_chemical_formula_sum   'Cu16 Ni8 C64'
_cell_volume   1243.62726535
_cell_formula_units_Z   8
loop_
 _symmetry_equiv_pos_site_id
 _symmetry_equiv_pos_as_xyz
  1  'x, y, z'
loop_
 _atom_site_type_symbol
 _atom_site_label
 _atom_site_symmetry_multiplicity
 _atom_site_fract_x
 _atom_site_fract_y
 _atom_site_fract_z
 _atom_site_occupancy
  Ni  Ni0  1  0.10663300  0.25000000  0.63547500  1
  Ni  Ni1  1  0.89336700  0.75000000  0.36452500  1
  Ni  Ni2  1  0.39336700  0.75000000  0.13547500  1
  Ni  Ni3  1  0.60663300  0.25000000  0.86452500  1
  Ni  Ni4  1  0.28677900  0.25000000  0.12048700  1
  Ni  Ni5  1  0.71322100  0.75000000  0.87951300  1
  Ni  Ni6  1  0.21322100  0.75000000  0.62048700  1
  Ni  Ni7  1  0.78677900  0.25000000  0.37951300  1
  Cu  Cu8  1  0.34282200  0.01885300  0.28663600  1
  Cu  Cu9  1  0.65717800  0.98114700  0.71336400  1
  Cu  Cu10  1  0.15717800  0.98114700  0.78663600  1
  Cu  Cu11  1  0.65717800  0.51885300  0.71336400  1
  Cu  Cu12  1  0.84282200  0.01885300  0.21336400  1
  Cu  Cu13  1  0.34282200  0.48114700  0.28663600  1
  Cu  Cu14  1  0.84282200  0.48114700  0.21336400  1
  Cu  Cu15  1  0.15717800  0.51885300  0.78663600  1
  Cu  Cu16  1  0.25681400  0.02116800  0.47222900  1
  Cu  Cu17  1  0.74318600  0.97883200  0.52777100  1
  Cu  Cu18  1  0.24318600  0.97883200  0.97222900  1
  Cu  Cu19  1  0.74318600  0.52116800  0.52777100  1
  Cu  Cu20  1  0.75681400  0.02116800  0.02777100  1
  Cu  Cu21  1  0.25681400  0.47883200  0.47222900  1
  Cu  Cu22  1  0.75681400  0.47883200  0.02777100  1
  Cu  Cu23  1  0.24318600  0.52116800  0.97222900  1
  C  C24  1  0.16836300  0.25000000  0.76815100  1
  C  C25  1  0.83163700  0.75000000  0.23184900  1
  C  C26  1  0.33163700  0.75000000  0.26815100  1
  C  C27  1  0.66836300  0.25000000  0.73184900  1
  C  C28  1  0.16720200  0.25000000  0.42458700  1
  C  C29  1  0.83279800  0.75000000  0.57541300  1
  C  C30  1  0.33279800  0.75000000  0.92458700  1
  C  C31  1  0.66720200  0.25000000  0.07541300  1
  C  C32  1  0.02092700  0.01745700  0.29736900  1
  C  C33  1  0.97907300  0.98254300  0.70263100  1
  C  C34  1  0.47907300  0.98254300  0.79736900  1
  C  C35  1  0.97907300  0.51745700  0.70263100  1
  C  C36  1  0.52092700  0.01745700  0.20263100  1
  C  C37  1  0.02092700  0.48254300  0.29736900  1
  C  C38  1  0.52092700  0.48254300  0.20263100  1
  C  C39  1  0.47907300  0.51745700  0.79736900  1
  C  C40  1  0.05842100  0.06362800  0.04895800  1
  C  C41  1  0.94157900  0.93637200  0.95104200  1
  C  C42  1  0.44157900  0.93637200  0.54895800  1
  C  C43  1  0.94157900  0.56362800  0.95104200  1
  C  C44  1  0.55842100  0.06362800  0.45104200  1
  C  C45  1  0.05842100  0.43637200  0.04895800  1
  C  C46  1  0.55842100  0.43637200  0.45104200  1
  C  C47  1  0.44157900  0.56362800  0.54895800  1
  C  C48  1  0.30189800  0.25000000  0.52839700  1
  C  C49  1  0.69810200  0.75000000  0.47160300  1
  C  C50  1  0.19810200  0.75000000  0.02839700  1
  C  C51  1  0.80189800  0.25000000  0.97160300  1
  C  C52  1  0.79838800  0.25000000  0.52089900  1
  C  C53  1  0.20161200  0.75000000  0.47910100  1
  C  C54  1  0.70161200  0.75000000  0.02089900  1
  C  C55  1  0.29838800  0.25000000  0.97910100  1
  C  C56  1  0.25621700  0.25000000  0.24084300  1
  C  C57  1  0.74378300  0.75000000  0.75915700  1
  C  C58  1  0.24378300  0.75000000  0.74084300  1
  C  C59  1  0.75621700  0.25000000  0.25915700  1
  C  C60  1  0.14312800  0.53337600  0.18800500  1
  C  C61  1  0.85687200  0.46662400  0.81199500  1
  C  C62  1  0.35687200  0.46662400  0.68800500  1
  C  C63  1  0.85687200  0.03337600  0.81199500  1
  C  C64  1  0.64312800  0.53337600  0.31199500  1
  C  C65  1  0.14312800  0.96662400  0.18800500  1
  C  C66  1  0.64312800  0.96662400  0.31199500  1
  C  C67  1  0.35687200  0.03337600  0.68800500  1
  C  C68  1  0.27529200  0.55986500  0.37777200  1
  C  C69  1  0.72470800  0.44013500  0.62222800  1
  C  C70  1  0.22470800  0.44013500  0.87777200  1
  C  C71  1  0.72470800  0.05986500  0.62222800  1
  C  C72  1  0.77529200  0.55986500  0.12222800  1
  C  C73  1  0.27529200  0.94013500  0.37777200  1
  C  C74  1  0.77529200  0.94013500  0.12222800  1
  C  C75  1  0.22470800  0.05986500  0.87777200  1
  C  C76  1  0.06016400  0.00487700  0.55462400  1
  C  C77  1  0.93983600  0.99512300  0.44537600  1
  C  C78  1  0.43983600  0.99512300  0.05462400  1
  C  C79  1  0.93983600  0.50487700  0.44537600  1
  C  C80  1  0.56016400  0.00487700  0.94537600  1
  C  C81  1  0.06016400  0.49512300  0.55462400  1
  C  C82  1  0.56016400  0.49512300  0.94537600  1
  C  C83  1  0.43983600  0.50487700  0.05462400  1
  C  C84  1  0.43137900  0.25000000  0.33455300  1
  C  C85  1  0.56862100  0.75000000  0.66544700  1
  C  C86  1  0.06862100  0.75000000  0.83455300  1
  C  C87  1  0.93137900  0.25000000  0.16544700  1
