# generated using pymatgen
data_CuNiC8
_symmetry_space_group_name_H-M   'P 1'
_cell_length_a   5.73052600
_cell_length_b   5.52246600
_cell_length_c   9.62707603
_cell_angle_alpha   54.87808868
_cell_angle_beta   90.00000000
_cell_angle_gamma   90.00000000
_symmetry_Int_Tables_number   1
_chemical_formula_structural   CuNiC8
_chemical_formula_sum   'Cu2 Ni2 C16'
_cell_volume   249.19421185
_cell_formula_units_Z   2
loop_
 _symmetry_equiv_pos_site_id
 _symmetry_equiv_pos_as_xyz
  1  'x, y, z'
loop_
 _atom_site_type_symbol
 _atom_site_label
 _atom_site_symmetry_multiplicity
 _atom_site_fract_x
 _atom_site_fract_y
 _atom_site_fract_z
 _atom_site_occupancy
  C  C0  1  0.55786600  0.23505700  0.75056900  1
  C  C1  1  0.94213400  0.23505700  0.25056900  1
  C  C2  1  0.44213400  0.76494300  0.24943100  1
  C  C3  1  0.05786600  0.76494300  0.74943100  1
  Ni  Ni4  1  0.50000000  0.00000000  0.50000000  1
  Ni  Ni5  1  0.00000000  0.00000000  0.00000000  1
  Cu  Cu6  1  0.00000000  0.50000000  0.50000000  1
  Cu  Cu7  1  0.50000000  0.50000000  0.00000000  1
  C  C8  1  0.79847700  0.15148800  0.54979300  1
  C  C9  1  0.70152300  0.15148800  0.04979300  1
  C  C10  1  0.20152300  0.84851200  0.45020700  1
  C  C11  1  0.29847700  0.84851200  0.95020700  1
  C  C12  1  0.97095300  0.34744500  0.74803500  1
  C  C13  1  0.52904700  0.34744500  0.24803500  1
  C  C14  1  0.02904700  0.65255500  0.25196500  1
  C  C15  1  0.47095300  0.65255500  0.75196500  1
  C  C16  1  0.29503900  0.25366800  0.55026400  1
  C  C17  1  0.20496100  0.25366800  0.05026400  1
  C  C18  1  0.70496100  0.74633200  0.44973600  1
  C  C19  1  0.79503900  0.74633200  0.94973600  1
