# generated using pymatgen
data_CuNiC5
_symmetry_space_group_name_H-M   'P 1'
_cell_length_a   6.53239300
_cell_length_b   7.17713200
_cell_length_c   8.25980017
_cell_angle_alpha   80.38261919
_cell_angle_beta   90.00000000
_cell_angle_gamma   90.00000000
_symmetry_Int_Tables_number   1
_chemical_formula_structural   CuNiC5
_chemical_formula_sum   'Cu4 Ni4 C20'
_cell_volume   381.80854609
_cell_formula_units_Z   4
loop_
 _symmetry_equiv_pos_site_id
 _symmetry_equiv_pos_as_xyz
  1  'x, y, z'
loop_
 _atom_site_type_symbol
 _atom_site_label
 _atom_site_symmetry_multiplicity
 _atom_site_fract_x
 _atom_site_fract_y
 _atom_site_fract_z
 _atom_site_occupancy
  Ni  Ni0  1  0.50000000  0.00000000  0.50000000  1
  Ni  Ni1  1  0.00000000  0.00000000  0.00000000  1
  Ni  Ni2  1  0.50000000  0.50000000  0.50000000  1
  Ni  Ni3  1  0.00000000  0.50000000  0.00000000  1
  Cu  Cu4  1  0.17775800  0.78088000  0.74034300  1
  Cu  Cu5  1  0.67775800  0.21912000  0.75965700  1
  Cu  Cu6  1  0.82224200  0.21912000  0.25965700  1
  Cu  Cu7  1  0.32224200  0.78088000  0.24034300  1
  C  C8  1  0.38359900  0.79772600  0.64252600  1
  C  C9  1  0.88359900  0.20227400  0.85747400  1
  C  C10  1  0.61640100  0.20227400  0.35747400  1
  C  C11  1  0.11640100  0.79772600  0.14252600  1
  C  C12  1  0.17664100  0.95256900  0.83505500  1
  C  C13  1  0.67664100  0.04743100  0.66494500  1
  C  C14  1  0.82335900  0.04743100  0.16494500  1
  C  C15  1  0.32335900  0.95256900  0.33505500  1
  C  C16  1  0.20616400  0.58202200  0.84996900  1
  C  C17  1  0.70616400  0.41797800  0.65003100  1
  C  C18  1  0.79383600  0.41797800  0.15003100  1
  C  C19  1  0.29383600  0.58202200  0.34996900  1
  C  C20  1  0.98277800  0.78545700  0.63489300  1
  C  C21  1  0.48277800  0.21454300  0.86510700  1
  C  C22  1  0.01722200  0.21454300  0.36510700  1
  C  C23  1  0.51722200  0.78545700  0.13489300  1
  C  C24  1  0.83588200  0.68003800  0.89592400  1
  C  C25  1  0.33588200  0.31996200  0.60407600  1
  C  C26  1  0.16411800  0.31996200  0.10407600  1
  C  C27  1  0.66411800  0.68003800  0.39592400  1
