# generated using pymatgen
data_CuNi2C5
_symmetry_space_group_name_H-M   'P 1'
_cell_length_a   6.97069668
_cell_length_b   6.97069668
_cell_length_c   4.85411500
_cell_angle_alpha   90.00000000
_cell_angle_beta   90.00000000
_cell_angle_gamma   119.97927680
_symmetry_Int_Tables_number   1
_chemical_formula_structural   CuNi2C5
_chemical_formula_sum   'Cu2 Ni4 C10'
_cell_volume   204.30722024
_cell_formula_units_Z   2
loop_
 _symmetry_equiv_pos_site_id
 _symmetry_equiv_pos_as_xyz
  1  'x, y, z'
loop_
 _atom_site_type_symbol
 _atom_site_label
 _atom_site_symmetry_multiplicity
 _atom_site_fract_x
 _atom_site_fract_y
 _atom_site_fract_z
 _atom_site_occupancy
  C  C0  1  0.66300700  0.33399000  0.24634400  1
  C  C1  1  0.33399000  0.66300700  0.24634400  1
  C  C2  1  0.33399000  0.66300700  0.75365600  1
  C  C3  1  0.66300700  0.33399000  0.75365600  1
  C  C4  1  0.24672400  0.00755900  0.50000000  1
  C  C5  1  0.00755900  0.24672400  0.50000000  1
  C  C6  1  0.74886600  0.74886600  0.50000000  1
  C  C7  1  0.75473300  0.99892100  0.00000000  1
  C  C8  1  0.99892100  0.75473300  0.00000000  1
  C  C9  1  0.24869200  0.24869200  0.00000000  1
  Ni  Ni10  1  0.39904300  0.39904300  0.50000000  1
  Ni  Ni11  1  0.39363100  0.99907800  0.00000000  1
  Ni  Ni12  1  0.99907800  0.39363100  0.00000000  1
  Ni  Ni13  1  0.60381800  0.60381800  0.00000000  1
  Cu  Cu14  1  0.60513000  0.00107700  0.50000000  1
  Cu  Cu15  1  0.00107700  0.60513000  0.50000000  1
