# generated using pymatgen
data_Cu2NiC6
_symmetry_space_group_name_H-M   'P 1'
_cell_length_a   6.76244565
_cell_length_b   6.76244565
_cell_length_c   6.76244565
_cell_angle_alpha   147.05987757
_cell_angle_beta   128.52152994
_cell_angle_gamma   62.48066205
_symmetry_Int_Tables_number   1
_chemical_formula_structural   Cu2NiC6
_chemical_formula_sum   'Cu2 Ni1 C6'
_cell_volume   130.22008567
_cell_formula_units_Z   1
loop_
 _symmetry_equiv_pos_site_id
 _symmetry_equiv_pos_as_xyz
  1  'x, y, z'
loop_
 _atom_site_type_symbol
 _atom_site_label
 _atom_site_symmetry_multiplicity
 _atom_site_fract_x
 _atom_site_fract_y
 _atom_site_fract_z
 _atom_site_occupancy
  Ni  Ni0  1  0.50000000  0.00000000  0.50000000  1
  Cu  Cu1  1  0.79657000  0.79657000  0.00000000  1
  Cu  Cu2  1  0.20343000  0.20343000  0.00000000  1
  C  C3  1  0.00000000  0.50000000  0.50000000  1
  C  C4  1  0.09367200  0.35228800  0.74138500  1
  C  C5  1  0.90632800  0.64771200  0.25861500  1
  C  C6  1  0.38909700  0.64771200  0.74138500  1
  C  C7  1  0.61090300  0.35228800  0.25861500  1
  C  C8  1  0.00000000  0.00000000  0.00000000  1
