# generated using pymatgen
data_CuNi2C17
_symmetry_space_group_name_H-M   'P 1'
_cell_length_a   7.47917028
_cell_length_b   7.47917028
_cell_length_c   15.24320039
_cell_angle_alpha   88.70219470
_cell_angle_beta   88.70219470
_cell_angle_gamma   42.78504844
_symmetry_Int_Tables_number   1
_chemical_formula_structural   CuNi2C17
_chemical_formula_sum   'Cu2 Ni4 C34'
_cell_volume   579.00725215
_cell_formula_units_Z   2
loop_
 _symmetry_equiv_pos_site_id
 _symmetry_equiv_pos_as_xyz
  1  'x, y, z'
loop_
 _atom_site_type_symbol
 _atom_site_label
 _atom_site_symmetry_multiplicity
 _atom_site_fract_x
 _atom_site_fract_y
 _atom_site_fract_z
 _atom_site_occupancy
  C  C0  1  0.64479100  0.73598900  0.87815200  1
  C  C1  1  0.35520900  0.26401100  0.12184800  1
  C  C2  1  0.26401100  0.35520900  0.62184800  1
  C  C3  1  0.73598900  0.64479100  0.37815200  1
  C  C4  1  0.94625600  0.05374400  0.75000000  1
  C  C5  1  0.05374400  0.94625600  0.25000000  1
  Ni  Ni6  1  0.61964100  0.62043700  0.62372000  1
  Ni  Ni7  1  0.38035900  0.37956300  0.37628000  1
  Ni  Ni8  1  0.37956300  0.38035900  0.87628000  1
  Ni  Ni9  1  0.62043700  0.61964100  0.12372000  1
  Cu  Cu10  1  0.00000000  0.00000000  0.50000000  1
  Cu  Cu11  1  0.00000000  0.00000000  0.00000000  1
  C  C12  1  0.34134200  0.90831900  0.70419300  1
  C  C13  1  0.65865800  0.09168100  0.29580700  1
  C  C14  1  0.09168100  0.65865800  0.79580700  1
  C  C15  1  0.90831900  0.34134200  0.20419300  1
  C  C16  1  0.55221300  0.12456700  0.77662200  1
  C  C17  1  0.44778700  0.87543300  0.22337800  1
  C  C18  1  0.87543300  0.44778700  0.72337800  1
  C  C19  1  0.12456700  0.55221300  0.27662200  1
  C  C20  1  0.39990500  0.77040000  0.51595700  1
  C  C21  1  0.60009500  0.22960000  0.48404300  1
  C  C22  1  0.22960000  0.60009500  0.98404300  1
  C  C23  1  0.77040000  0.39990500  0.01595700  1
  C  C24  1  0.58249800  0.39678000  0.65753700  1
  C  C25  1  0.41750200  0.60322000  0.34246300  1
  C  C26  1  0.60322000  0.41750200  0.84246300  1
  C  C27  1  0.39678000  0.58249800  0.15753700  1
  C  C28  1  0.66869900  0.07433900  0.95326300  1
  C  C29  1  0.33130100  0.92566100  0.04673700  1
  C  C30  1  0.92566100  0.33130100  0.54673700  1
  C  C31  1  0.07433900  0.66869900  0.45326300  1
  C  C32  1  0.85671900  0.03363200  0.12008500  1
  C  C33  1  0.14328100  0.96636800  0.87991500  1
  C  C34  1  0.96636800  0.14328100  0.37991500  1
  C  C35  1  0.03363200  0.85671900  0.62008500  1
  C  C36  1  0.69355900  0.81189600  0.59011400  1
  C  C37  1  0.30644100  0.18810400  0.40988600  1
  C  C38  1  0.18810400  0.30644100  0.90988600  1
  C  C39  1  0.81189600  0.69355900  0.09011400  1
