# generated using pymatgen
data_Cu17Ni3C2
_symmetry_space_group_name_H-M   'P 1'
_cell_length_a   11.64152100
_cell_length_b   5.53014900
_cell_length_c   10.92319023
_cell_angle_alpha   84.89757921
_cell_angle_beta   90.00000000
_cell_angle_gamma   90.00000000
_symmetry_Int_Tables_number   1
_chemical_formula_structural   Cu17Ni3C2
_chemical_formula_sum   'Cu34 Ni6 C4'
_cell_volume   700.44116536
_cell_formula_units_Z   2
loop_
 _symmetry_equiv_pos_site_id
 _symmetry_equiv_pos_as_xyz
  1  'x, y, z'
loop_
 _atom_site_type_symbol
 _atom_site_label
 _atom_site_symmetry_multiplicity
 _atom_site_fract_x
 _atom_site_fract_y
 _atom_site_fract_z
 _atom_site_occupancy
  C  C0  1  0.00000000  0.50000000  0.50000000  1
  C  C1  1  0.50000000  0.50000000  0.50000000  1
  C  C2  1  0.75000000  0.11159600  0.12921700  1
  C  C3  1  0.25000000  0.88840400  0.87078300  1
  Ni  Ni4  1  0.75000000  0.80590900  0.40198600  1
  Ni  Ni5  1  0.25000000  0.19409100  0.59801400  1
  Ni  Ni6  1  0.50668100  0.32364100  0.22470800  1
  Ni  Ni7  1  0.00668100  0.67635900  0.77529200  1
  Ni  Ni8  1  0.49331900  0.67635900  0.77529200  1
  Ni  Ni9  1  0.99331900  0.32364100  0.22470800  1
  Cu  Cu10  1  0.75000000  0.02422100  0.46559700  1
  Cu  Cu11  1  0.25000000  0.97577900  0.53440300  1
  Cu  Cu12  1  0.75000000  0.85371100  0.26372000  1
  Cu  Cu13  1  0.25000000  0.14628900  0.73628000  1
  Cu  Cu14  1  0.00898000  0.29101000  0.36392500  1
  Cu  Cu15  1  0.50898000  0.70899000  0.63607500  1
  Cu  Cu16  1  0.99102000  0.70899000  0.63607500  1
  Cu  Cu17  1  0.49102000  0.29101000  0.36392500  1
  Cu  Cu18  1  0.44642700  0.12290100  0.17485100  1
  Cu  Cu19  1  0.94642700  0.87709900  0.82514900  1
  Cu  Cu20  1  0.55357300  0.87709900  0.82514900  1
  Cu  Cu21  1  0.05357300  0.12290100  0.17485100  1
  Cu  Cu22  1  0.46358300  0.55984000  0.17340300  1
  Cu  Cu23  1  0.96358300  0.44016000  0.82659700  1
  Cu  Cu24  1  0.53641700  0.44016000  0.82659700  1
  Cu  Cu25  1  0.03641700  0.55984000  0.17340300  1
  Cu  Cu26  1  0.64872800  0.64650300  0.43105100  1
  Cu  Cu27  1  0.14872800  0.35349700  0.56894900  1
  Cu  Cu28  1  0.35127200  0.35349700  0.56894900  1
  Cu  Cu29  1  0.85127200  0.64650300  0.43105100  1
  Cu  Cu30  1  0.86492600  0.31293100  0.20394600  1
  Cu  Cu31  1  0.36492600  0.68706900  0.79605400  1
  Cu  Cu32  1  0.13507400  0.68706900  0.79605400  1
  Cu  Cu33  1  0.63507400  0.31293100  0.20394600  1
  Cu  Cu34  1  0.07821200  0.74711300  0.40982000  1
  Cu  Cu35  1  0.57821200  0.25288700  0.59018000  1
  Cu  Cu36  1  0.92178800  0.25288700  0.59018000  1
  Cu  Cu37  1  0.42178800  0.74711300  0.40982000  1
  Cu  Cu38  1  0.75000000  0.26355000  0.97959900  1
  Cu  Cu39  1  0.25000000  0.73645000  0.02040100  1
  Cu  Cu40  1  0.65658000  0.94120800  0.04251900  1
  Cu  Cu41  1  0.15658000  0.05879200  0.95748100  1
  Cu  Cu42  1  0.34342000  0.05879200  0.95748100  1
  Cu  Cu43  1  0.84342000  0.94120800  0.04251900  1
