# generated using pymatgen
data_Cu7Ni4C23
_symmetry_space_group_name_H-M   'P 1'
_cell_length_a   9.76506580
_cell_length_b   9.76506580
_cell_length_c   21.99925100
_cell_angle_alpha   90.00000000
_cell_angle_beta   90.00000000
_cell_angle_gamma   119.99999868
_symmetry_Int_Tables_number   1
_chemical_formula_structural   Cu7Ni4C23
_chemical_formula_sum   'Cu14 Ni8 C46'
_cell_volume   1816.72369583
_cell_formula_units_Z   2
loop_
 _symmetry_equiv_pos_site_id
 _symmetry_equiv_pos_as_xyz
  1  'x, y, z'
loop_
 _atom_site_type_symbol
 _atom_site_label
 _atom_site_symmetry_multiplicity
 _atom_site_fract_x
 _atom_site_fract_y
 _atom_site_fract_z
 _atom_site_occupancy
  C  C0  1  0.20821900  0.41643800  0.72057000  1
  C  C1  1  0.20821900  0.79178100  0.72057000  1
  C  C2  1  0.79178100  0.58356200  0.22057000  1
  C  C3  1  0.58356200  0.79178100  0.72057000  1
  C  C4  1  0.79178100  0.20821900  0.22057000  1
  C  C5  1  0.41643800  0.20821900  0.22057000  1
  C  C6  1  0.79211000  0.58422100  0.94722100  1
  C  C7  1  0.79211000  0.20789000  0.94722100  1
  C  C8  1  0.20789000  0.41577900  0.44722100  1
  C  C9  1  0.41577900  0.20789000  0.94722100  1
  C  C10  1  0.20789000  0.79211000  0.44722100  1
  C  C11  1  0.58422100  0.79211000  0.44722100  1
  C  C12  1  0.21031900  0.42063900  0.99021700  1
  C  C13  1  0.21031900  0.78968100  0.99021700  1
  C  C14  1  0.78968100  0.57936100  0.49021700  1
  C  C15  1  0.57936100  0.78968100  0.99021700  1
  C  C16  1  0.78968100  0.21031900  0.49021700  1
  C  C17  1  0.42063900  0.21031900  0.49021700  1
  C  C18  1  0.87258000  0.74516000  0.63615400  1
  C  C19  1  0.87258000  0.12742000  0.63615400  1
  C  C20  1  0.12742000  0.25484000  0.13615400  1
  C  C21  1  0.25484000  0.12742000  0.63615400  1
  C  C22  1  0.12742000  0.87258000  0.13615400  1
  C  C23  1  0.74516000  0.87258000  0.13615400  1
  C  C24  1  0.45796000  0.91592100  0.85651200  1
  C  C25  1  0.45796000  0.54204000  0.85651200  1
  C  C26  1  0.54204000  0.08407900  0.35651200  1
  C  C27  1  0.08407900  0.54204000  0.85651200  1
  C  C28  1  0.54204000  0.45796000  0.35651200  1
  C  C29  1  0.91592100  0.45796000  0.35651200  1
  C  C30  1  0.00000000  0.00000000  0.99675200  1
  C  C31  1  0.00000000  0.00000000  0.49675200  1
  C  C32  1  0.45983100  0.91966200  0.58448600  1
  C  C33  1  0.45983100  0.54016900  0.58448600  1
  C  C34  1  0.54016900  0.08033800  0.08448600  1
  C  C35  1  0.08033800  0.54016900  0.58448600  1
  C  C36  1  0.54016900  0.45983100  0.08448600  1
  C  C37  1  0.91966200  0.45983100  0.08448600  1
  C  C38  1  0.79825200  0.59650300  0.78289600  1
  C  C39  1  0.79825200  0.20174800  0.78289600  1
  C  C40  1  0.20174800  0.40349700  0.28289600  1
  C  C41  1  0.40349700  0.20174800  0.78289600  1
  C  C42  1  0.20174800  0.79825200  0.28289600  1
  C  C43  1  0.59650300  0.79825200  0.28289600  1
  C  C44  1  0.66666700  0.33333300  0.64371700  1
  C  C45  1  0.33333300  0.66666700  0.14371700  1
  Ni  Ni46  1  0.00000000  0.00000000  0.74973100  1
  Ni  Ni47  1  0.00000000  0.00000000  0.24973100  1
  Ni  Ni48  1  0.10766200  0.21532500  0.86350500  1
  Ni  Ni49  1  0.10766200  0.89233800  0.86350500  1
  Ni  Ni50  1  0.89233800  0.78467500  0.36350500  1
  Ni  Ni51  1  0.78467500  0.89233800  0.86350500  1
  Ni  Ni52  1  0.89233800  0.10766200  0.36350500  1
  Ni  Ni53  1  0.21532500  0.10766200  0.36350500  1
  Cu  Cu54  1  0.52186900  0.04373900  0.70928700  1
  Cu  Cu55  1  0.52186900  0.47813100  0.70928700  1
  Cu  Cu56  1  0.47813100  0.95626100  0.20928700  1
  Cu  Cu57  1  0.95626100  0.47813100  0.70928700  1
  Cu  Cu58  1  0.47813100  0.52186900  0.20928700  1
  Cu  Cu59  1  0.04373900  0.52186900  0.20928700  1
  Cu  Cu60  1  0.66666700  0.33333300  0.86255200  1
  Cu  Cu61  1  0.33333300  0.66666700  0.36255200  1
  Cu  Cu62  1  0.14311200  0.28622400  0.56380800  1
  Cu  Cu63  1  0.14311200  0.85688800  0.56380800  1
  Cu  Cu64  1  0.85688800  0.71377600  0.06380800  1
  Cu  Cu65  1  0.71377600  0.85688800  0.56380800  1
  Cu  Cu66  1  0.85688800  0.14311200  0.06380800  1
  Cu  Cu67  1  0.28622400  0.14311200  0.06380800  1
