# generated using pymatgen
data_Cu2NiC7
_symmetry_space_group_name_H-M   'P 1'
_cell_length_a   23.83937550
_cell_length_b   23.83937550
_cell_length_c   23.83937550
_cell_angle_alpha   170.63065911
_cell_angle_beta   170.63065911
_cell_angle_gamma   13.26509680
_symmetry_Int_Tables_number   1
_chemical_formula_structural   Cu2NiC7
_chemical_formula_sum   'Cu4 Ni2 C14'
_cell_volume   359.06500310
_cell_formula_units_Z   2
loop_
 _symmetry_equiv_pos_site_id
 _symmetry_equiv_pos_as_xyz
  1  'x, y, z'
loop_
 _atom_site_type_symbol
 _atom_site_label
 _atom_site_symmetry_multiplicity
 _atom_site_fract_x
 _atom_site_fract_y
 _atom_site_fract_z
 _atom_site_occupancy
  C  C0  1  0.66263700  0.66263700  0.00000000  1
  C  C1  1  0.33736300  0.33736300  0.00000000  1
  Ni  Ni2  1  0.22542100  0.22542100  0.00000000  1
  Ni  Ni3  1  0.77457900  0.77457900  0.00000000  1
  Cu  Cu4  1  0.04603900  0.04603900  0.00000000  1
  Cu  Cu5  1  0.89270900  0.89270900  0.00000000  1
  Cu  Cu6  1  0.10729100  0.10729100  0.00000000  1
  Cu  Cu7  1  0.95396100  0.95396100  0.00000000  1
  C  C8  1  0.37670300  0.87670300  0.50000000  1
  C  C9  1  0.53431600  0.03431600  0.50000000  1
  C  C10  1  0.73066700  0.73066700  0.00000000  1
  C  C11  1  0.96568400  0.46568400  0.50000000  1
  C  C12  1  0.26933300  0.26933300  0.00000000  1
  C  C13  1  0.12329700  0.62329700  0.50000000  1
  C  C14  1  0.62329700  0.12329700  0.50000000  1
  C  C15  1  0.81713700  0.81713700  0.00000000  1
  C  C16  1  0.87670300  0.37670300  0.50000000  1
  C  C17  1  0.03431600  0.53431600  0.50000000  1
  C  C18  1  0.46568400  0.96568400  0.50000000  1
  C  C19  1  0.18286300  0.18286300  0.00000000  1
