# generated using pymatgen
data_Cu3NiC12
_symmetry_space_group_name_H-M   'P 1'
_cell_length_a   10.29765316
_cell_length_b   10.29765316
_cell_length_c   10.29765316
_cell_angle_alpha   147.19927378
_cell_angle_beta   147.19927378
_cell_angle_gamma   47.06881520
_symmetry_Int_Tables_number   1
_chemical_formula_structural   Cu3NiC12
_chemical_formula_sum   'Cu3 Ni1 C12'
_cell_volume   319.24717904
_cell_formula_units_Z   1
loop_
 _symmetry_equiv_pos_site_id
 _symmetry_equiv_pos_as_xyz
  1  'x, y, z'
loop_
 _atom_site_type_symbol
 _atom_site_label
 _atom_site_symmetry_multiplicity
 _atom_site_fract_x
 _atom_site_fract_y
 _atom_site_fract_z
 _atom_site_occupancy
  Ni  Ni0  1  0.43461300  0.43461300  0.00000000  1
  Cu  Cu1  1  0.94243000  0.94243000  0.00000000  1
  Cu  Cu2  1  0.55874500  0.05874500  0.50000000  1
  Cu  Cu3  1  0.05874500  0.55874500  0.50000000  1
  C  C4  1  0.49978400  0.99942800  0.00000000  1
  C  C5  1  0.99942800  0.49978400  0.00000000  1
  C  C6  1  0.49978400  0.49978400  0.50035700  1
  C  C7  1  0.99942800  0.99942800  0.49964300  1
  C  C8  1  0.66346500  0.66346500  0.00000000  1
  C  C9  1  0.16405200  0.16405200  0.00000000  1
  C  C10  1  0.33517200  0.83517200  0.50000000  1
  C  C11  1  0.83517200  0.33517200  0.50000000  1
  C  C12  1  0.24639800  0.75819300  0.00000000  1
  C  C13  1  0.75819300  0.24639800  0.00000000  1
  C  C14  1  0.24639800  0.24639800  0.48820400  1
  C  C15  1  0.75819300  0.75819300  0.51179600  1
