# generated using pymatgen
data_Cu7NiC12
_symmetry_space_group_name_H-M   'P 1'
_cell_length_a   6.26826936
_cell_length_b   6.26826936
_cell_length_c   6.26826936
_cell_angle_alpha   109.47122063
_cell_angle_beta   109.47122063
_cell_angle_gamma   109.47122063
_symmetry_Int_Tables_number   1
_chemical_formula_structural   Cu7NiC12
_chemical_formula_sum   'Cu7 Ni1 C12'
_cell_volume   189.59245949
_cell_formula_units_Z   1
loop_
 _symmetry_equiv_pos_site_id
 _symmetry_equiv_pos_as_xyz
  1  'x, y, z'
loop_
 _atom_site_type_symbol
 _atom_site_label
 _atom_site_symmetry_multiplicity
 _atom_site_fract_x
 _atom_site_fract_y
 _atom_site_fract_z
 _atom_site_occupancy
  Ni  Ni0  1  0.00000000  0.00000000  0.00000000  1
  Cu  Cu1  1  0.00000000  0.00000000  0.50000000  1
  Cu  Cu2  1  0.00000000  0.50000000  0.00000000  1
  Cu  Cu3  1  0.50000000  0.00000000  0.00000000  1
  Cu  Cu4  1  0.50000000  0.50000000  0.50000000  1
  Cu  Cu5  1  0.00000000  0.50000000  0.50000000  1
  Cu  Cu6  1  0.50000000  0.00000000  0.50000000  1
  Cu  Cu7  1  0.50000000  0.50000000  0.00000000  1
  C  C8  1  0.29927400  0.13326800  0.83399400  1
  C  C9  1  0.70072600  0.86673200  0.16600600  1
  C  C10  1  0.70072600  0.53471900  0.83399400  1
  C  C11  1  0.46528100  0.16600600  0.29927400  1
  C  C12  1  0.16600600  0.29927400  0.46528100  1
  C  C13  1  0.83399400  0.29927400  0.13326800  1
  C  C14  1  0.86673200  0.16600600  0.70072600  1
  C  C15  1  0.83399400  0.70072600  0.53471900  1
  C  C16  1  0.29927400  0.46528100  0.16600600  1
  C  C17  1  0.53471900  0.83399400  0.70072600  1
  C  C18  1  0.16600600  0.70072600  0.86673200  1
  C  C19  1  0.13326800  0.83399400  0.29927400  1
