# generated using pymatgen
data_Cu2NiC13
_symmetry_space_group_name_H-M   'P 1'
_cell_length_a   10.87194400
_cell_length_b   5.12604700
_cell_length_c   6.46582615
_cell_angle_alpha   89.80840896
_cell_angle_beta   90.00000000
_cell_angle_gamma   90.00000000
_symmetry_Int_Tables_number   1
_chemical_formula_structural   Cu2NiC13
_chemical_formula_sum   'Cu4 Ni2 C26'
_cell_volume   360.33909693
_cell_formula_units_Z   2
loop_
 _symmetry_equiv_pos_site_id
 _symmetry_equiv_pos_as_xyz
  1  'x, y, z'
loop_
 _atom_site_type_symbol
 _atom_site_label
 _atom_site_symmetry_multiplicity
 _atom_site_fract_x
 _atom_site_fract_y
 _atom_site_fract_z
 _atom_site_occupancy
  C  C0  1  0.08434700  0.94715200  0.00516900  1
  C  C1  1  0.58434700  0.05284800  0.99483100  1
  C  C2  1  0.92045700  0.53342400  0.51292500  1
  C  C3  1  0.42045700  0.46657600  0.48707500  1
  C  C4  1  0.65997600  0.43734600  0.25242500  1
  C  C5  1  0.15997600  0.56265400  0.74757500  1
  C  C6  1  0.66458500  0.43267000  0.74553600  1
  C  C7  1  0.16458500  0.56733000  0.25446400  1
  C  C8  1  0.33113200  0.07189500  0.24531800  1
  C  C9  1  0.83113200  0.92810500  0.75468200  1
  Ni  Ni10  1  0.33512900  0.07235000  0.74772400  1
  Ni  Ni11  1  0.83512900  0.92765000  0.25227600  1
  Cu  Cu12  1  0.08982000  0.08022700  0.48605600  1
  Cu  Cu13  1  0.58982000  0.91977300  0.51394400  1
  Cu  Cu14  1  0.91571800  0.44194900  0.99256800  1
  Cu  Cu15  1  0.41571800  0.55805100  0.00743200  1
  C  C16  1  0.43122000  0.03867100  0.50569800  1
  C  C17  1  0.93122000  0.96132900  0.49430200  1
  C  C18  1  0.56788600  0.45816600  0.00032500  1
  C  C19  1  0.06788600  0.54183400  0.99967500  1
  C  C20  1  0.17087000  0.96296000  0.72020800  1
  C  C21  1  0.67087000  0.03704000  0.27979200  1
  C  C22  1  0.83600600  0.56045300  0.22447000  1
  C  C23  1  0.33600600  0.43954700  0.77553000  1
  C  C24  1  0.83552200  0.54049000  0.77298200  1
  C  C25  1  0.33552200  0.45951000  0.22701800  1
  C  C26  1  0.16466300  0.95486000  0.27088200  1
  C  C27  1  0.66466300  0.04514000  0.72911800  1
  C  C28  1  0.40648000  0.91563000  0.98077700  1
  C  C29  1  0.90648000  0.08437000  0.01922300  1
  C  C30  1  0.58619000  0.58135700  0.49678700  1
  C  C31  1  0.08619000  0.41864300  0.50321300  1
