# generated using pymatgen
data_Cu15Ni2C3
_symmetry_space_group_name_H-M   'P 1'
_cell_length_a   6.50746398
_cell_length_b   6.50746398
_cell_length_c   6.49588670
_cell_angle_alpha   83.04432327
_cell_angle_beta   83.04432327
_cell_angle_gamma   83.09932592
_symmetry_Int_Tables_number   1
_chemical_formula_structural   Cu15Ni2C3
_chemical_formula_sum   'Cu15 Ni2 C3'
_cell_volume   269.49002576
_cell_formula_units_Z   1
loop_
 _symmetry_equiv_pos_site_id
 _symmetry_equiv_pos_as_xyz
  1  'x, y, z'
loop_
 _atom_site_type_symbol
 _atom_site_label
 _atom_site_symmetry_multiplicity
 _atom_site_fract_x
 _atom_site_fract_y
 _atom_site_fract_z
 _atom_site_occupancy
  C  C0  1  0.34312600  0.34312600  0.35369600  1
  C  C1  1  0.65687400  0.65687400  0.64630400  1
  Ni  Ni2  1  0.10327800  0.10327800  0.10268800  1
  Ni  Ni3  1  0.89672200  0.89672200  0.89731200  1
  Cu  Cu4  1  0.65611400  0.65611400  0.15017600  1
  Cu  Cu5  1  0.65876400  0.15268600  0.65663100  1
  Cu  Cu6  1  0.15268600  0.65876400  0.65663100  1
  Cu  Cu7  1  0.34388600  0.34388600  0.84982400  1
  Cu  Cu8  1  0.34123600  0.84731400  0.34336900  1
  Cu  Cu9  1  0.84731400  0.34123600  0.34336900  1
  Cu  Cu10  1  0.71294300  0.28705700  0.00000000  1
  Cu  Cu11  1  0.29124000  0.99977400  0.70953600  1
  Cu  Cu12  1  0.00022600  0.70876000  0.29046400  1
  Cu  Cu13  1  0.70876000  0.00022600  0.29046400  1
  Cu  Cu14  1  0.99977400  0.29124000  0.70953600  1
  Cu  Cu15  1  0.28705700  0.71294300  0.00000000  1
  Cu  Cu16  1  0.00000000  0.00000000  0.50000000  1
  Cu  Cu17  1  0.00000000  0.50000000  0.00000000  1
  Cu  Cu18  1  0.50000000  0.00000000  0.00000000  1
  C  C19  1  0.50000000  0.50000000  0.00000000  1
