# generated using pymatgen
data_CuNiC6
_symmetry_space_group_name_H-M   'P 1'
_cell_length_a   5.36730300
_cell_length_b   5.45087127
_cell_length_c   7.70121982
_cell_angle_alpha   109.69824862
_cell_angle_beta   105.62564922
_cell_angle_gamma   97.42068858
_symmetry_Int_Tables_number   1
_chemical_formula_structural   CuNiC6
_chemical_formula_sum   'Cu2 Ni2 C12'
_cell_volume   198.18418645
_cell_formula_units_Z   2
loop_
 _symmetry_equiv_pos_site_id
 _symmetry_equiv_pos_as_xyz
  1  'x, y, z'
loop_
 _atom_site_type_symbol
 _atom_site_label
 _atom_site_symmetry_multiplicity
 _atom_site_fract_x
 _atom_site_fract_y
 _atom_site_fract_z
 _atom_site_occupancy
  C  C0  1  0.00000000  0.00000000  0.50000000  1
  C  C1  1  0.00000000  0.00000000  0.00000000  1
  Ni  Ni2  1  0.32806300  0.64822200  0.22823200  1
  Ni  Ni3  1  0.67193700  0.35177800  0.77176800  1
  Cu  Cu4  1  0.63697400  0.97695300  0.33392300  1
  Cu  Cu5  1  0.36302600  0.02304700  0.66607700  1
  C  C6  1  0.16071600  0.96886300  0.71840000  1
  C  C7  1  0.27864100  0.80025900  0.37573100  1
  C  C8  1  0.72321200  0.64768300  0.65895700  1
  C  C9  1  0.62394300  0.75272800  0.07694500  1
  C  C10  1  0.12911400  0.68892000  0.12179300  1
  C  C11  1  0.87088600  0.31108000  0.87820700  1
  C  C12  1  0.37605700  0.24727200  0.92305500  1
  C  C13  1  0.27678800  0.35231700  0.34104300  1
  C  C14  1  0.72135900  0.19974100  0.62426900  1
  C  C15  1  0.83928400  0.03113700  0.28160000  1
