# generated using pymatgen
data_Cu3NiC
_symmetry_space_group_name_H-M   'P 1'
_cell_length_a   11.09525991
_cell_length_b   11.09525991
_cell_length_c   11.09525972
_cell_angle_alpha   113.28085213
_cell_angle_beta   113.28085213
_cell_angle_gamma   113.28084957
_symmetry_Int_Tables_number   1
_chemical_formula_structural   Cu3NiC
_chemical_formula_sum   'Cu39 Ni13 C13'
_cell_volume   872.32172160
_cell_formula_units_Z   13
loop_
 _symmetry_equiv_pos_site_id
 _symmetry_equiv_pos_as_xyz
  1  'x, y, z'
loop_
 _atom_site_type_symbol
 _atom_site_label
 _atom_site_symmetry_multiplicity
 _atom_site_fract_x
 _atom_site_fract_y
 _atom_site_fract_z
 _atom_site_occupancy
  C  C0  1  0.87383100  0.57501900  0.64520900  1
  C  C1  1  0.64520900  0.87383100  0.57501900  1
  C  C2  1  0.57501900  0.64520900  0.87383100  1
  C  C3  1  0.11497700  0.42096800  0.34895500  1
  C  C4  1  0.34895500  0.11497700  0.42096800  1
  C  C5  1  0.42096800  0.34895500  0.11497700  1
  C  C6  1  0.06197300  0.22196000  0.64364400  1
  C  C7  1  0.64364400  0.06197300  0.22196000  1
  C  C8  1  0.22196000  0.64364400  0.06197300  1
  C  C9  1  0.93710300  0.77743900  0.35629400  1
  C  C10  1  0.35629400  0.93710300  0.77743900  1
  C  C11  1  0.77743900  0.35629400  0.93710300  1
  C  C12  1  0.00009000  0.00009000  0.00009000  1
  Ni  Ni13  1  0.29436900  0.83164200  0.45508200  1
  Ni  Ni14  1  0.45508200  0.29436900  0.83164200  1
  Ni  Ni15  1  0.83164200  0.45508200  0.29436900  1
  Ni  Ni16  1  0.70510900  0.16811200  0.54444400  1
  Ni  Ni17  1  0.54444400  0.70510900  0.16811200  1
  Ni  Ni18  1  0.16811200  0.54444400  0.70510900  1
  Ni  Ni19  1  0.98914100  0.91253200  0.67949900  1
  Ni  Ni20  1  0.67949900  0.98914100  0.91253200  1
  Ni  Ni21  1  0.91253200  0.67949900  0.98914100  1
  Ni  Ni22  1  0.01184300  0.08866300  0.32160100  1
  Ni  Ni23  1  0.32160100  0.01184300  0.08866300  1
  Ni  Ni24  1  0.08866300  0.32160100  0.01184300  1
  Ni  Ni25  1  0.52514900  0.52514900  0.52514900  1
  Cu  Cu26  1  0.34116700  0.77475800  0.52960400  1
  Cu  Cu27  1  0.52960400  0.34116700  0.77475800  1
  Cu  Cu28  1  0.77475800  0.52960400  0.34116700  1
  Cu  Cu29  1  0.65761500  0.22476400  0.46902300  1
  Cu  Cu30  1  0.46902300  0.65761500  0.22476400  1
  Cu  Cu31  1  0.22476400  0.46902300  0.65761500  1
  Cu  Cu32  1  0.31254800  0.82357300  0.34481500  1
  Cu  Cu33  1  0.34481500  0.31254800  0.82357300  1
  Cu  Cu34  1  0.82357300  0.34481500  0.31254800  1
  Cu  Cu35  1  0.68705300  0.17592700  0.65451200  1
  Cu  Cu36  1  0.65451200  0.68705300  0.17592700  1
  Cu  Cu37  1  0.17592700  0.65451200  0.68705300  1
  Cu  Cu38  1  0.23714900  0.90700600  0.50263800  1
  Cu  Cu39  1  0.50263800  0.23714900  0.90700600  1
  Cu  Cu40  1  0.90700600  0.50263800  0.23714900  1
  Cu  Cu41  1  0.76259700  0.09326600  0.49701000  1
  Cu  Cu42  1  0.49701000  0.76259700  0.09326600  1
  Cu  Cu43  1  0.09326600  0.49701000  0.76259700  1
  Cu  Cu44  1  0.09412800  0.88510100  0.69029700  1
  Cu  Cu45  1  0.69029700  0.09412800  0.88510100  1
  Cu  Cu46  1  0.88510100  0.69029700  0.09412800  1
  Cu  Cu47  1  0.90553300  0.11423400  0.30901500  1
  Cu  Cu48  1  0.30901500  0.90553300  0.11423400  1
  Cu  Cu49  1  0.11423400  0.30901500  0.90553300  1
  Cu  Cu50  1  0.93154200  0.94477600  0.57938700  1
  Cu  Cu51  1  0.57938700  0.93154200  0.94477600  1
  Cu  Cu52  1  0.94477600  0.57938700  0.93154200  1
  Cu  Cu53  1  0.06854200  0.05534700  0.42083100  1
  Cu  Cu54  1  0.42083100  0.06854200  0.05534700  1
  Cu  Cu55  1  0.05534700  0.42083100  0.06854200  1
  Cu  Cu56  1  0.93032200  0.89706900  0.75807900  1
  Cu  Cu57  1  0.75807900  0.93032200  0.89706900  1
  Cu  Cu58  1  0.89706900  0.75807900  0.93032200  1
  Cu  Cu59  1  0.07462800  0.10848300  0.24670300  1
  Cu  Cu60  1  0.24670300  0.07462800  0.10848300  1
  Cu  Cu61  1  0.10848300  0.24670300  0.07462800  1
  Cu  Cu62  1  0.58264200  0.55148000  0.44898500  1
  Cu  Cu63  1  0.44898500  0.58264200  0.55148000  1
  Cu  Cu64  1  0.55148000  0.44898500  0.58264200  1
