# generated using pymatgen
data_CuNi3C17
_symmetry_space_group_name_H-M   'P 1'
_cell_length_a   8.38052800
_cell_length_b   8.90914100
_cell_length_c   17.83909233
_cell_angle_alpha   60.08998802
_cell_angle_beta   90.00000000
_cell_angle_gamma   90.00000000
_symmetry_Int_Tables_number   1
_chemical_formula_structural   CuNi3C17
_chemical_formula_sum   'Cu4 Ni12 C68'
_cell_volume   1154.52593693
_cell_formula_units_Z   4
loop_
 _symmetry_equiv_pos_site_id
 _symmetry_equiv_pos_as_xyz
  1  'x, y, z'
loop_
 _atom_site_type_symbol
 _atom_site_label
 _atom_site_symmetry_multiplicity
 _atom_site_fract_x
 _atom_site_fract_y
 _atom_site_fract_z
 _atom_site_occupancy
  C  C0  1  0.96090000  0.33590800  0.42573500  1
  C  C1  1  0.53910000  0.33590800  0.92573500  1
  C  C2  1  0.03910000  0.66409200  0.57426500  1
  C  C3  1  0.46090000  0.66409200  0.07426500  1
  C  C4  1  0.53805000  0.32788100  0.41153200  1
  C  C5  1  0.96195000  0.32788100  0.91153200  1
  C  C6  1  0.46195000  0.67211900  0.58846800  1
  C  C7  1  0.03805000  0.67211900  0.08846800  1
  C  C8  1  0.83534900  0.66729000  0.25642000  1
  C  C9  1  0.66465100  0.66729000  0.75642000  1
  C  C10  1  0.16465100  0.33271000  0.74358000  1
  C  C11  1  0.33534900  0.33271000  0.24358000  1
  C  C12  1  0.83892800  0.01587800  0.40975100  1
  C  C13  1  0.66107200  0.01587800  0.90975100  1
  C  C14  1  0.16107200  0.98412200  0.59024900  1
  C  C15  1  0.33892800  0.98412200  0.09024900  1
  C  C16  1  0.83952500  0.32385500  0.08379700  1
  C  C17  1  0.66047500  0.32385500  0.58379700  1
  C  C18  1  0.16047500  0.67614500  0.91620300  1
  C  C19  1  0.33952500  0.67614500  0.41620300  1
  Ni  Ni20  1  0.72828300  0.35437100  0.23471000  1
  Ni  Ni21  1  0.77171700  0.35437100  0.73471000  1
  Ni  Ni22  1  0.27171700  0.64562900  0.76529000  1
  Ni  Ni23  1  0.22828300  0.64562900  0.26529000  1
  Ni  Ni24  1  0.72941900  0.97276600  0.08783300  1
  Ni  Ni25  1  0.77058100  0.97276600  0.58783300  1
  Ni  Ni26  1  0.27058100  0.02723400  0.91216700  1
  Ni  Ni27  1  0.22941900  0.02723400  0.41216700  1
  Ni  Ni28  1  0.72566600  0.67913900  0.42551500  1
  Ni  Ni29  1  0.77433400  0.67913900  0.92551500  1
  Ni  Ni30  1  0.27433400  0.32086100  0.57448500  1
  Ni  Ni31  1  0.22566600  0.32086100  0.07448500  1
  Cu  Cu32  1  0.55337200  0.00512000  0.24916200  1
  Cu  Cu33  1  0.94662800  0.00512000  0.74916200  1
  Cu  Cu34  1  0.44662800  0.99488000  0.75083800  1
  Cu  Cu35  1  0.05337200  0.99488000  0.25083800  1
  C  C36  1  0.72989500  0.77179000  0.31838300  1
  C  C37  1  0.77010500  0.77179000  0.81838300  1
  C  C38  1  0.27010500  0.22821000  0.68161700  1
  C  C39  1  0.22989500  0.22821000  0.18161700  1
  C  C40  1  0.23711300  0.86043800  0.20524400  1
  C  C41  1  0.26288700  0.86043800  0.70524400  1
  C  C42  1  0.76288700  0.13956200  0.79475600  1
  C  C43  1  0.73711300  0.13956200  0.29475600  1
  C  C44  1  0.73049900  0.09606400  0.13366000  1
  C  C45  1  0.76950100  0.09606400  0.63366000  1
  C  C46  1  0.26950100  0.90393600  0.86634000  1
  C  C47  1  0.23049900  0.90393600  0.36634000  1
  C  C48  1  0.75012400  0.42913300  0.30231400  1
  C  C49  1  0.74987600  0.42913300  0.80231400  1
  C  C50  1  0.24987600  0.57086700  0.69768600  1
  C  C51  1  0.25012400  0.57086700  0.19768600  1
  C  C52  1  0.74185400  0.10472700  0.48304700  1
  C  C53  1  0.75814600  0.10472700  0.98304700  1
  C  C54  1  0.25814600  0.89527300  0.51695300  1
  C  C55  1  0.24185400  0.89527300  0.01695300  1
  C  C56  1  0.75453400  0.46932000  0.46518200  1
  C  C57  1  0.74546600  0.46932000  0.96518200  1
  C  C58  1  0.24546600  0.53068000  0.53481800  1
  C  C59  1  0.25453400  0.53068000  0.03481800  1
  C  C60  1  0.86762900  0.82147200  0.13178500  1
  C  C61  1  0.63237100  0.82147200  0.63178500  1
  C  C62  1  0.13237100  0.17852800  0.86821500  1
  C  C63  1  0.36762900  0.17852800  0.36821500  1
  C  C64  1  0.86369200  0.76456200  0.45868900  1
  C  C65  1  0.63630800  0.76456200  0.95868900  1
  C  C66  1  0.13630800  0.23543800  0.54131100  1
  C  C67  1  0.36369200  0.23543800  0.04131100  1
  C  C68  1  0.86482100  0.42782000  0.15798300  1
  C  C69  1  0.63517900  0.42782000  0.65798300  1
  C  C70  1  0.13517900  0.57218000  0.84201700  1
  C  C71  1  0.36482100  0.57218000  0.34201700  1
  C  C72  1  0.05179800  0.59825700  0.31242700  1
  C  C73  1  0.44820200  0.59825700  0.81242700  1
  C  C74  1  0.94820200  0.40174300  0.68757300  1
  C  C75  1  0.55179800  0.40174300  0.18757300  1
  C  C76  1  0.05467300  0.12387800  0.39390800  1
  C  C77  1  0.44532700  0.12387800  0.89390800  1
  C  C78  1  0.94532700  0.87612200  0.60609200  1
  C  C79  1  0.55467300  0.87612200  0.10609200  1
  C  C80  1  0.05072200  0.28065600  0.04643700  1
  C  C81  1  0.44927800  0.28065600  0.54643700  1
  C  C82  1  0.94927800  0.71934400  0.95356300  1
  C  C83  1  0.55072200  0.71934400  0.45356300  1
