# generated using pymatgen
data_Cu2NiC17
_symmetry_space_group_name_H-M   'P 1'
_cell_length_a   5.96643600
_cell_length_b   5.96643600
_cell_length_c   8.48870600
_cell_angle_alpha   90.00000000
_cell_angle_beta   90.00000000
_cell_angle_gamma   90.00000000
_symmetry_Int_Tables_number   1
_chemical_formula_structural   Cu2NiC17
_chemical_formula_sum   'Cu2 Ni1 C17'
_cell_volume   302.18399975
_cell_formula_units_Z   1
loop_
 _symmetry_equiv_pos_site_id
 _symmetry_equiv_pos_as_xyz
  1  'x, y, z'
loop_
 _atom_site_type_symbol
 _atom_site_label
 _atom_site_symmetry_multiplicity
 _atom_site_fract_x
 _atom_site_fract_y
 _atom_site_fract_z
 _atom_site_occupancy
  C  C0  1  0.50000000  0.00000000  0.73386500  1
  C  C1  1  0.00000000  0.50000000  0.26613500  1
  C  C2  1  0.50000000  0.00000000  0.26613500  1
  C  C3  1  0.00000000  0.50000000  0.73386500  1
  C  C4  1  0.50000000  0.50000000  0.00000000  1
  Ni  Ni5  1  0.00000000  0.00000000  0.50000000  1
  Cu  Cu6  1  0.00000000  0.00000000  0.00000000  1
  Cu  Cu7  1  0.50000000  0.50000000  0.50000000  1
  C  C8  1  0.00000000  0.00000000  0.77187700  1
  C  C9  1  0.50000000  0.50000000  0.26486700  1
  C  C10  1  0.73081900  0.73081900  0.50000000  1
  C  C11  1  0.23433900  0.23433900  0.00000000  1
  C  C12  1  0.73081900  0.26918100  0.50000000  1
  C  C13  1  0.23433900  0.76566100  0.00000000  1
  C  C14  1  0.00000000  0.00000000  0.22812300  1
  C  C15  1  0.50000000  0.50000000  0.73513300  1
  C  C16  1  0.26918100  0.26918100  0.50000000  1
  C  C17  1  0.76566100  0.76566100  0.00000000  1
  C  C18  1  0.26918100  0.73081900  0.50000000  1
  C  C19  1  0.76566100  0.23433900  0.00000000  1
