# generated using pymatgen
data_Cu18NiC18
_symmetry_space_group_name_H-M   'P 1'
_cell_length_a   17.91422000
_cell_length_b   17.91422000
_cell_length_c   2.87869500
_cell_angle_alpha   90.00000000
_cell_angle_beta   90.00000000
_cell_angle_gamma   90.00000000
_symmetry_Int_Tables_number   1
_chemical_formula_structural   Cu18NiC18
_chemical_formula_sum   'Cu36 Ni2 C36'
_cell_volume   923.82872158
_cell_formula_units_Z   2
loop_
 _symmetry_equiv_pos_site_id
 _symmetry_equiv_pos_as_xyz
  1  'x, y, z'
loop_
 _atom_site_type_symbol
 _atom_site_label
 _atom_site_symmetry_multiplicity
 _atom_site_fract_x
 _atom_site_fract_y
 _atom_site_fract_z
 _atom_site_occupancy
  C  C0  1  0.55005600  0.05005600  0.00000000  1
  C  C1  1  0.44994400  0.94994400  0.00000000  1
  C  C2  1  0.05005600  0.44994400  0.00000000  1
  C  C3  1  0.94994400  0.55005600  0.00000000  1
  C  C4  1  0.03177900  0.18752900  0.00000000  1
  C  C5  1  0.96822100  0.81247100  0.00000000  1
  C  C6  1  0.18752900  0.96822100  0.00000000  1
  C  C7  1  0.53177900  0.31247100  0.00000000  1
  C  C8  1  0.81247100  0.03177900  0.00000000  1
  C  C9  1  0.46822100  0.68752900  0.00000000  1
  C  C10  1  0.68752900  0.53177900  0.00000000  1
  C  C11  1  0.31247100  0.46822100  0.00000000  1
  C  C12  1  0.20941800  0.70941800  0.00000000  1
  C  C13  1  0.79058200  0.29058200  0.00000000  1
  C  C14  1  0.70941800  0.79058200  0.00000000  1
  C  C15  1  0.29058200  0.20941800  0.00000000  1
  C  C16  1  0.66891900  0.16891900  0.00000000  1
  C  C17  1  0.33108100  0.83108100  0.00000000  1
  C  C18  1  0.16891900  0.33108100  0.00000000  1
  C  C19  1  0.83108100  0.66891900  0.00000000  1
  Ni  Ni20  1  0.00000000  0.00000000  0.00000000  1
  Ni  Ni21  1  0.50000000  0.50000000  0.00000000  1
  C  C22  1  0.33409900  0.03883000  0.00000000  1
  C  C23  1  0.66590100  0.96117000  0.00000000  1
  C  C24  1  0.03883000  0.66590100  0.00000000  1
  C  C25  1  0.83409900  0.46117000  0.00000000  1
  C  C26  1  0.96117000  0.33409900  0.00000000  1
  C  C27  1  0.16590100  0.53883000  0.00000000  1
  C  C28  1  0.53883000  0.83409900  0.00000000  1
  C  C29  1  0.46117000  0.16590100  0.00000000  1
  C  C30  1  0.16661900  0.12413500  0.00000000  1
  C  C31  1  0.83338100  0.87586500  0.00000000  1
  C  C32  1  0.12413500  0.83338100  0.00000000  1
  C  C33  1  0.66661900  0.37586500  0.00000000  1
  C  C34  1  0.87586500  0.16661900  0.00000000  1
  C  C35  1  0.33338100  0.62413500  0.00000000  1
  C  C36  1  0.62413500  0.66661900  0.00000000  1
  C  C37  1  0.37586500  0.33338100  0.00000000  1
  Cu  Cu38  1  0.25519000  0.08760100  0.50000000  1
  Cu  Cu39  1  0.74481000  0.91239900  0.50000000  1
  Cu  Cu40  1  0.08760100  0.74481000  0.50000000  1
  Cu  Cu41  1  0.75519000  0.41239900  0.50000000  1
  Cu  Cu42  1  0.91239900  0.25519000  0.50000000  1
  Cu  Cu43  1  0.24481000  0.58760100  0.50000000  1
  Cu  Cu44  1  0.58760100  0.75519000  0.50000000  1
  Cu  Cu45  1  0.41239900  0.24481000  0.50000000  1
  Cu  Cu46  1  0.04776800  0.32609000  0.50000000  1
  Cu  Cu47  1  0.95223200  0.67391000  0.50000000  1
  Cu  Cu48  1  0.32609000  0.95223200  0.50000000  1
  Cu  Cu49  1  0.54776800  0.17391000  0.50000000  1
  Cu  Cu50  1  0.67391000  0.04776800  0.50000000  1
  Cu  Cu51  1  0.45223200  0.82609000  0.50000000  1
  Cu  Cu52  1  0.82609000  0.54776800  0.50000000  1
  Cu  Cu53  1  0.17391000  0.45223200  0.50000000  1
  Cu  Cu54  1  0.15972300  0.21091100  0.50000000  1
  Cu  Cu55  1  0.84027700  0.78908900  0.50000000  1
  Cu  Cu56  1  0.21091100  0.84027700  0.50000000  1
  Cu  Cu57  1  0.65972300  0.28908900  0.50000000  1
  Cu  Cu58  1  0.78908900  0.15972300  0.50000000  1
  Cu  Cu59  1  0.34027700  0.71091100  0.50000000  1
  Cu  Cu60  1  0.71091100  0.65972300  0.50000000  1
  Cu  Cu61  1  0.28908900  0.34027700  0.50000000  1
  Cu  Cu62  1  0.09878300  0.06675500  0.50000000  1
  Cu  Cu63  1  0.90121700  0.93324500  0.50000000  1
  Cu  Cu64  1  0.06675500  0.90121700  0.50000000  1
  Cu  Cu65  1  0.59878300  0.43324500  0.50000000  1
  Cu  Cu66  1  0.93324500  0.09878300  0.50000000  1
  Cu  Cu67  1  0.40121700  0.56675500  0.50000000  1
  Cu  Cu68  1  0.56675500  0.59878300  0.50000000  1
  Cu  Cu69  1  0.43324500  0.40121700  0.50000000  1
  Cu  Cu70  1  0.08247800  0.58247800  0.50000000  1
  Cu  Cu71  1  0.91752200  0.41752200  0.50000000  1
  Cu  Cu72  1  0.58247800  0.91752200  0.50000000  1
  Cu  Cu73  1  0.41752200  0.08247800  0.50000000  1
