# generated using pymatgen
data_CuNi7C32
_symmetry_space_group_name_H-M   'P 1'
_cell_length_a   7.74741983
_cell_length_b   7.74741983
_cell_length_c   7.74742015
_cell_angle_alpha   90.02209512
_cell_angle_beta   90.02209512
_cell_angle_gamma   90.02208892
_symmetry_Int_Tables_number   1
_chemical_formula_structural   CuNi7C32
_chemical_formula_sum   'Cu1 Ni7 C32'
_cell_volume   465.01953156
_cell_formula_units_Z   1
loop_
 _symmetry_equiv_pos_site_id
 _symmetry_equiv_pos_as_xyz
  1  'x, y, z'
loop_
 _atom_site_type_symbol
 _atom_site_label
 _atom_site_symmetry_multiplicity
 _atom_site_fract_x
 _atom_site_fract_y
 _atom_site_fract_z
 _atom_site_occupancy
  Ni  Ni0  1  0.24987400  0.24987400  0.75013300  1
  Ni  Ni1  1  0.75013400  0.24980000  0.75013400  1
  Ni  Ni2  1  0.75013300  0.24987400  0.24987400  1
  Ni  Ni3  1  0.24980000  0.75013400  0.75013400  1
  Ni  Ni4  1  0.75003900  0.75003900  0.75003900  1
  Ni  Ni5  1  0.24987400  0.75013300  0.24987400  1
  Ni  Ni6  1  0.75013400  0.75013400  0.24980000  1
  Cu  Cu7  1  0.24938400  0.24938400  0.24938400  1
  C  C8  1  0.00052100  0.00052100  0.00052100  1
  C  C9  1  0.49952200  0.00060300  0.00060300  1
  C  C10  1  0.00060300  0.00060300  0.49952200  1
  C  C11  1  0.00060300  0.49952200  0.00060300  1
  C  C12  1  0.49947500  0.00043200  0.49947500  1
  C  C13  1  0.49947500  0.49947500  0.00043200  1
  C  C14  1  0.00043200  0.49947500  0.49947500  1
  C  C15  1  0.49930400  0.49930400  0.49930400  1
  C  C16  1  0.00217900  0.24890900  0.00217900  1
  C  C17  1  0.49784200  0.25337900  0.00242700  1
  C  C18  1  0.00242700  0.25337900  0.49784200  1
  C  C19  1  0.49806400  0.24620600  0.49806400  1
  C  C20  1  0.00031200  0.75110800  0.00031200  1
  C  C21  1  0.49957200  0.74671000  0.00022400  1
  C  C22  1  0.00022400  0.74671000  0.49957200  1
  C  C23  1  0.49939600  0.75426400  0.49939600  1
  C  C24  1  0.00031200  0.00031200  0.75110800  1
  C  C25  1  0.49957200  0.00022400  0.74671000  1
  C  C26  1  0.00217900  0.00217900  0.24890900  1
  C  C27  1  0.49784200  0.00242700  0.25337900  1
  C  C28  1  0.00022400  0.49957200  0.74671000  1
  C  C29  1  0.49939600  0.49939600  0.75426400  1
  C  C30  1  0.00242700  0.49784200  0.25337900  1
  C  C31  1  0.49806400  0.49806400  0.24620600  1
  C  C32  1  0.24890900  0.00217900  0.00217900  1
  C  C33  1  0.75110800  0.00031200  0.00031200  1
  C  C34  1  0.25337900  0.00242700  0.49784200  1
  C  C35  1  0.74671000  0.00022400  0.49957200  1
  C  C36  1  0.25337900  0.49784200  0.00242700  1
  C  C37  1  0.74671000  0.49957200  0.00022400  1
  C  C38  1  0.24620600  0.49806400  0.49806400  1
  C  C39  1  0.75426400  0.49939600  0.49939600  1
