# generated using pymatgen
data_CuNiC8
_symmetry_space_group_name_H-M   'P 1'
_cell_length_a   7.72052300
_cell_length_b   5.82081800
_cell_length_c   6.08640106
_cell_angle_alpha   78.18479502
_cell_angle_beta   90.00000000
_cell_angle_gamma   90.00000000
_symmetry_Int_Tables_number   1
_chemical_formula_structural   CuNiC8
_chemical_formula_sum   'Cu2 Ni2 C16'
_cell_volume   267.72632379
_cell_formula_units_Z   2
loop_
 _symmetry_equiv_pos_site_id
 _symmetry_equiv_pos_as_xyz
  1  'x, y, z'
loop_
 _atom_site_type_symbol
 _atom_site_label
 _atom_site_symmetry_multiplicity
 _atom_site_fract_x
 _atom_site_fract_y
 _atom_site_fract_z
 _atom_site_occupancy
  C  C0  1  0.75000000  0.47434400  0.57400200  1
  C  C1  1  0.25000000  0.52565600  0.42599800  1
  C  C2  1  0.75000000  0.96155700  0.04138200  1
  C  C3  1  0.25000000  0.03844300  0.95861800  1
  Ni  Ni4  1  0.50000000  0.50000000  0.00000000  1
  Ni  Ni5  1  0.00000000  0.50000000  0.00000000  1
  Cu  Cu6  1  0.50000000  0.00000000  0.50000000  1
  Cu  Cu7  1  0.00000000  0.00000000  0.50000000  1
  C  C8  1  0.45695200  0.66302700  0.66850800  1
  C  C9  1  0.05407700  0.87104500  0.23164300  1
  C  C10  1  0.95695200  0.33697300  0.33149200  1
  C  C11  1  0.55407700  0.12895500  0.76835700  1
  C  C12  1  0.44592300  0.87104500  0.23164300  1
  C  C13  1  0.94592300  0.12895500  0.76835700  1
  C  C14  1  0.25000000  0.09677000  0.55791200  1
  C  C15  1  0.04304800  0.66302700  0.66850800  1
  C  C16  1  0.75000000  0.60259800  0.92880700  1
  C  C17  1  0.54304800  0.33697300  0.33149200  1
  C  C18  1  0.75000000  0.90323000  0.44208800  1
  C  C19  1  0.25000000  0.39740200  0.07119300  1
