# generated using pymatgen
data_Cu8(Ni2C)5
_symmetry_space_group_name_H-M   'P 1'
_cell_length_a   8.42297035
_cell_length_b   8.42297035
_cell_length_c   13.44393500
_cell_angle_alpha   90.00000000
_cell_angle_beta   90.00000000
_cell_angle_gamma   119.36371137
_symmetry_Int_Tables_number   1
_chemical_formula_structural   Cu8(Ni2C)5
_chemical_formula_sum   'Cu16 Ni20 C10'
_cell_volume   831.25941098
_cell_formula_units_Z   2
loop_
 _symmetry_equiv_pos_site_id
 _symmetry_equiv_pos_as_xyz
  1  'x, y, z'
loop_
 _atom_site_type_symbol
 _atom_site_label
 _atom_site_symmetry_multiplicity
 _atom_site_fract_x
 _atom_site_fract_y
 _atom_site_fract_z
 _atom_site_occupancy
  C  C0  1  0.93692400  0.94569000  0.25000000  1
  C  C1  1  0.94569000  0.93692400  0.75000000  1
  C  C2  1  0.50019000  0.25177500  0.25000000  1
  C  C3  1  0.25177500  0.50019000  0.75000000  1
  C  C4  1  0.80035800  0.20878600  0.52346700  1
  C  C5  1  0.20878600  0.80035800  0.47653300  1
  C  C6  1  0.80035800  0.20878600  0.97653300  1
  C  C7  1  0.20878600  0.80035800  0.02346700  1
  C  C8  1  0.61216500  0.61216500  0.50000000  1
  C  C9  1  0.61216500  0.61216500  0.00000000  1
  Ni  Ni10  1  0.90980500  0.21385700  0.40620800  1
  Ni  Ni11  1  0.21385700  0.90980500  0.59379200  1
  Ni  Ni12  1  0.90980500  0.21385700  0.09379200  1
  Ni  Ni13  1  0.21385700  0.90980500  0.90620800  1
  Ni  Ni14  1  0.67414400  0.19185100  0.63518200  1
  Ni  Ni15  1  0.19185100  0.67414400  0.36481800  1
  Ni  Ni16  1  0.67414400  0.19185100  0.86481800  1
  Ni  Ni17  1  0.19185100  0.67414400  0.13518200  1
  Ni  Ni18  1  0.56822500  0.64670700  0.37204900  1
  Ni  Ni19  1  0.64670700  0.56822500  0.62795100  1
  Ni  Ni20  1  0.56822500  0.64670700  0.12795100  1
  Ni  Ni21  1  0.64670700  0.56822500  0.87204900  1
  Ni  Ni22  1  0.32496900  0.32496900  0.50000000  1
  Ni  Ni23  1  0.32496900  0.32496900  0.00000000  1
  Ni  Ni24  1  0.20411500  0.38071300  0.25000000  1
  Ni  Ni25  1  0.38071300  0.20411500  0.75000000  1
  Ni  Ni26  1  0.90652000  0.56065200  0.25000000  1
  Ni  Ni27  1  0.56065200  0.90652000  0.75000000  1
  Ni  Ni28  1  0.58331000  0.94376100  0.25000000  1
  Ni  Ni29  1  0.94376100  0.58331000  0.75000000  1
  Cu  Cu30  1  0.65310200  0.37193800  0.45160600  1
  Cu  Cu31  1  0.37193800  0.65310200  0.54839400  1
  Cu  Cu32  1  0.65310200  0.37193800  0.04839400  1
  Cu  Cu33  1  0.37193800  0.65310200  0.95160600  1
  Cu  Cu34  1  0.51992700  0.99558300  0.45311500  1
  Cu  Cu35  1  0.99558300  0.51992700  0.54688500  1
  Cu  Cu36  1  0.51992700  0.99558300  0.04688500  1
  Cu  Cu37  1  0.99558300  0.51992700  0.95311500  1
  Cu  Cu38  1  0.02152800  0.22935300  0.61712800  1
  Cu  Cu39  1  0.22935300  0.02152800  0.38287200  1
  Cu  Cu40  1  0.02152800  0.22935300  0.88287200  1
  Cu  Cu41  1  0.22935300  0.02152800  0.11712800  1
  Cu  Cu42  1  0.74691800  0.90975800  0.54958000  1
  Cu  Cu43  1  0.90975800  0.74691800  0.45042000  1
  Cu  Cu44  1  0.74691800  0.90975800  0.95042000  1
  Cu  Cu45  1  0.90975800  0.74691800  0.04958000  1
