# generated using pymatgen
data_Cu(NiC3)2
_symmetry_space_group_name_H-M   'P 1'
_cell_length_a   4.63899200
_cell_length_b   8.58339300
_cell_length_c   9.17107400
_cell_angle_alpha   90.00000000
_cell_angle_beta   90.00000000
_cell_angle_gamma   90.00000000
_symmetry_Int_Tables_number   1
_chemical_formula_structural   Cu(NiC3)2
_chemical_formula_sum   'Cu4 Ni8 C24'
_cell_volume   365.17649753
_cell_formula_units_Z   4
loop_
 _symmetry_equiv_pos_site_id
 _symmetry_equiv_pos_as_xyz
  1  'x, y, z'
loop_
 _atom_site_type_symbol
 _atom_site_label
 _atom_site_symmetry_multiplicity
 _atom_site_fract_x
 _atom_site_fract_y
 _atom_site_fract_z
 _atom_site_occupancy
  Ni  Ni0  1  0.40004900  0.91759300  0.62635300  1
  Ni  Ni1  1  0.09995100  0.58240700  0.12635300  1
  Ni  Ni2  1  0.59995100  0.41759300  0.37364700  1
  Ni  Ni3  1  0.90004900  0.08240700  0.87364700  1
  Ni  Ni4  1  0.59995100  0.08240700  0.37364700  1
  Ni  Ni5  1  0.90004900  0.41759300  0.87364700  1
  Ni  Ni6  1  0.40004900  0.58240700  0.62635300  1
  Ni  Ni7  1  0.09995100  0.91759300  0.12635300  1
  Cu  Cu8  1  0.89788400  0.75000000  0.43767900  1
  Cu  Cu9  1  0.60211600  0.75000000  0.93767900  1
  Cu  Cu10  1  0.10211600  0.25000000  0.56232100  1
  Cu  Cu11  1  0.39788400  0.25000000  0.06232100  1
  C  C12  1  0.20221100  0.75000000  0.53204500  1
  C  C13  1  0.29778900  0.75000000  0.03204500  1
  C  C14  1  0.79778900  0.25000000  0.46795500  1
  C  C15  1  0.70221100  0.25000000  0.96795500  1
  C  C16  1  0.53749100  0.75000000  0.75778800  1
  C  C17  1  0.96250900  0.75000000  0.25778800  1
  C  C18  1  0.46250900  0.25000000  0.24221200  1
  C  C19  1  0.03749100  0.25000000  0.74221200  1
  C  C20  1  0.70816800  0.90451800  0.48702700  1
  C  C21  1  0.79183200  0.59548200  0.98702700  1
  C  C22  1  0.29183200  0.40451800  0.51297300  1
  C  C23  1  0.20816800  0.09548200  0.01297300  1
  C  C24  1  0.29183200  0.09548200  0.51297300  1
  C  C25  1  0.20816800  0.40451800  0.01297300  1
  C  C26  1  0.70816800  0.59548200  0.48702700  1
  C  C27  1  0.79183200  0.90451800  0.98702700  1
  C  C28  1  0.10923500  0.95383200  0.75599100  1
  C  C29  1  0.39076500  0.54616800  0.25599100  1
  C  C30  1  0.89076500  0.45383200  0.24400900  1
  C  C31  1  0.60923500  0.04616800  0.74400900  1
  C  C32  1  0.89076500  0.04616800  0.24400900  1
  C  C33  1  0.60923500  0.45383200  0.74400900  1
  C  C34  1  0.10923500  0.54616800  0.75599100  1
  C  C35  1  0.39076500  0.95383200  0.25599100  1
