# generated using pymatgen
data_CuNiC6
_symmetry_space_group_name_H-M   'P 1'
_cell_length_a   5.18444400
_cell_length_b   5.24604896
_cell_length_c   7.34707460
_cell_angle_alpha   109.61357604
_cell_angle_beta   106.06654989
_cell_angle_gamma   97.68289466
_symmetry_Int_Tables_number   1
_chemical_formula_structural   CuNiC6
_chemical_formula_sum   'Cu2 Ni2 C12'
_cell_volume   175.11948521
_cell_formula_units_Z   2
loop_
 _symmetry_equiv_pos_site_id
 _symmetry_equiv_pos_as_xyz
  1  'x, y, z'
loop_
 _atom_site_type_symbol
 _atom_site_label
 _atom_site_symmetry_multiplicity
 _atom_site_fract_x
 _atom_site_fract_y
 _atom_site_fract_z
 _atom_site_occupancy
  C  C0  1  0.00000000  0.00000000  0.50000000  1
  C  C1  1  0.00000000  0.00000000  0.00000000  1
  Ni  Ni2  1  0.32564300  0.64943900  0.22879500  1
  Ni  Ni3  1  0.67435700  0.35056100  0.77120500  1
  Cu  Cu4  1  0.64950600  0.97772800  0.33554600  1
  Cu  Cu5  1  0.35049400  0.02227200  0.66445400  1
  C  C6  1  0.14100900  0.96654600  0.72250200  1
  C  C7  1  0.27501900  0.80350800  0.38576200  1
  C  C8  1  0.71827900  0.65883700  0.65656800  1
  C  C9  1  0.63281700  0.76344000  0.07093000  1
  C  C10  1  0.11980500  0.68566700  0.11722400  1
  C  C11  1  0.88019500  0.31433300  0.88277600  1
  C  C12  1  0.36718300  0.23656000  0.92907000  1
  C  C13  1  0.28172100  0.34116300  0.34343200  1
  C  C14  1  0.72498100  0.19649200  0.61423800  1
  C  C15  1  0.85899100  0.03345400  0.27749800  1
