# generated using pymatgen
data_Cu6Ni2C7
_symmetry_space_group_name_H-M   'P 1'
_cell_length_a   3.94686200
_cell_length_b   3.94686200
_cell_length_c   15.91827800
_cell_angle_alpha   90.00000000
_cell_angle_beta   90.00000000
_cell_angle_gamma   90.00000000
_symmetry_Int_Tables_number   1
_chemical_formula_structural   Cu6Ni2C7
_chemical_formula_sum   'Cu6 Ni2 C7'
_cell_volume   247.97047195
_cell_formula_units_Z   1
loop_
 _symmetry_equiv_pos_site_id
 _symmetry_equiv_pos_as_xyz
  1  'x, y, z'
loop_
 _atom_site_type_symbol
 _atom_site_label
 _atom_site_symmetry_multiplicity
 _atom_site_fract_x
 _atom_site_fract_y
 _atom_site_fract_z
 _atom_site_occupancy
  C  C0  1  0.50000000  0.00000000  0.19128200  1
  C  C1  1  0.00000000  0.50000000  0.80871800  1
  C  C2  1  0.50000000  0.00000000  0.41436200  1
  C  C3  1  0.00000000  0.50000000  0.58563800  1
  C  C4  1  0.00000000  0.00000000  0.00000000  1
  C  C5  1  0.00000000  0.50000000  0.31051000  1
  C  C6  1  0.50000000  0.00000000  0.68949000  1
  Ni  Ni7  1  0.00000000  0.50000000  0.09666700  1
  Ni  Ni8  1  0.50000000  0.00000000  0.90333300  1
  Cu  Cu9  1  0.50000000  0.50000000  0.29257800  1
  Cu  Cu10  1  0.00000000  0.00000000  0.29169800  1
  Cu  Cu11  1  0.00000000  0.00000000  0.70830200  1
  Cu  Cu12  1  0.50000000  0.50000000  0.70742200  1
  Cu  Cu13  1  0.00000000  0.50000000  0.43138100  1
  Cu  Cu14  1  0.50000000  0.00000000  0.56861900  1
