# generated using pymatgen
data_Cu3(Ni7C5)2
_symmetry_space_group_name_H-M   'P 1'
_cell_length_a   7.55966900
_cell_length_b   9.56926941
_cell_length_c   10.71476759
_cell_angle_alpha   77.25966187
_cell_angle_beta   71.47186395
_cell_angle_gamma   74.60350286
_symmetry_Int_Tables_number   1
_chemical_formula_structural   Cu3(Ni7C5)2
_chemical_formula_sum   'Cu6 Ni28 C20'
_cell_volume   700.65555306
_cell_formula_units_Z   2
loop_
 _symmetry_equiv_pos_site_id
 _symmetry_equiv_pos_as_xyz
  1  'x, y, z'
loop_
 _atom_site_type_symbol
 _atom_site_label
 _atom_site_symmetry_multiplicity
 _atom_site_fract_x
 _atom_site_fract_y
 _atom_site_fract_z
 _atom_site_occupancy
  C  C0  1  0.69009200  0.08557400  0.21787400  1
  C  C1  1  0.30990800  0.91442600  0.78212600  1
  C  C2  1  0.05716400  0.25620200  0.13038700  1
  C  C3  1  0.94283600  0.74379800  0.86961300  1
  C  C4  1  0.59207700  0.37542700  0.62304900  1
  C  C5  1  0.40792300  0.62457300  0.37695100  1
  Ni  Ni6  1  0.79213800  0.22367100  0.34315800  1
  Ni  Ni7  1  0.20786200  0.77632900  0.65684200  1
  Ni  Ni8  1  0.22707800  0.43712700  0.19558000  1
  Ni  Ni9  1  0.77292200  0.56287300  0.80442000  1
  Ni  Ni10  1  0.37638400  0.02353000  0.39640900  1
  Ni  Ni11  1  0.62361600  0.97647000  0.60359100  1
  Ni  Ni12  1  0.89231100  0.82270300  0.16478600  1
  Ni  Ni13  1  0.10768900  0.17729700  0.83521400  1
  Ni  Ni14  1  0.68942400  0.05669700  0.98115600  1
  Ni  Ni15  1  0.31057600  0.94330300  0.01884400  1
  Ni  Ni16  1  0.22382800  0.00718300  0.22714400  1
  Ni  Ni17  1  0.77617200  0.99281700  0.77285600  1
  Ni  Ni18  1  0.00211300  0.40533100  0.90058900  1
  Ni  Ni19  1  0.99788700  0.59466900  0.09941100  1
  Ni  Ni20  1  0.59986300  0.22302300  0.99176000  1
  Ni  Ni21  1  0.40013700  0.77697700  0.00824000  1
  Ni  Ni22  1  0.39732300  0.17545100  0.41787700  1
  Ni  Ni23  1  0.60267700  0.82454900  0.58212300  1
  Ni  Ni24  1  0.70507000  0.33794100  0.23263500  1
  Ni  Ni25  1  0.29493000  0.66205900  0.76736500  1
  Ni  Ni26  1  0.21321400  0.34938800  0.90423300  1
  Ni  Ni27  1  0.78678600  0.65061200  0.09576700  1
  Ni  Ni28  1  0.01669900  0.44401500  0.28733700  1
  Ni  Ni29  1  0.98330100  0.55598500  0.71266300  1
  Ni  Ni30  1  0.37685200  0.09033900  0.12145700  1
  Ni  Ni31  1  0.62314800  0.90966100  0.87854300  1
  Ni  Ni32  1  0.94441600  0.86209600  0.28277600  1
  Ni  Ni33  1  0.05558400  0.13790400  0.71722400  1
  Cu  Cu34  1  0.71535800  0.59756600  0.45482600  1
  Cu  Cu35  1  0.28464200  0.40243400  0.54517400  1
  Cu  Cu36  1  0.48585100  0.44433900  0.85283700  1
  Cu  Cu37  1  0.51414900  0.55566100  0.14716300  1
  Cu  Cu38  1  0.83153800  0.14470700  0.56804600  1
  Cu  Cu39  1  0.16846200  0.85529300  0.43195400  1
  C  C40  1  0.79702800  0.24330600  0.24713400  1
  C  C41  1  0.20297200  0.75669400  0.75286600  1
  C  C42  1  0.62332100  0.12591900  0.04693700  1
  C  C43  1  0.37667900  0.87408100  0.95306300  1
  C  C44  1  0.45263600  0.10024500  0.35941700  1
  C  C45  1  0.54736400  0.89975500  0.64058300  1
  C  C46  1  0.87603900  0.90281700  0.21479500  1
  C  C47  1  0.12396100  0.09718300  0.78520500  1
  C  C48  1  0.10000700  0.42383500  0.19887900  1
  C  C49  1  0.89999300  0.57616500  0.80112100  1
  C  C50  1  0.08747300  0.31878200  0.93571700  1
  C  C51  1  0.91252700  0.68121800  0.06428300  1
  C  C52  1  0.24798200  0.07049600  0.13855400  1
  C  C53  1  0.75201800  0.92950400  0.86144600  1
