# generated using pymatgen
data_Cu5Ni5C2
_symmetry_space_group_name_H-M   'P 1'
_cell_length_a   7.88209300
_cell_length_b   11.31047200
_cell_length_c   14.34927000
_cell_angle_alpha   90.00000000
_cell_angle_beta   90.00000000
_cell_angle_gamma   90.00000000
_symmetry_Int_Tables_number   1
_chemical_formula_structural   Cu5Ni5C2
_chemical_formula_sum   'Cu20 Ni20 C8'
_cell_volume   1279.24017811
_cell_formula_units_Z   4
loop_
 _symmetry_equiv_pos_site_id
 _symmetry_equiv_pos_as_xyz
  1  'x, y, z'
loop_
 _atom_site_type_symbol
 _atom_site_label
 _atom_site_symmetry_multiplicity
 _atom_site_fract_x
 _atom_site_fract_y
 _atom_site_fract_z
 _atom_site_occupancy
  C  C0  1  0.25000000  0.91708300  0.90743900  1
  C  C1  1  0.25000000  0.58291700  0.40743900  1
  C  C2  1  0.75000000  0.08291700  0.09256100  1
  C  C3  1  0.75000000  0.41708300  0.59256100  1
  C  C4  1  0.25000000  0.33706000  0.84640900  1
  C  C5  1  0.25000000  0.16294000  0.34640900  1
  C  C6  1  0.75000000  0.66294000  0.15359100  1
  C  C7  1  0.75000000  0.83706000  0.65359100  1
  Ni  Ni8  1  0.09878200  0.95097400  0.83717100  1
  Ni  Ni9  1  0.40121800  0.54902600  0.33717100  1
  Ni  Ni10  1  0.59878200  0.04902600  0.16282900  1
  Ni  Ni11  1  0.90121800  0.45097400  0.66282900  1
  Ni  Ni12  1  0.90121800  0.04902600  0.16282900  1
  Ni  Ni13  1  0.59878200  0.45097400  0.66282900  1
  Ni  Ni14  1  0.40121800  0.95097400  0.83717100  1
  Ni  Ni15  1  0.09878200  0.54902600  0.33717100  1
  Ni  Ni16  1  0.14531000  0.72864000  0.89654900  1
  Ni  Ni17  1  0.35469000  0.77136000  0.39654900  1
  Ni  Ni18  1  0.64531000  0.27136000  0.10345100  1
  Ni  Ni19  1  0.85469000  0.22864000  0.60345100  1
  Ni  Ni20  1  0.85469000  0.27136000  0.10345100  1
  Ni  Ni21  1  0.64531000  0.22864000  0.60345100  1
  Ni  Ni22  1  0.35469000  0.72864000  0.89654900  1
  Ni  Ni23  1  0.14531000  0.77136000  0.39654900  1
  Ni  Ni24  1  0.25000000  0.65216200  0.86044500  1
  Ni  Ni25  1  0.25000000  0.84783800  0.36044500  1
  Ni  Ni26  1  0.75000000  0.34783800  0.13955500  1
  Ni  Ni27  1  0.75000000  0.15216200  0.63955500  1
  Cu  Cu28  1  0.25000000  0.42519900  0.98743400  1
  Cu  Cu29  1  0.25000000  0.07480100  0.48743400  1
  Cu  Cu30  1  0.75000000  0.57480100  0.01256600  1
  Cu  Cu31  1  0.75000000  0.92519900  0.51256600  1
  Cu  Cu32  1  0.96270700  0.34150800  0.84465100  1
  Cu  Cu33  1  0.53729300  0.15849200  0.34465100  1
  Cu  Cu34  1  0.46270700  0.65849200  0.15534900  1
  Cu  Cu35  1  0.03729300  0.84150800  0.65534900  1
  Cu  Cu36  1  0.03729300  0.65849200  0.15534900  1
  Cu  Cu37  1  0.46270700  0.84150800  0.65534900  1
  Cu  Cu38  1  0.53729300  0.34150800  0.84465100  1
  Cu  Cu39  1  0.96270700  0.15849200  0.34465100  1
  Cu  Cu40  1  0.25000000  0.23078200  0.71340400  1
  Cu  Cu41  1  0.25000000  0.26921800  0.21340400  1
  Cu  Cu42  1  0.75000000  0.76921800  0.28659600  1
  Cu  Cu43  1  0.75000000  0.73078200  0.78659600  1
  Cu  Cu44  1  0.25000000  0.03857700  0.02366300  1
  Cu  Cu45  1  0.25000000  0.46142300  0.52366300  1
  Cu  Cu46  1  0.75000000  0.96142300  0.97633700  1
  Cu  Cu47  1  0.75000000  0.53857700  0.47633700  1
