# generated using pymatgen
data_Cu4NiC8
_symmetry_space_group_name_H-M   'P 1'
_cell_length_a   5.86955226
_cell_length_b   5.86955226
_cell_length_c   5.86955245
_cell_angle_alpha   57.22274502
_cell_angle_beta   57.22274502
_cell_angle_gamma   57.22275167
_symmetry_Int_Tables_number   1
_chemical_formula_structural   Cu4NiC8
_chemical_formula_sum   'Cu4 Ni1 C8'
_cell_volume   133.84175948
_cell_formula_units_Z   1
loop_
 _symmetry_equiv_pos_site_id
 _symmetry_equiv_pos_as_xyz
  1  'x, y, z'
loop_
 _atom_site_type_symbol
 _atom_site_label
 _atom_site_symmetry_multiplicity
 _atom_site_fract_x
 _atom_site_fract_y
 _atom_site_fract_z
 _atom_site_occupancy
  Ni  Ni0  1  0.50000000  0.50000000  0.50000000  1
  Cu  Cu1  1  0.00000000  0.50000000  0.50000000  1
  Cu  Cu2  1  0.50000000  0.00000000  0.50000000  1
  Cu  Cu3  1  0.50000000  0.50000000  0.00000000  1
  Cu  Cu4  1  0.00000000  0.00000000  0.00000000  1
  C  C5  1  0.27229900  0.76132700  0.76132700  1
  C  C6  1  0.23867300  0.23867300  0.72770100  1
  C  C7  1  0.72770100  0.23867300  0.23867300  1
  C  C8  1  0.23867300  0.72770100  0.23867300  1
  C  C9  1  0.27079800  0.27079800  0.27079800  1
  C  C10  1  0.72920200  0.72920200  0.72920200  1
  C  C11  1  0.76132700  0.27229900  0.76132700  1
  C  C12  1  0.76132700  0.76132700  0.27229900  1
