# generated using pymatgen
data_CuNiC6
_symmetry_space_group_name_H-M   'P 1'
_cell_length_a   10.46188200
_cell_length_b   5.36159800
_cell_length_c   8.30520732
_cell_angle_alpha   70.34453873
_cell_angle_beta   90.00000000
_cell_angle_gamma   90.00000000
_symmetry_Int_Tables_number   1
_chemical_formula_structural   CuNiC6
_chemical_formula_sum   'Cu4 Ni4 C24'
_cell_volume   438.71452231
_cell_formula_units_Z   4
loop_
 _symmetry_equiv_pos_site_id
 _symmetry_equiv_pos_as_xyz
  1  'x, y, z'
loop_
 _atom_site_type_symbol
 _atom_site_label
 _atom_site_symmetry_multiplicity
 _atom_site_fract_x
 _atom_site_fract_y
 _atom_site_fract_z
 _atom_site_occupancy
  Ni  Ni0  1  0.09064600  0.53206700  0.83192100  1
  Ni  Ni1  1  0.90935400  0.46793300  0.16807900  1
  Ni  Ni2  1  0.59064600  0.46793300  0.66807900  1
  Ni  Ni3  1  0.40935400  0.53206700  0.33192100  1
  Cu  Cu4  1  0.38413500  0.12001500  0.06054600  1
  Cu  Cu5  1  0.61586500  0.87998500  0.93945400  1
  Cu  Cu6  1  0.88413500  0.87998500  0.43945400  1
  Cu  Cu7  1  0.11586500  0.12001500  0.56054600  1
  C  C8  1  0.89521200  0.02684800  0.84233800  1
  C  C9  1  0.10478800  0.97315200  0.15766200  1
  C  C10  1  0.60478800  0.02684800  0.34233800  1
  C  C11  1  0.39521200  0.97315200  0.65766200  1
  C  C12  1  0.95625400  0.84491600  0.65722600  1
  C  C13  1  0.03310700  0.30181500  0.68471900  1
  C  C14  1  0.79079300  0.18566600  0.30791200  1
  C  C15  1  0.45805100  0.75220400  0.49375000  1
  C  C16  1  0.71981300  0.71498000  0.50452700  1
  C  C17  1  0.78018700  0.71498000  0.00452700  1
  C  C18  1  0.46689300  0.30181500  0.18471900  1
  C  C19  1  0.53310700  0.69818500  0.81528100  1
  C  C20  1  0.54194900  0.24779600  0.50625000  1
  C  C21  1  0.45625400  0.15508400  0.84277400  1
  C  C22  1  0.28018700  0.28502000  0.49547300  1
  C  C23  1  0.04374600  0.15508400  0.34277400  1
  C  C24  1  0.54374600  0.84491600  0.15722600  1
  C  C25  1  0.21981300  0.28502000  0.99547300  1
  C  C26  1  0.95805100  0.24779600  0.00625000  1
  C  C27  1  0.04194900  0.75220400  0.99375000  1
  C  C28  1  0.20920700  0.81433400  0.69208800  1
  C  C29  1  0.96689300  0.69818500  0.31528100  1
  C  C30  1  0.29079300  0.81433400  0.19208800  1
  C  C31  1  0.70920700  0.18566600  0.80791200  1
