# generated using pymatgen
data_Cu2NiC8
_symmetry_space_group_name_H-M   'P 1'
_cell_length_a   7.62890009
_cell_length_b   7.62890009
_cell_length_c   7.62890009
_cell_angle_alpha   120.45902925
_cell_angle_beta   119.87777160
_cell_angle_gamma   89.70930940
_symmetry_Int_Tables_number   1
_chemical_formula_structural   Cu2NiC8
_chemical_formula_sum   'Cu4 Ni2 C16'
_cell_volume   313.14380267
_cell_formula_units_Z   2
loop_
 _symmetry_equiv_pos_site_id
 _symmetry_equiv_pos_as_xyz
  1  'x, y, z'
loop_
 _atom_site_type_symbol
 _atom_site_label
 _atom_site_symmetry_multiplicity
 _atom_site_fract_x
 _atom_site_fract_y
 _atom_site_fract_z
 _atom_site_occupancy
  C  C0  1  0.00000000  0.00000000  0.00000000  1
  C  C1  1  0.50000000  0.00000000  0.50000000  1
  Ni  Ni2  1  0.00000000  0.00000000  0.50000000  1
  Ni  Ni3  1  0.00000000  0.50000000  0.00000000  1
  Cu  Cu4  1  0.50000000  0.50000000  0.50000000  1
  Cu  Cu5  1  0.50000000  0.00000000  0.00000000  1
  Cu  Cu6  1  0.50000000  0.50000000  0.00000000  1
  Cu  Cu7  1  0.00000000  0.50000000  0.50000000  1
  C  C8  1  0.38023800  0.63023800  0.75000000  1
  C  C9  1  0.61976200  0.36976200  0.25000000  1
  C  C10  1  0.29168100  0.04168100  0.25000000  1
  C  C11  1  0.89950500  0.64950500  0.25000000  1
  C  C12  1  0.35059700  0.67944800  0.28214200  1
  C  C13  1  0.89730600  0.06845500  0.21785800  1
  C  C14  1  0.35059700  0.06845500  0.67115000  1
  C  C15  1  0.89730600  0.67944800  0.82885000  1
  C  C16  1  0.70831900  0.95831900  0.75000000  1
  C  C17  1  0.10049500  0.35049500  0.75000000  1
  C  C18  1  0.64940300  0.32055200  0.71785800  1
  C  C19  1  0.10269400  0.93154500  0.78214200  1
  C  C20  1  0.64940300  0.93154500  0.32885000  1
  C  C21  1  0.10269400  0.32055200  0.17115000  1
