# generated using pymatgen
data_Cu4Ni2C11
_symmetry_space_group_name_H-M   'P 1'
_cell_length_a   10.11886773
_cell_length_b   12.63030676
_cell_length_c   12.63030676
_cell_angle_alpha   73.29031037
_cell_angle_beta   66.52312732
_cell_angle_gamma   66.52312732
_symmetry_Int_Tables_number   1
_chemical_formula_structural   Cu4Ni2C11
_chemical_formula_sum   'Cu32 Ni16 C88'
_cell_volume   1342.01083024
_cell_formula_units_Z   8
loop_
 _symmetry_equiv_pos_site_id
 _symmetry_equiv_pos_as_xyz
  1  'x, y, z'
loop_
 _atom_site_type_symbol
 _atom_site_label
 _atom_site_symmetry_multiplicity
 _atom_site_fract_x
 _atom_site_fract_y
 _atom_site_fract_z
 _atom_site_occupancy
  C  C0  1  0.91001900  0.14186100  0.01074700  1
  C  C1  1  0.58998100  0.98925300  0.85813900  1
  C  C2  1  0.08998100  0.85813900  0.98925300  1
  C  C3  1  0.41001900  0.01074700  0.14186100  1
  C  C4  1  0.59966600  0.36002200  0.98290700  1
  C  C5  1  0.90033400  0.01709300  0.63997800  1
  C  C6  1  0.40033400  0.63997800  0.01709300  1
  C  C7  1  0.09966600  0.98290700  0.36002200  1
  C  C8  1  0.75000000  0.31712400  0.68287600  1
  C  C9  1  0.25000000  0.68287600  0.31712400  1
  C  C10  1  0.25000000  0.19356200  0.80643800  1
  C  C11  1  0.75000000  0.80643800  0.19356200  1
  C  C12  1  0.75059200  0.18750300  0.31254300  1
  C  C13  1  0.74940800  0.68745700  0.81249700  1
  C  C14  1  0.24940800  0.81249700  0.68745700  1
  C  C15  1  0.25059200  0.31254300  0.18750300  1
  Ni  Ni16  1  0.08765700  0.18318900  0.10743400  1
  Ni  Ni17  1  0.41234300  0.89256600  0.81681100  1
  Ni  Ni18  1  0.91234300  0.81681100  0.89256600  1
  Ni  Ni19  1  0.58765700  0.10743400  0.18318900  1
  Ni  Ni20  1  0.45911800  0.24799200  0.91761700  1
  Ni  Ni21  1  0.04088200  0.08238300  0.75200800  1
  Ni  Ni22  1  0.54088200  0.75200800  0.08238300  1
  Ni  Ni23  1  0.95911800  0.91761700  0.24799200  1
  Ni  Ni24  1  0.53499500  0.57830600  0.75510900  1
  Ni  Ni25  1  0.96500500  0.24489100  0.42169400  1
  Ni  Ni26  1  0.46500500  0.42169400  0.24489100  1
  Ni  Ni27  1  0.03499500  0.75510900  0.57830600  1
  Ni  Ni28  1  0.91777400  0.39489300  0.81580200  1
  Ni  Ni29  1  0.58222600  0.18419800  0.60510700  1
  Ni  Ni30  1  0.08222600  0.60510700  0.18419800  1
  Ni  Ni31  1  0.41777400  0.81580200  0.39489300  1
  Cu  Cu32  1  0.19807300  0.44327200  0.87567900  1
  Cu  Cu33  1  0.30192700  0.12432100  0.55672800  1
  Cu  Cu34  1  0.80192700  0.55672800  0.12432100  1
  Cu  Cu35  1  0.69807300  0.87567900  0.44327200  1
  Cu  Cu36  1  0.24109700  0.56798100  0.85015600  1
  Cu  Cu37  1  0.25890300  0.14984400  0.43201900  1
  Cu  Cu38  1  0.75890300  0.43201900  0.14984400  1
  Cu  Cu39  1  0.74109700  0.85015600  0.56798100  1
  Cu  Cu40  1  0.05737500  0.57874500  0.89349000  1
  Cu  Cu41  1  0.44262500  0.10651000  0.42125500  1
  Cu  Cu42  1  0.94262500  0.42125500  0.10651000  1
  Cu  Cu43  1  0.55737500  0.89349000  0.57874500  1
  Cu  Cu44  1  0.16144300  0.50794200  0.98720000  1
  Cu  Cu45  1  0.33855700  0.01280000  0.49205800  1
  Cu  Cu46  1  0.83855700  0.49205800  0.01280000  1
  Cu  Cu47  1  0.66144300  0.98720000  0.50794200  1
  Cu  Cu48  1  0.56031600  0.53305600  0.35609100  1
  Cu  Cu49  1  0.93968400  0.64390900  0.46694400  1
  Cu  Cu50  1  0.43968400  0.46694400  0.64390900  1
  Cu  Cu51  1  0.06031600  0.35609100  0.53305600  1
  Cu  Cu52  1  0.63277600  0.50928900  0.46398300  1
  Cu  Cu53  1  0.86722400  0.53601700  0.49071100  1
  Cu  Cu54  1  0.36722400  0.49071100  0.53601700  1
  Cu  Cu55  1  0.13277600  0.46398300  0.50928900  1
  Cu  Cu56  1  0.72159400  0.56159000  0.32696200  1
  Cu  Cu57  1  0.77840600  0.67303800  0.43841000  1
  Cu  Cu58  1  0.27840600  0.43841000  0.67303800  1
  Cu  Cu59  1  0.22159400  0.32696200  0.56159000  1
  Cu  Cu60  1  0.72610600  0.41821100  0.36393600  1
  Cu  Cu61  1  0.77389400  0.63606400  0.58178900  1
  Cu  Cu62  1  0.27389400  0.58178900  0.63606400  1
  Cu  Cu63  1  0.22610600  0.36393600  0.41821100  1
  C  C64  1  0.16348500  0.52392800  0.90121000  1
  C  C65  1  0.33651500  0.09879000  0.47607200  1
  C  C66  1  0.83651500  0.47607200  0.09879000  1
  C  C67  1  0.66348500  0.90121000  0.52392800  1
  C  C68  1  0.66013800  0.50588600  0.37732900  1
  C  C69  1  0.83986200  0.62267100  0.49411400  1
  C  C70  1  0.33986200  0.49411400  0.62267100  1
  C  C71  1  0.16013800  0.37732900  0.50588600  1
  C  C72  1  0.91205400  0.20282000  0.15165700  1
  C  C73  1  0.58794600  0.84834300  0.79718000  1
  C  C74  1  0.08794600  0.79718000  0.84834300  1
  C  C75  1  0.41205400  0.15165700  0.20282000  1
  C  C76  1  0.13255500  0.16433500  0.97934700  1
  C  C77  1  0.36744500  0.02065300  0.83566500  1
  C  C78  1  0.86744500  0.83566500  0.02065300  1
  C  C79  1  0.63255500  0.97934700  0.16433500  1
  C  C80  1  0.17221700  0.07518900  0.17940700  1
  C  C81  1  0.32778300  0.82059300  0.92481100  1
  C  C82  1  0.82778300  0.92481100  0.82059300  1
  C  C83  1  0.67221700  0.17940700  0.07518900  1
  C  C84  1  0.11485600  0.29271300  0.11291700  1
  C  C85  1  0.38514400  0.88708300  0.70728700  1
  C  C86  1  0.88514400  0.70728700  0.88708300  1
  C  C87  1  0.61485600  0.11291700  0.29271300  1
  C  C88  1  0.39351400  0.32168200  0.01880800  1
  C  C89  1  0.10648600  0.98119200  0.67831800  1
  C  C90  1  0.60648600  0.67831800  0.98119200  1
  C  C91  1  0.89351400  0.01880800  0.32168200  1
  C  C92  1  0.60753100  0.27968200  0.84432500  1
  C  C93  1  0.89246900  0.15567500  0.72031800  1
  C  C94  1  0.39246900  0.72031800  0.15567500  1
  C  C95  1  0.10753100  0.84432500  0.27968200  1
  C  C96  1  0.49574400  0.11501200  0.96359700  1
  C  C97  1  0.00425600  0.03640300  0.88498800  1
  C  C98  1  0.50425600  0.88498800  0.03640300  1
  C  C99  1  0.99574400  0.96359700  0.11501200  1
  C  C100  1  0.34718100  0.28625400  0.84907000  1
  C  C101  1  0.15281900  0.15093000  0.71374600  1
  C  C102  1  0.65281900  0.71374600  0.15093000  1
  C  C103  1  0.84718100  0.84907000  0.28625400  1
  C  C104  1  0.50234300  0.52681100  0.88748200  1
  C  C105  1  0.99765700  0.11251800  0.47318900  1
  C  C106  1  0.49765700  0.47318900  0.11251800  1
  C  C107  1  0.00234300  0.88748200  0.52681100  1
  C  C108  1  0.37861000  0.65594200  0.73923100  1
  C  C109  1  0.12139000  0.26076900  0.34405800  1
  C  C110  1  0.62139000  0.34405800  0.26076900  1
  C  C111  1  0.87861000  0.73923100  0.65594200  1
  C  C112  1  0.59922900  0.48342200  0.67480700  1
  C  C113  1  0.90077100  0.32519300  0.51657800  1
  C  C114  1  0.40077100  0.51657800  0.32519300  1
  C  C115  1  0.09922900  0.67480700  0.48342200  1
  C  C116  1  0.64750600  0.64691300  0.71904000  1
  C  C117  1  0.85249400  0.28096000  0.35308700  1
  C  C118  1  0.35249400  0.35308700  0.28096000  1
  C  C119  1  0.14750600  0.71904000  0.64691300  1
  C  C120  1  0.83857400  0.32055800  0.92785000  1
  C  C121  1  0.66142600  0.07215000  0.67944200  1
  C  C122  1  0.16142600  0.67944200  0.07215000  1
  C  C123  1  0.33857400  0.92785000  0.32055800  1
  C  C124  1  0.85993000  0.51997200  0.84505700  1
  C  C125  1  0.64007000  0.15494300  0.48002800  1
  C  C126  1  0.14007000  0.48002800  0.15494300  1
  C  C127  1  0.35993000  0.84505700  0.51997200  1
  C  C128  1  0.87652800  0.39162000  0.71205000  1
  C  C129  1  0.62347200  0.28795000  0.60838000  1
  C  C130  1  0.12347200  0.60838000  0.28795000  1
  C  C131  1  0.37652800  0.71205000  0.39162000  1
  C  C132  1  0.09362600  0.35232000  0.78781400  1
  C  C133  1  0.40637400  0.21218600  0.64768000  1
  C  C134  1  0.90637400  0.64768000  0.21218600  1
  C  C135  1  0.59362600  0.78781400  0.35232000  1
