# generated using pymatgen
data_Cu6NiC12
_symmetry_space_group_name_H-M   'P 1'
_cell_length_a   5.23258810
_cell_length_b   7.91978821
_cell_length_c   5.96883925
_cell_angle_alpha   95.05397995
_cell_angle_beta   95.46133060
_cell_angle_gamma   85.91123196
_symmetry_Int_Tables_number   1
_chemical_formula_structural   Cu6NiC12
_chemical_formula_sum   'Cu6 Ni1 C12'
_cell_volume   244.78022180
_cell_formula_units_Z   1
loop_
 _symmetry_equiv_pos_site_id
 _symmetry_equiv_pos_as_xyz
  1  'x, y, z'
loop_
 _atom_site_type_symbol
 _atom_site_label
 _atom_site_symmetry_multiplicity
 _atom_site_fract_x
 _atom_site_fract_y
 _atom_site_fract_z
 _atom_site_occupancy
  Ni  Ni0  1  0.47944400  0.49092300  0.48120900  1
  Cu  Cu1  1  0.48764300  0.00424200  0.49961400  1
  Cu  Cu2  1  0.63492100  0.68433000  0.13919500  1
  Cu  Cu3  1  0.45874100  0.31633700  0.88536500  1
  Cu  Cu4  1  0.97306600  0.68101800  0.64890700  1
  Cu  Cu5  1  0.98419100  0.30632800  0.35513800  1
  Cu  Cu6  1  0.01306000  0.98311100  0.99257400  1
  C  C7  1  0.85763800  0.75461600  0.93070200  1
  C  C8  1  0.64742100  0.73478500  0.47285000  1
  C  C9  1  0.63786400  0.43947600  0.17406400  1
  C  C10  1  0.34107600  0.26297000  0.53964600  1
  C  C11  1  0.81192200  0.42709000  0.65314600  1
  C  C12  1  0.82962100  0.06624900  0.30375600  1
  C  C13  1  0.68041100  0.08966900  0.82265300  1
  C  C14  1  0.32778700  0.57733400  0.79317700  1
  C  C15  1  0.36542500  0.89579400  0.15705200  1
  C  C16  1  0.12761200  0.57920200  0.36783700  1
  C  C17  1  0.15650300  0.22729900  0.04154800  1
  C  C18  1  0.17176100  0.91255600  0.66865200  1
