# generated using pymatgen
data_CuNiC8
_symmetry_space_group_name_H-M   'P 1'
_cell_length_a   16.82514646
_cell_length_b   7.91736562
_cell_length_c   7.90161016
_cell_angle_alpha   90.04492111
_cell_angle_beta   90.06586799
_cell_angle_gamma   44.87937059
_symmetry_Int_Tables_number   1
_chemical_formula_structural   CuNiC8
_chemical_formula_sum   'Cu6 Ni6 C48'
_cell_volume   742.71737744
_cell_formula_units_Z   6
loop_
 _symmetry_equiv_pos_site_id
 _symmetry_equiv_pos_as_xyz
  1  'x, y, z'
loop_
 _atom_site_type_symbol
 _atom_site_label
 _atom_site_symmetry_multiplicity
 _atom_site_fract_x
 _atom_site_fract_y
 _atom_site_fract_z
 _atom_site_occupancy
  C  C0  1  0.32577100  0.25472500  0.99984200  1
  C  C1  1  0.33329400  0.75843200  0.99710000  1
  C  C2  1  0.66462500  0.24715600  0.00224300  1
  C  C3  1  0.66984100  0.75157000  0.00085100  1
  C  C4  1  0.00159600  0.24847700  0.49660000  1
  C  C5  1  0.00618000  0.74180200  0.99855200  1
  C  C6  1  0.99492300  0.24905400  0.99483800  1
  C  C7  1  0.00101900  0.74099400  0.50078100  1
  C  C8  1  0.33497800  0.24718000  0.49880500  1
  C  C9  1  0.33099900  0.75297200  0.50015600  1
  C  C10  1  0.66498900  0.25288800  0.49865000  1
  C  C11  1  0.66529300  0.75168600  0.50200300  1
  Ni  Ni12  1  0.16521500  0.25073700  0.24825300  1
  Ni  Ni13  1  0.16740900  0.74913900  0.74985700  1
  Ni  Ni14  1  0.50013400  0.24861600  0.24462800  1
  Ni  Ni15  1  0.49981600  0.75235500  0.75555800  1
  Ni  Ni16  1  0.83303500  0.25031000  0.24962100  1
  Ni  Ni17  1  0.83396600  0.74885000  0.75120900  1
  Cu  Cu18  1  0.16688000  0.24962300  0.75695500  1
  Cu  Cu19  1  0.16753100  0.74827800  0.24076400  1
  Cu  Cu20  1  0.50008100  0.25115100  0.76462800  1
  Cu  Cu21  1  0.49957200  0.75056900  0.23600100  1
  Cu  Cu22  1  0.83249600  0.24916000  0.75743400  1
  Cu  Cu23  1  0.83357100  0.75117100  0.24072200  1
  C  C24  1  0.16965600  0.00322900  0.71043800  1
  C  C25  1  0.00529800  0.49283700  0.70922200  1
  C  C26  1  0.19093400  0.24936900  0.50605800  1
  C  C27  1  0.13863300  0.25057200  0.99282000  1
  C  C28  1  0.16435800  0.49551500  0.77352400  1
  C  C29  1  0.99451000  0.00674300  0.79551300  1
  C  C30  1  0.33922500  0.99979700  0.22729000  1
  C  C31  1  0.16922300  0.50449500  0.22160700  1
  C  C32  1  0.19106300  0.75673500  0.00802200  1
  C  C33  1  0.14251000  0.74172800  0.49068900  1
  C  C34  1  0.33922900  0.49010200  0.69247500  1
  C  C35  1  0.50019200  0.00842400  0.69688500  1
  C  C36  1  0.32935400  0.50332600  0.30300500  1
  C  C37  1  0.17121500  0.98411700  0.29306600  1
  C  C38  1  0.52664300  0.24621000  0.50469100  1
  C  C39  1  0.47182100  0.25241200  0.99095900  1
  C  C40  1  0.49562100  0.49814100  0.77516600  1
  C  C41  1  0.32763900  0.00969800  0.77759700  1
  C  C42  1  0.67316100  0.99456300  0.21685300  1
  C  C43  1  0.50269400  0.50521500  0.22548100  1
  C  C44  1  0.52572400  0.75081300  0.00910100  1
  C  C45  1  0.47448100  0.75052500  0.49541300  1
  C  C46  1  0.83401800  0.00494600  0.69612200  1
  C  C47  1  0.67056500  0.49400600  0.70061500  1
  C  C48  1  0.50237300  0.98874500  0.30373400  1
  C  C49  1  0.66134000  0.50981800  0.30484500  1
  C  C50  1  0.85688400  0.25454000  0.51358800  1
  C  C51  1  0.80701900  0.24763500  0.98997900  1
  C  C52  1  0.83140600  0.49426500  0.79768100  1
  C  C53  1  0.66062300  0.00569500  0.77628500  1
  C  C54  1  0.00575400  0.99906800  0.20723200  1
  C  C55  1  0.83932300  0.49971600  0.20790000  1
  C  C56  1  0.86458100  0.73898100  0.00871000  1
  C  C57  1  0.80317800  0.76059900  0.49079700  1
  C  C58  1  0.99409400  0.51492600  0.29558500  1
  C  C59  1  0.83244500  0.99559900  0.30500000  1
