# generated using pymatgen
data_Cu9Ni3C4
_symmetry_space_group_name_H-M   'P 1'
_cell_length_a   7.87442740
_cell_length_b   7.87442740
_cell_length_c   7.66393700
_cell_angle_alpha   90.00000000
_cell_angle_beta   90.00000000
_cell_angle_gamma   119.99999499
_symmetry_Int_Tables_number   1
_chemical_formula_structural   Cu9Ni3C4
_chemical_formula_sum   'Cu18 Ni6 C8'
_cell_volume   411.54804848
_cell_formula_units_Z   2
loop_
 _symmetry_equiv_pos_site_id
 _symmetry_equiv_pos_as_xyz
  1  'x, y, z'
loop_
 _atom_site_type_symbol
 _atom_site_label
 _atom_site_symmetry_multiplicity
 _atom_site_fract_x
 _atom_site_fract_y
 _atom_site_fract_z
 _atom_site_occupancy
  Ni  Ni0  1  0.55429000  0.44571000  0.75000000  1
  Ni  Ni1  1  0.55429000  0.10857900  0.75000000  1
  Ni  Ni2  1  0.89142100  0.44571000  0.75000000  1
  Ni  Ni3  1  0.44571000  0.55429000  0.25000000  1
  Ni  Ni4  1  0.44571000  0.89142100  0.25000000  1
  Ni  Ni5  1  0.10857900  0.55429000  0.25000000  1
  Cu  Cu6  1  0.20742900  0.79257100  0.93253400  1
  Cu  Cu7  1  0.20742900  0.41485900  0.93253400  1
  Cu  Cu8  1  0.58514100  0.79257100  0.93253400  1
  Cu  Cu9  1  0.79257100  0.20742900  0.06746600  1
  Cu  Cu10  1  0.79257100  0.58514100  0.06746600  1
  Cu  Cu11  1  0.41485900  0.20742900  0.06746600  1
  Cu  Cu12  1  0.79257100  0.20742900  0.43253400  1
  Cu  Cu13  1  0.79257100  0.58514100  0.43253400  1
  Cu  Cu14  1  0.41485900  0.20742900  0.43253400  1
  Cu  Cu15  1  0.20742900  0.79257100  0.56746600  1
  Cu  Cu16  1  0.20742900  0.41485900  0.56746600  1
  Cu  Cu17  1  0.58514100  0.79257100  0.56746600  1
  Cu  Cu18  1  0.89132700  0.10867300  0.75000000  1
  Cu  Cu19  1  0.89132700  0.78265500  0.75000000  1
  Cu  Cu20  1  0.21734500  0.10867300  0.75000000  1
  Cu  Cu21  1  0.10867300  0.89132700  0.25000000  1
  Cu  Cu22  1  0.10867300  0.21734500  0.25000000  1
  Cu  Cu23  1  0.78265500  0.89132700  0.25000000  1
  C  C24  1  0.33333300  0.66666700  0.75000000  1
  C  C25  1  0.66666700  0.33333300  0.25000000  1
  C  C26  1  0.50000000  0.50000000  0.00000000  1
  C  C27  1  0.50000000  0.00000000  0.00000000  1
  C  C28  1  0.00000000  0.50000000  0.00000000  1
  C  C29  1  0.50000000  0.50000000  0.50000000  1
  C  C30  1  0.50000000  0.00000000  0.50000000  1
  C  C31  1  0.00000000  0.50000000  0.50000000  1
