# generated using pymatgen
data_CuNiC
_symmetry_space_group_name_H-M   'P 1'
_cell_length_a   3.90953000
_cell_length_b   6.67872300
_cell_length_c   7.67577000
_cell_angle_alpha   90.00000000
_cell_angle_beta   90.00000000
_cell_angle_gamma   90.00000000
_symmetry_Int_Tables_number   1
_chemical_formula_structural   CuNiC
_chemical_formula_sum   'Cu4 Ni4 C4'
_cell_volume   200.41948158
_cell_formula_units_Z   4
loop_
 _symmetry_equiv_pos_site_id
 _symmetry_equiv_pos_as_xyz
  1  'x, y, z'
loop_
 _atom_site_type_symbol
 _atom_site_label
 _atom_site_symmetry_multiplicity
 _atom_site_fract_x
 _atom_site_fract_y
 _atom_site_fract_z
 _atom_site_occupancy
  C  C0  1  0.25000000  0.02583200  0.32006300  1
  C  C1  1  0.25000000  0.52583200  0.17993700  1
  C  C2  1  0.75000000  0.97416800  0.67993700  1
  C  C3  1  0.75000000  0.47416800  0.82006300  1
  Ni  Ni4  1  0.25000000  0.26310200  0.62265900  1
  Ni  Ni5  1  0.25000000  0.76310200  0.87734100  1
  Ni  Ni6  1  0.75000000  0.73689800  0.37734100  1
  Ni  Ni7  1  0.75000000  0.23689800  0.12265900  1
  Cu  Cu8  1  0.25000000  0.14372800  0.93836000  1
  Cu  Cu9  1  0.25000000  0.64372800  0.56164000  1
  Cu  Cu10  1  0.75000000  0.85627200  0.06164000  1
  Cu  Cu11  1  0.75000000  0.35627200  0.43836000  1
