# generated using pymatgen
data_Cu5Ni2C25
_symmetry_space_group_name_H-M   'P 1'
_cell_length_a   5.90997800
_cell_length_b   6.44740668
_cell_length_c   7.89181480
_cell_angle_alpha   88.63037063
_cell_angle_beta   103.75454412
_cell_angle_gamma   104.95783408
_symmetry_Int_Tables_number   1
_chemical_formula_structural   Cu5Ni2C25
_chemical_formula_sum   'Cu5 Ni2 C25'
_cell_volume   281.96451821
_cell_formula_units_Z   1
loop_
 _symmetry_equiv_pos_site_id
 _symmetry_equiv_pos_as_xyz
  1  'x, y, z'
loop_
 _atom_site_type_symbol
 _atom_site_label
 _atom_site_symmetry_multiplicity
 _atom_site_fract_x
 _atom_site_fract_y
 _atom_site_fract_z
 _atom_site_occupancy
  C  C0  1  0.11981900  0.62134600  0.88024800  1
  C  C1  1  0.74782200  0.25267900  0.75641100  1
  C  C2  1  0.99975400  0.49994700  0.50144800  1
  C  C3  1  0.62203900  0.12238100  0.37725400  1
  C  C4  1  0.87241100  0.38412000  0.11364800  1
  C  C5  1  0.50185700  0.99823800  0.99553900  1
  C  C6  1  0.38408900  0.87389600  0.63023600  1
  C  C7  1  0.25009700  0.74962400  0.24639000  1
  C  C8  1  0.62668600  0.62402700  0.87638100  1
  Ni  Ni9  1  0.99503800  0.99645700  0.99811600  1
  Ni  Ni10  1  0.49805000  0.50044000  0.50322000  1
  Cu  Cu11  1  0.25276900  0.25338800  0.75286400  1
  Cu  Cu12  1  0.86654000  0.87490000  0.63143200  1
  Cu  Cu13  1  0.12644000  0.12496200  0.37406000  1
  Cu  Cu14  1  0.75291300  0.74614500  0.24429600  1
  Cu  Cu15  1  0.38028300  0.37507100  0.12015200  1
  C  C16  1  0.94335300  0.70580300  0.06103800  1
  C  C17  1  0.53866200  0.30992700  0.92711100  1
  C  C18  1  0.80556100  0.57521000  0.66972500  1
  C  C19  1  0.43112700  0.19724800  0.55079200  1
  C  C20  1  0.66566100  0.44927700  0.31696200  1
  C  C21  1  0.30394900  0.07729200  0.17545600  1
  C  C22  1  0.16060600  0.94827500  0.81916000  1
  C  C23  1  0.04774200  0.82906500  0.42321500  1
  C  C24  1  0.32643200  0.54369700  0.67250700  1
  C  C25  1  0.95359800  0.17211100  0.57364300  1
  C  C26  1  0.19458400  0.42238400  0.32512000  1
  C  C27  1  0.83498300  0.04948200  0.18079400  1
  C  C28  1  0.07182800  0.30525700  0.94843100  1
  C  C29  1  0.70424200  0.94203200  0.82300600  1
  C  C30  1  0.57018500  0.80170300  0.44915500  1
  C  C31  1  0.45088600  0.67361300  0.08218500  1
