# generated using pymatgen
data_Cu25(NiC4)3
_symmetry_space_group_name_H-M   'P 1'
_cell_length_a   12.75333040
_cell_length_b   12.75333040
_cell_length_c   12.75333040
_cell_angle_alpha   90.00000000
_cell_angle_beta   90.00000000
_cell_angle_gamma   90.00000000
_symmetry_Int_Tables_number   1
_chemical_formula_structural   Cu25(NiC4)3
_chemical_formula_sum   'Cu100 Ni12 C48'
_cell_volume   2074.29649374
_cell_formula_units_Z   4
loop_
 _symmetry_equiv_pos_site_id
 _symmetry_equiv_pos_as_xyz
  1  'x, y, z'
loop_
 _atom_site_type_symbol
 _atom_site_label
 _atom_site_symmetry_multiplicity
 _atom_site_fract_x
 _atom_site_fract_y
 _atom_site_fract_z
 _atom_site_occupancy
  C  C0  1  0.18210583  0.56815994  0.37482773  1
  C  C1  1  0.31789417  0.43184006  0.87482773  1
  C  C2  1  0.81789417  0.06815994  0.12517227  1
  C  C3  1  0.37482773  0.18210583  0.56815994  1
  C  C4  1  0.68210583  0.93184006  0.62517227  1
  C  C5  1  0.87482773  0.31789417  0.43184006  1
  C  C6  1  0.12517227  0.81789417  0.06815994  1
  C  C7  1  0.62517227  0.68210583  0.93184006  1
  C  C8  1  0.56815994  0.37482773  0.18210583  1
  C  C9  1  0.06815994  0.12517227  0.81789417  1
  C  C10  1  0.93184006  0.62517227  0.68210583  1
  C  C11  1  0.43184006  0.87482773  0.31789417  1
  C  C12  1  0.12488729  0.14003070  0.38980805  1
  C  C13  1  0.37511271  0.85996930  0.88980805  1
  C  C14  1  0.87511271  0.64003070  0.11019195  1
  C  C15  1  0.38980805  0.12488729  0.14003070  1
  C  C16  1  0.62488729  0.35996930  0.61019195  1
  C  C17  1  0.88980805  0.37511271  0.85996930  1
  C  C18  1  0.11019195  0.87511271  0.64003070  1
  C  C19  1  0.61019195  0.62488729  0.35996930  1
  C  C20  1  0.14003070  0.38980805  0.12488729  1
  C  C21  1  0.64003070  0.11019195  0.87511271  1
  C  C22  1  0.35996930  0.61019195  0.62488729  1
  C  C23  1  0.85996930  0.88980805  0.37511271  1
  C  C24  1  0.08968944  0.35572511  0.33749854  1
  C  C25  1  0.41031056  0.64427489  0.83749854  1
  C  C26  1  0.91031056  0.85572511  0.16250146  1
  C  C27  1  0.33749854  0.08968944  0.35572511  1
  C  C28  1  0.58968944  0.14427489  0.66250146  1
  C  C29  1  0.83749854  0.41031056  0.64427489  1
  C  C30  1  0.16250146  0.91031056  0.85572511  1
  C  C31  1  0.66250146  0.58968944  0.14427489  1
  C  C32  1  0.35572511  0.33749854  0.08968944  1
  C  C33  1  0.85572511  0.16250146  0.91031056  1
  C  C34  1  0.14427489  0.66250146  0.58968944  1
  C  C35  1  0.64427489  0.83749854  0.41031056  1
  C  C36  1  0.08770210  0.60574680  0.16003922  1
  C  C37  1  0.41229790  0.39425320  0.66003922  1
  C  C38  1  0.91229790  0.10574680  0.33996078  1
  C  C39  1  0.16003922  0.08770210  0.60574680  1
  C  C40  1  0.58770210  0.89425320  0.83996078  1
  C  C41  1  0.66003922  0.41229790  0.39425320  1
  C  C42  1  0.33996078  0.91229790  0.10574680  1
  C  C43  1  0.83996078  0.58770210  0.89425320  1
  C  C44  1  0.60574680  0.16003922  0.08770210  1
  C  C45  1  0.10574680  0.33996078  0.91229790  1
  C  C46  1  0.89425320  0.83996078  0.58770210  1
  C  C47  1  0.39425320  0.66003922  0.41229790  1
  Ni  Ni48  1  0.37523380  0.37523380  0.37523380  1
  Ni  Ni49  1  0.12476620  0.62476620  0.87523380  1
  Ni  Ni50  1  0.62476620  0.87523380  0.12476620  1
  Ni  Ni51  1  0.87523380  0.12476620  0.62476620  1
  Ni  Ni52  1  0.64998354  0.64998354  0.64998354  1
  Ni  Ni53  1  0.85001646  0.35001646  0.14998354  1
  Ni  Ni54  1  0.35001646  0.14998354  0.85001646  1
  Ni  Ni55  1  0.14998354  0.85001646  0.35001646  1
  Ni  Ni56  1  0.09959545  0.09959545  0.09959545  1
  Ni  Ni57  1  0.40040455  0.90040455  0.59959545  1
  Ni  Ni58  1  0.90040455  0.59959545  0.40040455  1
  Ni  Ni59  1  0.59959545  0.40040455  0.90040455  1
  Cu  Cu60  1  0.08662256  0.12342014  0.69274738  1
  Cu  Cu61  1  0.41337744  0.87657986  0.19274738  1
  Cu  Cu62  1  0.91337744  0.62342014  0.80725262  1
  Cu  Cu63  1  0.69274738  0.08662256  0.12342014  1
  Cu  Cu64  1  0.58662256  0.37657986  0.30725262  1
  Cu  Cu65  1  0.19274738  0.41337744  0.87657986  1
  Cu  Cu66  1  0.80725262  0.91337744  0.62342014  1
  Cu  Cu67  1  0.30725262  0.58662256  0.37657986  1
  Cu  Cu68  1  0.12342014  0.69274738  0.08662256  1
  Cu  Cu69  1  0.62342014  0.80725262  0.91337744  1
  Cu  Cu70  1  0.37657986  0.30725262  0.58662256  1
  Cu  Cu71  1  0.87657986  0.19274738  0.41337744  1
  Cu  Cu72  1  0.13190157  0.61838397  0.26975941  1
  Cu  Cu73  1  0.36809843  0.38161603  0.76975941  1
  Cu  Cu74  1  0.86809843  0.11838397  0.23024059  1
  Cu  Cu75  1  0.26975941  0.13190157  0.61838397  1
  Cu  Cu76  1  0.63190157  0.88161603  0.73024059  1
  Cu  Cu77  1  0.76975941  0.36809843  0.38161603  1
  Cu  Cu78  1  0.23024059  0.86809843  0.11838397  1
  Cu  Cu79  1  0.73024059  0.63190157  0.88161603  1
  Cu  Cu80  1  0.61838397  0.26975941  0.13190157  1
  Cu  Cu81  1  0.11838397  0.23024059  0.86809843  1
  Cu  Cu82  1  0.88161603  0.73024059  0.63190157  1
  Cu  Cu83  1  0.38161603  0.76975941  0.36809843  1
  Cu  Cu84  1  0.16198207  0.44338910  0.37327610  1
  Cu  Cu85  1  0.33801793  0.55661090  0.87327610  1
  Cu  Cu86  1  0.83801793  0.94338910  0.12672390  1
  Cu  Cu87  1  0.37327610  0.16198207  0.44338910  1
  Cu  Cu88  1  0.66198207  0.05661090  0.62672390  1
  Cu  Cu89  1  0.87327610  0.33801793  0.55661090  1
  Cu  Cu90  1  0.12672390  0.83801793  0.94338910  1
  Cu  Cu91  1  0.62672390  0.66198207  0.05661090  1
  Cu  Cu92  1  0.44338910  0.37327610  0.16198207  1
  Cu  Cu93  1  0.94338910  0.12672390  0.83801793  1
  Cu  Cu94  1  0.05661090  0.62672390  0.66198207  1
  Cu  Cu95  1  0.55661090  0.87327610  0.33801793  1
  Cu  Cu96  1  0.03441930  0.10194512  0.32977212  1
  Cu  Cu97  1  0.46558070  0.89805488  0.82977212  1
  Cu  Cu98  1  0.96558070  0.60194512  0.17022788  1
  Cu  Cu99  1  0.32977212  0.03441930  0.10194512  1
  Cu  Cu100  1  0.53441930  0.39805488  0.67022788  1
  Cu  Cu101  1  0.82977212  0.46558070  0.89805488  1
  Cu  Cu102  1  0.17022788  0.96558070  0.60194512  1
  Cu  Cu103  1  0.67022788  0.53441930  0.39805488  1
  Cu  Cu104  1  0.10194512  0.32977212  0.03441930  1
  Cu  Cu105  1  0.60194512  0.17022788  0.96558070  1
  Cu  Cu106  1  0.39805488  0.67022788  0.53441930  1
  Cu  Cu107  1  0.89805488  0.82977212  0.46558070  1
  Cu  Cu108  1  0.14386924  0.25269606  0.37374712  1
  Cu  Cu109  1  0.35613076  0.74730394  0.87374712  1
  Cu  Cu110  1  0.85613076  0.75269606  0.12625288  1
  Cu  Cu111  1  0.37374712  0.14386924  0.25269606  1
  Cu  Cu112  1  0.64386924  0.24730394  0.62625288  1
  Cu  Cu113  1  0.87374712  0.35613076  0.74730394  1
  Cu  Cu114  1  0.12625288  0.85613076  0.75269606  1
  Cu  Cu115  1  0.62625288  0.64386924  0.24730394  1
  Cu  Cu116  1  0.25269606  0.37374712  0.14386924  1
  Cu  Cu117  1  0.75269606  0.12625288  0.85613076  1
  Cu  Cu118  1  0.24730394  0.62625288  0.64386924  1
  Cu  Cu119  1  0.74730394  0.87374712  0.35613076  1
  Cu  Cu120  1  0.87359311  0.87359311  0.87359311  1
  Cu  Cu121  1  0.62640689  0.12640689  0.37359311  1
  Cu  Cu122  1  0.12640689  0.37359311  0.62640689  1
  Cu  Cu123  1  0.37359311  0.62640689  0.12640689  1
  Cu  Cu124  1  0.13230698  0.61944013  0.47950581  1
  Cu  Cu125  1  0.36769302  0.38055987  0.97950581  1
  Cu  Cu126  1  0.86769302  0.11944013  0.02049419  1
  Cu  Cu127  1  0.47950581  0.13230698  0.61944013  1
  Cu  Cu128  1  0.63230698  0.88055987  0.52049419  1
  Cu  Cu129  1  0.97950581  0.36769302  0.38055987  1
  Cu  Cu130  1  0.02049419  0.86769302  0.11944013  1
  Cu  Cu131  1  0.52049419  0.63230698  0.88055987  1
  Cu  Cu132  1  0.61944013  0.47950581  0.13230698  1
  Cu  Cu133  1  0.11944013  0.02049419  0.86769302  1
  Cu  Cu134  1  0.88055987  0.52049419  0.63230698  1
  Cu  Cu135  1  0.38055987  0.97950581  0.36769302  1
  Cu  Cu136  1  0.08050155  0.35072939  0.21543647  1
  Cu  Cu137  1  0.41949845  0.64927061  0.71543647  1
  Cu  Cu138  1  0.91949845  0.85072939  0.28456353  1
  Cu  Cu139  1  0.21543647  0.08050155  0.35072939  1
  Cu  Cu140  1  0.58050155  0.14927061  0.78456353  1
  Cu  Cu141  1  0.71543647  0.41949845  0.64927061  1
  Cu  Cu142  1  0.28456353  0.91949845  0.85072939  1
  Cu  Cu143  1  0.78456353  0.58050155  0.14927061  1
  Cu  Cu144  1  0.35072939  0.21543647  0.08050155  1
  Cu  Cu145  1  0.85072939  0.28456353  0.91949845  1
  Cu  Cu146  1  0.14927061  0.78456353  0.58050155  1
  Cu  Cu147  1  0.64927061  0.71543647  0.41949845  1
  Cu  Cu148  1  0.10613389  0.12257614  0.50215059  1
  Cu  Cu149  1  0.39386611  0.87742386  0.00215059  1
  Cu  Cu150  1  0.89386611  0.62257614  0.99784941  1
  Cu  Cu151  1  0.50215059  0.10613389  0.12257614  1
  Cu  Cu152  1  0.60613389  0.37742386  0.49784941  1
  Cu  Cu153  1  0.00215059  0.39386611  0.87742386  1
  Cu  Cu154  1  0.99784941  0.89386611  0.62257614  1
  Cu  Cu155  1  0.49784941  0.60613389  0.37742386  1
  Cu  Cu156  1  0.12257614  0.50215059  0.10613389  1
  Cu  Cu157  1  0.62257614  0.99784941  0.89386611  1
  Cu  Cu158  1  0.37742386  0.49784941  0.60613389  1
  Cu  Cu159  1  0.87742386  0.00215059  0.39386611  1
