# generated using pymatgen
data_CuNiC4
_symmetry_space_group_name_H-M   'P 1'
_cell_length_a   3.39886884
_cell_length_b   3.39886884
_cell_length_c   39.95661500
_cell_angle_alpha   90.00000000
_cell_angle_beta   90.00000000
_cell_angle_gamma   120.00001632
_symmetry_Int_Tables_number   1
_chemical_formula_structural   CuNiC4
_chemical_formula_sum   'Cu2 Ni2 C8'
_cell_volume   399.74962079
_cell_formula_units_Z   2
loop_
 _symmetry_equiv_pos_site_id
 _symmetry_equiv_pos_as_xyz
  1  'x, y, z'
loop_
 _atom_site_type_symbol
 _atom_site_label
 _atom_site_symmetry_multiplicity
 _atom_site_fract_x
 _atom_site_fract_y
 _atom_site_fract_z
 _atom_site_occupancy
  C  C0  1  0.00000000  0.00000000  0.70584700  1
  C  C1  1  0.33333300  0.66666700  0.42182600  1
  C  C2  1  0.33333300  0.66666700  0.51561300  1
  C  C3  1  0.00000000  0.00000000  0.61156200  1
  C  C4  1  0.00000000  0.00000000  0.09401300  1
  C  C5  1  0.00000000  0.00000000  0.46872200  1
  C  C6  1  0.33333300  0.66666700  0.28147200  1
  C  C7  1  0.33333300  0.66666700  0.65868400  1
  Ni  Ni8  1  0.00000000  0.00000000  0.32277400  1
  Ni  Ni9  1  0.00000000  0.00000000  0.24018600  1
  Cu  Cu10  1  0.33333300  0.66666700  0.05644000  1
  Cu  Cu11  1  0.33333300  0.66666700  0.13160700  1
