# generated using pymatgen
data_CuNiC
_symmetry_space_group_name_H-M   'P 1'
_cell_length_a   4.89682100
_cell_length_b   12.78502200
_cell_length_c   15.51798000
_cell_angle_alpha   90.00000000
_cell_angle_beta   90.00000000
_cell_angle_gamma   90.00000000
_symmetry_Int_Tables_number   1
_chemical_formula_structural   CuNiC
_chemical_formula_sum   'Cu24 Ni24 C24'
_cell_volume   971.51810057
_cell_formula_units_Z   24
loop_
 _symmetry_equiv_pos_site_id
 _symmetry_equiv_pos_as_xyz
  1  'x, y, z'
loop_
 _atom_site_type_symbol
 _atom_site_label
 _atom_site_symmetry_multiplicity
 _atom_site_fract_x
 _atom_site_fract_y
 _atom_site_fract_z
 _atom_site_occupancy
  C  C0  1  0.00000000  0.97478100  0.30478100  1
  C  C1  1  0.50000000  0.47478100  0.69521900  1
  C  C2  1  0.00000000  0.29579200  0.10069200  1
  C  C3  1  0.50000000  0.79579200  0.89930800  1
  C  C4  1  0.00000000  0.76944700  0.46135000  1
  C  C5  1  0.50000000  0.26944700  0.53865000  1
  C  C6  1  0.00000000  0.48356900  0.97895000  1
  C  C7  1  0.50000000  0.98356900  0.02105000  1
  C  C8  1  0.00000000  0.41237200  0.58019100  1
  C  C9  1  0.50000000  0.91237200  0.41981000  1
  C  C10  1  0.00000000  0.79693300  0.79114300  1
  C  C11  1  0.50000000  0.29693300  0.20885700  1
  C  C12  1  0.00000000  0.40858700  0.80251800  1
  C  C13  1  0.50000000  0.90858700  0.19748200  1
  C  C14  1  0.00000000  0.11012400  0.99274800  1
  C  C15  1  0.50000000  0.61012400  0.00725200  1
  C  C16  1  0.00000000  0.13724600  0.59629900  1
  C  C17  1  0.50000000  0.63724600  0.40370100  1
  C  C18  1  0.00000000  0.17851700  0.81163400  1
  C  C19  1  0.50000000  0.67851700  0.18836600  1
  C  C20  1  0.00000000  0.20409400  0.29225000  1
  C  C21  1  0.50000000  0.70409400  0.70775000  1
  C  C22  1  0.00000000  0.60209700  0.28731900  1
  C  C23  1  0.50000000  0.10209700  0.71268100  1
  Ni  Ni24  1  0.75053700  0.61136800  0.57156900  1
  Ni  Ni25  1  0.74946300  0.11136800  0.42843100  1
  Ni  Ni26  1  0.25053700  0.11136800  0.42843100  1
  Ni  Ni27  1  0.24946300  0.61136800  0.57156900  1
  Ni  Ni28  1  0.74850300  0.99123800  0.85653400  1
  Ni  Ni29  1  0.75149700  0.49123800  0.14346600  1
  Ni  Ni30  1  0.24850300  0.49123800  0.14346600  1
  Ni  Ni31  1  0.25149700  0.99123800  0.85653400  1
  Ni  Ni32  1  0.74735200  0.91029300  0.61139100  1
  Ni  Ni33  1  0.75264800  0.41029300  0.38860900  1
  Ni  Ni34  1  0.24735200  0.41029300  0.38860900  1
  Ni  Ni35  1  0.25264800  0.91029300  0.61139100  1
  Ni  Ni36  1  0.75166900  0.60817800  0.83995700  1
  Ni  Ni37  1  0.74833100  0.10817800  0.16004300  1
  Ni  Ni38  1  0.25166900  0.10817800  0.16004300  1
  Ni  Ni39  1  0.24833100  0.60817800  0.83995700  1
  Ni  Ni40  1  0.00000000  0.79440200  0.19097700  1
  Ni  Ni41  1  0.50000000  0.29440200  0.80902300  1
  Ni  Ni42  1  0.76035900  0.29748300  0.94002600  1
  Ni  Ni43  1  0.73964100  0.79748300  0.05997400  1
  Ni  Ni44  1  0.26035900  0.79748300  0.05997400  1
  Ni  Ni45  1  0.23964100  0.29748300  0.94002600  1
  Ni  Ni46  1  0.00000000  0.70069200  0.95071100  1
  Ni  Ni47  1  0.50000000  0.20069200  0.04928900  1
  Cu  Cu48  1  0.74764200  0.78530900  0.31308600  1
  Cu  Cu49  1  0.75235800  0.28530900  0.68691400  1
  Cu  Cu50  1  0.24764200  0.28530900  0.68691400  1
  Cu  Cu51  1  0.25235800  0.78530900  0.31308600  1
  Cu  Cu52  1  0.00000000  0.64146800  0.10364900  1
  Cu  Cu53  1  0.50000000  0.14146800  0.89635100  1
  Cu  Cu54  1  0.00000000  0.55573600  0.45184800  1
  Cu  Cu55  1  0.50000000  0.05573600  0.54815200  1
  Cu  Cu56  1  0.00000000  0.57889000  0.70452800  1
  Cu  Cu57  1  0.50000000  0.07889000  0.29547200  1
  Cu  Cu58  1  0.00000000  0.89184200  0.95303300  1
  Cu  Cu59  1  0.50000000  0.39184200  0.04696700  1
  Cu  Cu60  1  0.00000000  0.97365300  0.48471200  1
  Cu  Cu61  1  0.50000000  0.47365300  0.51528800  1
  Cu  Cu62  1  0.00000000  0.39983900  0.24978300  1
  Cu  Cu63  1  0.50000000  0.89983900  0.75021700  1
  Cu  Cu64  1  0.00000000  0.26618900  0.45840500  1
  Cu  Cu65  1  0.50000000  0.76618900  0.54159500  1
  Cu  Cu66  1  0.00000000  0.95570100  0.11855200  1
  Cu  Cu67  1  0.50000000  0.45570100  0.88144800  1
  Cu  Cu68  1  0.00000000  0.75095800  0.62925700  1
  Cu  Cu69  1  0.50000000  0.25095800  0.37074300  1
  Cu  Cu70  1  0.00000000  0.99883200  0.72483800  1
  Cu  Cu71  1  0.50000000  0.49883200  0.27516200  1
