# generated using pymatgen
data_Cu10Ni2C5
_symmetry_space_group_name_H-M   'P 1'
_cell_length_a   7.62941200
_cell_length_b   13.25925600
_cell_length_c   15.10702500
_cell_angle_alpha   90.00000000
_cell_angle_beta   90.00000000
_cell_angle_gamma   90.00000000
_symmetry_Int_Tables_number   1
_chemical_formula_structural   Cu10Ni2C5
_chemical_formula_sum   'Cu40 Ni8 C20'
_cell_volume   1528.23158654
_cell_formula_units_Z   4
loop_
 _symmetry_equiv_pos_site_id
 _symmetry_equiv_pos_as_xyz
  1  'x, y, z'
loop_
 _atom_site_type_symbol
 _atom_site_label
 _atom_site_symmetry_multiplicity
 _atom_site_fract_x
 _atom_site_fract_y
 _atom_site_fract_z
 _atom_site_occupancy
  C  C0  1  0.12268400  0.75000000  0.06237800  1
  C  C1  1  0.87731600  0.25000000  0.93762200  1
  C  C2  1  0.37731600  0.25000000  0.06237800  1
  C  C3  1  0.62268400  0.75000000  0.93762200  1
  C  C4  1  0.88040000  0.75000000  0.30969000  1
  C  C5  1  0.11960000  0.25000000  0.69031000  1
  C  C6  1  0.61960000  0.25000000  0.30969000  1
  C  C7  1  0.38040000  0.75000000  0.69031000  1
  C  C8  1  0.25000000  0.50000000  0.37701900  1
  C  C9  1  0.75000000  0.00000000  0.62298100  1
  C  C10  1  0.75000000  0.50000000  0.62298100  1
  C  C11  1  0.25000000  0.00000000  0.37701900  1
  C  C12  1  0.25000000  0.50000000  0.87393000  1
  C  C13  1  0.75000000  0.00000000  0.12607000  1
  C  C14  1  0.75000000  0.50000000  0.12607000  1
  C  C15  1  0.25000000  0.00000000  0.87393000  1
  C  C16  1  0.25000000  0.50000000  0.12418700  1
  C  C17  1  0.75000000  0.00000000  0.87581300  1
  C  C18  1  0.75000000  0.50000000  0.87581300  1
  C  C19  1  0.25000000  0.00000000  0.12418700  1
  Ni  Ni20  1  0.44893400  0.75000000  0.21535800  1
  Ni  Ni21  1  0.55106600  0.25000000  0.78464200  1
  Ni  Ni22  1  0.05106600  0.25000000  0.21535800  1
  Ni  Ni23  1  0.94893400  0.75000000  0.78464200  1
  Ni  Ni24  1  0.04881200  0.75000000  0.53628600  1
  Ni  Ni25  1  0.95118800  0.25000000  0.46371400  1
  Ni  Ni26  1  0.45118800  0.25000000  0.53628600  1
  Ni  Ni27  1  0.54881200  0.75000000  0.46371400  1
  Cu  Cu28  1  0.42123200  0.60367500  0.54427600  1
  Cu  Cu29  1  0.57876800  0.10367500  0.45572400  1
  Cu  Cu30  1  0.07876800  0.39632500  0.54427600  1
  Cu  Cu31  1  0.92123200  0.89632500  0.45572400  1
  Cu  Cu32  1  0.57876800  0.39632500  0.45572400  1
  Cu  Cu33  1  0.42123200  0.89632500  0.54427600  1
  Cu  Cu34  1  0.92123200  0.60367500  0.45572400  1
  Cu  Cu35  1  0.07876800  0.10367500  0.54427600  1
  Cu  Cu36  1  0.25960400  0.75000000  0.37479100  1
  Cu  Cu37  1  0.74039600  0.25000000  0.62520900  1
  Cu  Cu38  1  0.24039600  0.25000000  0.37479100  1
  Cu  Cu39  1  0.75960400  0.75000000  0.62520900  1
  Cu  Cu40  1  0.41145300  0.60392200  0.03725700  1
  Cu  Cu41  1  0.58854700  0.10392200  0.96274300  1
  Cu  Cu42  1  0.08854700  0.39607800  0.03725700  1
  Cu  Cu43  1  0.91145300  0.89607800  0.96274300  1
  Cu  Cu44  1  0.58854700  0.39607800  0.96274300  1
  Cu  Cu45  1  0.41145300  0.89607800  0.03725700  1
  Cu  Cu46  1  0.91145300  0.60392200  0.96274300  1
  Cu  Cu47  1  0.08854700  0.10392200  0.03725700  1
  Cu  Cu48  1  0.08588900  0.60412300  0.70743000  1
  Cu  Cu49  1  0.91411100  0.10412300  0.29257000  1
  Cu  Cu50  1  0.41411100  0.39587700  0.70743000  1
  Cu  Cu51  1  0.58588900  0.89587700  0.29257000  1
  Cu  Cu52  1  0.91411100  0.39587700  0.29257000  1
  Cu  Cu53  1  0.08588900  0.89587700  0.70743000  1
  Cu  Cu54  1  0.58588900  0.60412300  0.29257000  1
  Cu  Cu55  1  0.41411100  0.10412300  0.70743000  1
  Cu  Cu56  1  0.07881600  0.60134800  0.20863700  1
  Cu  Cu57  1  0.92118400  0.10134800  0.79136300  1
  Cu  Cu58  1  0.42118400  0.39865200  0.20863700  1
  Cu  Cu59  1  0.57881600  0.89865200  0.79136300  1
  Cu  Cu60  1  0.92118400  0.39865200  0.79136300  1
  Cu  Cu61  1  0.07881600  0.89865200  0.20863700  1
  Cu  Cu62  1  0.57881600  0.60134800  0.79136300  1
  Cu  Cu63  1  0.42118400  0.10134800  0.20863700  1
  Cu  Cu64  1  0.74056000  0.75000000  0.12652500  1
  Cu  Cu65  1  0.25944000  0.25000000  0.87347500  1
  Cu  Cu66  1  0.75944000  0.25000000  0.12652500  1
  Cu  Cu67  1  0.24056000  0.75000000  0.87347500  1
