# generated using pymatgen
data_Cu3Ni2C9
_symmetry_space_group_name_H-M   'P 1'
_cell_length_a   9.20276526
_cell_length_b   9.20276526
_cell_length_c   9.20276526
_cell_angle_alpha   109.47122063
_cell_angle_beta   109.47122063
_cell_angle_gamma   109.47122063
_symmetry_Int_Tables_number   1
_chemical_formula_structural   Cu3Ni2C9
_chemical_formula_sum   'Cu6 Ni4 C18'
_cell_volume   599.97498335
_cell_formula_units_Z   2
loop_
 _symmetry_equiv_pos_site_id
 _symmetry_equiv_pos_as_xyz
  1  'x, y, z'
loop_
 _atom_site_type_symbol
 _atom_site_label
 _atom_site_symmetry_multiplicity
 _atom_site_fract_x
 _atom_site_fract_y
 _atom_site_fract_z
 _atom_site_occupancy
  C  C0  1  0.19612700  0.19612700  0.00000000  1
  C  C1  1  0.80387300  0.80387300  0.00000000  1
  C  C2  1  0.00000000  0.19612700  0.19612700  1
  C  C3  1  0.00000000  0.80387300  0.80387300  1
  C  C4  1  0.80387300  0.00000000  0.80387300  1
  C  C5  1  0.19612700  0.00000000  0.19612700  1
  Ni  Ni6  1  0.41154900  0.41154900  0.41154900  1
  Ni  Ni7  1  0.58845100  0.00000000  0.00000000  1
  Ni  Ni8  1  0.00000000  0.00000000  0.58845100  1
  Ni  Ni9  1  0.00000000  0.58845100  0.00000000  1
  Cu  Cu10  1  0.25000000  0.75000000  0.50000000  1
  Cu  Cu11  1  0.75000000  0.25000000  0.50000000  1
  Cu  Cu12  1  0.75000000  0.50000000  0.25000000  1
  Cu  Cu13  1  0.50000000  0.75000000  0.25000000  1
  Cu  Cu14  1  0.25000000  0.50000000  0.75000000  1
  Cu  Cu15  1  0.50000000  0.25000000  0.75000000  1
  C  C16  1  0.50945400  0.50945400  0.74927100  1
  C  C17  1  0.00000000  0.49054600  0.23981700  1
  C  C18  1  0.49054600  0.00000000  0.23981700  1
  C  C19  1  0.50945400  0.74927100  0.50945400  1
  C  C20  1  0.23981700  0.49054600  0.00000000  1
  C  C21  1  0.49054600  0.23981700  0.00000000  1
  C  C22  1  0.76018300  0.76018300  0.25072900  1
  C  C23  1  0.76018300  0.25072900  0.76018300  1
  C  C24  1  0.74927100  0.50945400  0.50945400  1
  C  C25  1  0.23981700  0.00000000  0.49054600  1
  C  C26  1  0.00000000  0.23981700  0.49054600  1
  C  C27  1  0.25072900  0.76018300  0.76018300  1
