# generated using pymatgen
data_Cu6Ni5C3
_symmetry_space_group_name_H-M   'P 1'
_cell_length_a   9.04424451
_cell_length_b   9.04424451
_cell_length_c   9.04424451
_cell_angle_alpha   109.47122063
_cell_angle_beta   109.47122063
_cell_angle_gamma   109.47122063
_symmetry_Int_Tables_number   1
_chemical_formula_structural   Cu6Ni5C3
_chemical_formula_sum   'Cu12 Ni10 C6'
_cell_volume   569.50165883
_cell_formula_units_Z   2
loop_
 _symmetry_equiv_pos_site_id
 _symmetry_equiv_pos_as_xyz
  1  'x, y, z'
loop_
 _atom_site_type_symbol
 _atom_site_label
 _atom_site_symmetry_multiplicity
 _atom_site_fract_x
 _atom_site_fract_y
 _atom_site_fract_z
 _atom_site_occupancy
  C  C0  1  0.80281500  0.00000000  0.80281500  1
  C  C1  1  0.19718600  0.19718600  0.00000000  1
  C  C2  1  0.80281500  0.80281500  0.00000000  1
  C  C3  1  0.00000000  0.19718600  0.19718500  1
  C  C4  1  0.00000000  0.80281500  0.80281400  1
  C  C5  1  0.19718600  0.00000000  0.19718600  1
  Ni  Ni6  1  0.50000000  0.25000000  0.75000000  1
  Ni  Ni7  1  0.75000000  0.25000000  0.50000000  1
  Ni  Ni8  1  0.25000000  0.75000000  0.50000000  1
  Ni  Ni9  1  0.75000000  0.50000000  0.25000000  1
  Ni  Ni10  1  0.42212400  0.42212400  0.42212400  1
  Ni  Ni11  1  0.00000000  0.57787600  0.00000000  1
  Ni  Ni12  1  0.57787600  0.00000000  0.00000000  1
  Ni  Ni13  1  0.00000000  0.00000000  0.57787600  1
  Ni  Ni14  1  0.25000000  0.50000000  0.75000000  1
  Ni  Ni15  1  0.50000000  0.75000000  0.25000000  1
  Cu  Cu16  1  0.51109800  0.51109800  0.74270600  1
  Cu  Cu17  1  0.00000000  0.23160800  0.48890200  1
  Cu  Cu18  1  0.23160800  0.00000000  0.48890200  1
  Cu  Cu19  1  0.76839200  0.25729400  0.76839200  1
  Cu  Cu20  1  0.25729400  0.76839200  0.76839200  1
  Cu  Cu21  1  0.74270600  0.51109800  0.51109800  1
  Cu  Cu22  1  0.51109800  0.74270600  0.51109800  1
  Cu  Cu23  1  0.23160800  0.48890200  0.00000000  1
  Cu  Cu24  1  0.48890200  0.23160800  0.00000000  1
  Cu  Cu25  1  0.76839200  0.76839200  0.25729400  1
  Cu  Cu26  1  0.48890200  0.00000000  0.23160800  1
  Cu  Cu27  1  0.00000000  0.48890200  0.23160800  1
