# generated using pymatgen
data_CuNi149
_symmetry_space_group_name_H-M   'P 1'
_cell_length_a   15.94618138
_cell_length_b   15.94618786
_cell_length_c   15.65275020
_cell_angle_alpha   90.00000000
_cell_angle_beta   90.00000000
_cell_angle_gamma   120.00001148
_symmetry_Int_Tables_number   1
_chemical_formula_structural   CuNi149
_chemical_formula_sum   'Cu1 Ni149'
_cell_volume   3446.94863569
_cell_formula_units_Z   1
loop_
 _symmetry_equiv_pos_site_id
 _symmetry_equiv_pos_as_xyz
  1  'x, y, z'
loop_
 _atom_site_type_symbol
 _atom_site_label
 _atom_site_symmetry_multiplicity
 _atom_site_fract_x
 _atom_site_fract_y
 _atom_site_fract_z
 _atom_site_occupancy
  Ni  Ni0  1  0.60340007  0.00055469  0.00000000  1
  Ni  Ni1  1  0.39715562  0.00055569  0.00000000  1
  Ni  Ni2  1  0.81277042  0.00165009  -0.00000000  1
  Ni  Ni3  1  0.18887968  0.00165009  0.00000000  1
  Ni  Ni4  1  0.99834991  0.18722858  -0.00000000  1
  Ni  Ni5  1  0.18887968  0.18722858  -0.00000000  1
  Ni  Ni6  1  0.80088480  0.19911520  -0.00000000  1
  Ni  Ni7  1  0.39823141  0.19911520  -0.00000000  1
  Ni  Ni8  1  0.59969505  0.19939011  -0.00000000  1
  Ni  Ni9  1  0.19829410  0.39658720  0.00000000  1
  Ni  Ni10  1  0.99944531  0.39659993  -0.00000000  1
  Ni  Ni11  1  0.39715562  0.39659993  0.00000000  1
  Ni  Ni12  1  0.59969505  0.40030395  0.00000000  1
  Ni  Ni13  1  0.80060989  0.40030495  -0.00000000  1
  Ni  Ni14  1  0.19947778  0.59973839  0.00000000  1
  Ni  Ni15  1  0.40026161  0.59973839  0.00000000  1
  Ni  Ni16  1  0.80088480  0.60176959  -0.00000000  1
  Ni  Ni17  1  0.99944531  0.60284538  0.00000000  1
  Ni  Ni18  1  0.60340007  0.60284538  0.00000000  1
  Ni  Ni19  1  0.40026161  0.80052322  0.00000000  1
  Ni  Ni20  1  0.60341280  0.80170590  0.00000000  1
  Ni  Ni21  1  0.19829410  0.80170690  0.00000000  1
  Ni  Ni22  1  0.81277042  0.81112032  -0.00000000  1
  Ni  Ni23  1  0.99834991  0.81112032  0.00000000  1
  Ni  Ni24  1  0.06279593  0.12559186  0.15600362  1
  Ni  Ni25  1  0.87440814  0.93720407  0.15600362  1
  Ni  Ni26  1  0.06279593  0.93720407  0.15600362  1
  Ni  Ni27  1  0.06608847  0.33094923  0.16538283  1
  Ni  Ni28  1  0.26486076  0.33095023  0.16538283  1
  Ni  Ni29  1  0.06608847  0.73513824  0.16538283  1
  Ni  Ni30  1  0.66905077  0.73513924  0.16538283  1
  Ni  Ni31  1  0.26486076  0.93391153  0.16538283  1
  Ni  Ni32  1  0.66905077  0.93391153  0.16538283  1
  Ni  Ni33  1  0.06656949  0.53328525  0.16585220  1
  Ni  Ni34  1  0.46671575  0.53328525  0.16585220  1
  Ni  Ni35  1  0.46671575  0.93343051  0.16585220  1
  Ni  Ni36  1  0.26641208  0.53282416  0.16617460  1
  Ni  Ni37  1  0.46717584  0.73358792  0.16617460  1
  Ni  Ni38  1  0.26641208  0.73358792  0.16617460  1
  Ni  Ni39  1  0.46717465  0.13369456  0.16679083  1
  Ni  Ni40  1  0.66651992  0.13369456  0.16679083  1
  Ni  Ni41  1  0.46717465  0.33348008  0.16679083  1
  Ni  Ni42  1  0.86630544  0.33348008  0.16679083  1
  Ni  Ni43  1  0.86630544  0.53282535  0.16679083  1
  Ni  Ni44  1  0.66651992  0.53282535  0.16679083  1
  Ni  Ni45  1  0.66666700  0.33333300  0.16679662  1
  Ni  Ni46  1  0.26913396  0.13456698  0.16694074  1
  Ni  Ni47  1  0.86543302  0.13456698  0.16694074  1
  Ni  Ni48  1  0.86543302  0.73086604  0.16694074  1
  Ni  Ni49  1  0.00033783  0.19883707  0.33067794  1
  Ni  Ni50  1  0.19850024  0.19883807  0.33067794  1
  Ni  Ni51  1  0.80116193  0.80149976  0.33067794  1
  Ni  Ni52  1  0.00033783  0.80149976  0.33067794  1
  Ni  Ni53  1  0.80116193  0.99966217  0.33067794  1
  Ni  Ni54  1  0.19850024  0.99966217  0.33067794  1
  Ni  Ni55  1  0.00000000  0.00000000  0.33236672  1
  Ni  Ni56  1  0.39916411  0.99975249  0.33257729  1
  Ni  Ni57  1  0.60058838  0.99975249  0.33257729  1
  Ni  Ni58  1  0.00024851  0.39941162  0.33257729  1
  Ni  Ni59  1  0.39916411  0.39941162  0.33257729  1
  Ni  Ni60  1  0.00024851  0.60083589  0.33257729  1
  Ni  Ni61  1  0.60058838  0.60083689  0.33257729  1
  Ni  Ni62  1  0.19995575  0.39991149  0.33298745  1
  Ni  Ni63  1  0.60008851  0.80004425  0.33298745  1
  Ni  Ni64  1  0.19995575  0.80004425  0.33298745  1
  Ni  Ni65  1  0.20005261  0.60002581  0.33324649  1
  Ni  Ni66  1  0.39997319  0.60002581  0.33324649  1
  Ni  Ni67  1  0.39997319  0.79994739  0.33324649  1
  Ni  Ni68  1  0.59981335  0.19962570  0.33354464  1
  Ni  Ni69  1  0.59981335  0.40018665  0.33354464  1
  Ni  Ni70  1  0.80037330  0.40018665  0.33354464  1
  Ni  Ni71  1  0.39991595  0.19995748  0.33378244  1
  Ni  Ni72  1  0.80004152  0.19995848  0.33378244  1
  Ni  Ni73  1  0.80004152  0.60008305  0.33378244  1
  Ni  Ni74  1  0.86712029  0.13287971  0.50000000  1
  Ni  Ni75  1  0.26575942  0.13287971  0.50000000  1
  Ni  Ni76  1  0.06648460  0.13296921  0.50000000  1
  Ni  Ni77  1  0.46671398  0.13346323  0.50000000  1
  Ni  Ni78  1  0.66674926  0.13346323  0.50000000  1
  Ni  Ni79  1  0.26632535  0.33252260  0.50000000  1
  Ni  Ni80  1  0.06619725  0.33252260  0.50000000  1
  Ni  Ni81  1  0.46671398  0.33325074  0.50000000  1
  Ni  Ni82  1  0.86653677  0.33325074  0.50000000  1
  Ni  Ni83  1  0.66666700  0.33333300  0.50000000  1
  Ni  Ni84  1  0.26636519  0.53273037  0.50000000  1
  Ni  Ni85  1  0.06593732  0.53296816  0.50000000  1
  Ni  Ni86  1  0.46703084  0.53296916  0.50000000  1
  Ni  Ni87  1  0.86653677  0.53328602  0.50000000  1
  Ni  Ni88  1  0.66674926  0.53328602  0.50000000  1
  Ni  Ni89  1  0.46726963  0.73363481  0.50000000  1
  Ni  Ni90  1  0.26636519  0.73363481  0.50000000  1
  Ni  Ni91  1  0.06619725  0.73367465  0.50000000  1
  Ni  Ni92  1  0.66747740  0.73367465  0.50000000  1
  Ni  Ni93  1  0.86712029  0.73424158  0.50000000  1
  Ni  Ni94  1  0.06648460  0.93351540  0.50000000  1
  Ni  Ni95  1  0.86703079  0.93351540  0.50000000  1
  Ni  Ni96  1  0.46703084  0.93406268  0.50000000  1
  Ni  Ni97  1  0.26632535  0.93380275  0.50000000  1
  Ni  Ni98  1  0.66747740  0.93380275  0.50000000  1
  Ni  Ni99  1  0.39991595  0.19995748  0.66621756  1
  Ni  Ni100  1  0.80004152  0.19995848  0.66621756  1
  Ni  Ni101  1  0.80004152  0.60008305  0.66621756  1
  Ni  Ni102  1  0.59981335  0.19962570  0.66645536  1
  Ni  Ni103  1  0.59981335  0.40018665  0.66645536  1
  Ni  Ni104  1  0.80037330  0.40018665  0.66645536  1
  Ni  Ni105  1  0.20005261  0.60002581  0.66675351  1
  Ni  Ni106  1  0.39997319  0.60002581  0.66675351  1
  Ni  Ni107  1  0.39997319  0.79994739  0.66675351  1
  Ni  Ni108  1  0.19995575  0.39991149  0.66701255  1
  Ni  Ni109  1  0.60008851  0.80004425  0.66701255  1
  Ni  Ni110  1  0.19995575  0.80004425  0.66701255  1
  Ni  Ni111  1  0.39916411  0.99975249  0.66742371  1
  Ni  Ni112  1  0.60058838  0.99975249  0.66742371  1
  Ni  Ni113  1  0.00024851  0.39941162  0.66742371  1
  Ni  Ni114  1  0.39916411  0.39941162  0.66742371  1
  Ni  Ni115  1  0.00024851  0.60083589  0.66742371  1
  Ni  Ni116  1  0.60058838  0.60083689  0.66742371  1
  Ni  Ni117  1  0.00000000  0.00000000  0.66763428  1
  Ni  Ni118  1  0.00033783  0.19883707  0.66932206  1
  Ni  Ni119  1  0.19850024  0.19883807  0.66932206  1
  Ni  Ni120  1  0.80116193  0.80149976  0.66932206  1
  Ni  Ni121  1  0.00033783  0.80149976  0.66932206  1
  Ni  Ni122  1  0.80116193  0.99966217  0.66932206  1
  Ni  Ni123  1  0.19850024  0.99966217  0.66932206  1
  Ni  Ni124  1  0.26913396  0.13456698  0.83305826  1
  Ni  Ni125  1  0.86543302  0.13456698  0.83305826  1
  Ni  Ni126  1  0.86543302  0.73086604  0.83305826  1
  Ni  Ni127  1  0.66666700  0.33333300  0.83320338  1
  Ni  Ni128  1  0.46717465  0.13369456  0.83320917  1
  Ni  Ni129  1  0.66651992  0.13369456  0.83320917  1
  Ni  Ni130  1  0.46717465  0.33348008  0.83320917  1
  Ni  Ni131  1  0.86630544  0.33348008  0.83320917  1
  Ni  Ni132  1  0.86630544  0.53282535  0.83320917  1
  Ni  Ni133  1  0.66651992  0.53282535  0.83320917  1
  Ni  Ni134  1  0.26641208  0.53282416  0.83382540  1
  Ni  Ni135  1  0.46717584  0.73358792  0.83382540  1
  Ni  Ni136  1  0.26641208  0.73358792  0.83382540  1
  Ni  Ni137  1  0.06656949  0.53328525  0.83414780  1
  Ni  Ni138  1  0.46671575  0.53328525  0.83414780  1
  Ni  Ni139  1  0.46671575  0.93343051  0.83414780  1
  Ni  Ni140  1  0.06608847  0.33094923  0.83461817  1
  Ni  Ni141  1  0.26486076  0.33095023  0.83461817  1
  Ni  Ni142  1  0.06608847  0.73513824  0.83461817  1
  Ni  Ni143  1  0.66905077  0.73513924  0.83461817  1
  Ni  Ni144  1  0.26486076  0.93391153  0.83461817  1
  Ni  Ni145  1  0.66905077  0.93391153  0.83461817  1
  Ni  Ni146  1  0.06279593  0.12559186  0.84399738  1
  Ni  Ni147  1  0.87440814  0.93720407  0.84399738  1
  Ni  Ni148  1  0.06279593  0.93720407  0.84399738  1
  Cu  Cu149  1  0.00000000  0.00000000  -0.00000000  1
