# generated using pymatgen
data_Cu4Ni2C11
_symmetry_space_group_name_H-M   'P 1'
_cell_length_a   10.64451000
_cell_length_b   7.83749900
_cell_length_c   10.16169007
_cell_angle_alpha   87.02370660
_cell_angle_beta   90.00000000
_cell_angle_gamma   90.00000000
_symmetry_Int_Tables_number   1
_chemical_formula_structural   Cu4Ni2C11
_chemical_formula_sum   'Cu16 Ni8 C44'
_cell_volume   846.60904436
_cell_formula_units_Z   4
loop_
 _symmetry_equiv_pos_site_id
 _symmetry_equiv_pos_as_xyz
  1  'x, y, z'
loop_
 _atom_site_type_symbol
 _atom_site_label
 _atom_site_symmetry_multiplicity
 _atom_site_fract_x
 _atom_site_fract_y
 _atom_site_fract_z
 _atom_site_occupancy
  C  C0  1  0.71346100  0.75237800  0.65428600  1
  C  C1  1  0.28653900  0.24762200  0.34571400  1
  C  C2  1  0.21346100  0.24762200  0.84571400  1
  C  C3  1  0.78653900  0.75237800  0.15428600  1
  C  C4  1  0.11965600  0.74838000  0.82954900  1
  C  C5  1  0.88034400  0.25162000  0.17045100  1
  C  C6  1  0.61965600  0.25162000  0.67045100  1
  C  C7  1  0.38034400  0.74838000  0.32954900  1
  Ni  Ni8  1  0.35197200  0.96253900  0.62784900  1
  Ni  Ni9  1  0.64802800  0.03746100  0.37215100  1
  Ni  Ni10  1  0.85197200  0.03746100  0.87215100  1
  Ni  Ni11  1  0.14802800  0.96253900  0.12784900  1
  Ni  Ni12  1  0.39320900  0.60125200  0.66777100  1
  Ni  Ni13  1  0.60679100  0.39874800  0.33222900  1
  Ni  Ni14  1  0.89320900  0.39874800  0.83222900  1
  Ni  Ni15  1  0.10679100  0.60125200  0.16777100  1
  Cu  Cu16  1  0.07303500  0.42171700  0.62715300  1
  Cu  Cu17  1  0.92696500  0.57828300  0.37284700  1
  Cu  Cu18  1  0.57303500  0.57828300  0.87284700  1
  Cu  Cu19  1  0.42696500  0.42171700  0.12715300  1
  Cu  Cu20  1  0.18788800  0.45537500  0.53520300  1
  Cu  Cu21  1  0.81211200  0.54462500  0.46479700  1
  Cu  Cu22  1  0.68788800  0.54462500  0.96479700  1
  Cu  Cu23  1  0.31211200  0.45537500  0.03520300  1
  Cu  Cu24  1  0.11698000  0.84888000  0.53955900  1
  Cu  Cu25  1  0.88302000  0.15112000  0.46044100  1
  Cu  Cu26  1  0.61698000  0.15112000  0.96044100  1
  Cu  Cu27  1  0.38302000  0.84888000  0.03955900  1
  Cu  Cu28  1  0.99539900  0.72545900  0.54330200  1
  Cu  Cu29  1  0.00460100  0.27454100  0.45669800  1
  Cu  Cu30  1  0.49539900  0.27454100  0.95669800  1
  Cu  Cu31  1  0.50460100  0.72545900  0.04330200  1
  C  C32  1  0.35436600  0.57185300  0.52539200  1
  C  C33  1  0.64563400  0.42814700  0.47460800  1
  C  C34  1  0.85436600  0.42814700  0.97460800  1
  C  C35  1  0.14563400  0.57185300  0.02539200  1
  C  C36  1  0.28300000  0.58307200  0.76419800  1
  C  C37  1  0.71700000  0.41692800  0.23580200  1
  C  C38  1  0.78300000  0.41692800  0.73580200  1
  C  C39  1  0.21700000  0.58307200  0.26419800  1
  C  C40  1  0.19062700  0.93488900  0.98624300  1
  C  C41  1  0.80937300  0.06511100  0.01375700  1
  C  C42  1  0.69062700  0.06511100  0.51375700  1
  C  C43  1  0.30937300  0.93488900  0.48624300  1
  C  C44  1  0.24176800  0.95450700  0.72411500  1
  C  C45  1  0.75823200  0.04549300  0.27588500  1
  C  C46  1  0.74176800  0.04549300  0.77588500  1
  C  C47  1  0.25823200  0.95450700  0.22411500  1
  C  C48  1  0.93159000  0.87787200  0.85962500  1
  C  C49  1  0.06841000  0.12212800  0.14037500  1
  C  C50  1  0.43159000  0.12212800  0.64037500  1
  C  C51  1  0.56841000  0.87787200  0.35962500  1
  C  C52  1  0.12195200  0.36979700  0.55667800  1
  C  C53  1  0.87804800  0.63020300  0.44332200  1
  C  C54  1  0.62195200  0.63020300  0.94332200  1
  C  C55  1  0.37804800  0.36979700  0.05667800  1
  C  C56  1  0.05708900  0.78593400  0.59718800  1
  C  C57  1  0.94291100  0.21406600  0.40281200  1
  C  C58  1  0.55708900  0.21406600  0.90281200  1
  C  C59  1  0.44291100  0.78593400  0.09718800  1
  C  C60  1  0.00781800  0.50116300  0.78271000  1
  C  C61  1  0.99218200  0.49883700  0.21729000  1
  C  C62  1  0.50781800  0.49883700  0.71729000  1
  C  C63  1  0.49218200  0.50116300  0.28271000  1
  C  C64  1  0.44429200  0.79979000  0.67015500  1
  C  C65  1  0.55570800  0.20021000  0.32984500  1
  C  C66  1  0.94429200  0.20021000  0.82984500  1
  C  C67  1  0.05570800  0.79979000  0.17015500  1
