# generated using pymatgen
data_Cu8NiC7
_symmetry_space_group_name_H-M   'P 1'
_cell_length_a   6.56479390
_cell_length_b   6.56479390
_cell_length_c   9.82179908
_cell_angle_alpha   97.68790963
_cell_angle_beta   97.68790963
_cell_angle_gamma   119.50869553
_symmetry_Int_Tables_number   1
_chemical_formula_structural   Cu8NiC7
_chemical_formula_sum   'Cu16 Ni2 C14'
_cell_volume   355.14788094
_cell_formula_units_Z   2
loop_
 _symmetry_equiv_pos_site_id
 _symmetry_equiv_pos_as_xyz
  1  'x, y, z'
loop_
 _atom_site_type_symbol
 _atom_site_label
 _atom_site_symmetry_multiplicity
 _atom_site_fract_x
 _atom_site_fract_y
 _atom_site_fract_z
 _atom_site_occupancy
  C  C0  1  0.68151500  0.26908200  0.06637800  1
  C  C1  1  0.26908200  0.68151500  0.56637800  1
  C  C2  1  0.61184400  0.72148200  0.14714800  1
  C  C3  1  0.72148200  0.61184400  0.64714800  1
  C  C4  1  0.23160100  0.42104600  0.19288000  1
  C  C5  1  0.42104600  0.23160100  0.69288000  1
  C  C6  1  0.04236700  0.97658800  0.12912500  1
  C  C7  1  0.97658800  0.04236700  0.62912500  1
  C  C8  1  0.31998800  0.83201800  0.21748500  1
  C  C9  1  0.83201800  0.31998800  0.71748500  1
  C  C10  1  0.41124700  0.39700700  0.37296600  1
  C  C11  1  0.39700700  0.41124700  0.87296600  1
  C  C12  1  0.47061700  0.06171200  0.41630700  1
  C  C13  1  0.06171200  0.47061700  0.91630700  1
  Ni  Ni14  1  0.43894300  0.79388200  0.87098100  1
  Ni  Ni15  1  0.79388200  0.43894300  0.37098100  1
  Cu  Cu16  1  0.45108400  0.48101900  0.13585400  1
  Cu  Cu17  1  0.48101900  0.45108400  0.63585400  1
  Cu  Cu18  1  0.56554400  0.89864500  0.18831100  1
  Cu  Cu19  1  0.89864500  0.56554400  0.68831100  1
  Cu  Cu20  1  0.25874800  0.98860300  0.14802600  1
  Cu  Cu21  1  0.98860300  0.25874800  0.64802600  1
  Cu  Cu22  1  0.14547900  0.57768600  0.16127400  1
  Cu  Cu23  1  0.57768600  0.14547900  0.66127400  1
  Cu  Cu24  1  0.82902200  0.75907700  0.11713300  1
  Cu  Cu25  1  0.75907700  0.82902200  0.61713300  1
  Cu  Cu26  1  0.02908500  0.17563200  0.12045200  1
  Cu  Cu27  1  0.17563200  0.02908500  0.62045200  1
  Cu  Cu28  1  0.34571900  0.89368900  0.37304700  1
  Cu  Cu29  1  0.89368900  0.34571900  0.87304700  1
  Cu  Cu30  1  0.29273400  0.44355700  0.34924300  1
  Cu  Cu31  1  0.44355700  0.29273400  0.84924300  1
