# generated using pymatgen
data_Cu10Ni12C25
_symmetry_space_group_name_H-M   'P 1'
_cell_length_a   11.85270700
_cell_length_b   8.73187800
_cell_length_c   8.86260448
_cell_angle_alpha   90.00000000
_cell_angle_beta   102.31611860
_cell_angle_gamma   90.00000000
_symmetry_Int_Tables_number   1
_chemical_formula_structural   Cu10Ni12C25
_chemical_formula_sum   'Cu20 Ni24 C50'
_cell_volume   896.13768475
_cell_formula_units_Z   2
loop_
 _symmetry_equiv_pos_site_id
 _symmetry_equiv_pos_as_xyz
  1  'x, y, z'
loop_
 _atom_site_type_symbol
 _atom_site_label
 _atom_site_symmetry_multiplicity
 _atom_site_fract_x
 _atom_site_fract_y
 _atom_site_fract_z
 _atom_site_occupancy
  C  C0  1  0.50000000  0.50000000  0.00000000  1
  C  C1  1  0.50000000  0.00000000  0.50000000  1
  Ni  Ni2  1  0.21634900  0.45136200  0.85861200  1
  Ni  Ni3  1  0.78365100  0.95136200  0.64138800  1
  Ni  Ni4  1  0.78365100  0.54863800  0.14138800  1
  Ni  Ni5  1  0.21634900  0.04863800  0.35861200  1
  Ni  Ni6  1  0.15287200  0.59200100  0.60976200  1
  Ni  Ni7  1  0.84712800  0.09200100  0.89023800  1
  Ni  Ni8  1  0.84712800  0.40799900  0.39023800  1
  Ni  Ni9  1  0.15287200  0.90799900  0.10976200  1
  Ni  Ni10  1  0.02979200  0.58660400  0.79290500  1
  Ni  Ni11  1  0.97020800  0.08660400  0.70709500  1
  Ni  Ni12  1  0.97020800  0.41339600  0.20709500  1
  Ni  Ni13  1  0.02979200  0.91339600  0.29290500  1
  Ni  Ni14  1  0.35084400  0.20127800  0.93527200  1
  Ni  Ni15  1  0.64915600  0.70127800  0.56472800  1
  Ni  Ni16  1  0.64915600  0.79872200  0.06472800  1
  Ni  Ni17  1  0.35084400  0.29872200  0.43527200  1
  Ni  Ni18  1  0.47288000  0.25172200  0.74192300  1
  Ni  Ni19  1  0.52712000  0.75172200  0.75807700  1
  Ni  Ni20  1  0.52712000  0.74827800  0.25807700  1
  Ni  Ni21  1  0.47288000  0.24827800  0.24192300  1
  Ni  Ni22  1  0.58198500  0.48619000  0.70330100  1
  Ni  Ni23  1  0.41801500  0.98619000  0.79669900  1
  Ni  Ni24  1  0.41801500  0.51381000  0.29669900  1
  Ni  Ni25  1  0.58198500  0.01381000  0.20330100  1
  Cu  Cu26  1  0.23818300  0.59198200  0.44120400  1
  Cu  Cu27  1  0.76181700  0.09198200  0.05879600  1
  Cu  Cu28  1  0.76181700  0.40801800  0.55879600  1
  Cu  Cu29  1  0.23818300  0.90801800  0.94120400  1
  Cu  Cu30  1  0.91340100  0.58895400  0.92568100  1
  Cu  Cu31  1  0.08659900  0.08895400  0.57431900  1
  Cu  Cu32  1  0.08659900  0.41104600  0.07431900  1
  Cu  Cu33  1  0.91340100  0.91104600  0.42568100  1
  Cu  Cu34  1  0.17479700  0.21725700  0.80052700  1
  Cu  Cu35  1  0.82520300  0.71725700  0.69947300  1
  Cu  Cu36  1  0.82520300  0.78274300  0.19947300  1
  Cu  Cu37  1  0.17479700  0.28274300  0.30052700  1
  Cu  Cu38  1  0.72031800  0.37223200  0.00198400  1
  Cu  Cu39  1  0.27968200  0.87223200  0.49801600  1
  Cu  Cu40  1  0.27968200  0.62776800  0.99801600  1
  Cu  Cu41  1  0.72031800  0.12776800  0.50198400  1
  Cu  Cu42  1  0.31354500  0.12287500  0.14189800  1
  Cu  Cu43  1  0.68645500  0.62287500  0.35810200  1
  Cu  Cu44  1  0.68645500  0.87712500  0.85810200  1
  Cu  Cu45  1  0.31354500  0.37712500  0.64189800  1
  C  C46  1  0.22391100  0.48455700  0.69700000  1
  C  C47  1  0.77608900  0.98455700  0.80300000  1
  C  C48  1  0.77608900  0.51544300  0.30300000  1
  C  C49  1  0.22391100  0.01544300  0.19700000  1
  C  C50  1  0.05610400  0.64395900  0.65860600  1
  C  C51  1  0.94389600  0.14395900  0.84139400  1
  C  C52  1  0.94389600  0.35604100  0.34139400  1
  C  C53  1  0.05610400  0.85604100  0.15860600  1
  C  C54  1  0.10348500  0.48955500  0.88907600  1
  C  C55  1  0.89651500  0.98955500  0.61092400  1
  C  C56  1  0.89651500  0.51044500  0.11092400  1
  C  C57  1  0.10348500  0.01044500  0.38907600  1
  C  C58  1  0.23330900  0.27831200  0.87818800  1
  C  C59  1  0.76669100  0.77831200  0.62181200  1
  C  C60  1  0.76669100  0.72168800  0.12181200  1
  C  C61  1  0.23330900  0.22168800  0.37818800  1
  C  C62  1  0.17580100  0.64880000  0.47529900  1
  C  C63  1  0.82419900  0.14880000  0.02470100  1
  C  C64  1  0.82419900  0.35120000  0.52470100  1
  C  C65  1  0.17580100  0.85120000  0.97529900  1
  C  C66  1  0.92489200  0.62737700  0.82433900  1
  C  C67  1  0.07510800  0.12737700  0.67566100  1
  C  C68  1  0.07510800  0.37262300  0.17566100  1
  C  C69  1  0.92489200  0.87262300  0.32433900  1
  C  C70  1  0.36800400  0.20054600  0.10868300  1
  C  C71  1  0.63199600  0.70054600  0.39131700  1
  C  C72  1  0.63199600  0.79945400  0.89131700  1
  C  C73  1  0.36800400  0.29945400  0.60868300  1
  C  C74  1  0.34181600  0.04416200  0.87998700  1
  C  C75  1  0.65818400  0.54416200  0.62001300  1
  C  C76  1  0.65818400  0.95583800  0.12001300  1
  C  C77  1  0.34181600  0.45583800  0.37998700  1
  C  C78  1  0.44042400  0.28845800  0.88765000  1
  C  C79  1  0.55957600  0.78845800  0.61235000  1
  C  C80  1  0.55957600  0.71154200  0.11235000  1
  C  C81  1  0.44042400  0.21154200  0.38765000  1
  C  C82  1  0.48610600  0.41501400  0.22946400  1
  C  C83  1  0.51389400  0.91501400  0.27053600  1
  C  C84  1  0.51389400  0.58498600  0.77053600  1
  C  C85  1  0.48610600  0.08498600  0.72946400  1
  C  C86  1  0.69179300  0.47125700  0.03079000  1
  C  C87  1  0.30820700  0.97125700  0.46921000  1
  C  C88  1  0.30820700  0.52874300  0.96921000  1
  C  C89  1  0.69179300  0.02874300  0.53079000  1
  C  C90  1  0.57378500  0.33126400  0.71884000  1
  C  C91  1  0.42621500  0.83126400  0.78116000  1
  C  C92  1  0.42621500  0.66873600  0.28116000  1
  C  C93  1  0.57378500  0.16873600  0.21884000  1
