# generated using pymatgen
data_CuNiC19
_symmetry_space_group_name_H-M   'P 1'
_cell_length_a   6.47495091
_cell_length_b   6.47495060
_cell_length_c   6.50948543
_cell_angle_alpha   83.55163808
_cell_angle_beta   83.55164264
_cell_angle_gamma   82.97028599
_symmetry_Int_Tables_number   1
_chemical_formula_structural   CuNiC19
_chemical_formula_sum   'Cu1 Ni1 C19'
_cell_volume   267.79745413
_cell_formula_units_Z   1
loop_
 _symmetry_equiv_pos_site_id
 _symmetry_equiv_pos_as_xyz
  1  'x, y, z'
loop_
 _atom_site_type_symbol
 _atom_site_label
 _atom_site_symmetry_multiplicity
 _atom_site_fract_x
 _atom_site_fract_y
 _atom_site_fract_z
 _atom_site_occupancy
  Ni  Ni0  1  0.34537500  0.34537500  0.33296500  1
  Cu  Cu1  1  0.65664600  0.65664600  0.66865100  1
  C  C2  1  0.90429200  0.90429200  0.90341400  1
  C  C3  1  0.09448500  0.09448500  0.09519900  1
  C  C4  1  0.71539400  0.99932300  0.28499000  1
  C  C5  1  0.99912100  0.28568500  0.71553100  1
  C  C6  1  0.29225200  0.70878800  0.99840200  1
  C  C7  1  0.99932300  0.71539400  0.28499000  1
  C  C8  1  0.70878800  0.29225200  0.99840200  1
  C  C9  1  0.28568500  0.99912100  0.71553100  1
  C  C10  1  0.34572100  0.85124500  0.34251700  1
  C  C11  1  0.85124500  0.34572100  0.34251700  1
  C  C12  1  0.34430200  0.34430200  0.84898400  1
  C  C13  1  0.65567800  0.14670000  0.65817700  1
  C  C14  1  0.14670000  0.65567800  0.65817700  1
  C  C15  1  0.65734300  0.65734300  0.14774600  1
  C  C16  1  0.99981500  0.50046700  0.99936700  1
  C  C17  1  0.50046700  0.99981500  0.99936700  1
  C  C18  1  0.00031500  0.00031500  0.50025400  1
  C  C19  1  0.50259700  0.99445600  0.50240900  1
  C  C20  1  0.99445600  0.50259700  0.50240900  1
