# generated using pymatgen
data_Cu10Ni4C3
_symmetry_space_group_name_H-M   'P 1'
_cell_length_a   11.63893500
_cell_length_b   11.63893500
_cell_length_c   13.80348000
_cell_angle_alpha   90.00000000
_cell_angle_beta   90.00000000
_cell_angle_gamma   90.00000000
_symmetry_Int_Tables_number   1
_chemical_formula_structural   Cu10Ni4C3
_chemical_formula_sum   'Cu40 Ni16 C12'
_cell_volume   1869.88576702
_cell_formula_units_Z   4
loop_
 _symmetry_equiv_pos_site_id
 _symmetry_equiv_pos_as_xyz
  1  'x, y, z'
loop_
 _atom_site_type_symbol
 _atom_site_label
 _atom_site_symmetry_multiplicity
 _atom_site_fract_x
 _atom_site_fract_y
 _atom_site_fract_z
 _atom_site_occupancy
  C  C0  1  0.76410400  0.26410400  0.75000000  1
  C  C1  1  0.26410400  0.23589600  0.25000000  1
  C  C2  1  0.73589600  0.76410400  0.75000000  1
  C  C3  1  0.76410400  0.26410400  0.25000000  1
  C  C4  1  0.26410400  0.23589600  0.75000000  1
  C  C5  1  0.73589600  0.76410400  0.25000000  1
  C  C6  1  0.23589600  0.73589600  0.25000000  1
  C  C7  1  0.23589600  0.73589600  0.75000000  1
  C  C8  1  0.50000000  0.50000000  0.75000000  1
  C  C9  1  0.50000000  0.50000000  0.25000000  1
  C  C10  1  0.00000000  0.00000000  0.75000000  1
  C  C11  1  0.00000000  0.00000000  0.25000000  1
  Ni  Ni12  1  0.09068900  0.36626100  0.50000000  1
  Ni  Ni13  1  0.36626100  0.90931100  0.00000000  1
  Ni  Ni14  1  0.40931100  0.86626100  0.50000000  1
  Ni  Ni15  1  0.86626100  0.59068900  0.00000000  1
  Ni  Ni16  1  0.90931100  0.63373900  0.50000000  1
  Ni  Ni17  1  0.63373900  0.09068900  0.00000000  1
  Ni  Ni18  1  0.59068900  0.13373900  0.50000000  1
  Ni  Ni19  1  0.13373900  0.40931100  0.00000000  1
  Ni  Ni20  1  0.15560200  0.03857800  0.50000000  1
  Ni  Ni21  1  0.03857800  0.84439800  0.00000000  1
  Ni  Ni22  1  0.34439800  0.53857800  0.50000000  1
  Ni  Ni23  1  0.53857800  0.65560200  0.00000000  1
  Ni  Ni24  1  0.84439800  0.96142200  0.50000000  1
  Ni  Ni25  1  0.96142200  0.15560200  0.00000000  1
  Ni  Ni26  1  0.65560200  0.46142200  0.50000000  1
  Ni  Ni27  1  0.46142200  0.34439800  0.00000000  1
  Cu  Cu28  1  0.25605900  0.22788300  0.50000000  1
  Cu  Cu29  1  0.22788300  0.74394100  0.00000000  1
  Cu  Cu30  1  0.24394100  0.72788300  0.50000000  1
  Cu  Cu31  1  0.72788300  0.75605900  0.00000000  1
  Cu  Cu32  1  0.74394100  0.77211700  0.50000000  1
  Cu  Cu33  1  0.77211700  0.25605900  0.00000000  1
  Cu  Cu34  1  0.75605900  0.27211700  0.50000000  1
  Cu  Cu35  1  0.27211700  0.24394100  0.00000000  1
  Cu  Cu36  1  0.34991300  0.47627600  0.84900600  1
  Cu  Cu37  1  0.47627600  0.65008700  0.34900600  1
  Cu  Cu38  1  0.15008700  0.97627600  0.84900600  1
  Cu  Cu39  1  0.97627600  0.84991300  0.34900600  1
  Cu  Cu40  1  0.34991300  0.47627600  0.15099400  1
  Cu  Cu41  1  0.47627600  0.65008700  0.65099400  1
  Cu  Cu42  1  0.15008700  0.97627600  0.15099400  1
  Cu  Cu43  1  0.97627600  0.84991300  0.65099400  1
  Cu  Cu44  1  0.65008700  0.52372400  0.15099400  1
  Cu  Cu45  1  0.52372400  0.34991300  0.65099400  1
  Cu  Cu46  1  0.84991300  0.02372400  0.15099400  1
  Cu  Cu47  1  0.02372400  0.15008700  0.65099400  1
  Cu  Cu48  1  0.65008700  0.52372400  0.84900600  1
  Cu  Cu49  1  0.52372400  0.34991300  0.34900600  1
  Cu  Cu50  1  0.84991300  0.02372400  0.84900600  1
  Cu  Cu51  1  0.02372400  0.15008700  0.34900600  1
  Cu  Cu52  1  0.18329300  0.47679900  0.63093700  1
  Cu  Cu53  1  0.47679900  0.81670700  0.13093700  1
  Cu  Cu54  1  0.31670700  0.97679900  0.63093700  1
  Cu  Cu55  1  0.97679900  0.68329300  0.13093700  1
  Cu  Cu56  1  0.18329300  0.47679900  0.36906300  1
  Cu  Cu57  1  0.47679900  0.81670700  0.86906300  1
  Cu  Cu58  1  0.31670700  0.97679900  0.36906300  1
  Cu  Cu59  1  0.97679900  0.68329300  0.86906300  1
  Cu  Cu60  1  0.81670700  0.52320100  0.36906300  1
  Cu  Cu61  1  0.52320100  0.18329300  0.86906300  1
  Cu  Cu62  1  0.68329300  0.02320100  0.36906300  1
  Cu  Cu63  1  0.02320100  0.31670700  0.86906300  1
  Cu  Cu64  1  0.81670700  0.52320100  0.63093700  1
  Cu  Cu65  1  0.52320100  0.18329300  0.13093700  1
  Cu  Cu66  1  0.68329300  0.02320100  0.63093700  1
  Cu  Cu67  1  0.02320100  0.31670700  0.13093700  1
