# generated using pymatgen
data_Cu2NiC11
_symmetry_space_group_name_H-M   'P 1'
_cell_length_a   9.95945632
_cell_length_b   13.69533587
_cell_length_c   20.55428303
_cell_angle_alpha   100.55885528
_cell_angle_beta   90.00000000
_cell_angle_gamma   90.00000000
_symmetry_Int_Tables_number   1
_chemical_formula_structural   Cu2NiC11
_chemical_formula_sum   'Cu24 Ni12 C132'
_cell_volume   2756.09291243
_cell_formula_units_Z   12
loop_
 _symmetry_equiv_pos_site_id
 _symmetry_equiv_pos_as_xyz
  1  'x, y, z'
loop_
 _atom_site_type_symbol
 _atom_site_label
 _atom_site_symmetry_multiplicity
 _atom_site_fract_x
 _atom_site_fract_y
 _atom_site_fract_z
 _atom_site_occupancy
  C  C0  1  0.32872230  0.57923045  0.28784785  1
  C  C1  1  0.82872230  0.92076955  0.71215215  1
  C  C2  1  0.67127770  0.42076955  0.71215215  1
  C  C3  1  0.17127770  0.07923045  0.28784785  1
  C  C4  1  0.05185958  0.67857916  0.42010149  1
  C  C5  1  0.55185958  0.82142084  0.57989851  1
  C  C6  1  0.94814042  0.32142084  0.57989851  1
  C  C7  1  0.44814042  0.17857916  0.42010149  1
  C  C8  1  0.92773427  0.66034632  0.23367241  1
  C  C9  1  0.42773427  0.83965368  0.76632759  1
  C  C10  1  0.07226573  0.33965368  0.76632759  1
  C  C11  1  0.57226573  0.16034632  0.23367241  1
  C  C12  1  0.83531700  0.57548896  0.55145024  1
  C  C13  1  0.33531700  0.92451104  0.44854976  1
  C  C14  1  0.16468300  0.42451104  0.44854976  1
  C  C15  1  0.66468300  0.07548896  0.55145024  1
  C  C16  1  0.65749934  0.74350904  0.37048478  1
  C  C17  1  0.15749934  0.75649096  0.62951522  1
  C  C18  1  0.34250066  0.25649096  0.62951522  1
  C  C19  1  0.84250066  0.24350904  0.37048478  1
  C  C20  1  0.82374716  0.60672119  0.05444083  1
  C  C21  1  0.32374716  0.89327881  0.94555917  1
  C  C22  1  0.17625284  0.39327881  0.94555917  1
  C  C23  1  0.67625284  0.10672119  0.05444083  1
  C  C24  1  0.83736866  0.92742357  0.21299375  1
  C  C25  1  0.33736866  0.57257643  0.78700625  1
  C  C26  1  0.16263134  0.07257643  0.78700625  1
  C  C27  1  0.66263134  0.42742357  0.21299375  1
  C  C28  1  0.56044426  0.79298929  0.05861583  1
  C  C29  1  0.06044426  0.70701071  0.94138417  1
  C  C30  1  0.43955574  0.20701071  0.94138417  1
  C  C31  1  0.93955574  0.29298929  0.05861583  1
  C  C32  1  0.20133816  0.76672968  0.11697440  1
  C  C33  1  0.70133816  0.73327032  0.88302560  1
  C  C34  1  0.79866184  0.23327032  0.88302560  1
  C  C35  1  0.29866184  0.26672968  0.11697440  1
  Ni  Ni36  1  0.42456726  0.52841740  0.08938402  1
  Ni  Ni37  1  0.92456726  0.97158260  0.91061598  1
  Ni  Ni38  1  0.57543274  0.47158260  0.91061598  1
  Ni  Ni39  1  0.07543274  0.02841740  0.08938402  1
  Ni  Ni40  1  0.43633788  0.88916048  0.24849947  1
  Ni  Ni41  1  0.93633788  0.61083952  0.75150053  1
  Ni  Ni42  1  0.56366212  0.11083952  0.75150053  1
  Ni  Ni43  1  0.06366212  0.38916048  0.24849947  1
  Ni  Ni44  1  0.93658227  0.94494275  0.40458542  1
  Ni  Ni45  1  0.43658227  0.55505725  0.59541458  1
  Ni  Ni46  1  0.06341773  0.05505725  0.59541458  1
  Ni  Ni47  1  0.56341773  0.44494275  0.40458542  1
  Cu  Cu48  1  0.15042325  0.83465110  0.29818612  1
  Cu  Cu49  1  0.65042325  0.66534890  0.70181388  1
  Cu  Cu50  1  0.84957675  0.16534890  0.70181388  1
  Cu  Cu51  1  0.34957675  0.33465110  0.29818612  1
  Cu  Cu52  1  0.91362752  0.86013751  0.53393559  1
  Cu  Cu53  1  0.41362752  0.63986249  0.46606441  1
  Cu  Cu54  1  0.08637248  0.13986249  0.46606441  1
  Cu  Cu55  1  0.58637248  0.36013751  0.53393559  1
  Cu  Cu56  1  0.92047778  0.19170588  0.18729627  1
  Cu  Cu57  1  0.42047778  0.30829412  0.81270373  1
  Cu  Cu58  1  0.07952222  0.80829412  0.81270373  1
  Cu  Cu59  1  0.57952222  0.69170588  0.18729627  1
  Cu  Cu60  1  0.35315219  0.60687787  0.95657543  1
  Cu  Cu61  1  0.85315219  0.89312213  0.04342457  1
  Cu  Cu62  1  0.64684781  0.39312213  0.04342457  1
  Cu  Cu63  1  0.14684781  0.10687787  0.95657543  1
  Cu  Cu64  1  0.84740806  0.49124413  0.35655748  1
  Cu  Cu65  1  0.34740806  0.00875587  0.64344252  1
  Cu  Cu66  1  0.15259194  0.50875587  0.64344252  1
  Cu  Cu67  1  0.65259194  0.99124413  0.35655748  1
  Cu  Cu68  1  0.35848582  0.00985320  0.13450750  1
  Cu  Cu69  1  0.85848582  0.49014680  0.86549250  1
  Cu  Cu70  1  0.64151418  0.99014680  0.86549250  1
  Cu  Cu71  1  0.14151418  0.50985320  0.13450750  1
  C  C72  1  0.29858986  0.87992853  0.30137825  1
  C  C73  1  0.79858986  0.62007147  0.69862175  1
  C  C74  1  0.70141014  0.12007147  0.69862175  1
  C  C75  1  0.20141014  0.37992853  0.30137825  1
  C  C76  1  0.15369403  0.72755469  0.30833787  1
  C  C77  1  0.65369403  0.77244531  0.69166213  1
  C  C78  1  0.84630597  0.27244531  0.69166213  1
  C  C79  1  0.34630597  0.22755469  0.30833787  1
  C  C80  1  0.08052832  0.85090015  0.23511025  1
  C  C81  1  0.58052832  0.64909985  0.76488975  1
  C  C82  1  0.91947168  0.14909985  0.76488975  1
  C  C83  1  0.41947168  0.35090015  0.23511025  1
  C  C84  1  0.08210044  0.90140088  0.36068381  1
  C  C85  1  0.58210044  0.59859912  0.63931619  1
  C  C86  1  0.91789956  0.09859912  0.63931619  1
  C  C87  1  0.41789956  0.40140088  0.36068381  1
  C  C88  1  0.78862099  0.90324683  0.57087905  1
  C  C89  1  0.28862099  0.59675317  0.42912095  1
  C  C90  1  0.21137901  0.09675317  0.42912095  1
  C  C91  1  0.71137901  0.40324683  0.57087905  1
  C  C92  1  0.95186967  0.75559577  0.54282777  1
  C  C93  1  0.45186967  0.74440423  0.45717223  1
  C  C94  1  0.04813033  0.24440423  0.45717223  1
  C  C95  1  0.54813033  0.25559577  0.54282777  1
  C  C96  1  0.89705549  0.85919874  0.45660839  1
  C  C97  1  0.39705549  0.64080126  0.54339161  1
  C  C98  1  0.10294451  0.14080126  0.54339161  1
  C  C99  1  0.60294451  0.35919874  0.45660839  1
  C  C100  1  0.04000067  0.93124432  0.55471457  1
  C  C101  1  0.54000067  0.56875568  0.44528543  1
  C  C102  1  0.95999933  0.06875568  0.44528543  1
  C  C103  1  0.45999933  0.43124432  0.55471457  1
  C  C104  1  0.93067716  0.13435399  0.24382070  1
  C  C105  1  0.43067716  0.36564601  0.75617930  1
  C  C106  1  0.06932284  0.86564601  0.75617930  1
  C  C107  1  0.56932284  0.63435399  0.24382070  1
  C  C108  1  0.95763181  0.12333573  0.11789209  1
  C  C109  1  0.45763181  0.37666427  0.88210791  1
  C  C110  1  0.04236819  0.87666427  0.88210791  1
  C  C111  1  0.54236819  0.62333573  0.11789209  1
  C  C112  1  0.78386294  0.23759194  0.17810008  1
  C  C113  1  0.28386294  0.26240806  0.82189992  1
  C  C114  1  0.21613706  0.76240806  0.82189992  1
  C  C115  1  0.71613706  0.73759194  0.17810008  1
  C  C116  1  0.03453812  0.27576962  0.19391847  1
  C  C117  1  0.53453812  0.22423038  0.80608153  1
  C  C118  1  0.96546188  0.72423038  0.80608153  1
  C  C119  1  0.46546188  0.77576962  0.19391847  1
  C  C120  1  0.24292120  0.56583404  0.90778595  1
  C  C121  1  0.74292120  0.93416596  0.09221405  1
  C  C122  1  0.75707880  0.43416596  0.09221405  1
  C  C123  1  0.25707880  0.06583404  0.90778595  1
  C  C124  1  0.35926149  0.53961031  0.01159094  1
  C  C125  1  0.85926149  0.96038969  0.98840906  1
  C  C126  1  0.64073851  0.46038969  0.98840906  1
  C  C127  1  0.14073851  0.03961031  0.01159094  1
  C  C128  1  0.49651310  0.59071021  0.92017510  1
  C  C129  1  0.99651310  0.90928979  0.07982490  1
  C  C130  1  0.50348690  0.40928979  0.07982490  1
  C  C131  1  0.00348690  0.09071021  0.92017510  1
  C  C132  1  0.33637134  0.71547380  0.98874840  1
  C  C133  1  0.83637134  0.78452620  0.01125160  1
  C  C134  1  0.66362866  0.28452620  0.01125160  1
  C  C135  1  0.16362866  0.21547380  0.98874840  1
  C  C136  1  0.84123130  0.59574419  0.34114982  1
  C  C137  1  0.34123130  0.90425581  0.65885018  1
  C  C138  1  0.15876870  0.40425581  0.65885018  1
  C  C139  1  0.65876870  0.09574419  0.34114982  1
  C  C140  1  0.70160825  0.44185479  0.35060374  1
  C  C141  1  0.20160825  0.05814521  0.64939626  1
  C  C142  1  0.29839175  0.55814521  0.64939626  1
  C  C143  1  0.79839175  0.94185479  0.35060374  1
  C  C144  1  0.91160301  0.48470530  0.42284071  1
  C  C145  1  0.41160301  0.01529470  0.57715929  1
  C  C146  1  0.08839699  0.51529470  0.57715929  1
  C  C147  1  0.58839699  0.98470530  0.42284071  1
  C  C148  1  0.92176442  0.41869927  0.29847905  1
  C  C149  1  0.42176442  0.08130073  0.70152095  1
  C  C150  1  0.07823558  0.58130073  0.70152095  1
  C  C151  1  0.57823558  0.91869927  0.29847905  1
  C  C152  1  0.40630767  0.98637587  0.20431925  1
  C  C153  1  0.90630767  0.51362413  0.79568075  1
  C  C154  1  0.59369233  0.01362413  0.79568075  1
  C  C155  1  0.09369233  0.48637587  0.20431925  1
  C  C156  1  0.44081820  0.09681970  0.11955869  1
  C  C157  1  0.94081820  0.40318030  0.88044131  1
  C  C158  1  0.55918180  0.90318030  0.88044131  1
  C  C159  1  0.05918180  0.59681970  0.11955869  1
  C  C160  1  0.20640039  0.04459631  0.14847424  1
  C  C161  1  0.70640039  0.45540369  0.85152576  1
  C  C162  1  0.79359961  0.95540369  0.85152576  1
  C  C163  1  0.29359961  0.54459631  0.14847424  1
  C  C164  1  0.35902182  0.91568419  0.08211965  1
  C  C165  1  0.85902182  0.58431581  0.91788035  1
  C  C166  1  0.64097818  0.08431581  0.91788035  1
  C  C167  1  0.14097818  0.41568419  0.08211965  1
