# generated using pymatgen
data_CuNiC18
_symmetry_space_group_name_H-M   'P 1'
_cell_length_a   8.46500208
_cell_length_b   8.46500208
_cell_length_c   9.90466282
_cell_angle_alpha   67.78718704
_cell_angle_beta   67.78718704
_cell_angle_gamma   81.00412877
_symmetry_Int_Tables_number   1
_chemical_formula_structural   CuNiC18
_chemical_formula_sum   'Cu2 Ni2 C36'
_cell_volume   608.22138570
_cell_formula_units_Z   2
loop_
 _symmetry_equiv_pos_site_id
 _symmetry_equiv_pos_as_xyz
  1  'x, y, z'
loop_
 _atom_site_type_symbol
 _atom_site_label
 _atom_site_symmetry_multiplicity
 _atom_site_fract_x
 _atom_site_fract_y
 _atom_site_fract_z
 _atom_site_occupancy
  C  C0  1  0.26840400  0.43873700  0.16145300  1
  C  C1  1  0.56126300  0.73159600  0.83854700  1
  C  C2  1  0.32478600  0.91886800  0.15834900  1
  C  C3  1  0.20666600  0.79333400  0.00000000  1
  C  C4  1  0.08113200  0.67521400  0.84165100  1
  C  C5  1  0.70219500  0.29780500  0.50000000  1
  Ni  Ni6  1  0.94849300  0.33887700  0.65594600  1
  Ni  Ni7  1  0.66112300  0.05150700  0.34405400  1
  Cu  Cu8  1  0.94529000  0.05471000  0.00000000  1
  Cu  Cu9  1  0.98535700  0.01464300  0.50000000  1
  C  C10  1  0.75712100  0.62504300  0.05984400  1
  C  C11  1  0.67765800  0.32234200  0.00000000  1
  C  C12  1  0.37495700  0.24287900  0.94015600  1
  C  C13  1  0.69528000  0.69892400  0.49245800  1
  C  C14  1  0.34546100  0.65453900  0.50000000  1
  C  C15  1  0.30107600  0.30472000  0.50754200  1
  C  C16  1  0.45486900  0.08934200  0.88860100  1
  C  C17  1  0.85689100  0.34742000  0.87290200  1
  C  C18  1  0.54626200  0.36385800  0.91251400  1
  C  C19  1  0.30127600  0.17403400  0.12480800  1
  C  C20  1  0.11318900  0.91952800  0.13716100  1
  C  C21  1  0.37370800  0.72540600  0.09762300  1
  C  C22  1  0.27459400  0.62629200  0.90237700  1
  C  C23  1  0.08047200  0.88681100  0.86283900  1
  C  C24  1  0.82596600  0.69872400  0.87519200  1
  C  C25  1  0.19041100  0.30567800  0.41725400  1
  C  C26  1  0.63614200  0.45373800  0.08748600  1
  C  C27  1  0.65258000  0.14310900  0.12709800  1
  C  C28  1  0.36663900  0.82444200  0.36812200  1
  C  C29  1  0.37869500  0.50039800  0.43483200  1
  C  C30  1  0.91065800  0.54513100  0.11139900  1
  C  C31  1  0.18203300  0.27765300  0.67616100  1
  C  C32  1  0.83657700  0.18175800  0.64840700  1
  C  C33  1  0.80364800  0.53094200  0.51548100  1
  C  C34  1  0.46905800  0.19635200  0.48451900  1
  C  C35  1  0.81824200  0.16342300  0.35159300  1
  C  C36  1  0.72234700  0.81796700  0.32383900  1
  C  C37  1  0.49960200  0.62130500  0.56516800  1
  C  C38  1  0.17555800  0.63336100  0.63187800  1
  C  C39  1  0.69432200  0.80958900  0.58274600  1
