# generated using pymatgen
data_Cu4NiC8
_symmetry_space_group_name_H-M   'P 1'
_cell_length_a   6.03853600
_cell_length_b   9.41733700
_cell_length_c   13.98965432
_cell_angle_alpha   49.35715357
_cell_angle_beta   90.00000000
_cell_angle_gamma   90.00000000
_symmetry_Int_Tables_number   1
_chemical_formula_structural   Cu4NiC8
_chemical_formula_sum   'Cu16 Ni4 C32'
_cell_volume   603.64995245
_cell_formula_units_Z   4
loop_
 _symmetry_equiv_pos_site_id
 _symmetry_equiv_pos_as_xyz
  1  'x, y, z'
loop_
 _atom_site_type_symbol
 _atom_site_label
 _atom_site_symmetry_multiplicity
 _atom_site_fract_x
 _atom_site_fract_y
 _atom_site_fract_z
 _atom_site_occupancy
  Ni  Ni0  1  0.63119300  0.17660700  0.08947600  1
  Ni  Ni1  1  0.86880700  0.17660700  0.58947600  1
  Ni  Ni2  1  0.13119300  0.82339300  0.41052400  1
  Ni  Ni3  1  0.36880700  0.82339300  0.91052400  1
  Cu  Cu4  1  0.63445000  0.47248500  0.10626600  1
  Cu  Cu5  1  0.13411500  0.45297200  0.11291400  1
  Cu  Cu6  1  0.61711200  0.81485200  0.59077100  1
  Cu  Cu7  1  0.11275000  0.81992500  0.60334800  1
  Cu  Cu8  1  0.11711200  0.18514800  0.90922900  1
  Cu  Cu9  1  0.61275000  0.18007500  0.89665200  1
  Cu  Cu10  1  0.13445000  0.52751500  0.39373400  1
  Cu  Cu11  1  0.63411500  0.54702800  0.38708600  1
  Cu  Cu12  1  0.86555000  0.47248500  0.60626600  1
  Cu  Cu13  1  0.36588500  0.45297200  0.61291400  1
  Cu  Cu14  1  0.88288800  0.81485200  0.09077100  1
  Cu  Cu15  1  0.38725000  0.81992500  0.10334800  1
  Cu  Cu16  1  0.88725000  0.18007500  0.39665200  1
  Cu  Cu17  1  0.38288800  0.18514800  0.40922900  1
  Cu  Cu18  1  0.86588500  0.54702800  0.88708600  1
  Cu  Cu19  1  0.36555000  0.52751500  0.89373400  1
  C  C20  1  0.89321900  0.39414700  0.39092600  1
  C  C21  1  0.38336400  0.40826100  0.38936800  1
  C  C22  1  0.85371200  0.26615800  0.78213500  1
  C  C23  1  0.36234200  0.25317700  0.79189400  1
  C  C24  1  0.86234200  0.74682300  0.70810600  1
  C  C25  1  0.35371200  0.73384200  0.71786500  1
  C  C26  1  0.88336400  0.59173900  0.11063200  1
  C  C27  1  0.39321900  0.60585300  0.10907400  1
  C  C28  1  0.11663600  0.40826100  0.88936800  1
  C  C29  1  0.60678100  0.39414700  0.89092600  1
  C  C30  1  0.13765800  0.25317700  0.29189400  1
  C  C31  1  0.64628800  0.26615800  0.28213500  1
  C  C32  1  0.63765800  0.74682300  0.20810600  1
  C  C33  1  0.14628800  0.73384200  0.21786500  1
  C  C34  1  0.61663600  0.59173900  0.61063200  1
  C  C35  1  0.10678100  0.60585300  0.60907400  1
  C  C36  1  0.65019500  0.35489800  0.57460700  1
  C  C37  1  0.10071600  0.34408100  0.58729100  1
  C  C38  1  0.14531800  0.92111400  0.97429700  1
  C  C39  1  0.59501400  0.92743500  0.95796700  1
  C  C40  1  0.15019500  0.64510200  0.92539300  1
  C  C41  1  0.60071600  0.65591900  0.91270900  1
  C  C42  1  0.64531800  0.07888600  0.52570300  1
  C  C43  1  0.09501400  0.07256500  0.54203300  1
  C  C44  1  0.84980500  0.35489800  0.07460700  1
  C  C45  1  0.39928400  0.34408100  0.08729100  1
  C  C46  1  0.90498600  0.92743500  0.45796700  1
  C  C47  1  0.35468200  0.92111400  0.47429700  1
  C  C48  1  0.89928400  0.65591900  0.41270900  1
  C  C49  1  0.34980500  0.64510200  0.42539300  1
  C  C50  1  0.85468200  0.07888600  0.02570300  1
  C  C51  1  0.40498600  0.07256500  0.04203300  1
