# generated using pymatgen
data_CuNiC8
_symmetry_space_group_name_H-M   'P 1'
_cell_length_a   6.53438959
_cell_length_b   6.53438959
_cell_length_c   9.78478971
_cell_angle_alpha   78.82349762
_cell_angle_beta   78.82349762
_cell_angle_gamma   25.79146823
_symmetry_Int_Tables_number   1
_chemical_formula_structural   CuNiC8
_chemical_formula_sum   'Cu2 Ni2 C16'
_cell_volume   178.15057989
_cell_formula_units_Z   2
loop_
 _symmetry_equiv_pos_site_id
 _symmetry_equiv_pos_as_xyz
  1  'x, y, z'
loop_
 _atom_site_type_symbol
 _atom_site_label
 _atom_site_symmetry_multiplicity
 _atom_site_fract_x
 _atom_site_fract_y
 _atom_site_fract_z
 _atom_site_occupancy
  C  C0  1  0.80676800  0.80676800  0.60131700  1
  C  C1  1  0.19323200  0.19323200  0.39868300  1
  C  C2  1  0.40224300  0.40224300  0.79155800  1
  C  C3  1  0.00000000  0.00000000  0.00000000  1
  C  C4  1  0.59775700  0.59775700  0.20844200  1
  C  C5  1  0.50000000  0.50000000  0.50000000  1
  Ni  Ni6  1  0.09473000  0.09473000  0.69435100  1
  Ni  Ni7  1  0.90527000  0.90527000  0.30564900  1
  Cu  Cu8  1  0.29801500  0.29801500  0.10158600  1
  Cu  Cu9  1  0.70198500  0.70198500  0.89841400  1
  C  C10  1  0.64548400  0.64548400  0.56775400  1
  C  C11  1  0.03995500  0.03995500  0.34356300  1
  C  C12  1  0.23978300  0.23978300  0.75590800  1
  C  C13  1  0.84408300  0.84408300  0.96119600  1
  C  C14  1  0.44233500  0.44233500  0.16489900  1
  C  C15  1  0.96004500  0.96004500  0.65643700  1
  C  C16  1  0.35451600  0.35451600  0.43224600  1
  C  C17  1  0.55766500  0.55766500  0.83510100  1
  C  C18  1  0.15591700  0.15591700  0.03880400  1
  C  C19  1  0.76021700  0.76021700  0.24409200  1
