# generated using pymatgen
data_Cu2Ni3C16
_symmetry_space_group_name_H-M   'P 1'
_cell_length_a   7.16821300
_cell_length_b   9.95116700
_cell_length_c   17.51765400
_cell_angle_alpha   90.00000000
_cell_angle_beta   90.00000000
_cell_angle_gamma   90.00000000
_symmetry_Int_Tables_number   1
_chemical_formula_structural   Cu2Ni3C16
_chemical_formula_sum   'Cu8 Ni12 C64'
_cell_volume   1249.57077808
_cell_formula_units_Z   4
loop_
 _symmetry_equiv_pos_site_id
 _symmetry_equiv_pos_as_xyz
  1  'x, y, z'
loop_
 _atom_site_type_symbol
 _atom_site_label
 _atom_site_symmetry_multiplicity
 _atom_site_fract_x
 _atom_site_fract_y
 _atom_site_fract_z
 _atom_site_occupancy
  Ni  Ni0  1  0.84637200  0.78820600  0.25000000  1
  Ni  Ni1  1  0.34637200  0.71179400  0.25000000  1
  Ni  Ni2  1  0.15362800  0.21179400  0.75000000  1
  Ni  Ni3  1  0.65362800  0.28820600  0.75000000  1
  Ni  Ni4  1  0.86279900  0.22981600  0.01800600  1
  Ni  Ni5  1  0.36279900  0.27018400  0.48199400  1
  Ni  Ni6  1  0.13720100  0.77018400  0.51800600  1
  Ni  Ni7  1  0.63720100  0.72981600  0.98199400  1
  Ni  Ni8  1  0.13720100  0.77018400  0.98199400  1
  Ni  Ni9  1  0.63720100  0.72981600  0.51800600  1
  Ni  Ni10  1  0.86279900  0.22981600  0.48199400  1
  Ni  Ni11  1  0.36279900  0.27018400  0.01800600  1
  Cu  Cu12  1  0.89010700  0.93117200  0.08908700  1
  Cu  Cu13  1  0.39010700  0.56882800  0.41091300  1
  Cu  Cu14  1  0.10989300  0.06882800  0.58908700  1
  Cu  Cu15  1  0.60989300  0.43117200  0.91091300  1
  Cu  Cu16  1  0.10989300  0.06882800  0.91091300  1
  Cu  Cu17  1  0.60989300  0.43117200  0.58908700  1
  Cu  Cu18  1  0.89010700  0.93117200  0.41091300  1
  Cu  Cu19  1  0.39010700  0.56882800  0.08908700  1
  C  C20  1  0.60691000  0.20260500  0.02611700  1
  C  C21  1  0.10691000  0.29739500  0.47388300  1
  C  C22  1  0.39309000  0.79739500  0.52611700  1
  C  C23  1  0.89309000  0.70260500  0.97388300  1
  C  C24  1  0.39309000  0.79739500  0.97388300  1
  C  C25  1  0.89309000  0.70260500  0.52611700  1
  C  C26  1  0.60691000  0.20260500  0.47388300  1
  C  C27  1  0.10691000  0.29739500  0.02611700  1
  C  C28  1  0.78624700  0.29753800  0.11886200  1
  C  C29  1  0.28624700  0.20246200  0.38113800  1
  C  C30  1  0.21375300  0.70246200  0.61886200  1
  C  C31  1  0.71375300  0.79753800  0.88113800  1
  C  C32  1  0.21375300  0.70246200  0.88113800  1
  C  C33  1  0.71375300  0.79753800  0.61886200  1
  C  C34  1  0.78624700  0.29753800  0.38113800  1
  C  C35  1  0.28624700  0.20246200  0.11886200  1
  C  C36  1  0.91580800  0.08489400  0.08083400  1
  C  C37  1  0.41580800  0.41510600  0.41916600  1
  C  C38  1  0.08419200  0.91510600  0.58083400  1
  C  C39  1  0.58419200  0.58489400  0.91916600  1
  C  C40  1  0.08419200  0.91510600  0.91916600  1
  C  C41  1  0.58419200  0.58489400  0.58083400  1
  C  C42  1  0.91580800  0.08489400  0.41916600  1
  C  C43  1  0.41580800  0.41510600  0.08083400  1
  C  C44  1  0.60131600  0.73522900  0.25000000  1
  C  C45  1  0.10131600  0.76477100  0.25000000  1
  C  C46  1  0.39868400  0.26477100  0.75000000  1
  C  C47  1  0.89868400  0.23522900  0.75000000  1
  C  C48  1  0.82995700  0.90541500  0.17108300  1
  C  C49  1  0.32995700  0.59458500  0.32891700  1
  C  C50  1  0.17004300  0.09458500  0.67108300  1
  C  C51  1  0.67004300  0.40541500  0.82891700  1
  C  C52  1  0.17004300  0.09458500  0.82891700  1
  C  C53  1  0.67004300  0.40541500  0.67108300  1
  C  C54  1  0.82995700  0.90541500  0.32891700  1
  C  C55  1  0.32995700  0.59458500  0.17108300  1
  C  C56  1  0.57659400  0.63830900  0.07012600  1
  C  C57  1  0.07659400  0.86169100  0.42987400  1
  C  C58  1  0.42340600  0.36169100  0.57012600  1
  C  C59  1  0.92340600  0.13830900  0.92987400  1
  C  C60  1  0.42340600  0.36169100  0.92987400  1
  C  C61  1  0.92340600  0.13830900  0.57012600  1
  C  C62  1  0.57659400  0.63830900  0.42987400  1
  C  C63  1  0.07659400  0.86169100  0.07012600  1
  C  C64  1  0.73670500  0.88150300  0.03168200  1
  C  C65  1  0.23670500  0.61849700  0.46831800  1
  C  C66  1  0.26329500  0.11849700  0.53168200  1
  C  C67  1  0.76329500  0.38150300  0.96831800  1
  C  C68  1  0.26329500  0.11849700  0.96831800  1
  C  C69  1  0.76329500  0.38150300  0.53168200  1
  C  C70  1  0.73670500  0.88150300  0.46831800  1
  C  C71  1  0.23670500  0.61849700  0.03168200  1
  C  C72  1  0.90158600  0.64723500  0.17648300  1
  C  C73  1  0.40158600  0.85276500  0.32351700  1
  C  C74  1  0.09841400  0.35276500  0.67648300  1
  C  C75  1  0.59841400  0.14723500  0.82351700  1
  C  C76  1  0.09841400  0.35276500  0.82351700  1
  C  C77  1  0.59841400  0.14723500  0.67648300  1
  C  C78  1  0.90158600  0.64723500  0.32351700  1
  C  C79  1  0.40158600  0.85276500  0.17648300  1
  C  C80  1  0.75235300  0.23987400  0.25000000  1
  C  C81  1  0.25235300  0.26012600  0.25000000  1
  C  C82  1  0.24764700  0.76012600  0.75000000  1
  C  C83  1  0.74764700  0.73987400  0.75000000  1
