# generated using pymatgen
data_CuNiC7
_symmetry_space_group_name_H-M   'P 1'
_cell_length_a   4.57635000
_cell_length_b   4.57635000
_cell_length_c   9.12640500
_cell_angle_alpha   90.00000000
_cell_angle_beta   90.00000000
_cell_angle_gamma   90.00000000
_symmetry_Int_Tables_number   1
_chemical_formula_structural   CuNiC7
_chemical_formula_sum   'Cu2 Ni2 C14'
_cell_volume   191.13411120
_cell_formula_units_Z   2
loop_
 _symmetry_equiv_pos_site_id
 _symmetry_equiv_pos_as_xyz
  1  'x, y, z'
loop_
 _atom_site_type_symbol
 _atom_site_label
 _atom_site_symmetry_multiplicity
 _atom_site_fract_x
 _atom_site_fract_y
 _atom_site_fract_z
 _atom_site_occupancy
  Ni  Ni0  1  0.50000000  0.50000000  0.16548500  1
  Ni  Ni1  1  0.00000000  0.00000000  0.66548500  1
  Cu  Cu2  1  0.50000000  0.50000000  0.83365200  1
  Cu  Cu3  1  0.00000000  0.00000000  0.33365200  1
  C  C4  1  0.50000000  0.50000000  0.49990000  1
  C  C5  1  0.00000000  0.00000000  0.99990000  1
  C  C6  1  0.19623500  0.80376500  0.49781200  1
  C  C7  1  0.80376500  0.19623500  0.49781200  1
  C  C8  1  0.30376500  0.30376500  0.99781200  1
  C  C9  1  0.69623500  0.69623500  0.99781200  1
  C  C10  1  0.18982700  0.81017300  0.16647700  1
  C  C11  1  0.81017300  0.18982700  0.16647700  1
  C  C12  1  0.31017300  0.31017300  0.66647700  1
  C  C13  1  0.68982700  0.68982700  0.66647700  1
  C  C14  1  0.80342700  0.19657300  0.83619200  1
  C  C15  1  0.19657300  0.80342700  0.83619200  1
  C  C16  1  0.69657300  0.69657300  0.33619200  1
  C  C17  1  0.30342800  0.30342800  0.33619200  1
