# generated using pymatgen
data_Cu6Ni6C13
_symmetry_space_group_name_H-M   'P 1'
_cell_length_a   11.52179400
_cell_length_b   12.60224300
_cell_length_c   13.33450900
_cell_angle_alpha   90.00000000
_cell_angle_beta   90.00000000
_cell_angle_gamma   90.00000000
_symmetry_Int_Tables_number   1
_chemical_formula_structural   Cu6Ni6C13
_chemical_formula_sum   'Cu24 Ni24 C52'
_cell_volume   1936.17667778
_cell_formula_units_Z   4
loop_
 _symmetry_equiv_pos_site_id
 _symmetry_equiv_pos_as_xyz
  1  'x, y, z'
loop_
 _atom_site_type_symbol
 _atom_site_label
 _atom_site_symmetry_multiplicity
 _atom_site_fract_x
 _atom_site_fract_y
 _atom_site_fract_z
 _atom_site_occupancy
  C  C0  1  0.58413000  0.93570500  0.22075700  1
  C  C1  1  0.08413000  0.56429500  0.77924300  1
  C  C2  1  0.41587000  0.43570500  0.27924300  1
  C  C3  1  0.91587000  0.06429500  0.72075700  1
  C  C4  1  0.71489400  0.94267800  0.95418100  1
  C  C5  1  0.21489400  0.55732200  0.04581900  1
  C  C6  1  0.28510600  0.44267800  0.54581900  1
  C  C7  1  0.78510600  0.05732200  0.45418100  1
  C  C8  1  0.28576600  0.92684900  0.48523100  1
  C  C9  1  0.78576600  0.57315100  0.51476900  1
  C  C10  1  0.71423400  0.42684900  0.01476900  1
  C  C11  1  0.21423400  0.07315100  0.98523100  1
  Ni  Ni12  1  0.51379400  0.05754600  0.43752300  1
  Ni  Ni13  1  0.01379400  0.44245400  0.56247700  1
  Ni  Ni14  1  0.48620600  0.55754600  0.06247700  1
  Ni  Ni15  1  0.98620600  0.94245400  0.93752300  1
  Ni  Ni16  1  0.05429700  0.06276800  0.49379100  1
  Ni  Ni17  1  0.55429700  0.43723200  0.50620900  1
  Ni  Ni18  1  0.94570300  0.56276800  0.00620900  1
  Ni  Ni19  1  0.44570300  0.93723200  0.99379100  1
  Ni  Ni20  1  0.53636800  0.01011000  0.54151200  1
  Ni  Ni21  1  0.03636800  0.48989000  0.45848800  1
  Ni  Ni22  1  0.46363200  0.51011000  0.95848800  1
  Ni  Ni23  1  0.96363200  0.98989000  0.04151200  1
  Ni  Ni24  1  0.03886100  0.99325600  0.40057000  1
  Ni  Ni25  1  0.53886100  0.50674400  0.59943000  1
  Ni  Ni26  1  0.96113900  0.49325600  0.09943000  1
  Ni  Ni27  1  0.46113900  0.00674400  0.90057000  1
  Ni  Ni28  1  0.32746500  0.67680600  0.46975700  1
  Ni  Ni29  1  0.82746500  0.82319400  0.53024300  1
  Ni  Ni30  1  0.67253500  0.17680600  0.03024300  1
  Ni  Ni31  1  0.17253500  0.32319400  0.96975700  1
  Ni  Ni32  1  0.24633400  0.68954300  0.55952300  1
  Ni  Ni33  1  0.74633400  0.81045700  0.44047700  1
  Ni  Ni34  1  0.75366600  0.18954300  0.94047700  1
  Ni  Ni35  1  0.25366600  0.31045700  0.05952300  1
  Cu  Cu36  1  0.38229700  0.03721400  0.38191400  1
  Cu  Cu37  1  0.88229700  0.46278600  0.61808600  1
  Cu  Cu38  1  0.61770300  0.53721400  0.11808600  1
  Cu  Cu39  1  0.11770300  0.96278600  0.88191400  1
  Cu  Cu40  1  0.18275800  0.05937500  0.55663300  1
  Cu  Cu41  1  0.68275800  0.44062500  0.44336700  1
  Cu  Cu42  1  0.81724200  0.55937500  0.94336700  1
  Cu  Cu43  1  0.31724200  0.94062500  0.05663300  1
  Cu  Cu44  1  0.42655000  0.94597300  0.60148200  1
  Cu  Cu45  1  0.92655000  0.55402700  0.39851800  1
  Cu  Cu46  1  0.57345000  0.44597300  0.89851800  1
  Cu  Cu47  1  0.07345000  0.05402700  0.10148200  1
  Cu  Cu48  1  0.14810400  0.90979300  0.36677800  1
  Cu  Cu49  1  0.64810400  0.59020700  0.63322200  1
  Cu  Cu50  1  0.85189600  0.40979300  0.13322200  1
  Cu  Cu51  1  0.35189600  0.09020700  0.86677800  1
  Cu  Cu52  1  0.37692600  0.78890600  0.41261600  1
  Cu  Cu53  1  0.87692600  0.71109400  0.58738400  1
  Cu  Cu54  1  0.62307400  0.28890600  0.08738400  1
  Cu  Cu55  1  0.12307400  0.21109400  0.91261600  1
  Cu  Cu56  1  0.19835000  0.81251300  0.58994800  1
  Cu  Cu57  1  0.69835000  0.68748700  0.41005200  1
  Cu  Cu58  1  0.80165000  0.31251300  0.91005200  1
  Cu  Cu59  1  0.30165000  0.18748700  0.08994800  1
  C  C60  1  0.59608500  0.10710300  0.39609800  1
  C  C61  1  0.09608500  0.39289700  0.60390200  1
  C  C62  1  0.40391500  0.60710300  0.10390200  1
  C  C63  1  0.90391500  0.89289700  0.89609800  1
  C  C64  1  0.96837100  0.11887300  0.52060100  1
  C  C65  1  0.46837100  0.38112700  0.47939900  1
  C  C66  1  0.03162900  0.61887300  0.97939900  1
  C  C67  1  0.53162900  0.88112700  0.02060100  1
  C  C68  1  0.63717900  0.02037800  0.57601000  1
  C  C69  1  0.13717900  0.47962200  0.42399000  1
  C  C70  1  0.36282100  0.52037800  0.92399000  1
  C  C71  1  0.86282100  0.97962200  0.07601000  1
  C  C72  1  0.94388300  0.99990700  0.35503900  1
  C  C73  1  0.44388300  0.50009300  0.64496100  1
  C  C74  1  0.05611700  0.49990700  0.14496100  1
  C  C75  1  0.55611700  0.00009300  0.85503900  1
  C  C76  1  0.35519900  0.58424700  0.44303900  1
  C  C77  1  0.85519900  0.91575300  0.55696100  1
  C  C78  1  0.64480100  0.08424700  0.05696100  1
  C  C79  1  0.14480100  0.41575300  0.94303900  1
  C  C80  1  0.21665200  0.60674100  0.60700100  1
  C  C81  1  0.71665200  0.89325900  0.39299900  1
  C  C82  1  0.78334800  0.10674100  0.89299900  1
  C  C83  1  0.28334800  0.39325900  0.10700100  1
  C  C84  1  0.38134500  0.72767700  0.82443200  1
  C  C85  1  0.88134500  0.77232300  0.17556800  1
  C  C86  1  0.61865500  0.22767700  0.67556800  1
  C  C87  1  0.11865500  0.27232300  0.32443200  1
  C  C88  1  0.64681700  0.77362400  0.82597800  1
  C  C89  1  0.14681700  0.72637600  0.17402200  1
  C  C90  1  0.35318300  0.27362400  0.67402200  1
  C  C91  1  0.85318300  0.22637600  0.32597800  1
  C  C92  1  0.28932900  0.72082800  0.87098200  1
  C  C93  1  0.78932900  0.77917200  0.12901800  1
  C  C94  1  0.71067100  0.22082800  0.62901800  1
  C  C95  1  0.21067100  0.27917200  0.37098200  1
  C  C96  1  0.69918900  0.82801400  0.76331500  1
  C  C97  1  0.19918900  0.67198600  0.23668500  1
  C  C98  1  0.30081100  0.32801400  0.73668500  1
  C  C99  1  0.80081100  0.17198600  0.26331500  1
