# generated using pymatgen
data_Cu8Ni2C
_symmetry_space_group_name_H-M   'P 1'
_cell_length_a   5.59987400
_cell_length_b   5.59987400
_cell_length_c   5.95287500
_cell_angle_alpha   90.00000000
_cell_angle_beta   90.00000000
_cell_angle_gamma   90.00000000
_symmetry_Int_Tables_number   1
_chemical_formula_structural   Cu8Ni2C
_chemical_formula_sum   'Cu16 Ni4 C2'
_cell_volume   186.67375940
_cell_formula_units_Z   2
loop_
 _symmetry_equiv_pos_site_id
 _symmetry_equiv_pos_as_xyz
  1  'x, y, z'
loop_
 _atom_site_type_symbol
 _atom_site_label
 _atom_site_symmetry_multiplicity
 _atom_site_fract_x
 _atom_site_fract_y
 _atom_site_fract_z
 _atom_site_occupancy
  C  C0  1  0.50000000  0.50000000  0.00000000  1
  C  C1  1  0.00000000  0.00000000  0.50000000  1
  Ni  Ni2  1  0.25159200  0.24840800  0.25000000  1
  Ni  Ni3  1  0.24840800  0.74840800  0.75000000  1
  Ni  Ni4  1  0.75159200  0.25159200  0.75000000  1
  Ni  Ni5  1  0.74840800  0.75159200  0.25000000  1
  Cu  Cu6  1  0.46570300  0.28092000  0.28616600  1
  Cu  Cu7  1  0.03429700  0.78092000  0.78616600  1
  Cu  Cu8  1  0.71908000  0.46570300  0.71383400  1
  Cu  Cu9  1  0.78092000  0.96570300  0.21383400  1
  Cu  Cu10  1  0.53429700  0.71908000  0.28616600  1
  Cu  Cu11  1  0.96570300  0.21908000  0.78616600  1
  Cu  Cu12  1  0.28092000  0.53429700  0.71383400  1
  Cu  Cu13  1  0.21908000  0.03429700  0.21383400  1
  Cu  Cu14  1  0.67507500  0.13971600  0.58678700  1
  Cu  Cu15  1  0.82492500  0.63971600  0.08678700  1
  Cu  Cu16  1  0.86028400  0.67507500  0.41321300  1
  Cu  Cu17  1  0.63971600  0.17507500  0.91321300  1
  Cu  Cu18  1  0.32492500  0.86028400  0.58678700  1
  Cu  Cu19  1  0.17507500  0.36028400  0.08678700  1
  Cu  Cu20  1  0.13971600  0.32492500  0.41321300  1
  Cu  Cu21  1  0.36028400  0.82492500  0.91321300  1
