# generated using pymatgen
data_CuNi7C6
_symmetry_space_group_name_H-M   'P 1'
_cell_length_a   10.18855800
_cell_length_b   5.55789200
_cell_length_c   12.58375700
_cell_angle_alpha   90.00000000
_cell_angle_beta   90.00000000
_cell_angle_gamma   90.00000000
_symmetry_Int_Tables_number   1
_chemical_formula_structural   CuNi7C6
_chemical_formula_sum   'Cu4 Ni28 C24'
_cell_volume   712.57921218
_cell_formula_units_Z   4
loop_
 _symmetry_equiv_pos_site_id
 _symmetry_equiv_pos_as_xyz
  1  'x, y, z'
loop_
 _atom_site_type_symbol
 _atom_site_label
 _atom_site_symmetry_multiplicity
 _atom_site_fract_x
 _atom_site_fract_y
 _atom_site_fract_z
 _atom_site_occupancy
  Ni  Ni0  1  0.98398000  0.72651800  0.04094700  1
  Ni  Ni1  1  0.51602000  0.77348200  0.54094700  1
  Ni  Ni2  1  0.48398000  0.77348200  0.95905300  1
  Ni  Ni3  1  0.01602000  0.72651800  0.45905300  1
  Ni  Ni4  1  0.01602000  0.27348200  0.95905300  1
  Ni  Ni5  1  0.48398000  0.22651800  0.45905300  1
  Ni  Ni6  1  0.51602000  0.22651800  0.04094700  1
  Ni  Ni7  1  0.98398000  0.27348200  0.54094700  1
  Ni  Ni8  1  0.23865000  0.64049300  0.65480800  1
  Ni  Ni9  1  0.26135000  0.85950700  0.15480800  1
  Ni  Ni10  1  0.73865000  0.85950700  0.34519200  1
  Ni  Ni11  1  0.76135000  0.64049300  0.84519200  1
  Ni  Ni12  1  0.76135000  0.35950700  0.34519200  1
  Ni  Ni13  1  0.73865000  0.14049300  0.84519200  1
  Ni  Ni14  1  0.26135000  0.14049300  0.65480800  1
  Ni  Ni15  1  0.23865000  0.35950700  0.15480800  1
  Ni  Ni16  1  0.21341200  0.72191000  0.92074800  1
  Ni  Ni17  1  0.28658800  0.77809000  0.42074800  1
  Ni  Ni18  1  0.71341200  0.77809000  0.07925200  1
  Ni  Ni19  1  0.78658800  0.72191000  0.57925200  1
  Ni  Ni20  1  0.78658800  0.27809000  0.07925200  1
  Ni  Ni21  1  0.71341200  0.22191000  0.57925200  1
  Ni  Ni22  1  0.28658800  0.22191000  0.92074800  1
  Ni  Ni23  1  0.21341200  0.27809000  0.42074800  1
  Ni  Ni24  1  0.00000000  0.42209400  0.75000000  1
  Ni  Ni25  1  0.50000000  0.07790600  0.25000000  1
  Ni  Ni26  1  0.00000000  0.57790600  0.25000000  1
  Ni  Ni27  1  0.50000000  0.92209400  0.75000000  1
  Cu  Cu28  1  0.00000000  0.91627300  0.75000000  1
  Cu  Cu29  1  0.50000000  0.58372700  0.25000000  1
  Cu  Cu30  1  0.00000000  0.08372700  0.25000000  1
  Cu  Cu31  1  0.50000000  0.41627300  0.75000000  1
  C  C32  1  0.12723200  0.71301700  0.78250100  1
  C  C33  1  0.37276800  0.78698300  0.28250100  1
  C  C34  1  0.62723200  0.78698300  0.21749900  1
  C  C35  1  0.87276800  0.71301700  0.71749900  1
  C  C36  1  0.87276800  0.28698300  0.21749900  1
  C  C37  1  0.62723200  0.21301700  0.71749900  1
  C  C38  1  0.37276800  0.21301700  0.78250100  1
  C  C39  1  0.12723200  0.28698300  0.28250100  1
  C  C40  1  0.16791200  0.56809000  0.51053100  1
  C  C41  1  0.33208800  0.93191000  0.01053100  1
  C  C42  1  0.66791200  0.93191000  0.48946900  1
  C  C43  1  0.83208800  0.56809000  0.98946900  1
  C  C44  1  0.83208800  0.43191000  0.48946900  1
  C  C45  1  0.66791200  0.06809000  0.98946900  1
  C  C46  1  0.33208800  0.06809000  0.51053100  1
  C  C47  1  0.16791200  0.43191000  0.01053100  1
  C  C48  1  0.43514900  0.62173100  0.65652300  1
  C  C49  1  0.06485100  0.87826900  0.15652300  1
  C  C50  1  0.93514900  0.87826900  0.34347700  1
  C  C51  1  0.56485100  0.62173100  0.84347700  1
  C  C52  1  0.56485100  0.37826900  0.34347700  1
  C  C53  1  0.93514900  0.12173100  0.84347700  1
  C  C54  1  0.06485100  0.12173100  0.65652300  1
  C  C55  1  0.43514900  0.37826900  0.15652300  1
