# generated using pymatgen
data_CuNi14C
_symmetry_space_group_name_H-M   'P 1'
_cell_length_a   6.50475548
_cell_length_b   6.57983543
_cell_length_c   10.32971809
_cell_angle_alpha   90.00000000
_cell_angle_beta   90.00000000
_cell_angle_gamma   120.38256253
_symmetry_Int_Tables_number   1
_chemical_formula_structural   CuNi14C
_chemical_formula_sum   'Cu1 Ni14 C1'
_cell_volume   381.39762326
_cell_formula_units_Z   1
loop_
 _symmetry_equiv_pos_site_id
 _symmetry_equiv_pos_as_xyz
  1  'x, y, z'
loop_
 _atom_site_type_symbol
 _atom_site_label
 _atom_site_symmetry_multiplicity
 _atom_site_fract_x
 _atom_site_fract_y
 _atom_site_fract_z
 _atom_site_occupancy
  C  C0  1  0.16778174  0.33389037  0.12500000  1
  Ni  Ni1  1  0.16647852  0.33323876  0.62500000  1
  Ni  Ni2  1  0.16561749  0.83280824  0.62500000  1
  Ni  Ni3  1  0.66523320  0.33492945  0.12500000  1
  Ni  Ni4  1  0.66756466  0.33513740  0.62500000  1
  Ni  Ni5  1  0.66523320  0.83030274  0.12500000  1
  Ni  Ni6  1  0.66756466  0.83242626  0.62500000  1
  Ni  Ni7  1  0.33237223  0.15880211  0.37953681  1
  Ni  Ni8  1  0.33237223  0.15880211  0.87046319  1
  Ni  Ni9  1  0.33237223  0.67357112  0.37953681  1
  Ni  Ni10  1  0.33237223  0.67357112  0.87046319  1
  Ni  Ni11  1  0.82376323  0.16188212  0.38054755  1
  Ni  Ni12  1  0.82376323  0.16188212  0.86945245  1
  Ni  Ni13  1  0.83681477  0.66840788  0.37117384  1
  Ni  Ni14  1  0.83681477  0.66840788  0.87882616  1
  Cu  Cu15  1  0.18388164  0.84194032  0.12500000  1
