# generated using pymatgen
data_Cu5(NiC2)2
_symmetry_space_group_name_H-M   'P 1'
_cell_length_a   6.65907700
_cell_length_b   10.26180700
_cell_length_c   13.47424900
_cell_angle_alpha   90.00000000
_cell_angle_beta   90.00000000
_cell_angle_gamma   90.00000000
_symmetry_Int_Tables_number   1
_chemical_formula_structural   Cu5(NiC2)2
_chemical_formula_sum   'Cu20 Ni8 C16'
_cell_volume   920.75152709
_cell_formula_units_Z   4
loop_
 _symmetry_equiv_pos_site_id
 _symmetry_equiv_pos_as_xyz
  1  'x, y, z'
loop_
 _atom_site_type_symbol
 _atom_site_label
 _atom_site_symmetry_multiplicity
 _atom_site_fract_x
 _atom_site_fract_y
 _atom_site_fract_z
 _atom_site_occupancy
  C  C0  1  0.95650000  0.75000000  0.92394700  1
  C  C1  1  0.54350000  0.75000000  0.42394700  1
  C  C2  1  0.04350000  0.25000000  0.07605300  1
  C  C3  1  0.45650000  0.25000000  0.57605300  1
  C  C4  1  0.15121300  0.75000000  0.99675300  1
  C  C5  1  0.34878700  0.75000000  0.49675300  1
  C  C6  1  0.84878700  0.25000000  0.00324700  1
  C  C7  1  0.65121300  0.25000000  0.50324700  1
  C  C8  1  0.80229300  0.75000000  0.11845000  1
  C  C9  1  0.69770700  0.75000000  0.61845000  1
  C  C10  1  0.19770700  0.25000000  0.88155000  1
  C  C11  1  0.30229300  0.25000000  0.38155000  1
  Ni  Ni12  1  0.34157900  0.49878100  0.14523100  1
  Ni  Ni13  1  0.15842100  0.00121900  0.64523100  1
  Ni  Ni14  1  0.65842100  0.99878100  0.85476900  1
  Ni  Ni15  1  0.84157900  0.50121900  0.35476900  1
  Ni  Ni16  1  0.65842100  0.50121900  0.85476900  1
  Ni  Ni17  1  0.84157900  0.99878100  0.35476900  1
  Ni  Ni18  1  0.34157900  0.00121900  0.14523100  1
  Ni  Ni19  1  0.15842100  0.49878100  0.64523100  1
  Cu  Cu20  1  0.54928100  0.75000000  0.00031500  1
  Cu  Cu21  1  0.95071900  0.75000000  0.50031500  1
  Cu  Cu22  1  0.45071900  0.25000000  0.99968500  1
  Cu  Cu23  1  0.04928100  0.25000000  0.49968500  1
  Cu  Cu24  1  0.58805700  0.75000000  0.24695500  1
  Cu  Cu25  1  0.91194300  0.75000000  0.74695500  1
  Cu  Cu26  1  0.41194300  0.25000000  0.75304500  1
  Cu  Cu27  1  0.08805700  0.25000000  0.25304500  1
  Cu  Cu28  1  0.08223400  0.75000000  0.21535300  1
  Cu  Cu29  1  0.41776600  0.75000000  0.71535300  1
  Cu  Cu30  1  0.91776600  0.25000000  0.78464700  1
  Cu  Cu31  1  0.58223400  0.25000000  0.28464700  1
  Cu  Cu32  1  0.80862100  0.52630400  0.11238600  1
  Cu  Cu33  1  0.69137900  0.97369600  0.61238600  1
  Cu  Cu34  1  0.19137900  0.02630400  0.88761400  1
  Cu  Cu35  1  0.30862100  0.47369600  0.38761400  1
  Cu  Cu36  1  0.19137900  0.47369600  0.88761400  1
  Cu  Cu37  1  0.30862100  0.02630400  0.38761400  1
  Cu  Cu38  1  0.80862100  0.97369600  0.11238600  1
  Cu  Cu39  1  0.69137900  0.52630400  0.61238600  1
  C  C40  1  0.00443300  0.75000000  0.99244800  1
  C  C41  1  0.49556700  0.75000000  0.49244800  1
  C  C42  1  0.99556700  0.25000000  0.00755200  1
  C  C43  1  0.50443300  0.25000000  0.50755200  1
