# generated using pymatgen
data_CuNiC29
_symmetry_space_group_name_H-M   'P 1'
_cell_length_a   4.19958000
_cell_length_b   8.37208000
_cell_length_c   10.69363700
_cell_angle_alpha   90.00000000
_cell_angle_beta   90.00000000
_cell_angle_gamma   90.00000000
_symmetry_Int_Tables_number   1
_chemical_formula_structural   CuNiC29
_chemical_formula_sum   'Cu1 Ni1 C29'
_cell_volume   375.97993296
_cell_formula_units_Z   1
loop_
 _symmetry_equiv_pos_site_id
 _symmetry_equiv_pos_as_xyz
  1  'x, y, z'
loop_
 _atom_site_type_symbol
 _atom_site_label
 _atom_site_symmetry_multiplicity
 _atom_site_fract_x
 _atom_site_fract_y
 _atom_site_fract_z
 _atom_site_occupancy
  Ni  Ni0  1  0.00000000  0.50000000  0.43855000  1
  Cu  Cu1  1  0.00000000  0.00000000  0.02292800  1
  C  C2  1  0.00000000  0.50000000  0.97922000  1
  C  C3  1  0.00000000  0.00000000  0.48266700  1
  C  C4  1  0.50000000  0.75957500  0.98504400  1
  C  C5  1  0.50000000  0.24042500  0.98504400  1
  C  C6  1  0.50000000  0.75822700  0.57697600  1
  C  C7  1  0.50000000  0.24177300  0.57697600  1
  C  C8  1  0.50000000  0.00000000  0.79185800  1
  C  C9  1  0.50000000  0.50000000  0.77253800  1
  C  C10  1  0.50000000  0.00000000  0.27228300  1
  C  C11  1  0.50000000  0.50000000  0.16885700  1
  C  C12  1  0.00000000  0.72952400  0.77041900  1
  C  C13  1  0.00000000  0.27047600  0.77041900  1
  C  C14  1  0.00000000  0.75126300  0.18172000  1
  C  C15  1  0.00000000  0.24873700  0.18172000  1
  C  C16  1  0.00000000  0.50000000  0.78943600  1
  C  C17  1  0.00000000  0.00000000  0.25768900  1
  C  C18  1  0.00000000  0.50000000  0.17597100  1
  C  C19  1  0.50000000  0.76793300  0.77163800  1
  C  C20  1  0.50000000  0.23206700  0.77163800  1
  C  C21  1  0.50000000  0.75122100  0.19324000  1
  C  C22  1  0.50000000  0.24877900  0.19324000  1
  C  C23  1  0.50000000  0.00000000  0.96828200  1
  C  C24  1  0.50000000  0.50000000  0.97690000  1
  C  C25  1  0.50000000  0.00000000  0.46938000  1
  C  C26  1  0.50000000  0.50000000  0.58594800  1
  C  C27  1  0.00000000  0.74505200  0.98008100  1
  C  C28  1  0.00000000  0.25494800  0.98008100  1
  C  C29  1  0.00000000  0.80262600  0.58962800  1
  C  C30  1  0.00000000  0.19737400  0.58962800  1
