# generated using pymatgen
data_Cu6Ni2C
_symmetry_space_group_name_H-M   'P 1'
_cell_length_a   7.59773120
_cell_length_b   7.59773120
_cell_length_c   18.28346200
_cell_angle_alpha   90.00000000
_cell_angle_beta   90.00000000
_cell_angle_gamma   119.99999304
_symmetry_Int_Tables_number   1
_chemical_formula_structural   Cu6Ni2C
_chemical_formula_sum   'Cu36 Ni12 C6'
_cell_volume   914.02262254
_cell_formula_units_Z   6
loop_
 _symmetry_equiv_pos_site_id
 _symmetry_equiv_pos_as_xyz
  1  'x, y, z'
loop_
 _atom_site_type_symbol
 _atom_site_label
 _atom_site_symmetry_multiplicity
 _atom_site_fract_x
 _atom_site_fract_y
 _atom_site_fract_z
 _atom_site_occupancy
  C  C0  1  0.00000000  0.51087100  0.83333300  1
  C  C1  1  0.48912900  0.48912900  0.50000000  1
  C  C2  1  0.51087100  0.00000000  0.16666700  1
  C  C3  1  0.98592000  0.98592000  0.00000000  1
  C  C4  1  0.01408000  0.00000000  0.66666700  1
  C  C5  1  0.00000000  0.01408000  0.33333300  1
  Ni  Ni6  1  0.25386000  0.94727600  0.89243000  1
  Ni  Ni7  1  0.05272400  0.30658300  0.55909700  1
  Ni  Ni8  1  0.69341700  0.74614000  0.22576400  1
  Ni  Ni9  1  0.94727600  0.25386000  0.10757000  1
  Ni  Ni10  1  0.30658300  0.05272400  0.44090300  1
  Ni  Ni11  1  0.74614000  0.69341700  0.77423600  1
  Ni  Ni12  1  0.78480400  0.09862600  0.89415800  1
  Ni  Ni13  1  0.90137400  0.68617800  0.56082400  1
  Ni  Ni14  1  0.31382200  0.21519600  0.22749100  1
  Ni  Ni15  1  0.09862600  0.78480400  0.10584200  1
  Ni  Ni16  1  0.68617800  0.90137400  0.43917600  1
  Ni  Ni17  1  0.21519600  0.31382200  0.77250900  1
  Cu  Cu18  1  0.31607300  0.11660900  0.91820200  1
  Cu  Cu19  1  0.88339100  0.19946400  0.58486900  1
  Cu  Cu20  1  0.80053600  0.68392700  0.25153500  1
  Cu  Cu21  1  0.11660900  0.31607300  0.08179800  1
  Cu  Cu22  1  0.19946400  0.88339100  0.41513100  1
  Cu  Cu23  1  0.68392700  0.80053600  0.74846500  1
  Cu  Cu24  1  0.08212500  0.80258900  0.91578000  1
  Cu  Cu25  1  0.19741100  0.27953600  0.58244700  1
  Cu  Cu26  1  0.72046400  0.91787500  0.24911400  1
  Cu  Cu27  1  0.80258900  0.08212500  0.08422000  1
  Cu  Cu28  1  0.27953600  0.19741100  0.41755300  1
  Cu  Cu29  1  0.91787500  0.72046400  0.75088600  1
  Cu  Cu30  1  0.70432800  0.91982400  0.91908800  1
  Cu  Cu31  1  0.08017600  0.78450400  0.58575500  1
  Cu  Cu32  1  0.21549600  0.29567200  0.25242100  1
  Cu  Cu33  1  0.91982400  0.70432800  0.08091200  1
  Cu  Cu34  1  0.78450400  0.08017600  0.41424500  1
  Cu  Cu35  1  0.29567200  0.21549600  0.74757900  1
  Cu  Cu36  1  0.96085600  0.23455700  0.92058800  1
  Cu  Cu37  1  0.76544300  0.72629900  0.58725500  1
  Cu  Cu38  1  0.27370100  0.03914400  0.25392200  1
  Cu  Cu39  1  0.23455700  0.96085600  0.07941200  1
  Cu  Cu40  1  0.72629900  0.76544300  0.41274500  1
  Cu  Cu41  1  0.03914400  0.27370100  0.74607800  1
  Cu  Cu42  1  0.29223400  0.80453500  0.77966800  1
  Cu  Cu43  1  0.19546500  0.48769900  0.44633400  1
  Cu  Cu44  1  0.51230100  0.70776600  0.11300100  1
  Cu  Cu45  1  0.80453500  0.29223400  0.22033200  1
  Cu  Cu46  1  0.48769900  0.19546500  0.55366600  1
  Cu  Cu47  1  0.70776600  0.51230100  0.88699900  1
  Cu  Cu48  1  0.29440800  0.44542600  0.82169100  1
  Cu  Cu49  1  0.55457400  0.84898200  0.48835800  1
  Cu  Cu50  1  0.15101800  0.70559200  0.15502400  1
  Cu  Cu51  1  0.44542600  0.29440800  0.17830900  1
  Cu  Cu52  1  0.84898200  0.55457400  0.51164200  1
  Cu  Cu53  1  0.70559200  0.15101800  0.84497600  1
