# generated using pymatgen
data_Cu3Ni3C2
_symmetry_space_group_name_H-M   'P 1'
_cell_length_a   8.44745900
_cell_length_b   8.44745900
_cell_length_c   8.44745900
_cell_angle_alpha   90.00000000
_cell_angle_beta   90.00000000
_cell_angle_gamma   90.00000000
_symmetry_Int_Tables_number   1
_chemical_formula_structural   Cu3Ni3C2
_chemical_formula_sum   'Cu12 Ni12 C8'
_cell_volume   602.80698740
_cell_formula_units_Z   4
loop_
 _symmetry_equiv_pos_site_id
 _symmetry_equiv_pos_as_xyz
  1  'x, y, z'
loop_
 _atom_site_type_symbol
 _atom_site_label
 _atom_site_symmetry_multiplicity
 _atom_site_fract_x
 _atom_site_fract_y
 _atom_site_fract_z
 _atom_site_occupancy
  Ni  Ni0  1  0.66978800  0.00000000  0.14696900  1
  Ni  Ni1  1  0.33021200  0.00000000  0.85303100  1
  Ni  Ni2  1  0.33021200  0.00000000  0.14696900  1
  Ni  Ni3  1  0.66978800  0.00000000  0.85303100  1
  Ni  Ni4  1  0.14696900  0.66978800  0.00000000  1
  Ni  Ni5  1  0.85303100  0.33021200  0.00000000  1
  Ni  Ni6  1  0.14696900  0.33021200  0.00000000  1
  Ni  Ni7  1  0.85303100  0.66978800  0.00000000  1
  Ni  Ni8  1  0.00000000  0.14696900  0.66978800  1
  Ni  Ni9  1  0.00000000  0.85303100  0.33021200  1
  Ni  Ni10  1  0.00000000  0.14696900  0.33021200  1
  Ni  Ni11  1  0.00000000  0.85303100  0.66978800  1
  C  C12  1  0.73603600  0.26396400  0.26396400  1
  C  C13  1  0.26396400  0.26396400  0.73603600  1
  C  C14  1  0.26396400  0.73603600  0.26396400  1
  C  C15  1  0.73603600  0.73603600  0.73603600  1
  C  C16  1  0.26396400  0.73603600  0.73603600  1
  C  C17  1  0.73603600  0.73603600  0.26396400  1
  C  C18  1  0.73603600  0.26396400  0.73603600  1
  C  C19  1  0.26396400  0.26396400  0.26396400  1
  Cu  Cu20  1  0.17006000  0.50000000  0.62404300  1
  Cu  Cu21  1  0.82994000  0.50000000  0.37595700  1
  Cu  Cu22  1  0.82994000  0.50000000  0.62404300  1
  Cu  Cu23  1  0.17006000  0.50000000  0.37595700  1
  Cu  Cu24  1  0.62404300  0.17006000  0.50000000  1
  Cu  Cu25  1  0.37595700  0.82994000  0.50000000  1
  Cu  Cu26  1  0.62404300  0.82994000  0.50000000  1
  Cu  Cu27  1  0.37595700  0.17006000  0.50000000  1
  Cu  Cu28  1  0.50000000  0.62404300  0.17006000  1
  Cu  Cu29  1  0.50000000  0.37595700  0.82994000  1
  Cu  Cu30  1  0.50000000  0.62404300  0.82994000  1
  Cu  Cu31  1  0.50000000  0.37595700  0.17006000  1
