# generated using pymatgen
data_Cu3NiC16
_symmetry_space_group_name_H-M   'P 1'
_cell_length_a   6.42450034
_cell_length_b   6.42450034
_cell_length_c   6.42450034
_cell_angle_alpha   109.47122063
_cell_angle_beta   109.47122063
_cell_angle_gamma   109.47122063
_symmetry_Int_Tables_number   1
_chemical_formula_structural   Cu3NiC16
_chemical_formula_sum   'Cu3 Ni1 C16'
_cell_volume   204.12499086
_cell_formula_units_Z   1
loop_
 _symmetry_equiv_pos_site_id
 _symmetry_equiv_pos_as_xyz
  1  'x, y, z'
loop_
 _atom_site_type_symbol
 _atom_site_label
 _atom_site_symmetry_multiplicity
 _atom_site_fract_x
 _atom_site_fract_y
 _atom_site_fract_z
 _atom_site_occupancy
  Ni  Ni0  1  0.00000000  0.00000000  0.00000000  1
  C  C1  1  0.00000000  0.00000000  0.50000000  1
  C  C2  1  0.00000000  0.50000000  0.00000000  1
  C  C3  1  0.50000000  0.00000000  0.00000000  1
  C  C4  1  0.50000000  0.50000000  0.50000000  1
  Cu  Cu5  1  0.00000000  0.50000000  0.50000000  1
  Cu  Cu6  1  0.50000000  0.00000000  0.50000000  1
  Cu  Cu7  1  0.50000000  0.50000000  0.00000000  1
  C  C8  1  0.30537600  0.14306000  0.83768400  1
  C  C9  1  0.69462400  0.85694000  0.16231600  1
  C  C10  1  0.69462400  0.53230800  0.83768400  1
  C  C11  1  0.46769200  0.16231600  0.30537600  1
  C  C12  1  0.16231600  0.30537600  0.46769200  1
  C  C13  1  0.83768400  0.30537600  0.14306000  1
  C  C14  1  0.85694000  0.16231600  0.69462400  1
  C  C15  1  0.83768400  0.69462400  0.53230800  1
  C  C16  1  0.30537600  0.46769200  0.16231600  1
  C  C17  1  0.53230800  0.83768400  0.69462400  1
  C  C18  1  0.16231600  0.69462400  0.85694000  1
  C  C19  1  0.14306000  0.83768400  0.30537600  1
