# generated using pymatgen
data_Cu(NiC9)2
_symmetry_space_group_name_H-M   'P 1'
_cell_length_a   6.82219900
_cell_length_b   9.29088700
_cell_length_c   9.30084319
_cell_angle_alpha   60.38977490
_cell_angle_beta   90.00000000
_cell_angle_gamma   90.00000000
_symmetry_Int_Tables_number   1
_chemical_formula_structural   Cu(NiC9)2
_chemical_formula_sum   'Cu2 Ni4 C36'
_cell_volume   512.53897909
_cell_formula_units_Z   2
loop_
 _symmetry_equiv_pos_site_id
 _symmetry_equiv_pos_as_xyz
  1  'x, y, z'
loop_
 _atom_site_type_symbol
 _atom_site_label
 _atom_site_symmetry_multiplicity
 _atom_site_fract_x
 _atom_site_fract_y
 _atom_site_fract_z
 _atom_site_occupancy
  C  C0  1  0.73990300  0.34478500  0.33248600  1
  C  C1  1  0.26003700  0.65366100  0.67761300  1
  C  C2  1  0.73996300  0.65366100  0.67761300  1
  C  C3  1  0.26009700  0.34478500  0.33248600  1
  C  C4  1  0.50000000  0.75277800  0.23353200  1
  C  C5  1  0.50000000  0.99033500  0.77401200  1
  C  C6  1  0.50000000  0.24799600  0.98256100  1
  C  C7  1  0.00000000  0.24330000  0.76359300  1
  C  C8  1  0.00000000  0.99383200  0.23680900  1
  C  C9  1  0.00000000  0.76444600  0.98776500  1
  Ni  Ni10  1  0.50000000  0.96936700  0.39946100  1
  Ni  Ni11  1  0.00000000  0.36746400  0.03282800  1
  Ni  Ni12  1  0.00000000  0.59908500  0.37390600  1
  Ni  Ni13  1  0.00000000  0.02933200  0.59828500  1
  Cu  Cu14  1  0.50000000  0.63078000  0.97033600  1
  Cu  Cu15  1  0.50000000  0.40919200  0.62383500  1
  C  C16  1  0.69225500  0.90517800  0.34146100  1
  C  C17  1  0.67980300  0.74037500  0.91337300  1
  C  C18  1  0.68020200  0.35531500  0.73613800  1
  C  C19  1  0.19177200  0.09229600  0.65932000  1
  C  C20  1  0.19174300  0.24583900  0.09215400  1
  C  C21  1  0.18933700  0.65413500  0.24982600  1
  C  C22  1  0.80822800  0.09229600  0.65932000  1
  C  C23  1  0.80825700  0.24583900  0.09215400  1
  C  C24  1  0.81066300  0.65413500  0.24982600  1
  C  C25  1  0.30774500  0.90517800  0.34146100  1
  C  C26  1  0.32019700  0.74037500  0.91337300  1
  C  C27  1  0.31979800  0.35531500  0.73613800  1
  C  C28  1  0.50000000  0.52010600  0.15412800  1
  C  C29  1  0.50000000  0.34463100  0.50699500  1
  C  C30  1  0.50000000  0.16933800  0.32799300  1
  C  C31  1  0.00000000  0.48509200  0.83328800  1
  C  C32  1  0.00000000  0.67772800  0.49408100  1
  C  C33  1  0.00000000  0.82836000  0.68166800  1
  C  C34  1  0.50000000  0.53386900  0.88056600  1
  C  C35  1  0.50000000  0.59530300  0.53431700  1
  C  C36  1  0.50000000  0.86709000  0.60215700  1
  C  C37  1  0.00000000  0.47162400  0.13241800  1
  C  C38  1  0.00000000  0.39545500  0.47314700  1
  C  C39  1  0.00000000  0.13327900  0.39498500  1
  C  C40  1  0.50000000  0.99768000  0.00587100  1
  C  C41  1  0.00000000  0.99937100  0.99672000  1
