# generated using pymatgen
data_Cu9(NiC2)2
_symmetry_space_group_name_H-M   'P 1'
_cell_length_a   9.51280176
_cell_length_b   9.51280176
_cell_length_c   7.86488994
_cell_angle_alpha   66.04953094
_cell_angle_beta   66.04953094
_cell_angle_gamma   92.38562587
_symmetry_Int_Tables_number   1
_chemical_formula_structural   Cu9(NiC2)2
_chemical_formula_sum   'Cu18 Ni4 C8'
_cell_volume   575.99388177
_cell_formula_units_Z   2
loop_
 _symmetry_equiv_pos_site_id
 _symmetry_equiv_pos_as_xyz
  1  'x, y, z'
loop_
 _atom_site_type_symbol
 _atom_site_label
 _atom_site_symmetry_multiplicity
 _atom_site_fract_x
 _atom_site_fract_y
 _atom_site_fract_z
 _atom_site_occupancy
  C  C0  1  0.19007900  0.80992100  0.25000000  1
  C  C1  1  0.80992100  0.19007900  0.75000000  1
  C  C2  1  0.84658900  0.15341100  0.25000000  1
  C  C3  1  0.15341100  0.84658900  0.75000000  1
  C  C4  1  0.55103700  0.74562400  0.40984600  1
  C  C5  1  0.44896300  0.25437600  0.59015400  1
  C  C6  1  0.25437600  0.44896300  0.09015400  1
  C  C7  1  0.74562400  0.55103700  0.90984600  1
  Ni  Ni8  1  0.48364700  0.15284400  0.14959900  1
  Ni  Ni9  1  0.51635300  0.84715600  0.85040100  1
  Ni  Ni10  1  0.84715600  0.51635300  0.35040100  1
  Ni  Ni11  1  0.15284400  0.48364700  0.64959900  1
  Cu  Cu12  1  0.38158200  0.02747000  0.31016200  1
  Cu  Cu13  1  0.61841800  0.97253000  0.68983800  1
  Cu  Cu14  1  0.97253000  0.61841800  0.18983800  1
  Cu  Cu15  1  0.02747000  0.38158200  0.81016200  1
  Cu  Cu16  1  0.55105700  0.78391800  0.01111700  1
  Cu  Cu17  1  0.44894300  0.21608200  0.98888300  1
  Cu  Cu18  1  0.21608200  0.44894300  0.48888300  1
  Cu  Cu19  1  0.78391800  0.55105700  0.51111700  1
  Cu  Cu20  1  0.92989300  0.95406700  0.04313800  1
  Cu  Cu21  1  0.07010700  0.04593300  0.95686200  1
  Cu  Cu22  1  0.04593300  0.07010700  0.45686200  1
  Cu  Cu23  1  0.95406700  0.92989300  0.54313800  1
  Cu  Cu24  1  0.40582800  0.59417200  0.25000000  1
  Cu  Cu25  1  0.59417200  0.40582800  0.75000000  1
  Cu  Cu26  1  0.61153700  0.21527100  0.13691400  1
  Cu  Cu27  1  0.38846300  0.78472900  0.86308600  1
  Cu  Cu28  1  0.78472900  0.38846300  0.36308600  1
  Cu  Cu29  1  0.21527100  0.61153700  0.63691400  1
