# generated using pymatgen
data_CuNiC5
_symmetry_space_group_name_H-M   'P 1'
_cell_length_a   11.27471786
_cell_length_b   11.27471786
_cell_length_c   11.27471786
_cell_angle_alpha   100.10212177
_cell_angle_beta   100.10212177
_cell_angle_gamma   130.48083275
_symmetry_Int_Tables_number   1
_chemical_formula_structural   CuNiC5
_chemical_formula_sum   'Cu8 Ni8 C40'
_cell_volume   989.93672098
_cell_formula_units_Z   8
loop_
 _symmetry_equiv_pos_site_id
 _symmetry_equiv_pos_as_xyz
  1  'x, y, z'
loop_
 _atom_site_type_symbol
 _atom_site_label
 _atom_site_symmetry_multiplicity
 _atom_site_fract_x
 _atom_site_fract_y
 _atom_site_fract_z
 _atom_site_occupancy
  C  C0  1  0.83555500  0.16444500  0.00000000  1
  C  C1  1  0.83555500  0.83555500  0.67110900  1
  C  C2  1  0.41444500  0.58555500  0.50000000  1
  C  C3  1  0.41444500  0.91444500  0.82889100  1
  C  C4  1  0.16444500  0.16444500  0.32889100  1
  C  C5  1  0.16444500  0.83555500  0.00000000  1
  C  C6  1  0.08555500  0.58555500  0.17110900  1
  C  C7  1  0.08555500  0.91444500  0.50000000  1
  Ni  Ni8  1  0.62500000  0.26669600  0.14169600  1
  Ni  Ni9  1  0.62500000  0.48330400  0.35830400  1
  Ni  Ni10  1  0.51669600  0.37500000  0.64169600  1
  Ni  Ni11  1  0.51669600  0.87500000  0.14169600  1
  Ni  Ni12  1  0.12500000  0.26669600  0.64169600  1
  Ni  Ni13  1  0.12500000  0.48330400  0.85830400  1
  Ni  Ni14  1  0.73330400  0.37500000  0.85830400  1
  Ni  Ni15  1  0.73330400  0.87500000  0.35830400  1
  Cu  Cu16  1  0.52100700  0.66040400  0.86060300  1
  Cu  Cu17  1  0.91040400  0.27100700  0.36060300  1
  Cu  Cu18  1  0.91040400  0.54980000  0.63939700  1
  Cu  Cu19  1  0.79980000  0.66040400  0.13939700  1
  Cu  Cu20  1  0.72899300  0.08959600  0.63939700  1
  Cu  Cu21  1  0.33959600  0.47899300  0.13939700  1
  Cu  Cu22  1  0.33959600  0.20020000  0.86060300  1
  Cu  Cu23  1  0.45020000  0.08959600  0.36060300  1
  C  C24  1  0.31560100  0.59340600  0.72219500  1
  C  C25  1  0.84340600  0.06560100  0.22219500  1
  C  C26  1  0.84340600  0.62121100  0.77780500  1
  C  C27  1  0.87121100  0.59340600  0.27780500  1
  C  C28  1  0.93439900  0.15659400  0.77780500  1
  C  C29  1  0.40659400  0.68439900  0.27780500  1
  C  C30  1  0.40659400  0.12878900  0.72219500  1
  C  C31  1  0.37878900  0.15659400  0.22219500  1
  C  C32  1  0.57711300  0.91699500  0.96206700  1
  C  C33  1  0.57711300  0.61504600  0.66011800  1
  C  C34  1  0.16699500  0.32711300  0.46206700  1
  C  C35  1  0.16699500  0.70492800  0.83988200  1
  C  C36  1  0.95492800  0.91699500  0.33988200  1
  C  C37  1  0.95492800  0.61504600  0.03793300  1
  C  C38  1  0.86504600  0.32711300  0.16011800  1
  C  C39  1  0.86504600  0.70492800  0.53793300  1
  C  C40  1  0.67288700  0.83300500  0.53793300  1
  C  C41  1  0.67288700  0.13495400  0.83988200  1
  C  C42  1  0.08300500  0.42288700  0.03793300  1
  C  C43  1  0.08300500  0.04507200  0.66011800  1
  C  C44  1  0.29507200  0.83300500  0.16011800  1
  C  C45  1  0.29507200  0.13495400  0.46206700  1
  C  C46  1  0.38495400  0.42288700  0.33988200  1
  C  C47  1  0.38495400  0.04507200  0.96206700  1
  C  C48  1  0.64231700  0.14231700  0.28463500  1
  C  C49  1  0.64231700  0.35768300  0.50000000  1
  C  C50  1  0.39231700  0.39231700  0.78463500  1
  C  C51  1  0.39231700  0.60768300  0.00000000  1
  C  C52  1  0.85768300  0.14231700  0.50000000  1
  C  C53  1  0.85768300  0.35768300  0.71536500  1
  C  C54  1  0.60768300  0.39231700  0.00000000  1
  C  C55  1  0.60768300  0.60768300  0.21536500  1
