# generated using pymatgen
data_Cu4NiC3
_symmetry_space_group_name_H-M   'P 1'
_cell_length_a   9.14175221
_cell_length_b   9.14175221
_cell_length_c   7.11189401
_cell_angle_alpha   73.26785286
_cell_angle_beta   73.26785286
_cell_angle_gamma   56.08055741
_symmetry_Int_Tables_number   1
_chemical_formula_structural   Cu4NiC3
_chemical_formula_sum   'Cu8 Ni2 C6'
_cell_volume   466.23167072
_cell_formula_units_Z   2
loop_
 _symmetry_equiv_pos_site_id
 _symmetry_equiv_pos_as_xyz
  1  'x, y, z'
loop_
 _atom_site_type_symbol
 _atom_site_label
 _atom_site_symmetry_multiplicity
 _atom_site_fract_x
 _atom_site_fract_y
 _atom_site_fract_z
 _atom_site_occupancy
  C  C0  1  0.12383100  0.87616900  0.75000000  1
  C  C1  1  0.87616900  0.12383100  0.25000000  1
  C  C2  1  0.12556800  0.37795600  0.72936600  1
  C  C3  1  0.62204400  0.87443200  0.77063400  1
  C  C4  1  0.87443200  0.62204400  0.27063400  1
  C  C5  1  0.37795600  0.12556800  0.22936600  1
  Ni  Ni6  1  0.62329400  0.37670600  0.75000000  1
  Ni  Ni7  1  0.37670600  0.62329400  0.25000000  1
  Cu  Cu8  1  0.00432600  0.80107800  0.50387300  1
  Cu  Cu9  1  0.19892200  0.99567400  0.99612700  1
  Cu  Cu10  1  0.99567400  0.19892200  0.49612700  1
  Cu  Cu11  1  0.80107800  0.00432600  0.00387300  1
  Cu  Cu12  1  0.23315300  0.55196300  0.96448700  1
  Cu  Cu13  1  0.44803700  0.76684700  0.53551300  1
  Cu  Cu14  1  0.76684700  0.44803700  0.03551300  1
  Cu  Cu15  1  0.55196300  0.23315300  0.46448700  1
