# generated using pymatgen
data_Cu4NiC9
_symmetry_space_group_name_H-M   'P 1'
_cell_length_a   5.03068271
_cell_length_b   10.89533700
_cell_length_c   12.61037075
_cell_angle_alpha   115.59449604
_cell_angle_beta   91.84461920
_cell_angle_gamma   90.00000000
_symmetry_Int_Tables_number   1
_chemical_formula_structural   Cu4NiC9
_chemical_formula_sum   'Cu8 Ni2 C18'
_cell_volume   622.96627482
_cell_formula_units_Z   2
loop_
 _symmetry_equiv_pos_site_id
 _symmetry_equiv_pos_as_xyz
  1  'x, y, z'
loop_
 _atom_site_type_symbol
 _atom_site_label
 _atom_site_symmetry_multiplicity
 _atom_site_fract_x
 _atom_site_fract_y
 _atom_site_fract_z
 _atom_site_occupancy
  C  C0  1  0.15845800  0.21550300  0.43100700  1
  C  C1  1  0.84154200  0.78449700  0.56899300  1
  Ni  Ni2  1  0.76256400  0.37191300  0.74382600  1
  Ni  Ni3  1  0.23743600  0.62808700  0.25617400  1
  Cu  Cu4  1  0.48781300  0.25430200  0.83736800  1
  Cu  Cu5  1  0.51218700  0.41693300  0.16263200  1
  Cu  Cu6  1  0.51218700  0.74569800  0.16263200  1
  Cu  Cu7  1  0.48781300  0.58306700  0.83736800  1
  Cu  Cu8  1  0.34035700  0.08647600  0.68132300  1
  Cu  Cu9  1  0.65964300  0.40515400  0.31867700  1
  Cu  Cu10  1  0.65964300  0.91352400  0.31867700  1
  Cu  Cu11  1  0.34035700  0.59484600  0.68132300  1
  C  C12  1  0.66359800  0.29345600  0.58691100  1
  C  C13  1  0.33640200  0.70654400  0.41308900  1
  C  C14  1  0.25620800  0.08573700  0.17147400  1
  C  C15  1  0.74379200  0.91426300  0.82852600  1
  C  C16  1  0.57781400  0.02063700  0.61915800  1
  C  C17  1  0.42218600  0.40147800  0.38084200  1
  C  C18  1  0.42218600  0.97936300  0.38084200  1
  C  C19  1  0.57781400  0.59852200  0.61915800  1
  C  C20  1  0.19050500  0.00358800  0.72473000  1
  C  C21  1  0.80949500  0.27885800  0.27527000  1
  C  C22  1  0.80949500  0.99641200  0.27527000  1
  C  C23  1  0.19050500  0.72114200  0.72473000  1
  C  C24  1  0.17159800  0.14716900  0.61967100  1
  C  C25  1  0.82840200  0.52749800  0.38032900  1
  C  C26  1  0.82840200  0.85283100  0.38032900  1
  C  C27  1  0.17159800  0.47250200  0.61967100  1
