# generated using pymatgen
data_CuNiC8
_symmetry_space_group_name_H-M   'P 1'
_cell_length_a   5.49069700
_cell_length_b   5.59185007
_cell_length_c   7.93605240
_cell_angle_alpha   89.64923161
_cell_angle_beta   89.01225518
_cell_angle_gamma   88.97254832
_symmetry_Int_Tables_number   1
_chemical_formula_structural   CuNiC8
_chemical_formula_sum   'Cu2 Ni2 C16'
_cell_volume   243.58234667
_cell_formula_units_Z   2
loop_
 _symmetry_equiv_pos_site_id
 _symmetry_equiv_pos_as_xyz
  1  'x, y, z'
loop_
 _atom_site_type_symbol
 _atom_site_label
 _atom_site_symmetry_multiplicity
 _atom_site_fract_x
 _atom_site_fract_y
 _atom_site_fract_z
 _atom_site_occupancy
  C  C0  1  0.49954500  0.99642300  0.74756300  1
  C  C1  1  0.00068500  0.50490600  0.25118800  1
  C  C2  1  0.50063500  0.00096400  0.25366500  1
  C  C3  1  0.99858400  0.49680600  0.74784900  1
  Ni  Ni4  1  0.99989700  0.99959600  0.50076500  1
  Ni  Ni5  1  0.50032400  0.50087100  0.99932000  1
  Cu  Cu6  1  0.00092200  0.00068200  0.99877900  1
  Cu  Cu7  1  0.49966800  0.49960100  0.50094600  1
  C  C8  1  0.27706900  0.78603000  0.52280900  1
  C  C9  1  0.77686000  0.28828400  0.03711400  1
  C  C10  1  0.22080600  0.28761300  0.46570500  1
  C  C11  1  0.71504600  0.77058100  0.97363900  1
  C  C12  1  0.00075800  0.93555100  0.24356000  1
  C  C13  1  0.50273600  0.44332500  0.75747900  1
  C  C14  1  0.78606000  0.70573000  0.52510100  1
  C  C15  1  0.28440900  0.22799700  0.04144000  1
  C  C16  1  0.99988700  0.07169700  0.75557500  1
  C  C17  1  0.49765500  0.56576300  0.24436900  1
  C  C18  1  0.72377400  0.21425700  0.46187800  1
  C  C19  1  0.21468000  0.70332100  0.97125800  1
