# generated using pymatgen
data_CuNiC12
_symmetry_space_group_name_H-M   'P 1'
_cell_length_a   3.42544500
_cell_length_b   10.28413200
_cell_length_c   12.03065100
_cell_angle_alpha   90.00000000
_cell_angle_beta   90.00000000
_cell_angle_gamma   90.00000000
_symmetry_Int_Tables_number   1
_chemical_formula_structural   CuNiC12
_chemical_formula_sum   'Cu2 Ni2 C24'
_cell_volume   423.81250757
_cell_formula_units_Z   2
loop_
 _symmetry_equiv_pos_site_id
 _symmetry_equiv_pos_as_xyz
  1  'x, y, z'
loop_
 _atom_site_type_symbol
 _atom_site_label
 _atom_site_symmetry_multiplicity
 _atom_site_fract_x
 _atom_site_fract_y
 _atom_site_fract_z
 _atom_site_occupancy
  Ni  Ni0  1  0.75000000  0.74743200  0.14892200  1
  Ni  Ni1  1  0.75000000  0.24743200  0.35107800  1
  Cu  Cu2  1  0.25000000  0.25376500  0.85214300  1
  Cu  Cu3  1  0.25000000  0.75376500  0.64785700  1
  C  C4  1  0.75000000  0.07699000  0.10699500  1
  C  C5  1  0.75000000  0.57699000  0.39300500  1
  C  C6  1  0.25000000  0.92685500  0.88509900  1
  C  C7  1  0.25000000  0.42685500  0.61490100  1
  C  C8  1  0.75000000  0.07559700  0.61307700  1
  C  C9  1  0.75000000  0.57559700  0.88692300  1
  C  C10  1  0.25000000  0.92165500  0.39375400  1
  C  C11  1  0.25000000  0.42165500  0.10624600  1
  C  C12  1  0.75000000  0.07706600  0.92042500  1
  C  C13  1  0.75000000  0.57706600  0.57957500  1
  C  C14  1  0.25000000  0.93309200  0.07073300  1
  C  C15  1  0.25000000  0.43309200  0.42926700  1
  C  C16  1  0.75000000  0.98137300  0.28405200  1
  C  C17  1  0.75000000  0.48137300  0.21594800  1
  C  C18  1  0.25000000  0.01447900  0.71693900  1
  C  C19  1  0.25000000  0.51447900  0.78306100  1
  C  C20  1  0.75000000  0.37697100  0.97696700  1
  C  C21  1  0.75000000  0.87697100  0.52303300  1
  C  C22  1  0.25000000  0.61452100  0.01421500  1
  C  C23  1  0.25000000  0.11452100  0.48578500  1
  C  C24  1  0.75000000  0.28996700  0.66790600  1
  C  C25  1  0.75000000  0.78996700  0.83209400  1
  C  C26  1  0.25000000  0.71023600  0.34110500  1
  C  C27  1  0.25000000  0.21023600  0.15889500  1
