# generated using pymatgen
data_Cu2NiC4
_symmetry_space_group_name_H-M   'P 1'
_cell_length_a   8.94627000
_cell_length_b   8.94627000
_cell_length_c   8.94627000
_cell_angle_alpha   90.00000000
_cell_angle_beta   90.00000000
_cell_angle_gamma   90.00000000
_symmetry_Int_Tables_number   1
_chemical_formula_structural   Cu2NiC4
_chemical_formula_sum   'Cu16 Ni8 C32'
_cell_volume   716.02140153
_cell_formula_units_Z   8
loop_
 _symmetry_equiv_pos_site_id
 _symmetry_equiv_pos_as_xyz
  1  'x, y, z'
loop_
 _atom_site_type_symbol
 _atom_site_label
 _atom_site_symmetry_multiplicity
 _atom_site_fract_x
 _atom_site_fract_y
 _atom_site_fract_z
 _atom_site_occupancy
  Ni  Ni0  1  0.37500000  0.37500000  0.37500000  1
  Ni  Ni1  1  0.37500000  0.87500000  0.87500000  1
  Ni  Ni2  1  0.87500000  0.37500000  0.87500000  1
  Ni  Ni3  1  0.87500000  0.87500000  0.37500000  1
  Ni  Ni4  1  0.62500000  0.62500000  0.62500000  1
  Ni  Ni5  1  0.62500000  0.12500000  0.12500000  1
  Ni  Ni6  1  0.12500000  0.62500000  0.12500000  1
  Ni  Ni7  1  0.12500000  0.12500000  0.62500000  1
  Cu  Cu8  1  0.00000000  0.00000000  0.00000000  1
  Cu  Cu9  1  0.00000000  0.25000000  0.25000000  1
  Cu  Cu10  1  0.25000000  0.00000000  0.25000000  1
  Cu  Cu11  1  0.25000000  0.25000000  0.00000000  1
  Cu  Cu12  1  0.00000000  0.50000000  0.50000000  1
  Cu  Cu13  1  0.00000000  0.75000000  0.75000000  1
  Cu  Cu14  1  0.25000000  0.50000000  0.75000000  1
  Cu  Cu15  1  0.25000000  0.75000000  0.50000000  1
  Cu  Cu16  1  0.50000000  0.00000000  0.50000000  1
  Cu  Cu17  1  0.50000000  0.25000000  0.75000000  1
  Cu  Cu18  1  0.75000000  0.00000000  0.75000000  1
  Cu  Cu19  1  0.75000000  0.25000000  0.50000000  1
  Cu  Cu20  1  0.50000000  0.50000000  0.00000000  1
  Cu  Cu21  1  0.50000000  0.75000000  0.25000000  1
  Cu  Cu22  1  0.75000000  0.50000000  0.25000000  1
  Cu  Cu23  1  0.75000000  0.75000000  0.00000000  1
  C  C24  1  0.75982000  0.75982000  0.75982000  1
  C  C25  1  0.75982000  0.49018000  0.49018000  1
  C  C26  1  0.49018000  0.75982000  0.49018000  1
  C  C27  1  0.49018000  0.49018000  0.75982000  1
  C  C28  1  0.24018000  0.24018000  0.24018000  1
  C  C29  1  0.24018000  0.00982000  0.00982000  1
  C  C30  1  0.00982000  0.24018000  0.00982000  1
  C  C31  1  0.00982000  0.00982000  0.24018000  1
  C  C32  1  0.75982000  0.25982000  0.25982000  1
  C  C33  1  0.75982000  0.99018000  0.99018000  1
  C  C34  1  0.49018000  0.25982000  0.99018000  1
  C  C35  1  0.49018000  0.99018000  0.25982000  1
  C  C36  1  0.24018000  0.74018000  0.74018000  1
  C  C37  1  0.24018000  0.50982000  0.50982000  1
  C  C38  1  0.00982000  0.74018000  0.50982000  1
  C  C39  1  0.00982000  0.50982000  0.74018000  1
  C  C40  1  0.25982000  0.75982000  0.25982000  1
  C  C41  1  0.25982000  0.49018000  0.99018000  1
  C  C42  1  0.99018000  0.75982000  0.99018000  1
  C  C43  1  0.99018000  0.49018000  0.25982000  1
  C  C44  1  0.74018000  0.24018000  0.74018000  1
  C  C45  1  0.74018000  0.00982000  0.50982000  1
  C  C46  1  0.50982000  0.24018000  0.50982000  1
  C  C47  1  0.50982000  0.00982000  0.74018000  1
  C  C48  1  0.25982000  0.25982000  0.75982000  1
  C  C49  1  0.25982000  0.99018000  0.49018000  1
  C  C50  1  0.99018000  0.25982000  0.49018000  1
  C  C51  1  0.99018000  0.99018000  0.75982000  1
  C  C52  1  0.74018000  0.74018000  0.24018000  1
  C  C53  1  0.74018000  0.50982000  0.00982000  1
  C  C54  1  0.50982000  0.74018000  0.00982000  1
  C  C55  1  0.50982000  0.50982000  0.24018000  1
