# generated using pymatgen
data_Cu8(Ni4C11)3
_symmetry_space_group_name_H-M   'P 1'
_cell_length_a   9.23325900
_cell_length_b   11.61298338
_cell_length_c   15.67002411
_cell_angle_alpha   103.26489156
_cell_angle_beta   91.68670042
_cell_angle_gamma   106.94219619
_symmetry_Int_Tables_number   1
_chemical_formula_structural   Cu8(Ni4C11)3
_chemical_formula_sum   'Cu16 Ni24 C66'
_cell_volume   1556.03241618
_cell_formula_units_Z   2
loop_
 _symmetry_equiv_pos_site_id
 _symmetry_equiv_pos_as_xyz
  1  'x, y, z'
loop_
 _atom_site_type_symbol
 _atom_site_label
 _atom_site_symmetry_multiplicity
 _atom_site_fract_x
 _atom_site_fract_y
 _atom_site_fract_z
 _atom_site_occupancy
  C  C0  1  0.24506800  0.85078900  0.79720400  1
  C  C1  1  0.75493200  0.14921100  0.20279600  1
  C  C2  1  0.05446000  0.74435000  0.00276800  1
  C  C3  1  0.94554000  0.25565000  0.99723200  1
  C  C4  1  0.47066000  0.40061000  0.56709500  1
  C  C5  1  0.52934000  0.59939000  0.43290500  1
  C  C6  1  0.35868600  0.65321200  0.02691400  1
  C  C7  1  0.64131400  0.34678800  0.97308600  1
  C  C8  1  0.39183300  0.59402600  0.91615600  1
  C  C9  1  0.60816700  0.40597400  0.08384400  1
  C  C10  1  0.15955600  0.45235300  0.87107900  1
  C  C11  1  0.84044400  0.54764700  0.12892100  1
  C  C12  1  0.00106300  0.50837300  0.86072900  1
  C  C13  1  0.99893700  0.49162700  0.13927100  1
  C  C14  1  0.55968400  0.81122700  0.97999700  1
  C  C15  1  0.44031600  0.18877300  0.02000300  1
  C  C16  1  0.39530100  0.86325500  0.99772200  1
  C  C17  1  0.60469900  0.13674500  0.00227800  1
  C  C18  1  0.11751900  0.46910800  0.71839400  1
  C  C19  1  0.88248100  0.53089200  0.28160600  1
  C  C20  1  0.29538400  0.57640100  0.76884700  1
  C  C21  1  0.70461600  0.42359900  0.23115300  1
  C  C22  1  0.48499400  0.71573500  0.70059100  1
  C  C23  1  0.51500600  0.28426500  0.29940900  1
  C  C24  1  0.63703200  0.85278300  0.69989600  1
  C  C25  1  0.36296800  0.14721700  0.30010400  1
  C  C26  1  0.45069200  0.17448700  0.72915700  1
  C  C27  1  0.54930800  0.82551300  0.27084300  1
  C  C28  1  0.51090400  0.11704100  0.81595100  1
  C  C29  1  0.48909600  0.88295900  0.18404900  1
  C  C30  1  0.88097200  0.74274500  0.76318200  1
  C  C31  1  0.11902800  0.25725500  0.23681800  1
  C  C32  1  0.84934900  0.71490500  0.64463900  1
  C  C33  1  0.15065100  0.28509500  0.35536100  1
  C  C34  1  0.64353500  0.93440500  0.86031700  1
  C  C35  1  0.35646500  0.06559500  0.13968300  1
  C  C36  1  0.63670000  0.77391100  0.84214200  1
  C  C37  1  0.36330000  0.22608900  0.15785800  1
  C  C38  1  0.15152300  0.14586500  0.73610100  1
  C  C39  1  0.84847700  0.85413500  0.26389900  1
  C  C40  1  0.20558100  0.04163700  0.64878200  1
  C  C41  1  0.79441900  0.95836300  0.35121800  1
  C  C42  1  0.59509600  0.01384100  0.68177000  1
  C  C43  1  0.40490400  0.98615900  0.31823000  1
  C  C44  1  0.41163300  0.97041900  0.62165600  1
  C  C45  1  0.58836700  0.02958100  0.37834400  1
  C  C46  1  0.93991500  0.94609800  0.66253300  1
  C  C47  1  0.06008500  0.05390200  0.33746700  1
  C  C48  1  0.97555600  0.97027400  0.78043600  1
  C  C49  1  0.02444400  0.02972600  0.21956400  1
  C  C50  1  0.03084800  0.59680000  0.62211900  1
  C  C51  1  0.96915200  0.40320000  0.37788100  1
  C  C52  1  0.90729200  0.54015400  0.70057600  1
  C  C53  1  0.09270800  0.45984600  0.29942400  1
  Ni  Ni54  1  0.34951900  0.66384400  0.95924300  1
  Ni  Ni55  1  0.65048100  0.33615600  0.04075700  1
  Ni  Ni56  1  0.12435500  0.53066800  0.85877900  1
  Ni  Ni57  1  0.87564500  0.46933200  0.14122100  1
  Ni  Ni58  1  0.44029700  0.79391000  0.95625000  1
  Ni  Ni59  1  0.55970300  0.20609000  0.04375000  1
  Ni  Ni60  1  0.17180800  0.55372500  0.77093800  1
  Ni  Ni61  1  0.82819200  0.44627500  0.22906200  1
  Ni  Ni62  1  0.53563400  0.81533200  0.73175900  1
  Ni  Ni63  1  0.46436600  0.18466800  0.26824100  1
  Ni  Ni64  1  0.43620000  0.09118600  0.75442400  1
  Ni  Ni65  1  0.56380000  0.90881400  0.24557600  1
  Ni  Ni66  1  0.93323800  0.72954600  0.70064800  1
  Ni  Ni67  1  0.06676200  0.27045400  0.29935200  1
  Ni  Ni68  1  0.57465300  0.83748000  0.82983400  1
  Ni  Ni69  1  0.42534700  0.16252000  0.17016600  1
  Ni  Ni70  1  0.16847900  0.05380100  0.71539500  1
  Ni  Ni71  1  0.83152100  0.94619900  0.28460500  1
  Ni  Ni72  1  0.47204300  0.98893400  0.68721500  1
  Ni  Ni73  1  0.52795700  0.01106600  0.31278500  1
  Ni  Ni74  1  0.02304000  0.95266300  0.71674900  1
  Ni  Ni75  1  0.97696000  0.04733700  0.28325100  1
  Ni  Ni76  1  0.99506500  0.62057100  0.68858800  1
  Ni  Ni77  1  0.00493500  0.37942900  0.31141200  1
  Cu  Cu78  1  0.14396500  0.92585300  0.93505300  1
  Cu  Cu79  1  0.85603500  0.07414700  0.06494700  1
  Cu  Cu80  1  0.79614300  0.63757200  0.95532400  1
  Cu  Cu81  1  0.20385700  0.36242800  0.04467600  1
  Cu  Cu82  1  0.15226900  0.79999900  0.15265900  1
  Cu  Cu83  1  0.84773100  0.20000100  0.84734100  1
  Cu  Cu84  1  0.55002100  0.45883800  0.72014800  1
  Cu  Cu85  1  0.44997900  0.54116200  0.27985200  1
  Cu  Cu86  1  0.32506100  0.18086000  0.50947100  1
  Cu  Cu87  1  0.67493900  0.81914000  0.49052900  1
  Cu  Cu88  1  0.31588900  0.52781400  0.52265200  1
  Cu  Cu89  1  0.68411100  0.47218600  0.47734800  1
  Cu  Cu90  1  0.02153500  0.19733400  0.54707300  1
  Cu  Cu91  1  0.97846500  0.80266600  0.45292700  1
  Cu  Cu92  1  0.76957700  0.21090500  0.57094200  1
  Cu  Cu93  1  0.23042300  0.78909500  0.42905800  1
  C  C94  1  0.12717700  0.65633800  0.75269000  1
  C  C95  1  0.87282300  0.34366200  0.24731000  1
  C  C96  1  0.06099000  0.83778000  0.70260700  1
  C  C97  1  0.93901000  0.16222000  0.29739300  1
  C  C98  1  0.28320200  0.04676500  0.77742100  1
  C  C99  1  0.71679800  0.95323500  0.22257900  1
  C  C100  1  0.42206700  0.87355500  0.71532800  1
  C  C101  1  0.57793300  0.12644500  0.28467200  1
  C  C102  1  0.43117000  0.80959100  0.86730100  1
  C  C103  1  0.56883000  0.19040900  0.13269900  1
  C  C104  1  0.19002500  0.63940500  0.93103400  1
  C  C105  1  0.80997500  0.36059500  0.06896600  1
