# generated using pymatgen
data_Cu12NiC10
_symmetry_space_group_name_H-M   'P 1'
_cell_length_a   7.96495700
_cell_length_b   13.25343800
_cell_length_c   10.86217600
_cell_angle_alpha   90.00000000
_cell_angle_beta   90.00000000
_cell_angle_gamma   90.00000000
_symmetry_Int_Tables_number   1
_chemical_formula_structural   Cu12NiC10
_chemical_formula_sum   'Cu48 Ni4 C40'
_cell_volume   1146.64457779
_cell_formula_units_Z   4
loop_
 _symmetry_equiv_pos_site_id
 _symmetry_equiv_pos_as_xyz
  1  'x, y, z'
loop_
 _atom_site_type_symbol
 _atom_site_label
 _atom_site_symmetry_multiplicity
 _atom_site_fract_x
 _atom_site_fract_y
 _atom_site_fract_z
 _atom_site_occupancy
  C  C0  1  0.50000000  0.50000000  0.64526800  1
  C  C1  1  0.00000000  0.00000000  0.35473200  1
  C  C2  1  0.50000000  0.50000000  0.35473200  1
  C  C3  1  0.00000000  0.00000000  0.64526800  1
  Ni  Ni4  1  0.13875700  0.51712700  0.50000000  1
  Ni  Ni5  1  0.86124300  0.48287300  0.50000000  1
  Ni  Ni6  1  0.63875700  0.98287300  0.50000000  1
  Ni  Ni7  1  0.36124300  0.01712700  0.50000000  1
  Cu  Cu8  1  0.98190700  0.28335600  0.25285000  1
  Cu  Cu9  1  0.01809300  0.71664400  0.25285000  1
  Cu  Cu10  1  0.48190700  0.21664400  0.74715000  1
  Cu  Cu11  1  0.51809300  0.78335600  0.74715000  1
  Cu  Cu12  1  0.01809300  0.71664400  0.74715000  1
  Cu  Cu13  1  0.98190700  0.28335600  0.74715000  1
  Cu  Cu14  1  0.51809300  0.78335600  0.25285000  1
  Cu  Cu15  1  0.48190700  0.21664400  0.25285000  1
  Cu  Cu16  1  0.36667100  0.33053600  0.12049900  1
  Cu  Cu17  1  0.63332900  0.66946400  0.12049900  1
  Cu  Cu18  1  0.86667100  0.16946400  0.87950100  1
  Cu  Cu19  1  0.13332900  0.83053600  0.87950100  1
  Cu  Cu20  1  0.63332900  0.66946400  0.87950100  1
  Cu  Cu21  1  0.36667100  0.33053600  0.87950100  1
  Cu  Cu22  1  0.13332900  0.83053600  0.12049900  1
  Cu  Cu23  1  0.86667100  0.16946400  0.12049900  1
  Cu  Cu24  1  0.92498600  0.61544900  0.27779400  1
  Cu  Cu25  1  0.07501400  0.38455100  0.27779400  1
  Cu  Cu26  1  0.42498600  0.88455100  0.72220600  1
  Cu  Cu27  1  0.57501400  0.11544900  0.72220600  1
  Cu  Cu28  1  0.07501400  0.38455100  0.72220600  1
  Cu  Cu29  1  0.92498600  0.61544900  0.72220600  1
  Cu  Cu30  1  0.57501400  0.11544900  0.27779400  1
  Cu  Cu31  1  0.42498600  0.88455100  0.27779400  1
  Cu  Cu32  1  0.53420800  0.74810100  0.46542100  1
  Cu  Cu33  1  0.46579200  0.25189900  0.46542100  1
  Cu  Cu34  1  0.03420800  0.75189900  0.53457900  1
  Cu  Cu35  1  0.96579200  0.24810100  0.53457900  1
  Cu  Cu36  1  0.46579200  0.25189900  0.53457900  1
  Cu  Cu37  1  0.53420800  0.74810100  0.53457900  1
  Cu  Cu38  1  0.96579200  0.24810100  0.46542100  1
  Cu  Cu39  1  0.03420800  0.75189900  0.46542100  1
  Cu  Cu40  1  0.82440100  0.99125400  0.00000000  1
  Cu  Cu41  1  0.17559900  0.00874600  0.00000000  1
  Cu  Cu42  1  0.32440100  0.50874600  0.00000000  1
  Cu  Cu43  1  0.67559900  0.49125400  0.00000000  1
  Cu  Cu44  1  0.16583300  0.35533700  0.00000000  1
  Cu  Cu45  1  0.83416700  0.64466300  0.00000000  1
  Cu  Cu46  1  0.66583300  0.14466300  0.00000000  1
  Cu  Cu47  1  0.33416700  0.85533700  0.00000000  1
  Cu  Cu48  1  0.14509400  0.55425100  0.00000000  1
  Cu  Cu49  1  0.85490600  0.44574900  0.00000000  1
  Cu  Cu50  1  0.64509400  0.94574900  0.00000000  1
  Cu  Cu51  1  0.35490600  0.05425100  0.00000000  1
  Cu  Cu52  1  0.65635200  0.26532300  0.00000000  1
  Cu  Cu53  1  0.34364800  0.73467700  0.00000000  1
  Cu  Cu54  1  0.15635200  0.23467700  0.00000000  1
  Cu  Cu55  1  0.84364800  0.76532300  0.00000000  1
  C  C56  1  0.66554200  0.47689300  0.50000000  1
  C  C57  1  0.33445800  0.52310700  0.50000000  1
  C  C58  1  0.16554200  0.02310700  0.50000000  1
  C  C59  1  0.83445800  0.97689300  0.50000000  1
  C  C60  1  0.61791300  0.59881400  0.27462900  1
  C  C61  1  0.38208700  0.40118600  0.27462900  1
  C  C62  1  0.11791300  0.90118600  0.72537100  1
  C  C63  1  0.88208700  0.09881400  0.72537100  1
  C  C64  1  0.38208700  0.40118600  0.72537100  1
  C  C65  1  0.61791300  0.59881400  0.72537100  1
  C  C66  1  0.88208700  0.09881400  0.27462900  1
  C  C67  1  0.11791300  0.90118600  0.27462900  1
  C  C68  1  0.03661100  0.64379600  0.73602400  1
  C  C69  1  0.96338900  0.35620400  0.73602400  1
  C  C70  1  0.53661100  0.85620400  0.26397600  1
  C  C71  1  0.46338900  0.14379600  0.26397600  1
  C  C72  1  0.96338900  0.35620400  0.26397600  1
  C  C73  1  0.03661100  0.64379600  0.26397600  1
  C  C74  1  0.46338900  0.14379600  0.73602400  1
  C  C75  1  0.53661100  0.85620400  0.73602400  1
  C  C76  1  0.53490900  0.64932800  0.17180500  1
  C  C77  1  0.46509100  0.35067200  0.17180500  1
  C  C78  1  0.03490900  0.85067200  0.82819500  1
  C  C79  1  0.96509100  0.14932800  0.82819500  1
  C  C80  1  0.46509100  0.35067200  0.82819500  1
  C  C81  1  0.53490900  0.64932800  0.82819500  1
  C  C82  1  0.96509100  0.14932800  0.17180500  1
  C  C83  1  0.03490900  0.85067200  0.17180500  1
  C  C84  1  0.79429300  0.50929400  0.00000000  1
  C  C85  1  0.20570700  0.49070600  0.00000000  1
  C  C86  1  0.29429300  0.99070600  0.00000000  1
  C  C87  1  0.70570700  0.00929400  0.00000000  1
  C  C88  1  0.73229100  0.20766300  0.00000000  1
  C  C89  1  0.26770900  0.79233700  0.00000000  1
  C  C90  1  0.23229100  0.29233700  0.00000000  1
  C  C91  1  0.76770900  0.70766300  0.00000000  1
