# generated using pymatgen
data_Cu8NiC
_symmetry_space_group_name_H-M   'P 1'
_cell_length_a   13.31573900
_cell_length_b   5.77175400
_cell_length_c   9.55187900
_cell_angle_alpha   54.18405279
_cell_angle_beta   90.00000000
_cell_angle_gamma   90.00000000
_symmetry_Int_Tables_number   1
_chemical_formula_structural   Cu8NiC
_chemical_formula_sum   'Cu32 Ni4 C4'
_cell_volume   595.29155543
_cell_formula_units_Z   4
loop_
 _symmetry_equiv_pos_site_id
 _symmetry_equiv_pos_as_xyz
  1  'x, y, z'
loop_
 _atom_site_type_symbol
 _atom_site_label
 _atom_site_symmetry_multiplicity
 _atom_site_fract_x
 _atom_site_fract_y
 _atom_site_fract_z
 _atom_site_occupancy
  C  C0  1  0.59870800  0.29353200  0.28193000  1
  C  C1  1  0.90129200  0.29353200  0.78193000  1
  C  C2  1  0.40129200  0.70646800  0.71807000  1
  C  C3  1  0.09870800  0.70646800  0.21807000  1
  Ni  Ni4  1  0.60604700  0.02581600  0.67700500  1
  Ni  Ni5  1  0.89395300  0.02581600  0.17700500  1
  Ni  Ni6  1  0.39395300  0.97418400  0.32299500  1
  Ni  Ni7  1  0.10604700  0.97418400  0.82299500  1
  Cu  Cu8  1  0.54464000  0.75826900  0.73998100  1
  Cu  Cu9  1  0.95536000  0.75826900  0.23998100  1
  Cu  Cu10  1  0.45536000  0.24173100  0.26001900  1
  Cu  Cu11  1  0.04464000  0.24173100  0.76001900  1
  Cu  Cu12  1  0.57072600  0.25838000  0.49322800  1
  Cu  Cu13  1  0.92927400  0.25838000  0.99322800  1
  Cu  Cu14  1  0.42927400  0.74162000  0.50677200  1
  Cu  Cu15  1  0.07072600  0.74162000  0.00677200  1
  Cu  Cu16  1  0.58571600  0.12942900  0.78134100  1
  Cu  Cu17  1  0.91428400  0.12942900  0.28134100  1
  Cu  Cu18  1  0.41428400  0.87057100  0.21865900  1
  Cu  Cu19  1  0.08571600  0.87057100  0.71865900  1
  Cu  Cu20  1  0.71086600  0.94730200  0.68046400  1
  Cu  Cu21  1  0.78913400  0.94730200  0.18046400  1
  Cu  Cu22  1  0.28913400  0.05269800  0.31953600  1
  Cu  Cu23  1  0.21086600  0.05269800  0.81953600  1
  Cu  Cu24  1  0.58370400  0.68218100  0.14759400  1
  Cu  Cu25  1  0.91629600  0.68218100  0.64759400  1
  Cu  Cu26  1  0.41629600  0.31781900  0.85240600  1
  Cu  Cu27  1  0.08370400  0.31781900  0.35240600  1
  Cu  Cu28  1  0.63571200  0.92343700  0.39371000  1
  Cu  Cu29  1  0.86428800  0.92343700  0.89371000  1
  Cu  Cu30  1  0.36428800  0.07656300  0.60629000  1
  Cu  Cu31  1  0.13571200  0.07656300  0.10629000  1
  Cu  Cu32  1  0.63218200  0.32913600  0.09273800  1
  Cu  Cu33  1  0.86781800  0.32913600  0.59273800  1
  Cu  Cu34  1  0.36781800  0.67086400  0.90726200  1
  Cu  Cu35  1  0.13218200  0.67086400  0.40726200  1
  Cu  Cu36  1  0.72574600  0.38811700  0.26294400  1
  Cu  Cu37  1  0.77425400  0.38811700  0.76294400  1
  Cu  Cu38  1  0.27425400  0.61188300  0.73705600  1
  Cu  Cu39  1  0.22574600  0.61188300  0.23705600  1
