# generated using pymatgen
data_Cu11Ni9C11
_symmetry_space_group_name_H-M   'P 1'
_cell_length_a   4.80865916
_cell_length_b   4.84757889
_cell_length_c   15.91041176
_cell_angle_alpha   90.00000000
_cell_angle_beta   90.00000000
_cell_angle_gamma   95.97510277
_symmetry_Int_Tables_number   1
_chemical_formula_structural   Cu11Ni9C11
_chemical_formula_sum   'Cu11 Ni9 C11'
_cell_volume   368.86244650
_cell_formula_units_Z   1
loop_
 _symmetry_equiv_pos_site_id
 _symmetry_equiv_pos_as_xyz
  1  'x, y, z'
loop_
 _atom_site_type_symbol
 _atom_site_label
 _atom_site_symmetry_multiplicity
 _atom_site_fract_x
 _atom_site_fract_y
 _atom_site_fract_z
 _atom_site_occupancy
  C  C0  1  0.24444703  0.73327349  0.20000000  1
  C  C1  1  0.00541823  0.98224535  0.98494561  1
  C  C2  1  0.88975705  0.10145206  0.20000000  1
  C  C3  1  0.00541823  0.98224535  0.41505439  1
  C  C4  1  0.03448276  0.01185697  0.61452602  1
  C  C5  1  0.03448276  0.01185697  0.78547398  1
  C  C6  1  0.51846775  0.47810328  0.08549014  1
  C  C7  1  0.49776732  0.47769197  0.50021091  1
  C  C8  1  0.51846775  0.47810328  0.31450986  1
  C  C9  1  0.45943293  0.51496989  0.70000000  1
  C  C10  1  0.49776732  0.47769197  0.89978909  1
  Ni  Ni11  1  0.21116937  0.80091434  0.70000000  1
  Ni  Ni12  1  0.30002326  0.28162008  0.99222188  1
  Ni  Ni13  1  0.27649825  0.31229518  0.20000000  1
  Ni  Ni14  1  0.30002326  0.28162008  0.40777812  1
  Ni  Ni15  1  0.32036283  0.31957135  0.59984347  1
  Ni  Ni16  1  0.32036283  0.31957135  0.80015653  1
  Ni  Ni17  1  0.70949769  0.68704672  0.98914248  1
  Ni  Ni18  1  0.68231981  0.71267756  0.20000000  1
  Ni  Ni19  1  0.70949769  0.68704672  0.41085752  1
  Cu  Cu20  1  0.20208206  0.78915301  0.08290325  1
  Cu  Cu21  1  0.20208206  0.78915301  0.31709675  1
  Cu  Cu22  1  0.20614269  0.79847341  0.50750074  1
  Cu  Cu23  1  0.20614269  0.79847341  0.89249926  1
  Cu  Cu24  1  0.70861029  0.71100997  0.60225405  1
  Cu  Cu25  1  0.70861029  0.71100997  0.79774595  1
  Cu  Cu26  1  0.80060358  0.18433584  0.08130280  1
  Cu  Cu27  1  0.81246063  0.18530970  0.50673057  1
  Cu  Cu28  1  0.80060358  0.18433584  0.31869720  1
  Cu  Cu29  1  0.81246063  0.18530970  0.89326943  1
  Cu  Cu30  1  0.79620640  0.21991219  0.70000000  1
