# generated using pymatgen
data_Cu2NiC12
_symmetry_space_group_name_H-M   'P 1'
_cell_length_a   11.31642849
_cell_length_b   11.31642849
_cell_length_c   9.08575609
_cell_angle_alpha   73.93046252
_cell_angle_beta   73.93046252
_cell_angle_gamma   22.44691714
_symmetry_Int_Tables_number   1
_chemical_formula_structural   Cu2NiC12
_chemical_formula_sum   'Cu2 Ni1 C12'
_cell_volume   426.21267164
_cell_formula_units_Z   1
loop_
 _symmetry_equiv_pos_site_id
 _symmetry_equiv_pos_as_xyz
  1  'x, y, z'
loop_
 _atom_site_type_symbol
 _atom_site_label
 _atom_site_symmetry_multiplicity
 _atom_site_fract_x
 _atom_site_fract_y
 _atom_site_fract_z
 _atom_site_occupancy
  C  C0  1  0.52259600  0.52259600  0.80666700  1
  C  C1  1  0.02115200  0.02115200  0.31453800  1
  C  C2  1  0.86117500  0.86117500  0.21519400  1
  C  C3  1  0.19003600  0.19003600  0.42232400  1
  Ni  Ni4  1  0.70627000  0.70627000  0.05777700  1
  C  C5  1  0.25188900  0.25188900  0.14687200  1
  C  C6  1  0.78764300  0.78764300  0.46599500  1
  C  C7  1  0.14835700  0.14835700  0.69578100  1
  C  C8  1  0.89756500  0.89756500  0.94104700  1
  C  C9  1  0.61486900  0.61486900  0.37911200  1
  C  C10  1  0.08227800  0.08227800  0.05470400  1
  C  C11  1  0.43676400  0.43676400  0.24979400  1
  C  C12  1  0.96986900  0.96986900  0.57872300  1
  Cu  Cu13  1  0.34711900  0.34711900  0.69714200  1
  Cu  Cu14  1  0.71271700  0.71271700  0.93073100  1
