# generated using pymatgen
data_Cu5NiC2
_symmetry_space_group_name_H-M   'P 1'
_cell_length_a   5.09557572
_cell_length_b   5.09557572
_cell_length_c   7.07540911
_cell_angle_alpha   70.09534515
_cell_angle_beta   70.09534515
_cell_angle_gamma   90.77660180
_symmetry_Int_Tables_number   1
_chemical_formula_structural   Cu5NiC2
_chemical_formula_sum   'Cu10 Ni2 C4'
_cell_volume   160.66721787
_cell_formula_units_Z   2
loop_
 _symmetry_equiv_pos_site_id
 _symmetry_equiv_pos_as_xyz
  1  'x, y, z'
loop_
 _atom_site_type_symbol
 _atom_site_label
 _atom_site_symmetry_multiplicity
 _atom_site_fract_x
 _atom_site_fract_y
 _atom_site_fract_z
 _atom_site_occupancy
  C  C0  1  0.50000000  0.50000000  0.50000000  1
  C  C1  1  0.50000000  0.50000000  0.00000000  1
  C  C2  1  0.28060000  0.71940000  0.25000000  1
  C  C3  1  0.71940000  0.28060000  0.75000000  1
  Ni  Ni4  1  0.86912300  0.13087700  0.25000000  1
  Ni  Ni5  1  0.13087700  0.86912300  0.75000000  1
  Cu  Cu6  1  0.17927600  0.19534300  0.15045600  1
  Cu  Cu7  1  0.80465700  0.82072400  0.34954400  1
  Cu  Cu8  1  0.82072400  0.80465700  0.84954400  1
  Cu  Cu9  1  0.19534300  0.17927600  0.65045600  1
  Cu  Cu10  1  0.76055000  0.25849800  0.41664300  1
  Cu  Cu11  1  0.74150200  0.23945000  0.08335700  1
  Cu  Cu12  1  0.23945000  0.74150200  0.58335700  1
  Cu  Cu13  1  0.25849800  0.76055000  0.91664300  1
  Cu  Cu14  1  0.41521700  0.58478300  0.25000000  1
  Cu  Cu15  1  0.58478300  0.41521700  0.75000000  1
