# generated using pymatgen
data_Cu5Ni3C
_symmetry_space_group_name_H-M   'P 1'
_cell_length_a   16.05358574
_cell_length_b   16.05358574
_cell_length_c   4.00916700
_cell_angle_alpha   90.00000000
_cell_angle_beta   90.00000000
_cell_angle_gamma   119.99999894
_symmetry_Int_Tables_number   1
_chemical_formula_structural   Cu5Ni3C
_chemical_formula_sum   'Cu30 Ni18 C6'
_cell_volume   894.80599932
_cell_formula_units_Z   6
loop_
 _symmetry_equiv_pos_site_id
 _symmetry_equiv_pos_as_xyz
  1  'x, y, z'
loop_
 _atom_site_type_symbol
 _atom_site_label
 _atom_site_symmetry_multiplicity
 _atom_site_fract_x
 _atom_site_fract_y
 _atom_site_fract_z
 _atom_site_occupancy
  C  C0  1  0.60939900  0.90324500  0.25000000  1
  C  C1  1  0.70615400  0.60939900  0.75000000  1
  C  C2  1  0.90324500  0.29384600  0.75000000  1
  C  C3  1  0.09675500  0.70615400  0.25000000  1
  C  C4  1  0.29384600  0.39060100  0.25000000  1
  C  C5  1  0.39060100  0.09675500  0.75000000  1
  Ni  Ni6  1  0.44899200  0.76718700  0.75000000  1
  Ni  Ni7  1  0.62677600  0.06090500  0.75000000  1
  Ni  Ni8  1  0.56587100  0.62677600  0.25000000  1
  Ni  Ni9  1  0.06090500  0.43412900  0.25000000  1
  Ni  Ni10  1  0.93909500  0.56587100  0.75000000  1
  Ni  Ni11  1  0.43412900  0.37322400  0.75000000  1
  Ni  Ni12  1  0.68180500  0.44899200  0.25000000  1
  Ni  Ni13  1  0.76718700  0.31819500  0.25000000  1
  Ni  Ni14  1  0.23281300  0.68180500  0.75000000  1
  Ni  Ni15  1  0.31819500  0.55100800  0.75000000  1
  Ni  Ni16  1  0.55100800  0.23281300  0.25000000  1
  Ni  Ni17  1  0.37322400  0.93909500  0.25000000  1
  Ni  Ni18  1  0.75091000  0.88302800  0.75000000  1
  Ni  Ni19  1  0.88302800  0.13211800  0.25000000  1
  Ni  Ni20  1  0.11697200  0.86788200  0.75000000  1
  Ni  Ni21  1  0.13211800  0.24909000  0.75000000  1
  Ni  Ni22  1  0.24909000  0.11697200  0.25000000  1
  Ni  Ni23  1  0.86788200  0.75091000  0.25000000  1
  Cu  Cu24  1  0.58847500  0.74461300  0.75000000  1
  Cu  Cu25  1  0.43540100  0.66511600  0.25000000  1
  Cu  Cu26  1  0.22971500  0.56459900  0.25000000  1
  Cu  Cu27  1  0.66511600  0.22971500  0.75000000  1
  Cu  Cu28  1  0.56459900  0.33488400  0.75000000  1
  Cu  Cu29  1  0.33488400  0.77028500  0.25000000  1
  Cu  Cu30  1  0.14967800  0.03156300  0.75000000  1
  Cu  Cu31  1  0.11811500  0.14967800  0.25000000  1
  Cu  Cu32  1  0.03156300  0.88188500  0.25000000  1
  Cu  Cu33  1  0.96843700  0.11811500  0.75000000  1
  Cu  Cu34  1  0.88188500  0.85032200  0.75000000  1
  Cu  Cu35  1  0.85032200  0.96843700  0.25000000  1
  Cu  Cu36  1  0.84386100  0.58847500  0.25000000  1
  Cu  Cu37  1  0.74461300  0.15613900  0.25000000  1
  Cu  Cu38  1  0.25538700  0.84386100  0.75000000  1
  Cu  Cu39  1  0.15613900  0.41152500  0.75000000  1
  Cu  Cu40  1  0.41152500  0.25538700  0.25000000  1
  Cu  Cu41  1  0.46580600  0.92352900  0.75000000  1
  Cu  Cu42  1  0.54227700  0.46580600  0.25000000  1
  Cu  Cu43  1  0.92352900  0.45772300  0.25000000  1
  Cu  Cu44  1  0.07647100  0.54227700  0.75000000  1
  Cu  Cu45  1  0.45772300  0.53419400  0.75000000  1
  Cu  Cu46  1  0.53419400  0.07647100  0.25000000  1
  Cu  Cu47  1  0.72414300  0.76462000  0.25000000  1
  Cu  Cu48  1  0.95952300  0.72414300  0.75000000  1
  Cu  Cu49  1  0.76462000  0.04047700  0.75000000  1
  Cu  Cu50  1  0.23538000  0.95952300  0.25000000  1
  Cu  Cu51  1  0.04047700  0.27585700  0.25000000  1
  Cu  Cu52  1  0.27585700  0.23538000  0.75000000  1
  Cu  Cu53  1  0.77028500  0.43540100  0.75000000  1
