# generated using pymatgen
data_Cu(NiC7)3
_symmetry_space_group_name_H-M   'P 1'
_cell_length_a   11.27569894
_cell_length_b   11.27569894
_cell_length_c   6.12645600
_cell_angle_alpha   90.00000000
_cell_angle_beta   90.00000000
_cell_angle_gamma   120.00000552
_symmetry_Int_Tables_number   1
_chemical_formula_structural   Cu(NiC7)3
_chemical_formula_sum   'Cu2 Ni6 C42'
_cell_volume   674.56976212
_cell_formula_units_Z   2
loop_
 _symmetry_equiv_pos_site_id
 _symmetry_equiv_pos_as_xyz
  1  'x, y, z'
loop_
 _atom_site_type_symbol
 _atom_site_label
 _atom_site_symmetry_multiplicity
 _atom_site_fract_x
 _atom_site_fract_y
 _atom_site_fract_z
 _atom_site_occupancy
  Ni  Ni0  1  0.83993900  0.72992700  0.75000000  1
  Ni  Ni1  1  0.88998800  0.16006100  0.75000000  1
  Ni  Ni2  1  0.27007300  0.11001200  0.75000000  1
  Ni  Ni3  1  0.16006100  0.27007300  0.25000000  1
  Ni  Ni4  1  0.11001200  0.83993900  0.25000000  1
  Ni  Ni5  1  0.72992700  0.88998800  0.25000000  1
  Cu  Cu6  1  0.33333300  0.66666700  0.25000000  1
  Cu  Cu7  1  0.66666700  0.33333300  0.75000000  1
  C  C8  1  0.50000000  0.50000000  0.50000000  1
  C  C9  1  0.00000000  0.50000000  0.50000000  1
  C  C10  1  0.50000000  0.00000000  0.50000000  1
  C  C11  1  0.50000000  0.50000000  0.00000000  1
  C  C12  1  0.00000000  0.50000000  0.00000000  1
  C  C13  1  0.50000000  0.00000000  0.00000000  1
  C  C14  1  0.21381300  0.39952600  0.75000000  1
  C  C15  1  0.18571400  0.78618700  0.75000000  1
  C  C16  1  0.60047400  0.81428600  0.75000000  1
  C  C17  1  0.78618700  0.60047400  0.25000000  1
  C  C18  1  0.81428600  0.21381300  0.25000000  1
  C  C19  1  0.39952600  0.18571400  0.25000000  1
  C  C20  1  0.52432600  0.61376900  0.25000000  1
  C  C21  1  0.08944300  0.47567400  0.25000000  1
  C  C22  1  0.38623100  0.91055700  0.25000000  1
  C  C23  1  0.47567400  0.38623100  0.75000000  1
  C  C24  1  0.91055700  0.52432600  0.75000000  1
  C  C25  1  0.61376900  0.08944300  0.75000000  1
  C  C26  1  0.30828200  0.48227200  0.51774500  1
  C  C27  1  0.17399000  0.69171800  0.51774500  1
  C  C28  1  0.51772800  0.82601000  0.51774500  1
  C  C29  1  0.69171800  0.51772800  0.01774500  1
  C  C30  1  0.82601000  0.30828200  0.01774500  1
  C  C31  1  0.48227200  0.17399000  0.01774500  1
  C  C32  1  0.69171800  0.51772800  0.48225500  1
  C  C33  1  0.82601000  0.30828200  0.48225500  1
  C  C34  1  0.48227200  0.17399000  0.48225500  1
  C  C35  1  0.30828200  0.48227200  0.98225500  1
  C  C36  1  0.17399000  0.69171800  0.98225500  1
  C  C37  1  0.51772800  0.82601000  0.98225500  1
  C  C38  1  0.07319500  0.42195800  0.75000000  1
  C  C39  1  0.34876300  0.92680500  0.75000000  1
  C  C40  1  0.57804200  0.65123700  0.75000000  1
  C  C41  1  0.92680500  0.57804200  0.25000000  1
  C  C42  1  0.65123700  0.07319500  0.25000000  1
  C  C43  1  0.42195800  0.34876300  0.25000000  1
  C  C44  1  0.14996000  0.22841700  0.75000000  1
  C  C45  1  0.07845700  0.85004000  0.75000000  1
  C  C46  1  0.77158300  0.92154300  0.75000000  1
  C  C47  1  0.85004000  0.77158300  0.25000000  1
  C  C48  1  0.92154300  0.14996000  0.25000000  1
  C  C49  1  0.22841700  0.07845700  0.25000000  1
