# generated using pymatgen
data_CuNi3C10
_symmetry_space_group_name_H-M   'P 1'
_cell_length_a   15.10762584
_cell_length_b   15.10762584
_cell_length_c   14.43432973
_cell_angle_alpha   88.62782230
_cell_angle_beta   88.62782230
_cell_angle_gamma   21.65814178
_symmetry_Int_Tables_number   1
_chemical_formula_structural   CuNi3C10
_chemical_formula_sum   'Cu6 Ni18 C60'
_cell_volume   1215.53139936
_cell_formula_units_Z   6
loop_
 _symmetry_equiv_pos_site_id
 _symmetry_equiv_pos_as_xyz
  1  'x, y, z'
loop_
 _atom_site_type_symbol
 _atom_site_label
 _atom_site_symmetry_multiplicity
 _atom_site_fract_x
 _atom_site_fract_y
 _atom_site_fract_z
 _atom_site_occupancy
  Ni  Ni0  1  0.29262200  0.28676500  0.41714600  1
  Ni  Ni1  1  0.28676500  0.29262200  0.91714600  1
  Ni  Ni2  1  0.17952400  0.14476900  0.32743600  1
  Ni  Ni3  1  0.14476900  0.17952400  0.82743600  1
  Ni  Ni4  1  0.33422700  0.44503100  0.07509300  1
  Ni  Ni5  1  0.44503100  0.33422700  0.57509300  1
  Ni  Ni6  1  0.54345800  0.44983700  0.23530600  1
  Ni  Ni7  1  0.44983700  0.54345800  0.73530600  1
  Ni  Ni8  1  0.05465900  0.06698800  0.00839500  1
  Ni  Ni9  1  0.06698800  0.05465900  0.50839500  1
  Ni  Ni10  1  0.60793900  0.58815700  0.39072800  1
  Ni  Ni11  1  0.58815700  0.60793900  0.89072800  1
  Ni  Ni12  1  0.93318400  0.94972500  0.15412100  1
  Ni  Ni13  1  0.94972500  0.93318400  0.65412100  1
  Ni  Ni14  1  0.71637300  0.72761100  0.47477700  1
  Ni  Ni15  1  0.72761100  0.71637300  0.97477700  1
  Ni  Ni16  1  0.80596800  0.83572400  0.29553100  1
  Ni  Ni17  1  0.83572400  0.80596800  0.79553100  1
  Cu  Cu18  1  0.58032300  0.66018400  0.63606400  1
  Cu  Cu19  1  0.66018400  0.58032300  0.13606400  1
  Cu  Cu20  1  0.04320500  0.84163100  0.40092800  1
  Cu  Cu21  1  0.84163100  0.04320500  0.90092800  1
  Cu  Cu22  1  0.22824400  0.30479100  0.16859400  1
  Cu  Cu23  1  0.30479100  0.22824400  0.66859400  1
  C  C24  1  0.69949100  0.72934000  0.25418900  1
  C  C25  1  0.72934000  0.69949100  0.75418900  1
  C  C26  1  0.08527500  0.02383600  0.25808000  1
  C  C27  1  0.02383600  0.08527500  0.75808000  1
  C  C28  1  0.18092200  0.16551600  0.04718400  1
  C  C29  1  0.16551600  0.18092200  0.54718400  1
  C  C30  1  0.80057300  0.86381300  0.04812900  1
  C  C31  1  0.86381300  0.80057300  0.54812900  1
  C  C32  1  0.42972700  0.34068700  0.30746000  1
  C  C33  1  0.34068700  0.42972700  0.80746000  1
  C  C34  1  0.45159300  0.54931200  0.00249400  1
  C  C35  1  0.54931200  0.45159300  0.50249400  1
  C  C36  1  0.93485100  0.20756500  0.16105900  1
  C  C37  1  0.20756500  0.93485100  0.66105900  1
  C  C38  1  0.41948600  0.87663900  0.01525000  1
  C  C39  1  0.87663900  0.41948600  0.51525000  1
  C  C40  1  0.41666000  0.57716400  0.39374600  1
  C  C41  1  0.57716400  0.41666000  0.89374600  1
  C  C42  1  0.46026200  0.01620800  0.29153400  1
  C  C43  1  0.01620800  0.46026200  0.79153400  1
  C  C44  1  0.32122400  0.45884700  0.41832100  1
  C  C45  1  0.45884700  0.32122400  0.91832100  1
  C  C46  1  0.01528000  0.15116200  0.35304400  1
  C  C47  1  0.15116200  0.01528000  0.85304400  1
  C  C48  1  0.13487100  0.20795300  0.16551300  1
  C  C49  1  0.20795300  0.13487100  0.66551300  1
  C  C50  1  0.58608900  0.34572200  0.07415100  1
  C  C51  1  0.34572200  0.58608900  0.57415100  1
  C  C52  1  0.86990600  0.90977400  0.52762800  1
  C  C53  1  0.90977400  0.86990600  0.02762800  1
  C  C54  1  0.35400700  0.30361700  0.27695600  1
  C  C55  1  0.30361700  0.35400700  0.77695600  1
  C  C56  1  0.67330900  0.96032300  0.64340500  1
  C  C57  1  0.96032300  0.67330900  0.14340600  1
  C  C58  1  0.74484300  0.05632900  0.30110800  1
  C  C59  1  0.05632900  0.74484300  0.80110800  1
  C  C60  1  0.49272800  0.15002900  0.07513100  1
  C  C61  1  0.15002900  0.49272800  0.57513100  1
  C  C62  1  0.72872600  0.70500500  0.13541400  1
  C  C63  1  0.70500500  0.72872600  0.63541400  1
  C  C64  1  0.96010100  0.52841600  0.30313000  1
  C  C65  1  0.52841600  0.96010100  0.80313000  1
  C  C66  1  0.23271800  0.22790500  0.01630100  1
  C  C67  1  0.22790500  0.23271800  0.51630100  1
  C  C68  1  0.52079000  0.59314700  0.03387700  1
  C  C69  1  0.59314700  0.52079000  0.53387700  1
  C  C70  1  0.39628900  0.73964000  0.23775300  1
  C  C71  1  0.73964000  0.39628900  0.73775300  1
  C  C72  1  0.74785800  0.85494200  0.45432300  1
  C  C73  1  0.85494200  0.74785800  0.95432300  1
  C  C74  1  0.36945100  0.91995000  0.49490200  1
  C  C75  1  0.91995000  0.36945100  0.99490200  1
  C  C76  1  0.98149400  0.01147500  0.27425900  1
  C  C77  1  0.01147500  0.98149400  0.77425900  1
  C  C78  1  0.28479200  0.55578200  0.24076100  1
  C  C79  1  0.55578200  0.28479200  0.74076100  1
  C  C80  1  0.83280500  0.13625500  0.50155600  1
  C  C81  1  0.13625500  0.83280500  0.00155600  1
  C  C82  1  0.66190300  0.65282500  0.78602000  1
  C  C83  1  0.65282500  0.66190300  0.28602000  1
