# generated using pymatgen
data_Cu(NiC)4
_symmetry_space_group_name_H-M   'P 1'
_cell_length_a   5.39020100
_cell_length_b   10.72328200
_cell_length_c   8.28262100
_cell_angle_alpha   90.00000000
_cell_angle_beta   90.00000000
_cell_angle_gamma   90.00000000
_symmetry_Int_Tables_number   1
_chemical_formula_structural   Cu(NiC)4
_chemical_formula_sum   'Cu4 Ni16 C16'
_cell_volume   478.74083907
_cell_formula_units_Z   4
loop_
 _symmetry_equiv_pos_site_id
 _symmetry_equiv_pos_as_xyz
  1  'x, y, z'
loop_
 _atom_site_type_symbol
 _atom_site_label
 _atom_site_symmetry_multiplicity
 _atom_site_fract_x
 _atom_site_fract_y
 _atom_site_fract_z
 _atom_site_occupancy
  Ni  Ni0  1  0.18082000  0.35933300  0.61768400  1
  Ni  Ni1  1  0.31918000  0.64066700  0.61768400  1
  Ni  Ni2  1  0.18082000  0.14066700  0.88231600  1
  Ni  Ni3  1  0.31918000  0.85933300  0.88231600  1
  Ni  Ni4  1  0.81918000  0.64066700  0.38231600  1
  Ni  Ni5  1  0.68082000  0.35933300  0.38231600  1
  Ni  Ni6  1  0.81918000  0.85933300  0.11768400  1
  Ni  Ni7  1  0.68082000  0.14066700  0.11768400  1
  Ni  Ni8  1  0.75000000  0.50000000  0.04364800  1
  Ni  Ni9  1  0.75000000  0.00000000  0.45635200  1
  Ni  Ni10  1  0.25000000  0.50000000  0.95635200  1
  Ni  Ni11  1  0.25000000  0.00000000  0.54364800  1
  Ni  Ni12  1  0.72552400  0.25000000  0.75000000  1
  Ni  Ni13  1  0.77447600  0.75000000  0.75000000  1
  Ni  Ni14  1  0.27447600  0.75000000  0.25000000  1
  Ni  Ni15  1  0.22552400  0.25000000  0.25000000  1
  Cu  Cu16  1  0.75000000  0.50000000  0.71120500  1
  Cu  Cu17  1  0.75000000  0.00000000  0.78879500  1
  Cu  Cu18  1  0.25000000  0.50000000  0.28879500  1
  Cu  Cu19  1  0.25000000  0.00000000  0.21120400  1
  C  C20  1  0.55211300  0.37971900  0.61147400  1
  C  C21  1  0.94788700  0.62028100  0.61147400  1
  C  C22  1  0.55211300  0.12028100  0.88852600  1
  C  C23  1  0.94788700  0.87971900  0.88852600  1
  C  C24  1  0.44788700  0.62028100  0.38852600  1
  C  C25  1  0.05211300  0.37971900  0.38852600  1
  C  C26  1  0.44788700  0.87971900  0.11147400  1
  C  C27  1  0.05211300  0.12028100  0.11147400  1
  C  C28  1  0.96872300  0.10293600  0.65871600  1
  C  C29  1  0.53127700  0.89706400  0.65871600  1
  C  C30  1  0.96872300  0.39706400  0.84128400  1
  C  C31  1  0.53127700  0.60293600  0.84128400  1
  C  C32  1  0.03127700  0.89706400  0.34128400  1
  C  C33  1  0.46872200  0.10293600  0.34128400  1
  C  C34  1  0.03127700  0.60293600  0.15871600  1
  C  C35  1  0.46872200  0.39706400  0.15871600  1
