# generated using pymatgen
data_CuNiC
_symmetry_space_group_name_H-M   'P 1'
_cell_length_a   3.59475900
_cell_length_b   6.39195600
_cell_length_c   7.46149100
_cell_angle_alpha   90.00000000
_cell_angle_beta   90.00000000
_cell_angle_gamma   90.00000000
_symmetry_Int_Tables_number   1
_chemical_formula_structural   CuNiC
_chemical_formula_sum   'Cu4 Ni4 C4'
_cell_volume   171.44671805
_cell_formula_units_Z   4
loop_
 _symmetry_equiv_pos_site_id
 _symmetry_equiv_pos_as_xyz
  1  'x, y, z'
loop_
 _atom_site_type_symbol
 _atom_site_label
 _atom_site_symmetry_multiplicity
 _atom_site_fract_x
 _atom_site_fract_y
 _atom_site_fract_z
 _atom_site_occupancy
  Ni  Ni0  1  0.25000000  0.53153800  0.17456700  1
  Ni  Ni1  1  0.75000000  0.46846200  0.82543300  1
  Ni  Ni2  1  0.75000000  0.96846200  0.67456700  1
  Ni  Ni3  1  0.25000000  0.03153800  0.32543300  1
  Cu  Cu4  1  0.25000000  0.63602300  0.56034400  1
  Cu  Cu5  1  0.75000000  0.36397700  0.43965600  1
  Cu  Cu6  1  0.75000000  0.86397700  0.06034400  1
  Cu  Cu7  1  0.25000000  0.13602300  0.93965600  1
  C  C8  1  0.25000000  0.76673900  0.87159600  1
  C  C9  1  0.75000000  0.23326100  0.12840400  1
  C  C10  1  0.75000000  0.73326100  0.37159600  1
  C  C11  1  0.25000000  0.26673900  0.62840400  1
