# generated using pymatgen
data_Cu9Ni6C
_symmetry_space_group_name_H-M   'P 1'
_cell_length_a   7.76570136
_cell_length_b   13.79533805
_cell_length_c   11.82408400
_cell_angle_alpha   90.00000000
_cell_angle_beta   90.00000000
_cell_angle_gamma   27.34929694
_symmetry_Int_Tables_number   1
_chemical_formula_structural   Cu9Ni6C
_chemical_formula_sum   'Cu18 Ni12 C2'
_cell_volume   581.94871383
_cell_formula_units_Z   2
loop_
 _symmetry_equiv_pos_site_id
 _symmetry_equiv_pos_as_xyz
  1  'x, y, z'
loop_
 _atom_site_type_symbol
 _atom_site_label
 _atom_site_symmetry_multiplicity
 _atom_site_fract_x
 _atom_site_fract_y
 _atom_site_fract_z
 _atom_site_occupancy
  C  C0  1  0.00000000  0.28477000  0.25000000  1
  C  C1  1  0.00000000  0.71523000  0.75000000  1
  Ni  Ni2  1  0.68181600  0.79123300  0.25000000  1
  Ni  Ni3  1  0.68181600  0.52695100  0.75000000  1
  Ni  Ni4  1  0.31818400  0.20876700  0.75000000  1
  Ni  Ni5  1  0.31818400  0.47304900  0.25000000  1
  Ni  Ni6  1  0.68213600  0.30227400  0.90406000  1
  Ni  Ni7  1  0.68213600  0.01559000  0.09594000  1
  Ni  Ni8  1  0.68213600  0.30227400  0.59594000  1
  Ni  Ni9  1  0.68213600  0.01559000  0.40406000  1
  Ni  Ni10  1  0.31786400  0.69772600  0.09594000  1
  Ni  Ni11  1  0.31786400  0.98441000  0.90406000  1
  Ni  Ni12  1  0.31786400  0.69772600  0.40406000  1
  Ni  Ni13  1  0.31786400  0.98441000  0.59594000  1
  Cu  Cu14  1  0.00000000  0.58775800  0.25000000  1
  Cu  Cu15  1  0.00000000  0.41224300  0.75000000  1
  Cu  Cu16  1  0.38072000  0.97720600  0.25000000  1
  Cu  Cu17  1  0.38072000  0.64207300  0.75000000  1
  Cu  Cu18  1  0.61928000  0.02279400  0.75000000  1
  Cu  Cu19  1  0.61928000  0.35792700  0.25000000  1
  Cu  Cu20  1  0.00000000  0.12471300  0.95081600  1
  Cu  Cu21  1  0.00000000  0.87528700  0.04918400  1
  Cu  Cu22  1  0.00000000  0.12471300  0.54918400  1
  Cu  Cu23  1  0.00000000  0.87528700  0.45081600  1
  Cu  Cu24  1  0.38095300  0.46772100  0.86679300  1
  Cu  Cu25  1  0.38095300  0.15132600  0.13320700  1
  Cu  Cu26  1  0.38095300  0.46772100  0.63320700  1
  Cu  Cu27  1  0.38095300  0.15132600  0.36679300  1
  Cu  Cu28  1  0.61904700  0.53227900  0.13320700  1
  Cu  Cu29  1  0.61904700  0.84867400  0.86679300  1
  Cu  Cu30  1  0.61904700  0.53227900  0.36679300  1
  Cu  Cu31  1  0.61904700  0.84867400  0.63320700  1
