# generated using pymatgen
data_Cu2NiC26
_symmetry_space_group_name_H-M   'P 1'
_cell_length_a   11.71300824
_cell_length_b   11.71300824
_cell_length_c   19.55809639
_cell_angle_alpha   90.00000000
_cell_angle_beta   90.00000000
_cell_angle_gamma   120.00000329
_symmetry_Int_Tables_number   1
_chemical_formula_structural   Cu2NiC26
_chemical_formula_sum   'Cu12 Ni6 C156'
_cell_volume   2323.77511843
_cell_formula_units_Z   6
loop_
 _symmetry_equiv_pos_site_id
 _symmetry_equiv_pos_as_xyz
  1  'x, y, z'
loop_
 _atom_site_type_symbol
 _atom_site_label
 _atom_site_symmetry_multiplicity
 _atom_site_fract_x
 _atom_site_fract_y
 _atom_site_fract_z
 _atom_site_occupancy
  Ni  Ni0  1  0.66577602  0.66577602  0.75000000  1
  Ni  Ni1  1  0.33422398  0.33422398  0.25000000  1
  Ni  Ni2  1  0.00000000  0.33422398  0.75000000  1
  Ni  Ni3  1  1.00000000  0.66577602  0.25000000  1
  Ni  Ni4  1  0.33422398  0.00000000  0.75000000  1
  Ni  Ni5  1  0.66577602  1.00000000  0.25000000  1
  Cu  Cu6  1  0.99301394  0.32972525  0.96337620  1
  Cu  Cu7  1  0.00698606  0.67027475  0.03662380  1
  Cu  Cu8  1  0.33671131  0.00698606  0.96337620  1
  Cu  Cu9  1  0.66328869  0.67027475  0.53662380  1
  Cu  Cu10  1  0.66328869  0.99301394  0.03662380  1
  Cu  Cu11  1  0.33671131  0.32972525  0.46337620  1
  Cu  Cu12  1  0.67027475  0.66328869  0.96337620  1
  Cu  Cu13  1  0.32972525  0.99301394  0.53662380  1
  Cu  Cu14  1  0.32972525  0.33671131  0.03662380  1
  Cu  Cu15  1  0.67027475  0.00698606  0.46337620  1
  Cu  Cu16  1  0.00698606  0.33671131  0.53662380  1
  Cu  Cu17  1  0.99301394  0.66328869  0.46337620  1
  C  C18  1  0.66666700  0.33333300  0.97725760  1
  C  C19  1  0.33333300  0.66666700  0.02274240  1
  C  C20  1  0.33333300  0.66666700  0.52274240  1
  C  C21  1  0.66666700  0.33333300  0.47725760  1
  C  C22  1  0.66666700  0.33333300  0.72717584  1
  C  C23  1  0.33333300  0.66666700  0.27282416  1
  C  C24  1  0.33333300  0.66666700  0.77282416  1
  C  C25  1  0.66666700  0.33333300  0.22717584  1
  C  C26  1  -0.00000000  -0.00000000  -0.00000000  1
  C  C27  1  -0.00000000  -0.00000000  0.50000000  1
  C  C28  1  0.82634614  0.00385349  0.87433646  1
  C  C29  1  0.17365386  0.99614651  0.12566354  1
  C  C30  1  0.17750735  0.17365386  0.87433646  1
  C  C31  1  0.82249265  0.99614651  0.62566354  1
  C  C32  1  0.82249265  0.82634614  0.12566354  1
  C  C33  1  0.17750735  0.00385349  0.37433646  1
  C  C34  1  0.99614651  0.82249265  0.87433646  1
  C  C35  1  0.00385349  0.82634614  0.62566354  1
  C  C36  1  0.00385349  0.17750735  0.12566354  1
  C  C37  1  0.99614651  0.17365386  0.37433646  1
  C  C38  1  0.17365386  0.17750735  0.62566354  1
  C  C39  1  0.82634614  0.82249265  0.37433646  1
  C  C40  1  0.66110711  0.14590557  0.85196900  1
  C  C41  1  0.33889289  0.85409443  0.14803100  1
  C  C42  1  0.48479845  0.33889289  0.85196900  1
  C  C43  1  0.51520155  0.85409443  0.64803100  1
  C  C44  1  0.51520155  0.66110711  0.14803100  1
  C  C45  1  0.48479845  0.14590557  0.35196900  1
  C  C46  1  0.85409443  0.51520155  0.85196900  1
  C  C47  1  0.14590557  0.66110711  0.64803100  1
  C  C48  1  0.14590557  0.48479845  0.14803100  1
  C  C49  1  0.85409443  0.33889289  0.35196900  1
  C  C50  1  0.33889289  0.48479845  0.64803100  1
  C  C51  1  0.66110711  0.51520155  0.35196900  1
  C  C52  1  0.51119965  0.84618577  0.89336249  1
  C  C53  1  0.48880035  0.15381423  0.10663751  1
  C  C54  1  0.33498613  0.48880035  0.89336249  1
  C  C55  1  0.66501387  0.15381423  0.60663751  1
  C  C56  1  0.66501387  0.51119965  0.10663751  1
  C  C57  1  0.33498613  0.84618577  0.39336249  1
  C  C58  1  0.15381423  0.66501387  0.89336249  1
  C  C59  1  0.84618577  0.51119965  0.60663751  1
  C  C60  1  0.84618577  0.33498613  0.10663751  1
  C  C61  1  0.15381423  0.48880035  0.39336249  1
  C  C62  1  0.48880035  0.33498613  0.60663751  1
  C  C63  1  0.51119965  0.66501387  0.39336249  1
  C  C64  1  -0.00000000  -0.00000000  0.75000000  1
  C  C65  1  -0.00000000  -0.00000000  0.25000000  1
  C  C66  1  0.73533510  0.24581389  0.92340775  1
  C  C67  1  0.26466490  0.75418611  0.07659225  1
  C  C68  1  0.51047879  0.26466490  0.92340775  1
  C  C69  1  0.48952121  0.75418611  0.57659225  1
  C  C70  1  0.48952121  0.73533510  0.07659225  1
  C  C71  1  0.51047879  0.24581389  0.42340775  1
  C  C72  1  0.75418611  0.48952121  0.92340775  1
  C  C73  1  0.24581389  0.73533510  0.57659225  1
  C  C74  1  0.24581389  0.51047879  0.07659225  1
  C  C75  1  0.75418611  0.26466490  0.42340775  1
  C  C76  1  0.26466490  0.51047879  0.57659225  1
  C  C77  1  0.73533510  0.48952121  0.42340775  1
  C  C78  1  0.67623367  0.89367469  0.92089104  1
  C  C79  1  0.32376633  0.10632531  0.07910896  1
  C  C80  1  0.21744102  0.32376633  0.92089104  1
  C  C81  1  0.78255898  0.10632531  0.57910896  1
  C  C82  1  0.78255898  0.67623367  0.07910896  1
  C  C83  1  0.21744102  0.89367469  0.42089104  1
  C  C84  1  0.10632531  0.78255898  0.92089104  1
  C  C85  1  0.89367469  0.67623367  0.57910896  1
  C  C86  1  0.89367469  0.21744102  0.07910896  1
  C  C87  1  0.10632531  0.32376633  0.42089104  1
  C  C88  1  0.32376633  0.21744102  0.57910896  1
  C  C89  1  0.67623367  0.78255898  0.42089104  1
  C  C90  1  0.81798391  0.40665976  0.78260910  1
  C  C91  1  0.18201609  0.59334024  0.21739090  1
  C  C92  1  0.58867586  0.18201609  0.78260910  1
  C  C93  1  0.41132414  0.59334024  0.71739090  1
  C  C94  1  0.41132414  0.81798391  0.21739090  1
  C  C95  1  0.58867586  0.40665976  0.28260910  1
  C  C96  1  0.59334024  0.41132414  0.78260910  1
  C  C97  1  0.40665976  0.81798391  0.71739090  1
  C  C98  1  0.40665976  0.58867586  0.21739090  1
  C  C99  1  0.59334024  0.18201609  0.28260910  1
  C  C100  1  0.18201609  0.58867586  0.71739090  1
  C  C101  1  0.81798391  0.41132414  0.28260910  1
  C  C102  1  0.93736187  0.09135108  0.94179894  1
  C  C103  1  0.06263813  0.90864892  0.05820106  1
  C  C104  1  0.15398921  0.06263813  0.94179894  1
  C  C105  1  0.84601079  0.90864892  0.55820106  1
  C  C106  1  0.84601079  0.93736187  0.05820106  1
  C  C107  1  0.15398921  0.09135108  0.44179894  1
  C  C108  1  0.90864892  0.84601079  0.94179894  1
  C  C109  1  0.09135108  0.93736187  0.55820106  1
  C  C110  1  0.09135108  0.15398921  0.05820106  1
  C  C111  1  0.90864892  0.06263813  0.44179894  1
  C  C112  1  0.06263813  0.15398921  0.55820106  1
  C  C113  1  0.93736187  0.84601079  0.44179894  1
  C  C114  1  0.79322423  0.11799244  0.82720638  1
  C  C115  1  0.20677577  0.88200756  0.17279362  1
  C  C116  1  0.32476820  0.20677577  0.82720638  1
  C  C117  1  0.67523180  0.88200756  0.67279362  1
  C  C118  1  0.67523180  0.79322423  0.17279362  1
  C  C119  1  0.32476820  0.11799244  0.32720638  1
  C  C120  1  0.88200756  0.67523180  0.82720638  1
  C  C121  1  0.11799244  0.79322423  0.67279362  1
  C  C122  1  0.11799244  0.32476820  0.17279362  1
  C  C123  1  0.88200756  0.20677577  0.32720638  1
  C  C124  1  0.20677577  0.32476820  0.67279362  1
  C  C125  1  0.79322423  0.67523180  0.32720638  1
  C  C126  1  0.47920244  0.48707405  0.86633782  1
  C  C127  1  0.52079756  0.51292595  0.13366218  1
  C  C128  1  0.00787161  0.52079756  0.86633782  1
  C  C129  1  0.99212839  0.51292595  0.63366218  1
  C  C130  1  0.99212839  0.47920244  0.13366218  1
  C  C131  1  0.00787161  0.48707405  0.36633782  1
  C  C132  1  0.51292595  0.99212839  0.86633782  1
  C  C133  1  0.48707405  0.47920244  0.63366218  1
  C  C134  1  0.48707405  0.00787161  0.13366218  1
  C  C135  1  0.51292595  0.52079756  0.36633782  1
  C  C136  1  0.52079756  0.00787161  0.63366218  1
  C  C137  1  0.47920244  0.99212839  0.36633782  1
  C  C138  1  0.84785501  0.91137017  0.80887455  1
  C  C139  1  0.15214499  0.08862983  0.19112545  1
  C  C140  1  0.06351517  0.15214499  0.80887455  1
  C  C141  1  0.93648483  0.08862983  0.69112545  1
  C  C142  1  0.93648483  0.84785501  0.19112545  1
  C  C143  1  0.06351517  0.91137017  0.30887455  1
  C  C144  1  0.08862983  0.93648483  0.80887455  1
  C  C145  1  0.91137017  0.84785501  0.69112545  1
  C  C146  1  0.91137017  0.06351517  0.19112545  1
  C  C147  1  0.08862983  0.15214499  0.30887455  1
  C  C148  1  0.15214499  0.06351517  0.69112545  1
  C  C149  1  0.84785501  0.93648483  0.30887455  1
  C  C150  1  0.40202507  0.57942506  0.96861900  1
  C  C151  1  0.59797493  0.42057494  0.03138100  1
  C  C152  1  0.17739999  0.59797493  0.96861900  1
  C  C153  1  0.82260001  0.42057494  0.53138100  1
  C  C154  1  0.82260001  0.40202507  0.03138100  1
  C  C155  1  0.17739999  0.57942506  0.46861900  1
  C  C156  1  0.42057494  0.82260001  0.96861900  1
  C  C157  1  0.57942506  0.40202507  0.53138100  1
  C  C158  1  0.57942506  0.17739999  0.03138100  1
  C  C159  1  0.42057494  0.59797493  0.46861900  1
  C  C160  1  0.59797493  0.17739999  0.53138100  1
  C  C161  1  0.40202507  0.82260001  0.46861900  1
  C  C162  1  0.48579011  0.72897481  0.82982202  1
  C  C163  1  0.51420989  0.27102519  0.17017798  1
  C  C164  1  0.24318470  0.51420989  0.82982202  1
  C  C165  1  0.75681530  0.27102519  0.67017798  1
  C  C166  1  0.75681530  0.48579011  0.17017798  1
  C  C167  1  0.24318470  0.72897481  0.32982202  1
  C  C168  1  0.27102519  0.75681530  0.82982202  1
  C  C169  1  0.72897481  0.48579011  0.67017798  1
  C  C170  1  0.72897481  0.24318470  0.17017798  1
  C  C171  1  0.27102519  0.51420989  0.32982202  1
  C  C172  1  0.51420989  0.24318470  0.67017798  1
  C  C173  1  0.48579011  0.75681530  0.32982202  1
