# generated using pymatgen
data_Cu(NiC8)2
_symmetry_space_group_name_H-M   'P 1'
_cell_length_a   5.24673832
_cell_length_b   7.96462827
_cell_length_c   12.39847800
_cell_angle_alpha   90.00000000
_cell_angle_beta   90.00000000
_cell_angle_gamma   92.94029807
_symmetry_Int_Tables_number   1
_chemical_formula_structural   Cu(NiC8)2
_chemical_formula_sum   'Cu2 Ni4 C32'
_cell_volume   517.42949036
_cell_formula_units_Z   2
loop_
 _symmetry_equiv_pos_site_id
 _symmetry_equiv_pos_as_xyz
  1  'x, y, z'
loop_
 _atom_site_type_symbol
 _atom_site_label
 _atom_site_symmetry_multiplicity
 _atom_site_fract_x
 _atom_site_fract_y
 _atom_site_fract_z
 _atom_site_occupancy
  C  C0  1  0.75465800  0.58670700  0.87852100  1
  C  C1  1  0.24534200  0.41329300  0.12147900  1
  C  C2  1  0.24534200  0.91329300  0.37852100  1
  C  C3  1  0.75465800  0.08670700  0.62147900  1
  Ni  Ni4  1  0.78050200  0.66945600  0.17444500  1
  Ni  Ni5  1  0.21949800  0.33054400  0.82555500  1
  Ni  Ni6  1  0.21949800  0.83054400  0.67444500  1
  Ni  Ni7  1  0.78050200  0.16945600  0.32555500  1
  Cu  Cu8  1  0.50000000  0.00000000  0.00000000  1
  Cu  Cu9  1  0.50000000  0.50000000  0.50000000  1
  C  C10  1  0.28742900  0.92708800  0.84174100  1
  C  C11  1  0.71257100  0.07291200  0.15825900  1
  C  C12  1  0.71257100  0.57291200  0.34174100  1
  C  C13  1  0.28742900  0.42708800  0.65825900  1
  C  C14  1  0.43294400  0.58241400  0.64252200  1
  C  C15  1  0.56705600  0.41758600  0.35747800  1
  C  C16  1  0.56705600  0.91758600  0.14252200  1
  C  C17  1  0.43294400  0.08241400  0.85747800  1
  C  C18  1  0.92806800  0.00631500  0.95978600  1
  C  C19  1  0.07193200  0.99368500  0.04021400  1
  C  C20  1  0.07193200  0.49368500  0.45978600  1
  C  C21  1  0.92806800  0.50631500  0.54021400  1
  C  C22  1  0.45930800  0.57378200  0.85868700  1
  C  C23  1  0.54069200  0.42621800  0.14131300  1
  C  C24  1  0.54069200  0.92621800  0.35868700  1
  C  C25  1  0.45930800  0.07378200  0.64131300  1
  C  C26  1  0.83438600  0.89862200  0.61238300  1
  C  C27  1  0.16561400  0.10137800  0.38761700  1
  C  C28  1  0.16561400  0.60137800  0.11238300  1
  C  C29  1  0.83438600  0.39862200  0.88761700  1
  C  C30  1  0.77882200  0.69143400  0.98662900  1
  C  C31  1  0.22117800  0.30856600  0.01337100  1
  C  C32  1  0.22117800  0.80856600  0.48662900  1
  C  C33  1  0.77882200  0.19143400  0.51337100  1
  C  C34  1  0.92336700  0.66559600  0.78542500  1
  C  C35  1  0.07663300  0.33440400  0.21457500  1
  C  C36  1  0.07663300  0.83440400  0.28542500  1
  C  C37  1  0.92336700  0.16559600  0.71457500  1
