# generated using pymatgen
data_Cu3Ni3C16
_symmetry_space_group_name_H-M   'P 1'
_cell_length_a   10.02788958
_cell_length_b   10.02788958
_cell_length_c   5.89894100
_cell_angle_alpha   90.00000000
_cell_angle_beta   90.00000000
_cell_angle_gamma   119.99999722
_symmetry_Int_Tables_number   1
_chemical_formula_structural   Cu3Ni3C16
_chemical_formula_sum   'Cu6 Ni6 C32'
_cell_volume   513.71681649
_cell_formula_units_Z   2
loop_
 _symmetry_equiv_pos_site_id
 _symmetry_equiv_pos_as_xyz
  1  'x, y, z'
loop_
 _atom_site_type_symbol
 _atom_site_label
 _atom_site_symmetry_multiplicity
 _atom_site_fract_x
 _atom_site_fract_y
 _atom_site_fract_z
 _atom_site_occupancy
  C  C0  1  0.33333300  0.66666700  0.24672200  1
  C  C1  1  0.66666700  0.33333300  0.74672200  1
  C  C2  1  0.33374200  0.26522600  0.23917300  1
  C  C3  1  0.93148300  0.66625800  0.23917300  1
  C  C4  1  0.73477400  0.06851700  0.23917300  1
  C  C5  1  0.66625800  0.73477400  0.73917300  1
  C  C6  1  0.06851700  0.33374200  0.73917300  1
  C  C7  1  0.26522600  0.93148300  0.73917300  1
  C  C8  1  0.20278700  0.10764800  0.37328800  1
  C  C9  1  0.90486100  0.79721300  0.37328800  1
  C  C10  1  0.89235200  0.09513900  0.37328800  1
  C  C11  1  0.79721300  0.89235200  0.87328800  1
  C  C12  1  0.09513900  0.20278700  0.87328800  1
  C  C13  1  0.10764800  0.90486100  0.87328800  1
  Ni  Ni14  1  0.40028400  0.08576000  0.24822400  1
  Ni  Ni15  1  0.68547600  0.59971600  0.24822400  1
  Ni  Ni16  1  0.91424000  0.31452400  0.24822400  1
  Ni  Ni17  1  0.59971600  0.91424000  0.74822400  1
  Ni  Ni18  1  0.31452400  0.40028400  0.74822400  1
  Ni  Ni19  1  0.08576000  0.68547600  0.74822400  1
  Cu  Cu20  1  0.27411500  0.14725700  0.23479100  1
  Cu  Cu21  1  0.87314300  0.72588500  0.23479100  1
  Cu  Cu22  1  0.85274300  0.12685700  0.23479100  1
  Cu  Cu23  1  0.72588500  0.85274300  0.73479100  1
  Cu  Cu24  1  0.12685700  0.27411500  0.73479100  1
  Cu  Cu25  1  0.14725700  0.87314300  0.73479100  1
  C  C26  1  0.30624000  0.91835700  0.24820300  1
  C  C27  1  0.61211700  0.69376000  0.24820300  1
  C  C28  1  0.08164300  0.38788300  0.24820300  1
  C  C29  1  0.69376000  0.08164300  0.74820300  1
  C  C30  1  0.38788300  0.30624000  0.74820300  1
  C  C31  1  0.91835700  0.61211700  0.74820300  1
  C  C32  1  0.34712700  0.49465200  0.54346300  1
  C  C33  1  0.14752500  0.65287300  0.54346300  1
  C  C34  1  0.50534800  0.85247500  0.54346300  1
  C  C35  1  0.65287300  0.50534800  0.04346300  1
  C  C36  1  0.85247500  0.34712700  0.04346300  1
  C  C37  1  0.49465200  0.14752500  0.04346300  1
  C  C38  1  0.65208800  0.50648500  0.45595400  1
  C  C39  1  0.85439700  0.34791200  0.45595400  1
  C  C40  1  0.49351500  0.14560300  0.45595400  1
  C  C41  1  0.34791200  0.49351500  0.95595400  1
  C  C42  1  0.14560300  0.65208800  0.95595400  1
  C  C43  1  0.50648500  0.85439700  0.95595400  1
