# generated using pymatgen
data_Cu2Ni12C41
_symmetry_space_group_name_H-M   'P 1'
_cell_length_a   9.48071021
_cell_length_b   9.48071021
_cell_length_c   9.48071021
_cell_angle_alpha   117.18754299
_cell_angle_beta   117.18754299
_cell_angle_gamma   94.94451056
_symmetry_Int_Tables_number   1
_chemical_formula_structural   Cu2Ni12C41
_chemical_formula_sum   'Cu2 Ni12 C41'
_cell_volume   625.66450818
_cell_formula_units_Z   1
loop_
 _symmetry_equiv_pos_site_id
 _symmetry_equiv_pos_as_xyz
  1  'x, y, z'
loop_
 _atom_site_type_symbol
 _atom_site_label
 _atom_site_symmetry_multiplicity
 _atom_site_fract_x
 _atom_site_fract_y
 _atom_site_fract_z
 _atom_site_occupancy
  C  C0  1  0.00000000  0.00000000  0.00000000  1
  C  C1  1  0.14482600  0.14482600  0.35497800  1
  C  C2  1  0.78984800  0.78984800  0.64502200  1
  C  C3  1  0.21015200  0.85517400  0.00000000  1
  C  C4  1  0.85517400  0.21015200  0.00000000  1
  C  C5  1  0.25373500  0.08730000  0.60450600  1
  C  C6  1  0.48279400  0.64922900  0.39549400  1
  C  C7  1  0.51720600  0.91270000  0.16643500  1
  C  C8  1  0.74626500  0.35077100  0.83356500  1
  C  C9  1  0.35077100  0.74626500  0.83356500  1
  C  C10  1  0.91270000  0.51720600  0.16643500  1
  C  C11  1  0.08730000  0.25373500  0.60450600  1
  C  C12  1  0.64922900  0.48279400  0.39549400  1
  C  C13  1  0.10474300  0.89720800  0.37009300  1
  C  C14  1  0.52711500  0.73465000  0.62990700  1
  C  C15  1  0.47288500  0.10279200  0.20753500  1
  C  C16  1  0.89525700  0.26535000  0.79246500  1
  C  C17  1  0.26535000  0.89525700  0.79246500  1
  C  C18  1  0.10279200  0.47288500  0.20753500  1
  C  C19  1  0.89720800  0.10474300  0.37009300  1
  C  C20  1  0.73465000  0.52711500  0.62990700  1
  C  C21  1  0.31929900  0.98696600  0.44552900  1
  C  C22  1  0.54143700  0.87377000  0.55447100  1
  C  C23  1  0.45856300  0.01303400  0.33233300  1
  C  C24  1  0.68070100  0.12623000  0.66766700  1
  C  C25  1  0.12623000  0.68070100  0.66766700  1
  C  C26  1  0.01303400  0.45856300  0.33233300  1
  C  C27  1  0.98696600  0.31929900  0.44552900  1
  C  C28  1  0.87377000  0.54143700  0.55447100  1
  C  C29  1  0.44021500  0.31302700  0.50239900  1
  C  C30  1  0.81062800  0.93781600  0.49760100  1
  C  C31  1  0.18937200  0.68697300  0.12718700  1
  C  C32  1  0.55978500  0.06218400  0.87281300  1
  C  C33  1  0.06218400  0.55978500  0.87281300  1
  C  C34  1  0.68697300  0.18937200  0.12718700  1
  C  C35  1  0.31302700  0.44021500  0.50239900  1
  C  C36  1  0.93781600  0.81062800  0.49760100  1
  C  C37  1  0.38449600  0.38449600  0.67319300  1
  C  C38  1  0.71130400  0.71130400  0.32680700  1
  C  C39  1  0.28869600  0.61550400  0.00000000  1
  C  C40  1  0.61550400  0.28869600  0.00000000  1
  Ni  Ni41  1  0.21324800  0.01673900  0.45404000  1
  Ni  Ni42  1  0.56269800  0.75920700  0.54596000  1
  Ni  Ni43  1  0.43730200  0.98326100  0.19650900  1
  Ni  Ni44  1  0.78675200  0.24079300  0.80349100  1
  Ni  Ni45  1  0.24079300  0.78675200  0.80349100  1
  Ni  Ni46  1  0.98326100  0.43730200  0.19650900  1
  Ni  Ni47  1  0.01673900  0.21324800  0.45404000  1
  Ni  Ni48  1  0.75920700  0.56269800  0.54596000  1
  Ni  Ni49  1  0.33933200  0.33933200  0.52528500  1
  Ni  Ni50  1  0.81404600  0.81404600  0.47471500  1
  Ni  Ni51  1  0.18595400  0.66066800  0.00000000  1
  Ni  Ni52  1  0.66066800  0.18595400  0.00000000  1
  Cu  Cu53  1  0.80660300  0.80660300  0.00000000  1
  Cu  Cu54  1  0.19339700  0.19339700  0.00000000  1
