# generated using pymatgen
data_Cu16Ni3C2
_symmetry_space_group_name_H-M   'P 1'
_cell_length_a   7.01133600
_cell_length_b   12.88840900
_cell_length_c   18.80590557
_cell_angle_alpha   48.62579245
_cell_angle_beta   90.00000000
_cell_angle_gamma   90.00000000
_symmetry_Int_Tables_number   1
_chemical_formula_structural   Cu16Ni3C2
_chemical_formula_sum   'Cu64 Ni12 C8'
_cell_volume   1275.24079223
_cell_formula_units_Z   4
loop_
 _symmetry_equiv_pos_site_id
 _symmetry_equiv_pos_as_xyz
  1  'x, y, z'
loop_
 _atom_site_type_symbol
 _atom_site_label
 _atom_site_symmetry_multiplicity
 _atom_site_fract_x
 _atom_site_fract_y
 _atom_site_fract_z
 _atom_site_occupancy
  C  C0  1  0.72538800  0.08004700  0.35162400  1
  C  C1  1  0.77461200  0.08004700  0.85162400  1
  C  C2  1  0.27461200  0.91995300  0.64837600  1
  C  C3  1  0.22538800  0.91995300  0.14837600  1
  C  C4  1  0.74221400  0.45042900  0.96773700  1
  C  C5  1  0.75778600  0.45042900  0.46773700  1
  C  C6  1  0.25778600  0.54957100  0.03226300  1
  C  C7  1  0.24221400  0.54957100  0.53226300  1
  Ni  Ni8  1  0.76049400  0.46386600  0.13572300  1
  Ni  Ni9  1  0.73950600  0.46386600  0.63572300  1
  Ni  Ni10  1  0.23950600  0.53613400  0.86427700  1
  Ni  Ni11  1  0.26049400  0.53613400  0.36427700  1
  Ni  Ni12  1  0.61731100  0.17936600  0.46076100  1
  Ni  Ni13  1  0.88268900  0.17936600  0.96076100  1
  Ni  Ni14  1  0.38268900  0.82063400  0.53923900  1
  Ni  Ni15  1  0.11731100  0.82063400  0.03923900  1
  Ni  Ni16  1  0.39651400  0.19108700  0.15261100  1
  Ni  Ni17  1  0.10348600  0.19108700  0.65261100  1
  Ni  Ni18  1  0.60348600  0.80891300  0.84738900  1
  Ni  Ni19  1  0.89651400  0.80891300  0.34738900  1
  Cu  Cu20  1  0.24932200  0.29887600  0.12140400  1
  Cu  Cu21  1  0.25067800  0.29887600  0.62140400  1
  Cu  Cu22  1  0.75067800  0.70112400  0.87859600  1
  Cu  Cu23  1  0.74932200  0.70112400  0.37859600  1
  Cu  Cu24  1  0.92045400  0.48883100  0.07044700  1
  Cu  Cu25  1  0.57954600  0.48883100  0.57044700  1
  Cu  Cu26  1  0.07954600  0.51116900  0.92955300  1
  Cu  Cu27  1  0.42045400  0.51116900  0.42955300  1
  Cu  Cu28  1  0.79334600  0.09576400  0.47622500  1
  Cu  Cu29  1  0.70665400  0.09576400  0.97622500  1
  Cu  Cu30  1  0.20665400  0.90423600  0.52377500  1
  Cu  Cu31  1  0.29334600  0.90423600  0.02377500  1
  Cu  Cu32  1  0.58641700  0.45927700  0.08887600  1
  Cu  Cu33  1  0.91358300  0.45927700  0.58887600  1
  Cu  Cu34  1  0.41358300  0.54072300  0.91112400  1
  Cu  Cu35  1  0.08641700  0.54072300  0.41112400  1
  Cu  Cu36  1  0.74663700  0.57115300  0.13964700  1
  Cu  Cu37  1  0.75336300  0.57115300  0.63964700  1
  Cu  Cu38  1  0.25336300  0.42884700  0.86035300  1
  Cu  Cu39  1  0.24663700  0.42884700  0.36035300  1
  Cu  Cu40  1  0.88263500  0.87098300  0.51165500  1
  Cu  Cu41  1  0.61736500  0.87098300  0.01165500  1
  Cu  Cu42  1  0.11736500  0.12901700  0.48834500  1
  Cu  Cu43  1  0.38263500  0.12901700  0.98834500  1
  Cu  Cu44  1  0.88663200  0.24141200  0.12584200  1
  Cu  Cu45  1  0.61336800  0.24141200  0.62584200  1
  Cu  Cu46  1  0.11336800  0.75858800  0.87415800  1
  Cu  Cu47  1  0.38663200  0.75858800  0.37415800  1
  Cu  Cu48  1  0.79332400  0.32435700  0.22920400  1
  Cu  Cu49  1  0.70667600  0.32435700  0.72920400  1
  Cu  Cu50  1  0.20667600  0.67564300  0.77079600  1
  Cu  Cu51  1  0.29332400  0.67564300  0.27079600  1
  Cu  Cu52  1  0.29949700  0.07048300  0.17566000  1
  Cu  Cu53  1  0.20050300  0.07048300  0.67566000  1
  Cu  Cu54  1  0.70050300  0.92951700  0.82434000  1
  Cu  Cu55  1  0.79949700  0.92951700  0.32434000  1
  Cu  Cu56  1  0.68114000  0.31505000  0.42570100  1
  Cu  Cu57  1  0.81886000  0.31505000  0.92570100  1
  Cu  Cu58  1  0.31886000  0.68495000  0.57429900  1
  Cu  Cu59  1  0.18114000  0.68495000  0.07429900  1
  Cu  Cu60  1  0.08608400  0.10301500  0.34560300  1
  Cu  Cu61  1  0.41391600  0.10301500  0.84560300  1
  Cu  Cu62  1  0.91391600  0.89698500  0.65439700  1
  Cu  Cu63  1  0.58608400  0.89698500  0.15439700  1
  Cu  Cu64  1  0.50811600  0.10639900  0.54931900  1
  Cu  Cu65  1  0.99188400  0.10639900  0.04931900  1
  Cu  Cu66  1  0.49188400  0.89360100  0.45068100  1
  Cu  Cu67  1  0.00811600  0.89360100  0.95068100  1
  Cu  Cu68  1  0.49534300  0.15065000  0.23634200  1
  Cu  Cu69  1  0.00465700  0.15065000  0.73634200  1
  Cu  Cu70  1  0.50465700  0.84935000  0.76365800  1
  Cu  Cu71  1  0.99534300  0.84935000  0.26365800  1
  Cu  Cu72  1  0.53516400  0.24862100  0.07382300  1
  Cu  Cu73  1  0.96483600  0.24862100  0.57382300  1
  Cu  Cu74  1  0.46483600  0.75137900  0.92617700  1
  Cu  Cu75  1  0.03516400  0.75137900  0.42617700  1
  Cu  Cu76  1  0.50627800  0.18999900  0.38878700  1
  Cu  Cu77  1  0.99372200  0.18999900  0.88878700  1
  Cu  Cu78  1  0.49372200  0.81000100  0.61121300  1
  Cu  Cu79  1  0.00627800  0.81000100  0.11121300  1
  Cu  Cu80  1  0.73747300  0.60051000  0.78592000  1
  Cu  Cu81  1  0.76252700  0.60051000  0.28592000  1
  Cu  Cu82  1  0.26252700  0.39949000  0.21408000  1
  Cu  Cu83  1  0.23747300  0.39949000  0.71408000  1
