# generated using pymatgen
data_Cu3NiC2
_symmetry_space_group_name_H-M   'P 1'
_cell_length_a   12.46536400
_cell_length_b   8.89335300
_cell_length_c   13.80076299
_cell_angle_alpha   87.52951613
_cell_angle_beta   90.00000000
_cell_angle_gamma   90.00000000
_symmetry_Int_Tables_number   1
_chemical_formula_structural   Cu3NiC2
_chemical_formula_sum   'Cu24 Ni8 C16'
_cell_volume   1528.51517454
_cell_formula_units_Z   8
loop_
 _symmetry_equiv_pos_site_id
 _symmetry_equiv_pos_as_xyz
  1  'x, y, z'
loop_
 _atom_site_type_symbol
 _atom_site_label
 _atom_site_symmetry_multiplicity
 _atom_site_fract_x
 _atom_site_fract_y
 _atom_site_fract_z
 _atom_site_occupancy
  C  C0  1  0.72707000  0.20758800  0.09939000  1
  C  C1  1  0.22707000  0.29241200  0.90061000  1
  C  C2  1  0.27293000  0.79241200  0.90061000  1
  C  C3  1  0.77293000  0.70758800  0.09939000  1
  C  C4  1  0.43395500  0.84121100  0.17459000  1
  C  C5  1  0.93395500  0.65878900  0.82541000  1
  C  C6  1  0.56604500  0.15878900  0.82541000  1
  C  C7  1  0.06604500  0.34121100  0.17459000  1
  C  C8  1  0.31383800  0.62230700  0.56776100  1
  C  C9  1  0.81383800  0.87769300  0.43223900  1
  C  C10  1  0.68616200  0.37769300  0.43223900  1
  C  C11  1  0.18616200  0.12230700  0.56776100  1
  C  C12  1  0.12708100  0.77202100  0.29118600  1
  C  C13  1  0.62708100  0.72797900  0.70881400  1
  C  C14  1  0.87291900  0.22797900  0.70881400  1
  C  C15  1  0.37291900  0.27202100  0.29118600  1
  Ni  Ni16  1  0.49777600  0.93035000  0.43120700  1
  Ni  Ni17  1  0.99777600  0.56965000  0.56879300  1
  Ni  Ni18  1  0.50222400  0.06965000  0.56879300  1
  Ni  Ni19  1  0.00222400  0.43035000  0.43120700  1
  Ni  Ni20  1  0.03512000  0.94070000  0.06914000  1
  Ni  Ni21  1  0.53512000  0.55930000  0.93086000  1
  Ni  Ni22  1  0.96488000  0.05930000  0.93086000  1
  Ni  Ni23  1  0.46488000  0.44070000  0.06914000  1
  Cu  Cu24  1  0.31412700  0.52633500  0.08639400  1
  Cu  Cu25  1  0.81412700  0.97366500  0.91360600  1
  Cu  Cu26  1  0.68587300  0.47366500  0.91360600  1
  Cu  Cu27  1  0.18587300  0.02633500  0.08639400  1
  Cu  Cu28  1  0.03985200  0.71558000  0.04549400  1
  Cu  Cu29  1  0.53985200  0.78442000  0.95450600  1
  Cu  Cu30  1  0.96014800  0.28442000  0.95450600  1
  Cu  Cu31  1  0.46014800  0.21558000  0.04549400  1
  Cu  Cu32  1  0.56406700  0.49257000  0.18032700  1
  Cu  Cu33  1  0.06406700  0.00743000  0.81967300  1
  Cu  Cu34  1  0.43593300  0.50743000  0.81967300  1
  Cu  Cu35  1  0.93593300  0.99257000  0.18032700  1
  Cu  Cu36  1  0.41195800  0.95606800  0.67159800  1
  Cu  Cu37  1  0.91195800  0.54393200  0.32840200  1
  Cu  Cu38  1  0.58804200  0.04393200  0.32840200  1
  Cu  Cu39  1  0.08804200  0.45606800  0.67159800  1
  Cu  Cu40  1  0.05708500  0.77729100  0.53346900  1
  Cu  Cu41  1  0.55708500  0.72270900  0.46653100  1
  Cu  Cu42  1  0.94291500  0.22270900  0.46653100  1
  Cu  Cu43  1  0.44291500  0.27729100  0.53346900  1
  Cu  Cu44  1  0.33861400  0.92544700  0.39564000  1
  Cu  Cu45  1  0.83861400  0.57455300  0.60436000  1
  Cu  Cu46  1  0.66138600  0.07455300  0.60436000  1
  Cu  Cu47  1  0.16138600  0.42544700  0.39564000  1
