# generated using pymatgen
data_CuNi2C9
_symmetry_space_group_name_H-M   'P 1'
_cell_length_a   6.94957200
_cell_length_b   9.22699800
_cell_length_c   21.42024334
_cell_angle_alpha   70.27729338
_cell_angle_beta   90.00000000
_cell_angle_gamma   90.00000000
_symmetry_Int_Tables_number   1
_chemical_formula_structural   CuNi2C9
_chemical_formula_sum   'Cu4 Ni8 C36'
_cell_volume   1292.96854212
_cell_formula_units_Z   4
loop_
 _symmetry_equiv_pos_site_id
 _symmetry_equiv_pos_as_xyz
  1  'x, y, z'
loop_
 _atom_site_type_symbol
 _atom_site_label
 _atom_site_symmetry_multiplicity
 _atom_site_fract_x
 _atom_site_fract_y
 _atom_site_fract_z
 _atom_site_occupancy
  Ni  Ni0  1  0.98713800  0.75267000  0.49034100  1
  Ni  Ni1  1  0.48713800  0.24733000  0.00965900  1
  Ni  Ni2  1  0.01286200  0.24733000  0.50965900  1
  Ni  Ni3  1  0.51286200  0.75267000  0.99034100  1
  Ni  Ni4  1  0.54250100  0.16217700  0.68352700  1
  Ni  Ni5  1  0.04250100  0.83782300  0.81647300  1
  Ni  Ni6  1  0.45749900  0.83782300  0.31647300  1
  Ni  Ni7  1  0.95749900  0.16217700  0.18352700  1
  Cu  Cu8  1  0.96708000  0.34138600  0.84886700  1
  Cu  Cu9  1  0.46708000  0.65861400  0.65113300  1
  Cu  Cu10  1  0.03292000  0.65861400  0.15113300  1
  Cu  Cu11  1  0.53292000  0.34138600  0.34886700  1
  C  C12  1  0.48926500  0.96298700  0.45579200  1
  C  C13  1  0.51073500  0.03701300  0.54420800  1
  C  C14  1  0.01073500  0.96298700  0.95579200  1
  C  C15  1  0.98926500  0.03701300  0.04420800  1
  C  C16  1  0.98744900  0.56906900  0.32884200  1
  C  C17  1  0.48744900  0.43093100  0.17115800  1
  C  C18  1  0.01255100  0.43093100  0.67115800  1
  C  C19  1  0.51255100  0.56906900  0.82884200  1
  C  C20  1  0.53654200  0.26796200  0.50598800  1
  C  C21  1  0.03654200  0.73203800  0.99401200  1
  C  C22  1  0.46345800  0.73203800  0.49401200  1
  C  C23  1  0.96345800  0.26796200  0.00598800  1
  C  C24  1  0.75910500  0.92326100  0.09710900  1
  C  C25  1  0.25910500  0.07673900  0.40289100  1
  C  C26  1  0.24089500  0.07673900  0.90289100  1
  C  C27  1  0.74089500  0.92326100  0.59710900  1
  C  C28  1  0.73256700  0.04434200  0.40159900  1
  C  C29  1  0.76743300  0.04434200  0.90159900  1
  C  C30  1  0.23256700  0.95565800  0.09840100  1
  C  C31  1  0.26743300  0.95565800  0.59840100  1
  C  C32  1  0.77606200  0.49119900  0.61063900  1
  C  C33  1  0.27606200  0.50880100  0.88936100  1
  C  C34  1  0.22393800  0.50880100  0.38936100  1
  C  C35  1  0.72393800  0.49119900  0.11063900  1
  C  C36  1  0.74170100  0.56380500  0.88960000  1
  C  C37  1  0.24170100  0.43619500  0.61040000  1
  C  C38  1  0.25829900  0.43619500  0.11040000  1
  C  C39  1  0.75829900  0.56380500  0.38960000  1
  C  C40  1  0.52546800  0.21745300  0.24142800  1
  C  C41  1  0.02546800  0.78254700  0.25857200  1
  C  C42  1  0.47453200  0.78254700  0.75857200  1
  C  C43  1  0.97453200  0.21745300  0.74142800  1
  C  C44  1  0.57900800  0.41809000  0.77927900  1
  C  C45  1  0.07900800  0.58191000  0.72072100  1
  C  C46  1  0.42099200  0.58191000  0.22072100  1
  C  C47  1  0.92099200  0.41809000  0.27927900  1
