# generated using pymatgen
data_Cu4Ni2C19
_symmetry_space_group_name_H-M   'P 1'
_cell_length_a   10.73547400
_cell_length_b   5.42518600
_cell_length_c   14.77040558
_cell_angle_alpha   68.71456736
_cell_angle_beta   90.00000000
_cell_angle_gamma   90.00000000
_symmetry_Int_Tables_number   1
_chemical_formula_structural   Cu4Ni2C19
_chemical_formula_sum   'Cu8 Ni4 C38'
_cell_volume   801.57343962
_cell_formula_units_Z   2
loop_
 _symmetry_equiv_pos_site_id
 _symmetry_equiv_pos_as_xyz
  1  'x, y, z'
loop_
 _atom_site_type_symbol
 _atom_site_label
 _atom_site_symmetry_multiplicity
 _atom_site_fract_x
 _atom_site_fract_y
 _atom_site_fract_z
 _atom_site_occupancy
  Ni  Ni0  1  0.00000000  0.00000000  0.00000000  1
  Ni  Ni1  1  0.00000000  0.00000000  0.50000000  1
  Ni  Ni2  1  0.34514400  0.50000000  0.25000000  1
  Ni  Ni3  1  0.65485600  0.50000000  0.75000000  1
  Cu  Cu4  1  0.09504900  0.35826000  0.12927100  1
  Cu  Cu5  1  0.90495100  0.64174000  0.87072900  1
  Cu  Cu6  1  0.09504900  0.64174000  0.37072900  1
  Cu  Cu7  1  0.90495100  0.35826000  0.62927100  1
  Cu  Cu8  1  0.60140600  0.26831200  0.15280200  1
  Cu  Cu9  1  0.39859400  0.73168800  0.84719800  1
  Cu  Cu10  1  0.60140600  0.73168800  0.34719800  1
  Cu  Cu11  1  0.39859400  0.26831200  0.65280200  1
  C  C12  1  0.10552900  0.13230800  0.07363500  1
  C  C13  1  0.89447100  0.86769200  0.92636500  1
  C  C14  1  0.10552900  0.86769200  0.42636500  1
  C  C15  1  0.89447100  0.13230800  0.57363500  1
  C  C16  1  0.08284500  0.66981600  0.04713300  1
  C  C17  1  0.91715500  0.33018400  0.95286700  1
  C  C18  1  0.08284500  0.33018400  0.45286700  1
  C  C19  1  0.91715500  0.66981600  0.54713300  1
  C  C20  1  0.97307300  0.29305300  0.19520200  1
  C  C21  1  0.02692700  0.70694700  0.80479800  1
  C  C22  1  0.97307300  0.70694700  0.30479800  1
  C  C23  1  0.02692700  0.29305300  0.69520200  1
  C  C24  1  0.22106200  0.33714000  0.20032700  1
  C  C25  1  0.77893800  0.66286000  0.79967300  1
  C  C26  1  0.22106200  0.66286000  0.29967300  1
  C  C27  1  0.77893800  0.33714000  0.70032700  1
  C  C28  1  0.66626900  0.00000000  0.25000000  1
  C  C29  1  0.33373100  0.00000000  0.75000000  1
  C  C30  1  0.69888100  0.50848300  0.12069000  1
  C  C31  1  0.30111900  0.49151700  0.87931000  1
  C  C32  1  0.69888100  0.49151700  0.37931000  1
  C  C33  1  0.30111900  0.50848300  0.62069000  1
  C  C34  1  0.46529100  0.35673600  0.19234600  1
  C  C35  1  0.53470900  0.64326400  0.80765400  1
  C  C36  1  0.46529100  0.64326400  0.30765400  1
  C  C37  1  0.53470900  0.35673600  0.69234600  1
  C  C38  1  0.57446100  0.17984600  0.06140000  1
  C  C39  1  0.42553900  0.82015400  0.93860000  1
  C  C40  1  0.57446100  0.82015400  0.43860000  1
  C  C41  1  0.42553900  0.17984600  0.56140000  1
  C  C42  1  0.88540900  0.88408300  0.10530600  1
  C  C43  1  0.11459100  0.11591700  0.89469400  1
  C  C44  1  0.88540900  0.11591700  0.39469400  1
  C  C45  1  0.11459100  0.88408300  0.60530600  1
  C  C46  1  0.34514100  0.80532300  0.13325900  1
  C  C47  1  0.65485900  0.19467700  0.86674100  1
  C  C48  1  0.34514100  0.19467700  0.36674100  1
  C  C49  1  0.65485900  0.80532300  0.63325900  1
