# generated using pymatgen
data_Cu2NiC8
_symmetry_space_group_name_H-M   'P 1'
_cell_length_a   13.13212900
_cell_length_b   7.27376800
_cell_length_c   10.60424104
_cell_angle_alpha   69.55821799
_cell_angle_beta   90.00000000
_cell_angle_gamma   90.00000000
_symmetry_Int_Tables_number   1
_chemical_formula_structural   Cu2NiC8
_chemical_formula_sum   'Cu16 Ni8 C64'
_cell_volume   949.13182545
_cell_formula_units_Z   8
loop_
 _symmetry_equiv_pos_site_id
 _symmetry_equiv_pos_as_xyz
  1  'x, y, z'
loop_
 _atom_site_type_symbol
 _atom_site_label
 _atom_site_symmetry_multiplicity
 _atom_site_fract_x
 _atom_site_fract_y
 _atom_site_fract_z
 _atom_site_occupancy
  Ni  Ni0  1  0.48483400  0.93622700  0.83194400  1
  Ni  Ni1  1  0.85820900  0.70175900  0.90361600  1
  Ni  Ni2  1  0.35820900  0.29824100  0.59638400  1
  Ni  Ni3  1  0.14179100  0.29824100  0.09638400  1
  Ni  Ni4  1  0.64179100  0.70175900  0.40361600  1
  Ni  Ni5  1  0.01516600  0.93622700  0.33194400  1
  Ni  Ni6  1  0.51516600  0.06377300  0.16805600  1
  Ni  Ni7  1  0.98483400  0.06377300  0.66805600  1
  C  C8  1  0.68773800  0.39305000  0.04403800  1
  C  C9  1  0.18773800  0.60695000  0.45596200  1
  C  C10  1  0.31226200  0.60695000  0.95596200  1
  C  C11  1  0.81226200  0.39305000  0.54403800  1
  C  C12  1  0.76463000  0.03570000  0.23266800  1
  C  C13  1  0.26463000  0.96430000  0.26733200  1
  C  C14  1  0.23537000  0.96430000  0.76733200  1
  C  C15  1  0.73537000  0.03570000  0.73266800  1
  Cu  Cu16  1  0.87374100  0.18248300  0.94247200  1
  Cu  Cu17  1  0.99130100  0.59103500  0.67905200  1
  Cu  Cu18  1  0.50869900  0.59103500  0.17905200  1
  Cu  Cu19  1  0.00869900  0.40896500  0.32094800  1
  Cu  Cu20  1  0.71423900  0.52820700  0.74621700  1
  Cu  Cu21  1  0.21423900  0.47179300  0.75378300  1
  Cu  Cu22  1  0.28576100  0.47179300  0.25378300  1
  Cu  Cu23  1  0.78576100  0.52820700  0.24621700  1
  Cu  Cu24  1  0.49130100  0.40896500  0.82094800  1
  Cu  Cu25  1  0.18419500  0.12231300  0.45578400  1
  Cu  Cu26  1  0.68419500  0.87768700  0.04421600  1
  Cu  Cu27  1  0.81580500  0.87768700  0.54421600  1
  Cu  Cu28  1  0.37374100  0.81751700  0.55752800  1
  Cu  Cu29  1  0.62625900  0.18248300  0.44247200  1
  Cu  Cu30  1  0.12625900  0.81751700  0.05752800  1
  Cu  Cu31  1  0.31580500  0.12231300  0.95578400  1
  C  C32  1  0.01831900  0.28149900  0.95038500  1
  C  C33  1  0.51831900  0.71850100  0.54961500  1
  C  C34  1  0.98168100  0.71850100  0.04961500  1
  C  C35  1  0.48168100  0.28149900  0.45038500  1
  C  C36  1  0.84663600  0.00119200  0.85575600  1
  C  C37  1  0.34663600  0.99880800  0.64424400  1
  C  C38  1  0.15336400  0.99880800  0.14424400  1
  C  C39  1  0.65336400  0.00119200  0.35575600  1
  C  C40  1  0.87902100  0.04452200  0.12719700  1
  C  C41  1  0.37902100  0.95547800  0.37280300  1
  C  C42  1  0.12097900  0.95547800  0.87280300  1
  C  C43  1  0.62097900  0.04452200  0.62719700  1
  C  C44  1  0.26114500  0.36321900  0.95340900  1
  C  C45  1  0.76114500  0.63678100  0.54659100  1
  C  C46  1  0.73885500  0.63678100  0.04659100  1
  C  C47  1  0.23885500  0.36321900  0.45340900  1
  C  C48  1  0.35552500  0.02588200  0.13413100  1
  C  C49  1  0.85552500  0.97411800  0.36586900  1
  C  C50  1  0.64447500  0.97411800  0.86586900  1
  C  C51  1  0.14447500  0.02588200  0.63413100  1
  C  C52  1  0.33410700  0.88743200  0.91356500  1
  C  C53  1  0.42469400  0.63150700  0.84884100  1
  C  C54  1  0.83410700  0.11256800  0.58643500  1
  C  C55  1  0.16589300  0.88743200  0.41356500  1
  C  C56  1  0.47451100  0.23880400  0.72978100  1
  C  C57  1  0.97451100  0.76119600  0.77021900  1
  C  C58  1  0.52548900  0.76119600  0.27021900  1
  C  C59  1  0.02548900  0.23880400  0.22978100  1
  C  C60  1  0.45982400  0.20113000  0.96624400  1
  C  C61  1  0.95982400  0.79887000  0.53375600  1
  C  C62  1  0.54017600  0.79887000  0.03375600  1
  C  C63  1  0.04017600  0.20113000  0.46624400  1
  C  C64  1  0.94234800  0.58257800  0.15853300  1
  C  C65  1  0.44234800  0.41742200  0.34146700  1
  C  C66  1  0.05765200  0.41742200  0.84146700  1
  C  C67  1  0.55765200  0.58257800  0.65853300  1
  C  C68  1  0.77191900  0.29478900  0.19562300  1
  C  C69  1  0.27191900  0.70521100  0.30437700  1
  C  C70  1  0.22808100  0.70521100  0.80437700  1
  C  C71  1  0.72808100  0.29478900  0.69562300  1
  C  C72  1  0.69465600  0.42359400  0.42162500  1
  C  C73  1  0.19465600  0.57640600  0.07837500  1
  C  C74  1  0.30534400  0.57640600  0.57837500  1
  C  C75  1  0.80534400  0.42359400  0.92162500  1
  C  C76  1  0.73470800  0.79068800  0.22614100  1
  C  C77  1  0.23470800  0.20931200  0.27385900  1
  C  C78  1  0.26529200  0.20931200  0.77385900  1
  C  C79  1  0.76529200  0.79068800  0.72614100  1
  C  C80  1  0.88303000  0.47214900  0.39305600  1
  C  C81  1  0.38303000  0.52785100  0.10694400  1
  C  C82  1  0.11697000  0.52785100  0.60694400  1
  C  C83  1  0.61697000  0.47214900  0.89305600  1
  C  C84  1  0.07530600  0.63150700  0.34884100  1
  C  C85  1  0.57530600  0.36849300  0.15115900  1
  C  C86  1  0.92469400  0.36849300  0.65115900  1
  C  C87  1  0.66589300  0.11256800  0.08643500  1
