# generated using pymatgen
data_Cu2Ni3C11
_symmetry_space_group_name_H-M   'P 1'
_cell_length_a   11.61652400
_cell_length_b   8.54784000
_cell_length_c   16.53463270
_cell_angle_alpha   89.85128046
_cell_angle_beta   90.00000000
_cell_angle_gamma   90.00000000
_symmetry_Int_Tables_number   1
_chemical_formula_structural   Cu2Ni3C11
_chemical_formula_sum   'Cu16 Ni24 C88'
_cell_volume   1641.82047469
_cell_formula_units_Z   8
loop_
 _symmetry_equiv_pos_site_id
 _symmetry_equiv_pos_as_xyz
  1  'x, y, z'
loop_
 _atom_site_type_symbol
 _atom_site_label
 _atom_site_symmetry_multiplicity
 _atom_site_fract_x
 _atom_site_fract_y
 _atom_site_fract_z
 _atom_site_occupancy
  Ni  Ni0  1  0.84164900  0.78822000  0.15695200  1
  Ni  Ni1  1  0.34164900  0.21178000  0.34304800  1
  Ni  Ni2  1  0.15835100  0.21178000  0.84304800  1
  Ni  Ni3  1  0.65835100  0.78822000  0.65695200  1
  Ni  Ni4  1  0.83014600  0.47564500  0.07359600  1
  Ni  Ni5  1  0.33014600  0.52435500  0.42640400  1
  Ni  Ni6  1  0.16985400  0.52435500  0.92640400  1
  Ni  Ni7  1  0.66985400  0.47564500  0.57359600  1
  Ni  Ni8  1  0.65625000  0.50162300  0.92430200  1
  Ni  Ni9  1  0.15625000  0.49837700  0.57569800  1
  Ni  Ni10  1  0.34375000  0.49837700  0.07569800  1
  Ni  Ni11  1  0.84375000  0.50162300  0.42430200  1
  Ni  Ni12  1  0.68474400  0.19594200  0.83376200  1
  Ni  Ni13  1  0.18474400  0.80405800  0.66623800  1
  Ni  Ni14  1  0.31525600  0.80405800  0.16623800  1
  Ni  Ni15  1  0.81525600  0.19594200  0.33376200  1
  Ni  Ni16  1  0.94557000  0.50146900  0.25223600  1
  Ni  Ni17  1  0.44557000  0.49853100  0.24776400  1
  Ni  Ni18  1  0.05443000  0.49853100  0.74776400  1
  Ni  Ni19  1  0.55443000  0.50146900  0.75223600  1
  Ni  Ni20  1  0.69950600  0.49341900  0.24632100  1
  Ni  Ni21  1  0.19950600  0.50658100  0.25367900  1
  Ni  Ni22  1  0.30049400  0.50658100  0.75367900  1
  Ni  Ni23  1  0.80049400  0.49341900  0.74632100  1
  C  C24  1  0.58602600  0.24733000  0.07273200  1
  C  C25  1  0.08602600  0.75267000  0.42726800  1
  C  C26  1  0.41397400  0.75267000  0.92726800  1
  C  C27  1  0.91397400  0.24733000  0.57273200  1
  C  C28  1  0.74699900  0.99210400  0.00293500  1
  C  C29  1  0.24699900  0.00789600  0.49706500  1
  C  C30  1  0.25300100  0.00789600  0.99706500  1
  C  C31  1  0.75300100  0.99210400  0.50293500  1
  C  C32  1  0.90295800  0.74585000  0.92641100  1
  C  C33  1  0.40295800  0.25415000  0.57358900  1
  C  C34  1  0.09704200  0.25415000  0.07358900  1
  C  C35  1  0.59704200  0.74585000  0.42641100  1
  C  C36  1  0.59088100  0.99976900  0.23185700  1
  C  C37  1  0.09088100  0.00023100  0.26814300  1
  C  C38  1  0.40911900  0.00023100  0.76814300  1
  C  C39  1  0.90911900  0.99976900  0.73185700  1
  Cu  Cu40  1  0.65936300  0.83417500  0.83796200  1
  Cu  Cu41  1  0.15936300  0.16582500  0.66203800  1
  Cu  Cu42  1  0.34063700  0.16582500  0.16203800  1
  Cu  Cu43  1  0.84063700  0.83417500  0.33796200  1
  Cu  Cu44  1  0.85124200  0.15836800  0.15904900  1
  Cu  Cu45  1  0.35124200  0.84163200  0.34095100  1
  Cu  Cu46  1  0.14875800  0.84163200  0.84095100  1
  Cu  Cu47  1  0.64875800  0.15836800  0.65904900  1
  Cu  Cu48  1  0.58637400  0.65778200  0.09431000  1
  Cu  Cu49  1  0.08637400  0.34221800  0.40569000  1
  Cu  Cu50  1  0.41362600  0.34221800  0.90569000  1
  Cu  Cu51  1  0.91362600  0.65778200  0.59431000  1
  Cu  Cu52  1  0.08511100  0.66754800  0.10173000  1
  Cu  Cu53  1  0.58511100  0.33245200  0.39827000  1
  Cu  Cu54  1  0.91488900  0.33245200  0.89827000  1
  Cu  Cu55  1  0.41488900  0.66754800  0.60173000  1
  C  C56  1  0.66494700  0.54601300  0.04223100  1
  C  C57  1  0.16494700  0.45398700  0.45776900  1
  C  C58  1  0.33505300  0.45398700  0.95776900  1
  C  C59  1  0.83505300  0.54601300  0.54223100  1
  C  C60  1  0.71849900  0.71725400  0.89850000  1
  C  C61  1  0.21849900  0.28274600  0.60150000  1
  C  C62  1  0.28150100  0.28274600  0.10150000  1
  C  C63  1  0.78150100  0.71725400  0.39850000  1
  C  C64  1  0.82176300  0.56687600  0.17959400  1
  C  C65  1  0.32176300  0.43312400  0.32040600  1
  C  C66  1  0.17823700  0.43312400  0.82040600  1
  C  C67  1  0.67823700  0.56687600  0.67959400  1
  C  C68  1  0.41798600  0.85135500  0.25919800  1
  C  C69  1  0.91798600  0.14864500  0.24080200  1
  C  C70  1  0.58201400  0.14864500  0.74080200  1
  C  C71  1  0.08201400  0.85135500  0.75919800  1
  C  C72  1  0.96080800  0.70817600  0.07422500  1
  C  C73  1  0.46080800  0.29182400  0.42577500  1
  C  C74  1  0.03919200  0.29182400  0.92577500  1
  C  C75  1  0.53919200  0.70817600  0.57422500  1
  C  C76  1  0.53651100  0.33389400  0.94440000  1
  C  C77  1  0.03651100  0.66610600  0.55560000  1
  C  C78  1  0.46348900  0.66610600  0.05560000  1
  C  C79  1  0.96348900  0.33389400  0.44440000  1
  C  C80  1  0.76603000  0.85327500  0.26008800  1
  C  C81  1  0.26603000  0.14672500  0.23991200  1
  C  C82  1  0.23397000  0.14672500  0.73991200  1
  C  C83  1  0.73397000  0.85327500  0.76008800  1
  C  C84  1  0.64205200  0.81727000  0.10424300  1
  C  C85  1  0.14205200  0.18273000  0.39575700  1
  C  C86  1  0.35794800  0.18273000  0.89575700  1
  C  C87  1  0.85794800  0.81727000  0.60424300  1
  C  C88  1  0.07323300  0.42923800  0.32145400  1
  C  C89  1  0.57323300  0.57076200  0.17854600  1
  C  C90  1  0.92676700  0.57076200  0.67854600  1
  C  C91  1  0.42676700  0.42923800  0.82145400  1
  C  C92  1  0.72495800  0.20757400  0.17310700  1
  C  C93  1  0.22495800  0.79242600  0.32689300  1
  C  C94  1  0.27504200  0.79242600  0.82689300  1
  C  C95  1  0.77504200  0.20757400  0.67310700  1
  C  C96  1  0.68158100  0.42207100  0.81676900  1
  C  C97  1  0.18158100  0.57792900  0.68323100  1
  C  C98  1  0.31841900  0.57792900  0.18323100  1
  C  C99  1  0.81841900  0.42207100  0.31676900  1
  C  C100  1  0.91261200  0.28246200  0.10404500  1
  C  C101  1  0.41261200  0.71753800  0.39595500  1
  C  C102  1  0.08738800  0.71753800  0.89595500  1
  C  C103  1  0.58738800  0.28246200  0.60404500  1
  C  C104  1  0.84239000  0.18498700  0.88194800  1
  C  C105  1  0.34239000  0.81501300  0.61805200  1
  C  C106  1  0.15761000  0.81501300  0.11805200  1
  C  C107  1  0.65761000  0.18498700  0.38194800  1
  C  C108  1  0.46128500  0.22686300  0.18449200  1
  C  C109  1  0.96128500  0.77313700  0.31550800  1
  C  C110  1  0.53871500  0.77313700  0.81550800  1
  C  C111  1  0.03871500  0.22686300  0.68449200  1
  C  C112  1  0.65251000  0.99306700  0.88498600  1
  C  C113  1  0.15251000  0.00693300  0.61501400  1
  C  C114  1  0.34749000  0.00693300  0.11501400  1
  C  C115  1  0.84749000  0.99306700  0.38498600  1
  C  C116  1  0.86193200  0.99900700  0.11313500  1
  C  C117  1  0.36193200  0.00099300  0.38686500  1
  C  C118  1  0.13806800  0.00099300  0.88686500  1
  C  C119  1  0.63806800  0.99900700  0.61313500  1
  C  C120  1  0.07434100  0.56748800  0.18260800  1
  C  C121  1  0.57434100  0.43251200  0.31739200  1
  C  C122  1  0.92565900  0.43251200  0.81739200  1
  C  C123  1  0.42565900  0.56748800  0.68260800  1
  C  C124  1  0.85290400  0.44228800  0.95874200  1
  C  C125  1  0.35290400  0.55771200  0.54125800  1
  C  C126  1  0.14709600  0.55771200  0.04125800  1
  C  C127  1  0.64709600  0.44228800  0.45874200  1
