# generated using pymatgen
data_CuNi2C3
_symmetry_space_group_name_H-M   'P 1'
_cell_length_a   6.05015523
_cell_length_b   6.05015523
_cell_length_c   7.21209000
_cell_angle_alpha   90.00000000
_cell_angle_beta   90.00000000
_cell_angle_gamma   120.28661440
_symmetry_Int_Tables_number   1
_chemical_formula_structural   CuNi2C3
_chemical_formula_sum   'Cu2 Ni4 C6'
_cell_volume   227.96241658
_cell_formula_units_Z   2
loop_
 _symmetry_equiv_pos_site_id
 _symmetry_equiv_pos_as_xyz
  1  'x, y, z'
loop_
 _atom_site_type_symbol
 _atom_site_label
 _atom_site_symmetry_multiplicity
 _atom_site_fract_x
 _atom_site_fract_y
 _atom_site_fract_z
 _atom_site_occupancy
  C  C0  1  0.91732800  0.30227200  0.24525400  1
  C  C1  1  0.30227200  0.91732800  0.75474600  1
  C  C2  1  0.91732800  0.30227200  0.75474600  1
  C  C3  1  0.30227200  0.91732800  0.24525400  1
  C  C4  1  0.62499300  0.62499300  0.50000000  1
  C  C5  1  0.56118600  0.56118600  0.00000000  1
  Ni  Ni6  1  0.60236600  0.92190600  0.00000000  1
  Ni  Ni7  1  0.92190600  0.60236600  0.00000000  1
  Ni  Ni8  1  0.36290300  0.36290300  0.23354500  1
  Ni  Ni9  1  0.36290300  0.36290300  0.76645500  1
  Cu  Cu10  1  0.03589200  0.68246400  0.50000000  1
  Cu  Cu11  1  0.68246400  0.03589200  0.50000000  1
