# generated using pymatgen
data_CuNiC8
_symmetry_space_group_name_H-M   'P 1'
_cell_length_a   5.96615349
_cell_length_b   5.96615349
_cell_length_c   8.65833430
_cell_angle_alpha   90.00000000
_cell_angle_beta   90.00000000
_cell_angle_gamma   90.39153272
_symmetry_Int_Tables_number   1
_chemical_formula_structural   CuNiC8
_chemical_formula_sum   'Cu2 Ni2 C16'
_cell_volume   308.18610501
_cell_formula_units_Z   2
loop_
 _symmetry_equiv_pos_site_id
 _symmetry_equiv_pos_as_xyz
  1  'x, y, z'
loop_
 _atom_site_type_symbol
 _atom_site_label
 _atom_site_symmetry_multiplicity
 _atom_site_fract_x
 _atom_site_fract_y
 _atom_site_fract_z
 _atom_site_occupancy
  C  C0  1  0.50000000  0.50000000  0.25000000  1
  C  C1  1  0.50000000  0.50000000  0.75000000  1
  Ni  Ni2  1  -0.00000000  -0.00000000  0.25000000  1
  Ni  Ni3  1  -0.00000000  -0.00000000  0.75000000  1
  Cu  Cu4  1  -0.00000000  0.50000000  0.50000000  1
  Cu  Cu5  1  0.50000000  -0.00000000  -0.00000000  1
  C  C6  1  -0.00000000  0.50000000  -0.00000000  1
  C  C7  1  0.50000000  -0.00000000  0.50000000  1
  C  C8  1  -0.00000000  0.50000000  0.24414796  1
  C  C9  1  0.50000000  -0.00000000  0.25585204  1
  C  C10  1  -0.00000000  0.50000000  0.75585204  1
  C  C11  1  0.50000000  -0.00000000  0.74414796  1
  C  C12  1  0.31711624  0.66543016  0.00000000  1
  C  C13  1  0.68288376  0.33456984  -0.00000000  1
  C  C14  1  0.83979852  0.82084280  0.00000000  1
  C  C15  1  0.16020148  0.17915720  -0.00000000  1
  C  C16  1  0.82084280  0.83979852  0.50000000  1
  C  C17  1  0.17915720  0.16020148  0.50000000  1
  C  C18  1  0.33456984  0.68288376  0.50000000  1
  C  C19  1  0.66543016  0.31711624  0.50000000  1
