# generated using pymatgen
data_Cu5(NiC)2
_symmetry_space_group_name_H-M   'P 1'
_cell_length_a   9.24914400
_cell_length_b   9.40398000
_cell_length_c   12.84994100
_cell_angle_alpha   90.00000000
_cell_angle_beta   90.00000000
_cell_angle_gamma   90.00000000
_symmetry_Int_Tables_number   1
_chemical_formula_structural   Cu5(NiC)2
_chemical_formula_sum   'Cu20 Ni8 C8'
_cell_volume   1117.67200098
_cell_formula_units_Z   4
loop_
 _symmetry_equiv_pos_site_id
 _symmetry_equiv_pos_as_xyz
  1  'x, y, z'
loop_
 _atom_site_type_symbol
 _atom_site_label
 _atom_site_symmetry_multiplicity
 _atom_site_fract_x
 _atom_site_fract_y
 _atom_site_fract_z
 _atom_site_occupancy
  C  C0  1  0.49597300  0.87653800  0.17819300  1
  C  C1  1  0.50402700  0.37653800  0.32180700  1
  C  C2  1  0.99597300  0.12346200  0.82180700  1
  C  C3  1  0.00402700  0.62346200  0.67819300  1
  C  C4  1  0.50402700  0.12346200  0.82180700  1
  C  C5  1  0.49597300  0.62346200  0.67819300  1
  C  C6  1  0.00402700  0.87653800  0.17819300  1
  C  C7  1  0.99597300  0.37653800  0.32180700  1
  Ni  Ni8  1  0.75000000  0.97428100  0.53621900  1
  Ni  Ni9  1  0.25000000  0.02571900  0.46378100  1
  Ni  Ni10  1  0.75000000  0.52571900  0.03621900  1
  Ni  Ni11  1  0.25000000  0.47428100  0.96378100  1
  Ni  Ni12  1  0.25000000  0.81662700  0.90381000  1
  Ni  Ni13  1  0.75000000  0.31662700  0.59619000  1
  Ni  Ni14  1  0.75000000  0.18337300  0.09619000  1
  Ni  Ni15  1  0.25000000  0.68337300  0.40381000  1
  Cu  Cu16  1  0.25000000  0.11785000  0.28281400  1
  Cu  Cu17  1  0.75000000  0.61785000  0.21718600  1
  Cu  Cu18  1  0.75000000  0.88215000  0.71718600  1
  Cu  Cu19  1  0.25000000  0.38215000  0.78281400  1
  Cu  Cu20  1  0.75000000  0.52454000  0.49374300  1
  Cu  Cu21  1  0.75000000  0.97546000  0.99374300  1
  Cu  Cu22  1  0.25000000  0.02454000  0.00625700  1
  Cu  Cu23  1  0.25000000  0.47546000  0.50625700  1
  Cu  Cu24  1  0.25000000  0.61574300  0.22458600  1
  Cu  Cu25  1  0.75000000  0.11574300  0.27541400  1
  Cu  Cu26  1  0.75000000  0.38425700  0.77541400  1
  Cu  Cu27  1  0.25000000  0.88425700  0.72458600  1
  Cu  Cu28  1  0.04291300  0.82746200  0.44175500  1
  Cu  Cu29  1  0.95708700  0.32746200  0.05824500  1
  Cu  Cu30  1  0.54291300  0.17253800  0.55824500  1
  Cu  Cu31  1  0.45708700  0.67253800  0.94175500  1
  Cu  Cu32  1  0.95708700  0.17253800  0.55824500  1
  Cu  Cu33  1  0.04291300  0.67253800  0.94175500  1
  Cu  Cu34  1  0.45708700  0.82746200  0.44175500  1
  Cu  Cu35  1  0.54291300  0.32746200  0.05824500  1
