# generated using pymatgen
data_CuNiC6
_symmetry_space_group_name_H-M   'P 1'
_cell_length_a   5.30616300
_cell_length_b   6.28944000
_cell_length_c   11.18383400
_cell_angle_alpha   90.00000000
_cell_angle_beta   90.00000000
_cell_angle_gamma   90.00000000
_symmetry_Int_Tables_number   1
_chemical_formula_structural   CuNiC6
_chemical_formula_sum   'Cu2 Ni2 C12'
_cell_volume   373.23578618
_cell_formula_units_Z   2
loop_
 _symmetry_equiv_pos_site_id
 _symmetry_equiv_pos_as_xyz
  1  'x, y, z'
loop_
 _atom_site_type_symbol
 _atom_site_label
 _atom_site_symmetry_multiplicity
 _atom_site_fract_x
 _atom_site_fract_y
 _atom_site_fract_z
 _atom_site_occupancy
  C  C0  1  0.00000000  0.24579700  0.08181400  1
  C  C1  1  0.00000000  0.75420300  0.08181400  1
  C  C2  1  0.00000000  0.00000000  0.33169200  1
  C  C3  1  0.50000000  0.74595100  0.41252800  1
  C  C4  1  0.50000000  0.25404900  0.41252800  1
  C  C5  1  0.50000000  0.00000000  0.16793700  1
  C  C6  1  0.00000000  0.74579700  0.58181400  1
  C  C7  1  0.00000000  0.25420300  0.58181400  1
  C  C8  1  0.00000000  0.50000000  0.83169200  1
  C  C9  1  0.50000000  0.24595100  0.91252800  1
  C  C10  1  0.50000000  0.75404900  0.91252800  1
  C  C11  1  0.50000000  0.50000000  0.66793700  1
  Ni  Ni12  1  0.00000000  0.50000000  0.34880100  1
  Ni  Ni13  1  0.00000000  0.00000000  0.84880100  1
  Cu  Cu14  1  0.50000000  0.50000000  0.16288400  1
  Cu  Cu15  1  0.50000000  0.00000000  0.66288400  1
