# generated using pymatgen
data_Cu5(NiC12)3
_symmetry_space_group_name_H-M   'P 1'
_cell_length_a   7.45812329
_cell_length_b   7.45812329
_cell_length_c   11.63295517
_cell_angle_alpha   81.03157157
_cell_angle_beta   81.03157157
_cell_angle_gamma   60.50767626
_symmetry_Int_Tables_number   1
_chemical_formula_structural   Cu5(NiC12)3
_chemical_formula_sum   'Cu5 Ni3 C36'
_cell_volume   553.97322799
_cell_formula_units_Z   1
loop_
 _symmetry_equiv_pos_site_id
 _symmetry_equiv_pos_as_xyz
  1  'x, y, z'
loop_
 _atom_site_type_symbol
 _atom_site_label
 _atom_site_symmetry_multiplicity
 _atom_site_fract_x
 _atom_site_fract_y
 _atom_site_fract_z
 _atom_site_occupancy
  C  C0  1  0.73856900  0.50649400  0.24301600  1
  C  C1  1  0.49350600  0.26143100  0.75698400  1
  C  C2  1  0.25438400  0.50525300  0.25024300  1
  C  C3  1  0.49474700  0.74561600  0.74975700  1
  C  C4  1  0.01255900  0.75241000  0.72575300  1
  C  C5  1  0.24759000  0.98744100  0.27424700  1
  C  C6  1  0.99631900  0.24350700  0.78521000  1
  C  C7  1  0.75649300  0.00368100  0.21479000  1
  Ni  Ni8  1  0.57826000  0.42174000  0.00000000  1
  Ni  Ni9  1  0.40940400  0.59059600  0.50000000  1
  Ni  Ni10  1  0.14034800  0.85965200  0.00000000  1
  Cu  Cu11  1  0.86368000  0.63492200  0.49554100  1
  Cu  Cu12  1  0.36507800  0.13632000  0.50445900  1
  Cu  Cu13  1  0.12790200  0.37057700  0.00974500  1
  Cu  Cu14  1  0.62942300  0.87209800  0.99025500  1
  Cu  Cu15  1  0.85899800  0.14100200  0.50000000  1
  C  C16  1  0.82640600  0.55919300  0.04205800  1
  C  C17  1  0.44080700  0.17359400  0.95794200  1
  C  C18  1  0.17415200  0.43936800  0.46048600  1
  C  C19  1  0.56063200  0.82584800  0.53951400  1
  C  C20  1  0.95249000  0.83292600  0.53037200  1
  C  C21  1  0.16707400  0.04751000  0.46962800  1
  C  C22  1  0.06023800  0.16700200  0.97802700  1
  C  C23  1  0.83299800  0.93976200  0.02197300  1
  C  C24  1  0.11781500  0.85275000  0.16910200  1
  C  C25  1  0.14725000  0.88218500  0.83089700  1
  C  C26  1  0.87325700  0.13494300  0.33379800  1
  C  C27  1  0.86505700  0.12674300  0.66620200  1
  C  C28  1  0.76184400  0.44510300  0.46266700  1
  C  C29  1  0.55489700  0.23815600  0.53733300  1
  C  C30  1  0.23800800  0.54452200  0.03821300  1
  C  C31  1  0.45547800  0.76199200  0.96178700  1
  C  C32  1  0.45300500  0.12307700  0.33966600  1
  C  C33  1  0.87692300  0.54699500  0.66033400  1
  C  C34  1  0.55531700  0.86649300  0.16621900  1
  C  C35  1  0.13350700  0.44468300  0.83378100  1
  C  C36  1  0.87745200  0.69291500  0.32320300  1
  C  C37  1  0.30708500  0.12254800  0.67679700  1
  C  C38  1  0.10942400  0.31412400  0.19084900  1
  C  C39  1  0.68587600  0.89057600  0.80915100  1
  C  C40  1  0.65159900  0.40844600  0.82904200  1
  C  C41  1  0.59155400  0.34840100  0.17095800  1
  C  C42  1  0.35387700  0.59128400  0.67225700  1
  C  C43  1  0.40871600  0.64612300  0.32774300  1
