# generated using pymatgen
data_Cu2Ni5C13
_symmetry_space_group_name_H-M   'P 1'
_cell_length_a   6.80662800
_cell_length_b   10.34135300
_cell_length_c   15.25773000
_cell_angle_alpha   90.00000000
_cell_angle_beta   90.00000000
_cell_angle_gamma   90.00000000
_symmetry_Int_Tables_number   1
_chemical_formula_structural   Cu2Ni5C13
_chemical_formula_sum   'Cu8 Ni20 C52'
_cell_volume   1073.98769175
_cell_formula_units_Z   4
loop_
 _symmetry_equiv_pos_site_id
 _symmetry_equiv_pos_as_xyz
  1  'x, y, z'
loop_
 _atom_site_type_symbol
 _atom_site_label
 _atom_site_symmetry_multiplicity
 _atom_site_fract_x
 _atom_site_fract_y
 _atom_site_fract_z
 _atom_site_occupancy
  Ni  Ni0  1  0.35632500  0.05634600  0.58942700  1
  Ni  Ni1  1  0.64367500  0.94365400  0.41057300  1
  Ni  Ni2  1  0.14367500  0.55634600  0.41057300  1
  Ni  Ni3  1  0.64367500  0.94365400  0.08942700  1
  Ni  Ni4  1  0.85632500  0.44365400  0.58942700  1
  Ni  Ni5  1  0.35632500  0.05634600  0.91057300  1
  Ni  Ni6  1  0.85632500  0.44365400  0.91057300  1
  Ni  Ni7  1  0.14367500  0.55634600  0.08942700  1
  Ni  Ni8  1  0.15812500  0.16287500  0.10784900  1
  Ni  Ni9  1  0.84187500  0.83712500  0.89215100  1
  Ni  Ni10  1  0.34187500  0.66287500  0.89215100  1
  Ni  Ni11  1  0.84187500  0.83712500  0.60784900  1
  Ni  Ni12  1  0.65812500  0.33712500  0.10784900  1
  Ni  Ni13  1  0.15812500  0.16287500  0.39215100  1
  Ni  Ni14  1  0.65812500  0.33712500  0.39215100  1
  Ni  Ni15  1  0.34187500  0.66287500  0.60784900  1
  Ni  Ni16  1  0.05034200  0.21602800  0.75000000  1
  Ni  Ni17  1  0.94965800  0.78397200  0.25000000  1
  Ni  Ni18  1  0.44965800  0.71602800  0.25000000  1
  Ni  Ni19  1  0.55034200  0.28397200  0.75000000  1
  Cu  Cu20  1  0.35234300  0.36727600  0.57075500  1
  Cu  Cu21  1  0.64765700  0.63272400  0.42924500  1
  Cu  Cu22  1  0.14765700  0.86727600  0.42924500  1
  Cu  Cu23  1  0.64765700  0.63272400  0.07075500  1
  Cu  Cu24  1  0.85234300  0.13272400  0.57075500  1
  Cu  Cu25  1  0.35234300  0.36727600  0.92924500  1
  Cu  Cu26  1  0.85234300  0.13272400  0.92924500  1
  Cu  Cu27  1  0.14765700  0.86727600  0.07075500  1
  C  C28  1  0.00653600  0.58698000  0.75000000  1
  C  C29  1  0.99346400  0.41302000  0.25000000  1
  C  C30  1  0.49346400  0.08698000  0.25000000  1
  C  C31  1  0.50653600  0.91302000  0.75000000  1
  C  C32  1  0.45369900  0.05944100  0.75000000  1
  C  C33  1  0.54630100  0.94055900  0.25000000  1
  C  C34  1  0.04630100  0.55944100  0.25000000  1
  C  C35  1  0.95369900  0.44055900  0.75000000  1
  C  C36  1  0.40551200  0.27865200  0.01518800  1
  C  C37  1  0.59448800  0.72134800  0.98481200  1
  C  C38  1  0.09448800  0.77865200  0.98481200  1
  C  C39  1  0.59448800  0.72134800  0.51518800  1
  C  C40  1  0.90551200  0.22134800  0.01518800  1
  C  C41  1  0.40551200  0.27865200  0.48481200  1
  C  C42  1  0.90551200  0.22134800  0.48481200  1
  C  C43  1  0.09448800  0.77865200  0.51518800  1
  C  C44  1  0.08310300  0.35639900  0.16459600  1
  C  C45  1  0.91689700  0.64360100  0.83540400  1
  C  C46  1  0.41689700  0.85639900  0.83540400  1
  C  C47  1  0.91689700  0.64360100  0.66459600  1
  C  C48  1  0.58310300  0.14360100  0.16459600  1
  C  C49  1  0.08310300  0.35639900  0.33540400  1
  C  C50  1  0.58310300  0.14360100  0.33540400  1
  C  C51  1  0.41689700  0.85639900  0.66459600  1
  C  C52  1  0.17695900  0.47461300  0.55091600  1
  C  C53  1  0.82304100  0.52538700  0.44908400  1
  C  C54  1  0.32304100  0.97461300  0.44908400  1
  C  C55  1  0.82304100  0.52538700  0.05091600  1
  C  C56  1  0.67695900  0.02538700  0.55091600  1
  C  C57  1  0.17695900  0.47461300  0.94908400  1
  C  C58  1  0.67695900  0.02538700  0.94908400  1
  C  C59  1  0.32304100  0.97461300  0.05091600  1
  C  C60  1  0.03213300  0.04341300  0.61187100  1
  C  C61  1  0.96786700  0.95658700  0.38812900  1
  C  C62  1  0.46786700  0.54341300  0.38812900  1
  C  C63  1  0.96786700  0.95658700  0.11187100  1
  C  C64  1  0.53213300  0.45658700  0.61187100  1
  C  C65  1  0.03213300  0.04341300  0.88812900  1
  C  C66  1  0.53213300  0.45658700  0.88812900  1
  C  C67  1  0.46786700  0.54341300  0.11187100  1
  C  C68  1  0.23373300  0.60970500  0.75000000  1
  C  C69  1  0.76626700  0.39029500  0.25000000  1
  C  C70  1  0.26626700  0.10970500  0.25000000  1
  C  C71  1  0.73373300  0.89029500  0.75000000  1
  C  C72  1  0.29314200  0.26395800  0.65009300  1
  C  C73  1  0.70685800  0.73604200  0.34990700  1
  C  C74  1  0.20685800  0.76395800  0.34990700  1
  C  C75  1  0.70685800  0.73604200  0.15009300  1
  C  C76  1  0.79314200  0.23604200  0.65009300  1
  C  C77  1  0.29314200  0.26395800  0.84990700  1
  C  C78  1  0.79314200  0.23604200  0.84990700  1
  C  C79  1  0.20685800  0.76395800  0.15009300  1
