# generated using pymatgen
data_Cu2Ni3C4
_symmetry_space_group_name_H-M   'P 1'
_cell_length_a   6.11195400
_cell_length_b   10.37914200
_cell_length_c   8.93407700
_cell_angle_alpha   90.00000000
_cell_angle_beta   90.00000000
_cell_angle_gamma   90.00000000
_symmetry_Int_Tables_number   1
_chemical_formula_structural   Cu2Ni3C4
_chemical_formula_sum   'Cu8 Ni12 C16'
_cell_volume   566.74959947
_cell_formula_units_Z   4
loop_
 _symmetry_equiv_pos_site_id
 _symmetry_equiv_pos_as_xyz
  1  'x, y, z'
loop_
 _atom_site_type_symbol
 _atom_site_label
 _atom_site_symmetry_multiplicity
 _atom_site_fract_x
 _atom_site_fract_y
 _atom_site_fract_z
 _atom_site_occupancy
  C  C0  1  0.49045200  0.25000000  0.85163200  1
  C  C1  1  0.99045200  0.25000000  0.64836800  1
  C  C2  1  0.50954800  0.75000000  0.14836800  1
  C  C3  1  0.00954800  0.75000000  0.35163200  1
  C  C4  1  0.78796700  0.25000000  0.40420100  1
  C  C5  1  0.28796700  0.25000000  0.09579900  1
  C  C6  1  0.21203300  0.75000000  0.59579900  1
  C  C7  1  0.71203300  0.75000000  0.90420100  1
  C  C8  1  0.70150000  0.46773700  0.06940200  1
  C  C9  1  0.20150000  0.03226300  0.43059800  1
  C  C10  1  0.29850000  0.96773700  0.93059800  1
  C  C11  1  0.79850000  0.53226300  0.56940200  1
  C  C12  1  0.29850000  0.53226300  0.93059800  1
  C  C13  1  0.79850000  0.96773700  0.56940200  1
  C  C14  1  0.70150000  0.03226300  0.06940200  1
  C  C15  1  0.20150000  0.46773700  0.43059800  1
  Ni  Ni16  1  0.88384200  0.25000000  0.14439700  1
  Ni  Ni17  1  0.38384200  0.25000000  0.35560300  1
  Ni  Ni18  1  0.11615800  0.75000000  0.85560300  1
  Ni  Ni19  1  0.61615800  0.75000000  0.64439700  1
  Ni  Ni20  1  0.56876000  0.56319500  0.32680000  1
  Ni  Ni21  1  0.06876000  0.93680500  0.17320000  1
  Ni  Ni22  1  0.43124000  0.06319500  0.67320000  1
  Ni  Ni23  1  0.93124000  0.43680500  0.82680000  1
  Ni  Ni24  1  0.43124000  0.43680500  0.67320000  1
  Ni  Ni25  1  0.93124000  0.06319500  0.82680000  1
  Ni  Ni26  1  0.56876000  0.93680500  0.32680000  1
  Ni  Ni27  1  0.06876000  0.56319500  0.17320000  1
  Cu  Cu28  1  0.55882700  0.62105600  0.98948900  1
  Cu  Cu29  1  0.05882700  0.87894400  0.51051100  1
  Cu  Cu30  1  0.44117300  0.12105600  0.01051100  1
  Cu  Cu31  1  0.94117300  0.37894400  0.48948900  1
  Cu  Cu32  1  0.44117300  0.37894400  0.01051100  1
  Cu  Cu33  1  0.94117300  0.12105600  0.48948900  1
  Cu  Cu34  1  0.55882700  0.87894400  0.98948900  1
  Cu  Cu35  1  0.05882700  0.62105600  0.51051100  1
