# generated using pymatgen
data_Cu6NiC22
_symmetry_space_group_name_H-M   'P 1'
_cell_length_a   5.25613395
_cell_length_b   5.43638770
_cell_length_c   14.93573367
_cell_angle_alpha   89.21613256
_cell_angle_beta   89.83939858
_cell_angle_gamma   119.88037541
_symmetry_Int_Tables_number   1
_chemical_formula_structural   Cu6NiC22
_chemical_formula_sum   'Cu6 Ni1 C22'
_cell_volume   369.98908209
_cell_formula_units_Z   1
loop_
 _symmetry_equiv_pos_site_id
 _symmetry_equiv_pos_as_xyz
  1  'x, y, z'
loop_
 _atom_site_type_symbol
 _atom_site_label
 _atom_site_symmetry_multiplicity
 _atom_site_fract_x
 _atom_site_fract_y
 _atom_site_fract_z
 _atom_site_occupancy
  Ni  Ni0  1  0.68921800  0.36884600  0.33288000  1
  Cu  Cu1  1  0.68366100  0.32491700  0.70981400  1
  Cu  Cu2  1  0.66479100  0.32126000  0.96353300  1
  Cu  Cu3  1  0.65027300  0.34328200  0.51370900  1
  Cu  Cu4  1  0.31450600  0.67765100  0.50811100  1
  Cu  Cu5  1  0.33721600  0.65456600  0.99774100  1
  Cu  Cu6  1  0.65700000  0.30424400  0.16175000  1
  C  C7  1  0.00779300  0.99528000  0.85651200  1
  C  C8  1  0.99356200  0.97227600  0.14660400  1
  C  C9  1  0.97716100  0.98387400  0.64897200  1
  C  C10  1  0.00419100  0.02062000  0.35412000  1
  C  C11  1  0.35369800  0.28780200  0.08479700  1
  C  C12  1  0.68762800  0.68665100  0.91900400  1
  C  C13  1  0.91756400  0.24644400  0.24259800  1
  C  C14  1  0.33386000  0.10467900  0.24818000  1
  C  C15  1  0.97457200  0.64317800  0.08972600  1
  C  C16  1  0.66279700  0.68705500  0.58150800  1
  C  C17  1  0.73408600  0.02913000  0.75279000  1
  C  C18  1  0.02435600  0.30762800  0.91876200  1
  C  C19  1  0.98363600  0.69376100  0.41571900  1
  C  C20  1  0.30593800  0.01133000  0.58187900  1
  C  C21  1  0.30819800  0.23621400  0.74948400  1
  C  C22  1  0.95779400  0.32852100  0.60264800  1
  C  C23  1  0.78552500  0.71074100  0.25222000  1
  C  C24  1  0.30847100  0.96599000  0.91784900  1
  C  C25  1  0.69399800  0.00014000  0.08347300  1
  C  C26  1  0.70625100  0.06020200  0.41450400  1
  C  C27  1  0.33841100  0.32823300  0.41133000  1
  C  C28  1  0.93968200  0.70965000  0.74569600  1
