# generated using pymatgen
data_Cu6Ni8C
_symmetry_space_group_name_H-M   'P 1'
_cell_length_a   14.52599949
_cell_length_b   11.08846124
_cell_length_c   6.32520628
_cell_angle_alpha   108.45956041
_cell_angle_beta   83.05870893
_cell_angle_gamma   112.43755731
_symmetry_Int_Tables_number   1
_chemical_formula_structural   Cu6Ni8C
_chemical_formula_sum   'Cu18 Ni24 C3'
_cell_volume   893.22757276
_cell_formula_units_Z   3
loop_
 _symmetry_equiv_pos_site_id
 _symmetry_equiv_pos_as_xyz
  1  'x, y, z'
loop_
 _atom_site_type_symbol
 _atom_site_label
 _atom_site_symmetry_multiplicity
 _atom_site_fract_x
 _atom_site_fract_y
 _atom_site_fract_z
 _atom_site_occupancy
  C  C0  1  0.00000000  0.98937100  0.92537800  1
  C  C1  1  0.32447500  0.69620100  0.09300500  1
  C  C2  1  0.67552500  0.37172700  0.09300500  1
  Ni  Ni3  1  0.00000000  0.61637300  0.07519700  1
  Ni  Ni4  1  0.62966700  0.99091900  0.27410700  1
  Ni  Ni5  1  0.37033300  0.36125200  0.27410700  1
  Ni  Ni6  1  0.00000000  0.73494600  0.03953800  1
  Ni  Ni7  1  0.69207300  0.98143800  0.41890300  1
  Ni  Ni8  1  0.30792700  0.28936500  0.41890300  1
  Ni  Ni9  1  0.09389700  0.60984900  0.08474000  1
  Ni  Ni10  1  0.54211600  0.88272400  0.19291600  1
  Ni  Ni11  1  0.35000200  0.46193500  0.22206700  1
  Ni  Ni12  1  0.90610300  0.51595200  0.08474000  1
  Ni  Ni13  1  0.64999800  0.11193200  0.22206700  1
  Ni  Ni14  1  0.45788400  0.34060800  0.19291600  1
  Ni  Ni15  1  0.69147300  0.70264800  0.80518100  1
  Ni  Ni16  1  0.00000000  0.30299800  0.62207100  1
  Ni  Ni17  1  0.30852700  0.01117500  0.80518100  1
  Ni  Ni18  1  0.77863300  0.81682400  0.85714100  1
  Ni  Ni19  1  0.00000000  0.21343600  0.73215500  1
  Ni  Ni20  1  0.22136700  0.03819000  0.85714100  1
  Ni  Ni21  1  0.62070400  0.67962500  0.64726700  1
  Ni  Ni22  1  0.08994100  0.39736900  0.56777000  1
  Ni  Ni23  1  0.31786100  0.92056100  0.90440600  1
  Ni  Ni24  1  0.37929600  0.05892000  0.64726700  1
  Ni  Ni25  1  0.68213900  0.60270000  0.90440600  1
  Ni  Ni26  1  0.91005900  0.30742800  0.56777000  1
  Cu  Cu27  1  0.00000000  0.83356800  0.00915300  1
  Cu  Cu28  1  0.74254900  0.97064400  0.53716700  1
  Cu  Cu29  1  0.25745100  0.22809500  0.53716700  1
  Cu  Cu30  1  0.17760100  0.62343000  0.08696200  1
  Cu  Cu31  1  0.47010100  0.79032000  0.11331800  1
  Cu  Cu32  1  0.33509300  0.54658500  0.17558700  1
  Cu  Cu33  1  0.82239900  0.44583000  0.08696200  1
  Cu  Cu34  1  0.66490700  0.21149200  0.17558700  1
  Cu  Cu35  1  0.52989900  0.32021900  0.11331800  1
  Cu  Cu36  1  0.85355800  0.90805800  0.91941000  1
  Cu  Cu37  1  0.00000000  0.14348600  0.83791100  1
  Cu  Cu38  1  0.14644200  0.05450000  0.91941000  1
  Cu  Cu39  1  0.56143700  0.65715400  0.51620900  1
  Cu  Cu40  1  0.16179900  0.48030700  0.52371500  1
  Cu  Cu41  1  0.32080300  0.84321300  0.99070900  1
  Cu  Cu42  1  0.43856300  0.09571700  0.51620900  1
  Cu  Cu43  1  0.67919700  0.52241000  0.99070900  1
  Cu  Cu44  1  0.83820100  0.31850700  0.52371500  1
