# generated using pymatgen
data_Cu3Ni4C7
_symmetry_space_group_name_H-M   'P 1'
_cell_length_a   9.07857384
_cell_length_b   16.34383760
_cell_length_c   24.55193988
_cell_angle_alpha   90.00000000
_cell_angle_beta   90.00000000
_cell_angle_gamma   90.00000000
_symmetry_Int_Tables_number   1
_chemical_formula_structural   Cu3Ni4C7
_chemical_formula_sum   'Cu48 Ni64 C112'
_cell_volume   3642.98581754
_cell_formula_units_Z   16
loop_
 _symmetry_equiv_pos_site_id
 _symmetry_equiv_pos_as_xyz
  1  'x, y, z'
loop_
 _atom_site_type_symbol
 _atom_site_label
 _atom_site_symmetry_multiplicity
 _atom_site_fract_x
 _atom_site_fract_y
 _atom_site_fract_z
 _atom_site_occupancy
  C  C0  1  0.27372738  0.22495905  0.29667627  1
  C  C1  1  0.77372738  0.27504095  0.70332373  1
  C  C2  1  0.72627262  0.72495905  0.20332373  1
  C  C3  1  0.22627262  0.77504095  0.79667627  1
  C  C4  1  0.72627262  0.77504095  0.70332373  1
  C  C5  1  0.22627262  0.72495905  0.29667627  1
  C  C6  1  0.27372738  0.27504095  0.79667627  1
  C  C7  1  0.77372738  0.22495905  0.20332373  1
  C  C8  1  0.71139945  0.92466217  0.46947077  1
  C  C9  1  0.21139945  0.57533783  0.53052923  1
  C  C10  1  0.28860055  0.42466217  0.03052923  1
  C  C11  1  0.78860055  0.07533783  0.96947077  1
  C  C12  1  0.28860055  0.07533783  0.53052923  1
  C  C13  1  0.78860055  0.42466217  0.46947077  1
  C  C14  1  0.71139945  0.57533783  0.96947077  1
  C  C15  1  0.21139945  0.92466217  0.03052923  1
  Ni  Ni16  1  0.80025984  0.01136876  0.43234663  1
  Ni  Ni17  1  0.30025984  0.48863124  0.56765337  1
  Ni  Ni18  1  0.19974016  0.51136876  0.06765337  1
  Ni  Ni19  1  0.69974016  0.98863124  0.93234663  1
  Ni  Ni20  1  0.19974016  0.98863124  0.56765337  1
  Ni  Ni21  1  0.69974016  0.51136876  0.43234663  1
  Ni  Ni22  1  0.80025984  0.48863124  0.93234663  1
  Ni  Ni23  1  0.30025984  0.01136876  0.06765337  1
  Ni  Ni24  1  0.15966095  0.13345375  0.31361395  1
  Ni  Ni25  1  0.65966095  0.36654625  0.68638605  1
  Ni  Ni26  1  0.84033905  0.63345375  0.18638605  1
  Ni  Ni27  1  0.34033905  0.86654625  0.81361395  1
  Ni  Ni28  1  0.84033905  0.86654625  0.68638605  1
  Ni  Ni29  1  0.34033905  0.63345375  0.31361395  1
  Ni  Ni30  1  0.15966095  0.36654625  0.81361395  1
  Ni  Ni31  1  0.65966095  0.13345375  0.18638605  1
  Ni  Ni32  1  0.16136418  0.96658748  0.26220449  1
  Ni  Ni33  1  0.66136418  0.53341252  0.73779551  1
  Ni  Ni34  1  0.83863582  0.46658748  0.23779551  1
  Ni  Ni35  1  0.33863582  0.03341252  0.76220449  1
  Ni  Ni36  1  0.83863582  0.03341252  0.73779551  1
  Ni  Ni37  1  0.33863582  0.46658748  0.26220449  1
  Ni  Ni38  1  0.16136418  0.53341252  0.76220449  1
  Ni  Ni39  1  0.66136418  0.96658748  0.23779551  1
  Ni  Ni40  1  0.01303578  0.90521660  0.36765431  1
  Ni  Ni41  1  0.51303578  0.59478340  0.63234569  1
  Ni  Ni42  1  0.98696422  0.40521660  0.13234569  1
  Ni  Ni43  1  0.48696422  0.09478340  0.86765431  1
  Ni  Ni44  1  0.98696422  0.09478340  0.63234569  1
  Ni  Ni45  1  0.48696422  0.40521660  0.36765431  1
  Ni  Ni46  1  0.01303578  0.59478340  0.86765431  1
  Ni  Ni47  1  0.51303578  0.90521660  0.13234569  1
  Ni  Ni48  1  0.87795528  0.17617760  0.48131530  1
  Ni  Ni49  1  0.37795528  0.32382240  0.51868470  1
  Ni  Ni50  1  0.12204472  0.67617760  0.01868470  1
  Ni  Ni51  1  0.62204472  0.82382240  0.98131530  1
  Ni  Ni52  1  0.12204472  0.82382240  0.51868470  1
  Ni  Ni53  1  0.62204472  0.67617760  0.48131530  1
  Ni  Ni54  1  0.87795528  0.32382240  0.98131530  1
  Ni  Ni55  1  0.37795528  0.17617760  0.01868470  1
  Ni  Ni56  1  0.92683587  0.23667509  0.36421512  1
  Ni  Ni57  1  0.42683587  0.26332491  0.63578488  1
  Ni  Ni58  1  0.07316413  0.73667509  0.13578488  1
  Ni  Ni59  1  0.57316413  0.76332491  0.86421512  1
  Ni  Ni60  1  0.07316413  0.76332491  0.63578488  1
  Ni  Ni61  1  0.57316413  0.73667509  0.36421512  1
  Ni  Ni62  1  0.92683587  0.26332491  0.86421512  1
  Ni  Ni63  1  0.42683587  0.23667509  0.13578488  1
  Ni  Ni64  1  0.31150544  0.98897890  0.36801243  1
  Ni  Ni65  1  0.81150544  0.51102110  0.63198757  1
  Ni  Ni66  1  0.68849456  0.48897890  0.13198757  1
  Ni  Ni67  1  0.18849456  0.01102110  0.86801243  1
  Ni  Ni68  1  0.68849456  0.01102110  0.63198757  1
  Ni  Ni69  1  0.18849456  0.48897890  0.36801243  1
  Ni  Ni70  1  0.31150544  0.51102110  0.86801243  1
  Ni  Ni71  1  0.81150544  0.98897890  0.13198757  1
  Ni  Ni72  1  0.63282711  0.16566466  0.40209828  1
  Ni  Ni73  1  0.13282711  0.33433534  0.59790172  1
  Ni  Ni74  1  0.36717289  0.66566466  0.09790172  1
  Ni  Ni75  1  0.86717289  0.83433534  0.90209828  1
  Ni  Ni76  1  0.36717289  0.83433534  0.59790172  1
  Ni  Ni77  1  0.86717289  0.66566466  0.40209828  1
  Ni  Ni78  1  0.63282711  0.33433534  0.90209828  1
  Ni  Ni79  1  0.13282711  0.16566466  0.09790172  1
  Cu  Cu80  1  0.81209661  0.88545235  0.48901378  1
  Cu  Cu81  1  0.31209661  0.61454765  0.51098622  1
  Cu  Cu82  1  0.18790339  0.38545235  0.01098622  1
  Cu  Cu83  1  0.68790339  0.11454765  0.98901378  1
  Cu  Cu84  1  0.18790339  0.11454765  0.51098622  1
  Cu  Cu85  1  0.68790339  0.38545235  0.48901378  1
  Cu  Cu86  1  0.81209661  0.61454765  0.98901378  1
  Cu  Cu87  1  0.31209661  0.88545235  0.01098622  1
  Cu  Cu88  1  0.64441106  0.88918929  0.43356580  1
  Cu  Cu89  1  0.14441106  0.61081071  0.56643420  1
  Cu  Cu90  1  0.35558894  0.38918929  0.06643420  1
  Cu  Cu91  1  0.85558894  0.11081071  0.93356580  1
  Cu  Cu92  1  0.35558894  0.11081071  0.56643420  1
  Cu  Cu93  1  0.85558894  0.38918929  0.43356580  1
  Cu  Cu94  1  0.64441106  0.61081071  0.93356580  1
  Cu  Cu95  1  0.14441106  0.88918929  0.06643420  1
  Cu  Cu96  1  0.39547259  0.19839893  0.28632574  1
  Cu  Cu97  1  0.89547259  0.30160107  0.71367426  1
  Cu  Cu98  1  0.60452741  0.69839893  0.21367426  1
  Cu  Cu99  1  0.10452741  0.80160107  0.78632574  1
  Cu  Cu100  1  0.60452741  0.80160107  0.71367426  1
  Cu  Cu101  1  0.10452741  0.69839893  0.28632574  1
  Cu  Cu102  1  0.39547259  0.30160107  0.78632574  1
  Cu  Cu103  1  0.89547259  0.19839893  0.21367426  1
  Cu  Cu104  1  0.26862711  0.26082925  0.34034071  1
  Cu  Cu105  1  0.76862711  0.23917075  0.65965929  1
  Cu  Cu106  1  0.73137289  0.76082925  0.15965929  1
  Cu  Cu107  1  0.23137289  0.73917075  0.84034071  1
  Cu  Cu108  1  0.73137289  0.73917075  0.65965929  1
  Cu  Cu109  1  0.23137289  0.76082925  0.34034071  1
  Cu  Cu110  1  0.26862711  0.23917075  0.84034071  1
  Cu  Cu111  1  0.76862711  0.26082925  0.15965929  1
  Cu  Cu112  1  0.63175308  0.95780497  0.50261010  1
  Cu  Cu113  1  0.13175308  0.54219503  0.49738990  1
  Cu  Cu114  1  0.36824692  0.45780497  0.99738990  1
  Cu  Cu115  1  0.86824692  0.04219503  0.00261010  1
  Cu  Cu116  1  0.36824692  0.04219503  0.49738990  1
  Cu  Cu117  1  0.86824692  0.45780497  0.50261010  1
  Cu  Cu118  1  0.63175308  0.54219503  0.00261010  1
  Cu  Cu119  1  0.13175308  0.95780497  0.99738990  1
  Cu  Cu120  1  0.21092529  0.26040206  0.25995164  1
  Cu  Cu121  1  0.71092529  0.23959794  0.74004836  1
  Cu  Cu122  1  0.78907471  0.76040206  0.24004836  1
  Cu  Cu123  1  0.28907471  0.73959794  0.75995164  1
  Cu  Cu124  1  0.78907471  0.73959794  0.74004836  1
  Cu  Cu125  1  0.28907471  0.76040206  0.25995164  1
  Cu  Cu126  1  0.21092529  0.23959794  0.75995164  1
  Cu  Cu127  1  0.71092529  0.26040206  0.24004836  1
  C  C128  1  0.30741721  0.96152995  0.30270636  1
  C  C129  1  0.80741721  0.53847005  0.69729364  1
  C  C130  1  0.69258279  0.46152995  0.19729364  1
  C  C131  1  0.19258279  0.03847005  0.80270636  1
  C  C132  1  0.69258279  0.03847005  0.69729364  1
  C  C133  1  0.19258279  0.46152995  0.30270636  1
  C  C134  1  0.30741721  0.53847005  0.80270636  1
  C  C135  1  0.80741721  0.96152995  0.19729364  1
  C  C136  1  0.68683282  0.06752461  0.39848928  1
  C  C137  1  0.18683282  0.43247539  0.60151072  1
  C  C138  1  0.31316718  0.56752461  0.10151072  1
  C  C139  1  0.81316718  0.93247539  0.89848928  1
  C  C140  1  0.31316718  0.93247539  0.60151072  1
  C  C141  1  0.81316718  0.56752461  0.39848928  1
  C  C142  1  0.68683282  0.43247539  0.89848928  1
  C  C143  1  0.18683282  0.06752461  0.10151072  1
  C  C144  1  0.03105644  0.93074322  0.30291431  1
  C  C145  1  0.53105644  0.56925678  0.69708569  1
  C  C146  1  0.96894356  0.43074322  0.19708569  1
  C  C147  1  0.46894356  0.06925678  0.80291431  1
  C  C148  1  0.96894356  0.06925678  0.69708569  1
  C  C149  1  0.46894356  0.43074322  0.30291431  1
  C  C150  1  0.03105644  0.56925678  0.80291431  1
  C  C151  1  0.53105644  0.93074322  0.19708569  1
  C  C152  1  0.17579782  0.93193820  0.39229741  1
  C  C153  1  0.67579782  0.56806180  0.60770259  1
  C  C154  1  0.82420218  0.43193820  0.10770259  1
  C  C155  1  0.32420218  0.06806180  0.89229741  1
  C  C156  1  0.82420218  0.06806180  0.60770259  1
  C  C157  1  0.32420218  0.43193820  0.39229741  1
  C  C158  1  0.17579782  0.56806180  0.89229741  1
  C  C159  1  0.67579782  0.93193820  0.10770259  1
  C  C160  1  0.75245435  0.20950210  0.36036123  1
  C  C161  1  0.25245435  0.29049790  0.63963877  1
  C  C162  1  0.24754565  0.70950210  0.13963877  1
  C  C163  1  0.74754565  0.79049790  0.86036123  1
  C  C164  1  0.24754565  0.79049790  0.63963877  1
  C  C165  1  0.74754565  0.70950210  0.36036123  1
  C  C166  1  0.75245435  0.29049790  0.86036123  1
  C  C167  1  0.25245435  0.20950210  0.13963877  1
  C  C168  1  0.96674216  0.21389718  0.42831003  1
  C  C169  1  0.46674216  0.28610282  0.57168997  1
  C  C170  1  0.03325784  0.71389718  0.07168997  1
  C  C171  1  0.53325784  0.78610282  0.92831003  1
  C  C172  1  0.03325784  0.78610282  0.57168997  1
  C  C173  1  0.53325784  0.71389718  0.42831003  1
  C  C174  1  0.96674216  0.28610282  0.92831003  1
  C  C175  1  0.46674216  0.21389718  0.07168997  1
  C  C176  1  0.99532885  0.15162257  0.33454235  1
  C  C177  1  0.49532885  0.34837743  0.66545765  1
  C  C178  1  0.00467115  0.65162257  0.16545765  1
  C  C179  1  0.50467115  0.84837743  0.83454235  1
  C  C180  1  0.00467115  0.84837743  0.66545765  1
  C  C181  1  0.50467115  0.65162257  0.33454235  1
  C  C182  1  0.99532885  0.34837743  0.83454235  1
  C  C183  1  0.49532885  0.15162257  0.16545765  1
  C  C184  1  0.22764375  0.07989765  0.36278544  1
  C  C185  1  0.72764375  0.42010235  0.63721456  1
  C  C186  1  0.77235625  0.57989765  0.13721456  1
  C  C187  1  0.27235625  0.92010235  0.86278544  1
  C  C188  1  0.77235625  0.92010235  0.63721456  1
  C  C189  1  0.27235625  0.57989765  0.36278544  1
  C  C190  1  0.22764375  0.42010235  0.86278544  1
  C  C191  1  0.72764375  0.07989765  0.13721456  1
  C  C192  1  0.13008740  0.06793102  0.26566259  1
  C  C193  1  0.63008740  0.43206898  0.73433741  1
  C  C194  1  0.86991260  0.56793102  0.23433741  1
  C  C195  1  0.36991260  0.93206898  0.76566259  1
  C  C196  1  0.86991260  0.93206898  0.73433741  1
  C  C197  1  0.36991260  0.56793102  0.26566259  1
  C  C198  1  0.13008740  0.43206898  0.76566259  1
  C  C199  1  0.63008740  0.06793102  0.23433741  1
  C  C200  1  0.70448833  0.19031444  0.46200923  1
  C  C201  1  0.20448833  0.30968556  0.53799077  1
  C  C202  1  0.29551167  0.69031444  0.03799077  1
  C  C203  1  0.79551167  0.80968556  0.96200923  1
  C  C204  1  0.29551167  0.80968556  0.53799077  1
  C  C205  1  0.79551167  0.69031444  0.46200923  1
  C  C206  1  0.70448833  0.30968556  0.96200923  1
  C  C207  1  0.20448833  0.19031444  0.03799077  1
  C  C208  1  0.88992847  0.07485910  0.47012330  1
  C  C209  1  0.38992847  0.42514090  0.52987670  1
  C  C210  1  0.11007153  0.57485910  0.02987670  1
  C  C211  1  0.61007153  0.92514090  0.97012330  1
  C  C212  1  0.11007153  0.92514090  0.52987670  1
  C  C213  1  0.61007153  0.57485910  0.47012330  1
  C  C214  1  0.88992847  0.42514090  0.97012330  1
  C  C215  1  0.38992847  0.07485910  0.02987670  1
  C  C216  1  0.91748272  0.98885427  0.38577146  1
  C  C217  1  0.41748272  0.51114573  0.61422854  1
  C  C218  1  0.08251728  0.48885427  0.11422854  1
  C  C219  1  0.58251728  0.01114573  0.88577146  1
  C  C220  1  0.08251728  0.01114573  0.61422854  1
  C  C221  1  0.58251728  0.48885427  0.38577146  1
  C  C222  1  0.91748272  0.51114573  0.88577146  1
  C  C223  1  0.41748272  0.98885427  0.11422854  1
