# generated using pymatgen
data_Cu11(Ni2C)2
_symmetry_space_group_name_H-M   'P 1'
_cell_length_a   6.60751600
_cell_length_b   7.76567771
_cell_length_c   12.31352096
_cell_angle_alpha   106.86100130
_cell_angle_beta   100.94420607
_cell_angle_gamma   98.85069216
_symmetry_Int_Tables_number   1
_chemical_formula_structural   Cu11(Ni2C)2
_chemical_formula_sum   'Cu22 Ni8 C4'
_cell_volume   578.80821867
_cell_formula_units_Z   2
loop_
 _symmetry_equiv_pos_site_id
 _symmetry_equiv_pos_as_xyz
  1  'x, y, z'
loop_
 _atom_site_type_symbol
 _atom_site_label
 _atom_site_symmetry_multiplicity
 _atom_site_fract_x
 _atom_site_fract_y
 _atom_site_fract_z
 _atom_site_occupancy
  C  C0  1  0.30510000  0.09326500  0.32555400  1
  C  C1  1  0.69490000  0.90673500  0.67444600  1
  C  C2  1  0.17794800  0.65605900  0.21406200  1
  C  C3  1  0.82205200  0.34394100  0.78593800  1
  Ni  Ni4  1  0.67358300  0.73906500  0.24306300  1
  Ni  Ni5  1  0.32641700  0.26093500  0.75693700  1
  Ni  Ni6  1  0.65282400  0.54554300  0.22426000  1
  Ni  Ni7  1  0.34717600  0.45445700  0.77574000  1
  Ni  Ni8  1  0.54662600  0.93202300  0.96999900  1
  Ni  Ni9  1  0.45337400  0.06797700  0.03000100  1
  Ni  Ni10  1  0.01180800  0.60052000  0.50291000  1
  Ni  Ni11  1  0.98819200  0.39948000  0.49709000  1
  Cu  Cu12  1  0.50978100  0.80533400  0.25291700  1
  Cu  Cu13  1  0.49021900  0.19466600  0.74708300  1
  Cu  Cu14  1  0.46821800  0.46801200  0.22605700  1
  Cu  Cu15  1  0.53178200  0.53198800  0.77394300  1
  Cu  Cu16  1  0.85472500  0.81005700  0.24868000  1
  Cu  Cu17  1  0.14527500  0.18994300  0.75132000  1
  Cu  Cu18  1  0.81989200  0.48336900  0.21202200  1
  Cu  Cu19  1  0.18010800  0.51663100  0.78797800  1
  Cu  Cu20  1  0.45115600  0.76465600  0.01487700  1
  Cu  Cu21  1  0.54884400  0.23534400  0.98512300  1
  Cu  Cu22  1  0.71156800  0.00070400  0.88099000  1
  Cu  Cu23  1  0.28843200  0.99929600  0.11901000  1
  Cu  Cu24  1  0.09944100  0.72697400  0.40683800  1
  Cu  Cu25  1  0.90055900  0.27302600  0.59316200  1
  Cu  Cu26  1  0.94149100  0.62039200  0.60268900  1
  Cu  Cu27  1  0.05850900  0.37960800  0.39731100  1
  Cu  Cu28  1  0.80439200  0.03335300  0.34618200  1
  Cu  Cu29  1  0.19560800  0.96664700  0.65381800  1
  Cu  Cu30  1  0.02097100  0.73842700  0.94648900  1
  Cu  Cu31  1  0.97902900  0.26157300  0.05351100  1
  Cu  Cu32  1  0.12914800  0.33504900  0.08039500  1
  Cu  Cu33  1  0.87085200  0.66495100  0.91960500  1
