# generated using pymatgen
data_CuNiC3
_symmetry_space_group_name_H-M   'P 1'
_cell_length_a   4.03379200
_cell_length_b   11.14370700
_cell_length_c   21.83288659
_cell_angle_alpha   78.59330528
_cell_angle_beta   90.00000000
_cell_angle_gamma   90.00000000
_symmetry_Int_Tables_number   1
_chemical_formula_structural   CuNiC3
_chemical_formula_sum   'Cu8 Ni8 C24'
_cell_volume   962.03382259
_cell_formula_units_Z   8
loop_
 _symmetry_equiv_pos_site_id
 _symmetry_equiv_pos_as_xyz
  1  'x, y, z'
loop_
 _atom_site_type_symbol
 _atom_site_label
 _atom_site_symmetry_multiplicity
 _atom_site_fract_x
 _atom_site_fract_y
 _atom_site_fract_z
 _atom_site_occupancy
  Ni  Ni0  1  0.25000000  0.30274800  0.76550400  1
  Ni  Ni1  1  0.75000000  0.69725200  0.23449600  1
  Ni  Ni2  1  0.25000000  0.90806100  0.86309600  1
  Ni  Ni3  1  0.75000000  0.09193900  0.13690400  1
  Ni  Ni4  1  0.25000000  0.69139800  0.73182400  1
  Ni  Ni5  1  0.75000000  0.30860200  0.26817600  1
  Ni  Ni6  1  0.25000000  0.80018700  0.53608700  1
  Ni  Ni7  1  0.75000000  0.19981300  0.46391300  1
  Cu  Cu8  1  0.25000000  0.55222700  0.41700300  1
  Cu  Cu9  1  0.75000000  0.44777300  0.58299700  1
  Cu  Cu10  1  0.25000000  0.97064800  0.35106800  1
  Cu  Cu11  1  0.75000000  0.02935200  0.64893200  1
  Cu  Cu12  1  0.25000000  0.82114500  0.04689900  1
  Cu  Cu13  1  0.75000000  0.17885500  0.95310100  1
  Cu  Cu14  1  0.25000000  0.47646600  0.08834900  1
  Cu  Cu15  1  0.75000000  0.52353400  0.91165100  1
  C  C16  1  0.25000000  0.08601400  0.03722500  1
  C  C17  1  0.75000000  0.91398600  0.96277500  1
  C  C18  1  0.25000000  0.20573200  0.36625100  1
  C  C19  1  0.75000000  0.79426800  0.63374900  1
  C  C20  1  0.25000000  0.74517700  0.32370300  1
  C  C21  1  0.75000000  0.25482300  0.67629700  1
  C  C22  1  0.25000000  0.63646800  0.96384800  1
  C  C23  1  0.75000000  0.36353200  0.03615200  1
  C  C24  1  0.25000000  0.50572200  0.22157100  1
  C  C25  1  0.75000000  0.49427800  0.77842900  1
  C  C26  1  0.25000000  0.25146800  0.17459600  1
  C  C27  1  0.75000000  0.74853200  0.82540400  1
  C  C28  1  0.25000000  0.87585100  0.16433000  1
  C  C29  1  0.75000000  0.12414900  0.83567000  1
  C  C30  1  0.25000000  0.35470300  0.51437600  1
  C  C31  1  0.75000000  0.64529700  0.48562400  1
  C  C32  1  0.25000000  0.05754900  0.55562400  1
  C  C33  1  0.75000000  0.94245100  0.44437600  1
  C  C34  1  0.25000000  0.96155900  0.72872700  1
  C  C35  1  0.75000000  0.03844100  0.27127300  1
  C  C36  1  0.25000000  0.54785200  0.63338900  1
  C  C37  1  0.75000000  0.45214800  0.36661100  1
  C  C38  1  0.25000000  0.34219100  0.90051800  1
  C  C39  1  0.75000000  0.65780900  0.09948200  1
