# generated using pymatgen
data_CuNiC9
_symmetry_space_group_name_H-M   'P 1'
_cell_length_a   6.23613300
_cell_length_b   10.41659100
_cell_length_c   10.43250010
_cell_angle_alpha   62.31965344
_cell_angle_beta   90.00000000
_cell_angle_gamma   90.00000000
_symmetry_Int_Tables_number   1
_chemical_formula_structural   CuNiC9
_chemical_formula_sum   'Cu4 Ni4 C36'
_cell_volume   600.12808102
_cell_formula_units_Z   4
loop_
 _symmetry_equiv_pos_site_id
 _symmetry_equiv_pos_as_xyz
  1  'x, y, z'
loop_
 _atom_site_type_symbol
 _atom_site_label
 _atom_site_symmetry_multiplicity
 _atom_site_fract_x
 _atom_site_fract_y
 _atom_site_fract_z
 _atom_site_occupancy
  C  C0  1  0.54397400  0.76099700  0.24337800  1
  C  C1  1  0.95602600  0.76099700  0.74337800  1
  C  C2  1  0.04397400  0.23900300  0.25662200  1
  C  C3  1  0.45602600  0.23900300  0.75662200  1
  C  C4  1  0.25062300  0.65487000  0.06478000  1
  C  C5  1  0.24937700  0.65487000  0.56478000  1
  C  C6  1  0.75062300  0.34513000  0.43522000  1
  C  C7  1  0.74937700  0.34513000  0.93522000  1
  Ni  Ni8  1  0.75226700  0.56547900  0.07714400  1
  Ni  Ni9  1  0.74773300  0.56547900  0.57714400  1
  Ni  Ni10  1  0.25226700  0.43452100  0.42285600  1
  Ni  Ni11  1  0.24773300  0.43452100  0.92285600  1
  Cu  Cu12  1  0.24953500  0.91431800  0.90596800  1
  Cu  Cu13  1  0.25046500  0.91431800  0.40596800  1
  Cu  Cu14  1  0.74953500  0.08568200  0.59403200  1
  Cu  Cu15  1  0.75046500  0.08568200  0.09403200  1
  C  C16  1  0.74395500  0.95451400  0.67544200  1
  C  C17  1  0.75604500  0.95451400  0.17544200  1
  C  C18  1  0.25921100  0.85257900  0.04879900  1
  C  C19  1  0.24078900  0.85257900  0.54879900  1
  C  C20  1  0.24536800  0.81268400  0.86269100  1
  C  C21  1  0.25463200  0.81268400  0.36269100  1
  C  C22  1  0.94502400  0.66812600  0.05434700  1
  C  C23  1  0.55943000  0.66328700  0.06833500  1
  C  C24  1  0.94057000  0.66328700  0.56833500  1
  C  C25  1  0.55497600  0.66812600  0.55434700  1
  C  C26  1  0.75123300  0.52578300  0.45039300  1
  C  C27  1  0.26183800  0.57415400  0.27805600  1
  C  C28  1  0.74876700  0.52578300  0.95039300  1
  C  C29  1  0.23816200  0.57415400  0.77805600  1
  C  C30  1  0.76183800  0.42584600  0.22194400  1
  C  C31  1  0.25123300  0.47421700  0.04960700  1
  C  C32  1  0.73816200  0.42584600  0.72194400  1
  C  C33  1  0.24876700  0.47421700  0.54960700  1
  C  C34  1  0.44502400  0.33187400  0.44565300  1
  C  C35  1  0.05943000  0.33671300  0.43166500  1
  C  C36  1  0.44057000  0.33671300  0.93166500  1
  C  C37  1  0.05497600  0.33187400  0.94565300  1
  C  C38  1  0.74536800  0.18731600  0.63730900  1
  C  C39  1  0.75463200  0.18731600  0.13730900  1
  C  C40  1  0.75921100  0.14742100  0.45120100  1
  C  C41  1  0.74078900  0.14742100  0.95120100  1
  C  C42  1  0.24395500  0.04548600  0.82455800  1
  C  C43  1  0.25604500  0.04548600  0.32455800  1
