# generated using pymatgen
data_Cu5(Ni2C)3
_symmetry_space_group_name_H-M   'P 1'
_cell_length_a   9.89018092
_cell_length_b   9.89018092
_cell_length_c   8.78812291
_cell_angle_alpha   69.90082823
_cell_angle_beta   69.90082823
_cell_angle_gamma   80.06366447
_symmetry_Int_Tables_number   1
_chemical_formula_structural   Cu5(Ni2C)3
_chemical_formula_sum   'Cu10 Ni12 C6'
_cell_volume   756.65494137
_cell_formula_units_Z   2
loop_
 _symmetry_equiv_pos_site_id
 _symmetry_equiv_pos_as_xyz
  1  'x, y, z'
loop_
 _atom_site_type_symbol
 _atom_site_label
 _atom_site_symmetry_multiplicity
 _atom_site_fract_x
 _atom_site_fract_y
 _atom_site_fract_z
 _atom_site_occupancy
  C  C0  1  0.87332200  0.12667800  0.25000000  1
  C  C1  1  0.12667800  0.87332200  0.75000000  1
  C  C2  1  0.64562400  0.65500400  0.00159700  1
  C  C3  1  0.35437600  0.34499600  0.99840300  1
  C  C4  1  0.34499600  0.35437600  0.49840300  1
  C  C5  1  0.65500400  0.64562400  0.50159700  1
  Ni  Ni6  1  0.31036600  0.06568300  0.90194900  1
  Ni  Ni7  1  0.68963400  0.93431700  0.09805100  1
  Ni  Ni8  1  0.93431700  0.68963400  0.59805100  1
  Ni  Ni9  1  0.06568300  0.31036600  0.40194900  1
  Ni  Ni10  1  0.29125700  0.59786800  0.10511700  1
  Ni  Ni11  1  0.70874300  0.40213200  0.89488300  1
  Ni  Ni12  1  0.40213200  0.70874300  0.39488300  1
  Ni  Ni13  1  0.59786800  0.29125700  0.60511700  1
  Ni  Ni14  1  0.45754400  0.15100200  0.30335100  1
  Ni  Ni15  1  0.54245600  0.84899800  0.69664900  1
  Ni  Ni16  1  0.84899800  0.54245600  0.19664900  1
  Ni  Ni17  1  0.15100200  0.45754400  0.80335100  1
  Cu  Cu18  1  0.93602900  0.01687700  0.54621400  1
  Cu  Cu19  1  0.06397100  0.98312300  0.45378600  1
  Cu  Cu20  1  0.98312300  0.06397100  0.95378600  1
  Cu  Cu21  1  0.01687700  0.93602900  0.04621400  1
  Cu  Cu22  1  0.74363200  0.88459900  0.28812700  1
  Cu  Cu23  1  0.25636800  0.11540100  0.71187300  1
  Cu  Cu24  1  0.11540100  0.25636800  0.21187300  1
  Cu  Cu25  1  0.88459900  0.74363200  0.78812700  1
  Cu  Cu26  1  0.67481400  0.32518600  0.25000000  1
  Cu  Cu27  1  0.32518600  0.67481400  0.75000000  1
