# generated using pymatgen
data_Cu2Ni2C15
_symmetry_space_group_name_H-M   'P 1'
_cell_length_a   10.86481100
_cell_length_b   10.86481100
_cell_length_c   10.86481100
_cell_angle_alpha   90.00000000
_cell_angle_beta   90.00000000
_cell_angle_gamma   90.00000000
_symmetry_Int_Tables_number   1
_chemical_formula_structural   Cu2Ni2C15
_chemical_formula_sum   'Cu8 Ni8 C60'
_cell_volume   1282.52703245
_cell_formula_units_Z   4
loop_
 _symmetry_equiv_pos_site_id
 _symmetry_equiv_pos_as_xyz
  1  'x, y, z'
loop_
 _atom_site_type_symbol
 _atom_site_label
 _atom_site_symmetry_multiplicity
 _atom_site_fract_x
 _atom_site_fract_y
 _atom_site_fract_z
 _atom_site_occupancy
  Ni  Ni0  1  0.05455100  0.05455100  0.05455100  1
  Ni  Ni1  1  0.44544900  0.94544900  0.55455100  1
  Ni  Ni2  1  0.94544900  0.55455100  0.44544900  1
  Ni  Ni3  1  0.55455100  0.44544900  0.94544900  1
  Ni  Ni4  1  0.82197200  0.82197200  0.82197200  1
  Ni  Ni5  1  0.67802800  0.17802800  0.32197200  1
  Ni  Ni6  1  0.17802800  0.32197200  0.67802800  1
  Ni  Ni7  1  0.32197200  0.67802800  0.17802800  1
  Cu  Cu8  1  0.33662300  0.33662300  0.33662300  1
  Cu  Cu9  1  0.16337700  0.66337700  0.83662300  1
  Cu  Cu10  1  0.66337700  0.83662300  0.16337700  1
  Cu  Cu11  1  0.83662300  0.16337700  0.66337700  1
  Cu  Cu12  1  0.60585100  0.60585100  0.60585100  1
  Cu  Cu13  1  0.89414900  0.39414900  0.10585100  1
  Cu  Cu14  1  0.39414900  0.10585100  0.89414900  1
  Cu  Cu15  1  0.10585100  0.89414900  0.39414900  1
  C  C16  1  0.02283600  0.20906800  0.37651700  1
  C  C17  1  0.47716400  0.79093200  0.87651700  1
  C  C18  1  0.97716400  0.70906800  0.12348300  1
  C  C19  1  0.37651700  0.02283600  0.20906800  1
  C  C20  1  0.52283600  0.29093200  0.62348300  1
  C  C21  1  0.87651700  0.47716400  0.79093200  1
  C  C22  1  0.12348300  0.97716400  0.70906800  1
  C  C23  1  0.62348300  0.52283600  0.29093200  1
  C  C24  1  0.20906800  0.37651700  0.02283600  1
  C  C25  1  0.70906800  0.12348300  0.97716400  1
  C  C26  1  0.29093200  0.62348300  0.52283600  1
  C  C27  1  0.79093200  0.87651700  0.47716400  1
  C  C28  1  0.01765800  0.05098500  0.32479300  1
  C  C29  1  0.48234200  0.94901500  0.82479300  1
  C  C30  1  0.98234200  0.55098500  0.17520700  1
  C  C31  1  0.32479300  0.01765800  0.05098500  1
  C  C32  1  0.51765800  0.44901500  0.67520700  1
  C  C33  1  0.82479300  0.48234200  0.94901500  1
  C  C34  1  0.17520700  0.98234200  0.55098500  1
  C  C35  1  0.67520700  0.51765800  0.44901500  1
  C  C36  1  0.05098500  0.32479300  0.01765800  1
  C  C37  1  0.55098500  0.17520700  0.98234200  1
  C  C38  1  0.44901500  0.67520700  0.51765800  1
  C  C39  1  0.94901500  0.82479300  0.48234200  1
  C  C40  1  0.27242300  0.48452300  0.43682300  1
  C  C41  1  0.22757700  0.51547700  0.93682300  1
  C  C42  1  0.72757700  0.98452300  0.06317700  1
  C  C43  1  0.43682300  0.27242300  0.48452300  1
  C  C44  1  0.77242300  0.01547700  0.56317700  1
  C  C45  1  0.93682300  0.22757700  0.51547700  1
  C  C46  1  0.06317700  0.72757700  0.98452300  1
  C  C47  1  0.56317700  0.77242300  0.01547700  1
  C  C48  1  0.48452300  0.43682300  0.27242300  1
  C  C49  1  0.98452300  0.06317700  0.72757700  1
  C  C50  1  0.01547700  0.56317700  0.77242300  1
  C  C51  1  0.51547700  0.93682300  0.22757700  1
  C  C52  1  0.04974900  0.80446600  0.23674500  1
  C  C53  1  0.45025100  0.19553400  0.73674500  1
  C  C54  1  0.95025100  0.30446600  0.26325500  1
  C  C55  1  0.23674500  0.04974900  0.80446600  1
  C  C56  1  0.54974900  0.69553400  0.76325500  1
  C  C57  1  0.73674500  0.45025100  0.19553400  1
  C  C58  1  0.26325500  0.95025100  0.30446600  1
  C  C59  1  0.76325500  0.54974900  0.69553400  1
  C  C60  1  0.80446600  0.23674500  0.04974900  1
  C  C61  1  0.30446600  0.26325500  0.95025100  1
  C  C62  1  0.69553400  0.76325500  0.54974900  1
  C  C63  1  0.19553400  0.73674500  0.45025100  1
  C  C64  1  0.17868500  0.25552900  0.40378100  1
  C  C65  1  0.32131500  0.74447100  0.90378100  1
  C  C66  1  0.82131500  0.75552900  0.09621900  1
  C  C67  1  0.40378100  0.17868500  0.25552900  1
  C  C68  1  0.67868500  0.24447100  0.59621900  1
  C  C69  1  0.90378100  0.32131500  0.74447100  1
  C  C70  1  0.09621900  0.82131500  0.75552900  1
  C  C71  1  0.59621900  0.67868500  0.24447100  1
  C  C72  1  0.25552900  0.40378100  0.17868500  1
  C  C73  1  0.75552900  0.09621900  0.82131500  1
  C  C74  1  0.24447100  0.59621900  0.67868500  1
  C  C75  1  0.74447100  0.90378100  0.32131500  1
