# generated using pymatgen
data_Cu3(Ni3C2)2
_symmetry_space_group_name_H-M   'P 1'
_cell_length_a   26.50097600
_cell_length_b   5.32305900
_cell_length_c   5.66943084
_cell_angle_alpha   78.36596657
_cell_angle_beta   90.00000000
_cell_angle_gamma   90.00000000
_symmetry_Int_Tables_number   1
_chemical_formula_structural   Cu3(Ni3C2)2
_chemical_formula_sum   'Cu12 Ni24 C16'
_cell_volume   783.33472823
_cell_formula_units_Z   4
loop_
 _symmetry_equiv_pos_site_id
 _symmetry_equiv_pos_as_xyz
  1  'x, y, z'
loop_
 _atom_site_type_symbol
 _atom_site_label
 _atom_site_symmetry_multiplicity
 _atom_site_fract_x
 _atom_site_fract_y
 _atom_site_fract_z
 _atom_site_occupancy
  C  C0  1  0.19014700  0.71092000  0.11744200  1
  C  C1  1  0.69014700  0.28908000  0.38255800  1
  C  C2  1  0.80985300  0.28908000  0.88255800  1
  C  C3  1  0.30985300  0.71092000  0.61744200  1
  C  C4  1  0.05386600  0.24549800  0.78713900  1
  C  C5  1  0.55386600  0.75450200  0.71286100  1
  C  C6  1  0.94613400  0.75450200  0.21286100  1
  C  C7  1  0.44613400  0.24549800  0.28713900  1
  C  C8  1  0.11328400  0.43536700  0.69462500  1
  C  C9  1  0.61328400  0.56463300  0.80537500  1
  C  C10  1  0.88671600  0.56463300  0.30537500  1
  C  C11  1  0.38671600  0.43536700  0.19462500  1
  C  C12  1  0.19718400  0.13717800  0.52640800  1
  C  C13  1  0.69718400  0.86282200  0.97359200  1
  C  C14  1  0.80281600  0.86282200  0.47359200  1
  C  C15  1  0.30281600  0.13717800  0.02640800  1
  Ni  Ni16  1  0.22378800  0.93732100  0.69339500  1
  Ni  Ni17  1  0.72378800  0.06267900  0.80660500  1
  Ni  Ni18  1  0.77621200  0.06267900  0.30660500  1
  Ni  Ni19  1  0.27621200  0.93732100  0.19339500  1
  Ni  Ni20  1  0.15333400  0.21322100  0.74849200  1
  Ni  Ni21  1  0.65333400  0.78677900  0.75150800  1
  Ni  Ni22  1  0.84666600  0.78677900  0.25150800  1
  Ni  Ni23  1  0.34666600  0.21322100  0.24849200  1
  Ni  Ni24  1  0.16557300  0.05466900  0.34868400  1
  Ni  Ni25  1  0.66557300  0.94533100  0.15131600  1
  Ni  Ni26  1  0.83442700  0.94533100  0.65131600  1
  Ni  Ni27  1  0.33442700  0.05466900  0.84868400  1
  Ni  Ni28  1  0.10923500  0.54293400  0.44213300  1
  Ni  Ni29  1  0.60923500  0.45706600  0.05786700  1
  Ni  Ni30  1  0.89076500  0.45706600  0.55786700  1
  Ni  Ni31  1  0.39076500  0.54293400  0.94213300  1
  Ni  Ni32  1  0.11992700  0.59811600  0.86758900  1
  Ni  Ni33  1  0.61992700  0.40188400  0.63241100  1
  Ni  Ni34  1  0.88007300  0.40188400  0.13241100  1
  Ni  Ni35  1  0.38007300  0.59811600  0.36758900  1
  Ni  Ni36  1  0.22410800  0.37786000  0.44929900  1
  Ni  Ni37  1  0.72410800  0.62214000  0.05070100  1
  Ni  Ni38  1  0.77589200  0.62214000  0.55070100  1
  Ni  Ni39  1  0.27589200  0.37786000  0.94929900  1
  Cu  Cu40  1  0.04608900  0.08038900  0.63972300  1
  Cu  Cu41  1  0.54608900  0.91961100  0.86027700  1
  Cu  Cu42  1  0.95391100  0.91961100  0.36027700  1
  Cu  Cu43  1  0.45391100  0.08038900  0.13972300  1
  Cu  Cu44  1  0.05738700  0.11655300  0.01630000  1
  Cu  Cu45  1  0.55738700  0.88344700  0.48370000  1
  Cu  Cu46  1  0.94261300  0.88344700  0.98370000  1
  Cu  Cu47  1  0.44261300  0.11655300  0.51630000  1
  Cu  Cu48  1  0.01512700  0.41280000  0.76769100  1
  Cu  Cu49  1  0.51512700  0.58720000  0.73230900  1
  Cu  Cu50  1  0.98487300  0.58720000  0.23230900  1
  Cu  Cu51  1  0.48487300  0.41280000  0.26769100  1
