# generated using pymatgen
data_CuNiC3
_symmetry_space_group_name_H-M   'P 1'
_cell_length_a   5.10928500
_cell_length_b   5.50969096
_cell_length_c   8.85979453
_cell_angle_alpha   105.59203230
_cell_angle_beta   89.85997116
_cell_angle_gamma   117.58434768
_symmetry_Int_Tables_number   1
_chemical_formula_structural   CuNiC3
_chemical_formula_sum   'Cu4 Ni4 C12'
_cell_volume   210.73717215
_cell_formula_units_Z   4
loop_
 _symmetry_equiv_pos_site_id
 _symmetry_equiv_pos_as_xyz
  1  'x, y, z'
loop_
 _atom_site_type_symbol
 _atom_site_label
 _atom_site_symmetry_multiplicity
 _atom_site_fract_x
 _atom_site_fract_y
 _atom_site_fract_z
 _atom_site_occupancy
  Ni  Ni0  1  0.72297000  0.87622900  0.57196200  1
  Ni  Ni1  1  0.22482200  0.37017300  0.07664500  1
  Ni  Ni2  1  0.02549000  0.37695200  0.67624900  1
  Ni  Ni3  1  0.27675100  0.12936400  0.42486900  1
  Cu  Cu4  1  0.52212400  0.87136800  0.17292000  1
  Cu  Cu5  1  0.97548100  0.62863700  0.32484200  1
  Cu  Cu6  1  0.47721600  0.12620800  0.82639200  1
  Cu  Cu7  1  0.77479200  0.62363400  0.92555300  1
  C  C8  1  0.77737300  0.52650100  0.72498100  1
  C  C9  1  0.27627700  0.02327400  0.22323600  1
  C  C10  1  0.81911300  0.87422800  0.37285100  1
  C  C11  1  0.67916000  0.62507400  0.12558800  1
  C  C12  1  0.22440300  0.77573400  0.97324200  1
  C  C13  1  0.72271700  0.28044200  0.47206000  1
  C  C14  1  0.27513700  0.72208000  0.52616900  1
  C  C15  1  0.77454000  0.22166600  0.02613500  1
  C  C16  1  0.32633100  0.37469200  0.87689900  1
  C  C17  1  0.17912500  0.12644000  0.62619700  1
  C  C18  1  0.72332400  0.97215600  0.77605000  1
  C  C19  1  0.22285500  0.47514900  0.27716100  1
