# generated using pymatgen
data_CuNiC8
_symmetry_space_group_name_H-M   'P 1'
_cell_length_a   8.46160165
_cell_length_b   8.48256523
_cell_length_c   8.44060861
_cell_angle_alpha   90.00000000
_cell_angle_beta   90.00000000
_cell_angle_gamma   90.00000000
_symmetry_Int_Tables_number   1
_chemical_formula_structural   CuNiC8
_chemical_formula_sum   'Cu4 Ni4 C32'
_cell_volume   605.83386591
_cell_formula_units_Z   4
loop_
 _symmetry_equiv_pos_site_id
 _symmetry_equiv_pos_as_xyz
  1  'x, y, z'
loop_
 _atom_site_type_symbol
 _atom_site_label
 _atom_site_symmetry_multiplicity
 _atom_site_fract_x
 _atom_site_fract_y
 _atom_site_fract_z
 _atom_site_occupancy
  C  C0  1  0.00000000  0.00000000  -0.00000000  1
  C  C1  1  0.50000000  0.50000000  0.50000000  1
  C  C2  1  0.50000000  0.00000000  0.50000000  1
  C  C3  1  0.00000000  0.50000000  0.00000000  1
  Ni  Ni4  1  0.00000000  0.50000000  0.50000000  1
  Ni  Ni5  1  0.50000000  0.50000000  0.00000000  1
  Ni  Ni6  1  0.50000000  0.00000000  0.00000000  1
  Ni  Ni7  1  0.00000000  0.00000000  0.50000000  1
  Cu  Cu8  1  0.25000000  0.25000000  0.25000000  1
  Cu  Cu9  1  0.75000000  0.75000000  0.25000000  1
  Cu  Cu10  1  0.75000000  0.25000000  0.75000000  1
  Cu  Cu11  1  0.25000000  0.75000000  0.75000000  1
  C  C12  1  0.75000000  0.75000000  0.75000000  1
  C  C13  1  0.25000000  0.25000000  0.75000000  1
  C  C14  1  0.25000000  0.75000000  0.25000000  1
  C  C15  1  0.75000000  0.25000000  0.25000000  1
  C  C16  1  0.97591854  0.23497172  0.25845286  1
  C  C17  1  0.02408146  0.76502828  0.25845286  1
  C  C18  1  0.02408146  0.23497172  0.74154714  1
  C  C19  1  0.97591854  0.76502828  0.74154714  1
  C  C20  1  0.26458668  0.97565856  0.23518977  1
  C  C21  1  0.26458668  0.02434144  0.76481023  1
  C  C22  1  0.73541332  0.02434144  0.23518977  1
  C  C23  1  0.73541332  0.97565856  0.76481023  1
  C  C24  1  0.23005779  0.26232813  0.97590487  1
  C  C25  1  0.76994221  0.26232813  0.02409513  1
  C  C26  1  0.23005779  0.73767187  0.02409513  1
  C  C27  1  0.76994221  0.73767187  0.97590487  1
  C  C28  1  0.52408146  0.26502828  0.24154714  1
  C  C29  1  0.47591854  0.73497172  0.24154714  1
  C  C30  1  0.47591854  0.26502828  0.75845286  1
  C  C31  1  0.52408146  0.73497172  0.75845286  1
  C  C32  1  0.23541332  0.52434144  0.26481023  1
  C  C33  1  0.23541332  0.47565856  0.73518977  1
  C  C34  1  0.76458668  0.47565856  0.26481023  1
  C  C35  1  0.76458668  0.52434144  0.73518977  1
  C  C36  1  0.26994221  0.23767187  0.52409513  1
  C  C37  1  0.73005779  0.23767187  0.47590487  1
  C  C38  1  0.26994221  0.76232813  0.47590487  1
  C  C39  1  0.73005779  0.76232813  0.52409513  1
