# generated using pymatgen
data_Cu3Ni2C11
_symmetry_space_group_name_H-M   'P 1'
_cell_length_a   11.35350914
_cell_length_b   11.35350914
_cell_length_c   11.35350914
_cell_angle_alpha   114.62457895
_cell_angle_beta   114.62457895
_cell_angle_gamma   99.59358771
_symmetry_Int_Tables_number   1
_chemical_formula_structural   Cu3Ni2C11
_chemical_formula_sum   'Cu12 Ni8 C44'
_cell_volume   1102.12432355
_cell_formula_units_Z   4
loop_
 _symmetry_equiv_pos_site_id
 _symmetry_equiv_pos_as_xyz
  1  'x, y, z'
loop_
 _atom_site_type_symbol
 _atom_site_label
 _atom_site_symmetry_multiplicity
 _atom_site_fract_x
 _atom_site_fract_y
 _atom_site_fract_z
 _atom_site_occupancy
  C  C0  1  0.92237000  0.42237000  0.84474000  1
  C  C1  1  0.17237000  0.82763000  0.00000000  1
  C  C2  1  0.82763000  0.17237000  0.00000000  1
  C  C3  1  0.57763000  0.07763000  0.15526000  1
  C  C4  1  0.82763000  0.82763000  0.65526000  1
  C  C5  1  0.57763000  0.42237000  0.50000000  1
  C  C6  1  0.92237000  0.07763000  0.50000000  1
  C  C7  1  0.17237000  0.17237000  0.34474000  1
  C  C8  1  0.54077800  0.30101400  0.76023600  1
  C  C9  1  0.54077800  0.78054200  0.23976400  1
  C  C10  1  0.69898600  0.45922200  0.23976400  1
  C  C11  1  0.53054200  0.79077800  0.73976400  1
  C  C12  1  0.05101400  0.79077800  0.26023600  1
  C  C13  1  0.20922200  0.46945800  0.26023600  1
  C  C14  1  0.20922200  0.94898600  0.73976400  1
  C  C15  1  0.21945800  0.45922200  0.76023600  1
  Ni  Ni16  1  0.78110100  0.90490600  0.12380500  1
  Ni  Ni17  1  0.78110100  0.65729600  0.87619500  1
  Ni  Ni18  1  0.09509400  0.21889900  0.87619500  1
  Ni  Ni19  1  0.40729600  0.03110100  0.37619500  1
  Ni  Ni20  1  0.65490600  0.03110100  0.62380500  1
  Ni  Ni21  1  0.96889900  0.59270400  0.62380500  1
  Ni  Ni22  1  0.96889900  0.34509400  0.37619500  1
  Ni  Ni23  1  0.34270400  0.21889900  0.12380500  1
  Cu  Cu24  1  0.00000000  0.00000000  0.00000000  1
  Cu  Cu25  1  0.75000000  0.25000000  0.50000000  1
  Cu  Cu26  1  0.25000000  0.75000000  0.50000000  1
  Cu  Cu27  1  0.50000000  0.50000000  0.00000000  1
  Cu  Cu28  1  0.37500000  0.47865400  0.60365400  1
  Cu  Cu29  1  0.22865400  0.12500000  0.60365400  1
  Cu  Cu30  1  0.52134600  0.62500000  0.39634600  1
  Cu  Cu31  1  0.87500000  0.77134600  0.39634600  1
  Cu  Cu32  1  0.37500000  0.77134600  0.89634600  1
  Cu  Cu33  1  0.52134600  0.12500000  0.89634600  1
  Cu  Cu34  1  0.22865400  0.62500000  0.10365400  1
  Cu  Cu35  1  0.87500000  0.47865400  0.10365400  1
  C  C36  1  0.26460900  0.26460900  0.00000000  1
  C  C37  1  0.01460900  0.51460900  0.50000000  1
  C  C38  1  0.48539100  0.98539100  0.50000000  1
  C  C39  1  0.73539100  0.73539100  0.00000000  1
  C  C40  1  0.70536300  0.48032600  0.77496300  1
  C  C41  1  0.70536300  0.93040000  0.22503700  1
  C  C42  1  0.51967400  0.29463700  0.22503700  1
  C  C43  1  0.68040000  0.95536300  0.72503700  1
  C  C44  1  0.23032600  0.95536300  0.27496300  1
  C  C45  1  0.04463700  0.31960000  0.27496300  1
  C  C46  1  0.04463700  0.76967400  0.72503700  1
  C  C47  1  0.06960000  0.29463700  0.77496300  1
  C  C48  1  0.79892100  0.55713800  0.52292900  1
  C  C49  1  0.03420800  0.27599200  0.47707100  1
  C  C50  1  0.44286200  0.20107900  0.47707100  1
  C  C51  1  0.02599200  0.04892100  0.74178400  1
  C  C52  1  0.30713800  0.28420800  0.25821600  1
  C  C53  1  0.95107900  0.97400800  0.25821600  1
  C  C54  1  0.71579200  0.69286200  0.74178400  1
  C  C55  1  0.72400800  0.96579200  0.52292900  1
  C  C56  1  0.95107900  0.69286200  0.97707100  1
  C  C57  1  0.71579200  0.97400800  0.02292900  1
  C  C58  1  0.30713800  0.04892100  0.02292900  1
  C  C59  1  0.72400800  0.20107900  0.75821600  1
  C  C60  1  0.44286200  0.96579200  0.24178400  1
  C  C61  1  0.79892100  0.27599200  0.24178400  1
  C  C62  1  0.03420800  0.55713800  0.75821600  1
  C  C63  1  0.02599200  0.28420800  0.97707100  1
