# generated using pymatgen
data_Cu3(NiC5)2
_symmetry_space_group_name_H-M   'P 1'
_cell_length_a   8.95732735
_cell_length_b   8.95732735
_cell_length_c   8.16854710
_cell_angle_alpha   69.36503892
_cell_angle_beta   69.36503892
_cell_angle_gamma   50.88826819
_symmetry_Int_Tables_number   1
_chemical_formula_structural   Cu3(NiC5)2
_chemical_formula_sum   'Cu6 Ni4 C20'
_cell_volume   468.20506767
_cell_formula_units_Z   2
loop_
 _symmetry_equiv_pos_site_id
 _symmetry_equiv_pos_as_xyz
  1  'x, y, z'
loop_
 _atom_site_type_symbol
 _atom_site_label
 _atom_site_symmetry_multiplicity
 _atom_site_fract_x
 _atom_site_fract_y
 _atom_site_fract_z
 _atom_site_occupancy
  Ni  Ni0  1  0.83474900  0.52269700  0.85003100  1
  Ni  Ni1  1  0.47730300  0.16525100  0.64996900  1
  Ni  Ni2  1  0.16525100  0.47730300  0.14996900  1
  Ni  Ni3  1  0.52269700  0.83474900  0.35003100  1
  Cu  Cu4  1  0.94731500  0.79970400  0.47245600  1
  Cu  Cu5  1  0.20029600  0.05268500  0.02754400  1
  Cu  Cu6  1  0.05268500  0.20029600  0.52754400  1
  Cu  Cu7  1  0.79970400  0.94731500  0.97245600  1
  Cu  Cu8  1  0.61128600  0.38871400  0.25000000  1
  Cu  Cu9  1  0.38871400  0.61128600  0.75000000  1
  C  C10  1  0.75191300  0.28892000  0.06654100  1
  C  C11  1  0.71108000  0.24808700  0.43345900  1
  C  C12  1  0.24808700  0.71108000  0.93345900  1
  C  C13  1  0.28892000  0.75191300  0.56654100  1
  C  C14  1  0.39761300  0.41529100  0.30649700  1
  C  C15  1  0.58470900  0.60238700  0.19350300  1
  C  C16  1  0.60238700  0.58470900  0.69350300  1
  C  C17  1  0.41529100  0.39761300  0.80649700  1
  C  C18  1  0.04016400  0.57697900  0.61455800  1
  C  C19  1  0.42302100  0.95983600  0.88544200  1
  C  C20  1  0.95983600  0.42302100  0.38544200  1
  C  C21  1  0.57697900  0.04016400  0.11455800  1
  C  C22  1  0.99906000  0.74783700  0.26635700  1
  C  C23  1  0.25216300  0.00094000  0.23364300  1
  C  C24  1  0.00094000  0.25216300  0.73364300  1
  C  C25  1  0.74783700  0.99906000  0.76635700  1
  C  C26  1  0.69508100  0.89158700  0.52256300  1
  C  C27  1  0.10841300  0.30491900  0.97743700  1
  C  C28  1  0.30491900  0.10841300  0.47743700  1
  C  C29  1  0.89158700  0.69508100  0.02256300  1
