# generated using pymatgen
data_Cu2NiC4
_symmetry_space_group_name_H-M   'P 1'
_cell_length_a   5.72887900
_cell_length_b   7.92196900
_cell_length_c   10.71530600
_cell_angle_alpha   90.00000000
_cell_angle_beta   90.00000000
_cell_angle_gamma   90.00000000
_symmetry_Int_Tables_number   1
_chemical_formula_structural   Cu2NiC4
_chemical_formula_sum   'Cu16 Ni8 C32'
_cell_volume   486.30346725
_cell_formula_units_Z   8
loop_
 _symmetry_equiv_pos_site_id
 _symmetry_equiv_pos_as_xyz
  1  'x, y, z'
loop_
 _atom_site_type_symbol
 _atom_site_label
 _atom_site_symmetry_multiplicity
 _atom_site_fract_x
 _atom_site_fract_y
 _atom_site_fract_z
 _atom_site_occupancy
  C  C0  1  0.90496100  0.68636600  0.34673500  1
  C  C1  1  0.59503900  0.31363400  0.84673500  1
  C  C2  1  0.40496100  0.81363400  0.65326500  1
  C  C3  1  0.09503900  0.18636600  0.15326500  1
  C  C4  1  0.33814800  0.69079000  0.18351100  1
  C  C5  1  0.16185200  0.30921000  0.68351100  1
  C  C6  1  0.83814800  0.80921000  0.81648900  1
  C  C7  1  0.66185200  0.19079000  0.31648900  1
  C  C8  1  0.52515700  0.59933100  0.08764800  1
  C  C9  1  0.97484300  0.40066900  0.58764800  1
  C  C10  1  0.02515700  0.90066900  0.91235200  1
  C  C11  1  0.47484300  0.09933100  0.41235200  1
  C  C12  1  0.64006000  0.86958100  0.17790300  1
  C  C13  1  0.85994000  0.13041900  0.67790300  1
  C  C14  1  0.14006000  0.63041900  0.82209700  1
  C  C15  1  0.35994000  0.36958100  0.32209700  1
  C  C16  1  0.43575400  0.95453000  0.07536300  1
  C  C17  1  0.06424600  0.04547000  0.57536300  1
  C  C18  1  0.93575400  0.54547000  0.92463700  1
  C  C19  1  0.56424600  0.45453000  0.42463700  1
  C  C20  1  0.67305700  0.84073500  0.02141200  1
  C  C21  1  0.82694300  0.15926500  0.52141200  1
  C  C22  1  0.17305700  0.65926500  0.97858800  1
  C  C23  1  0.32694300  0.34073500  0.47858800  1
  C  C24  1  0.23184700  0.76987700  0.43508700  1
  C  C25  1  0.26815300  0.23012300  0.93508700  1
  C  C26  1  0.73184700  0.73012300  0.56491300  1
  C  C27  1  0.76815300  0.26987700  0.06491300  1
  C  C28  1  0.99841600  0.48454400  0.21082800  1
  C  C29  1  0.50158400  0.51545600  0.71082800  1
  C  C30  1  0.49841600  0.01545600  0.78917200  1
  C  C31  1  0.00158400  0.98454400  0.28917200  1
  Ni  Ni32  1  0.41003900  0.69821400  0.09543600  1
  Ni  Ni33  1  0.08996100  0.30178600  0.59543600  1
  Ni  Ni34  1  0.91003900  0.80178600  0.90456400  1
  Ni  Ni35  1  0.58996100  0.19821400  0.40456400  1
  Ni  Ni36  1  0.54793500  0.85211400  0.09374300  1
  Ni  Ni37  1  0.95206500  0.14788600  0.59374300  1
  Ni  Ni38  1  0.04793500  0.64788600  0.90625700  1
  Ni  Ni39  1  0.45206500  0.35211400  0.40625700  1
  Cu  Cu40  1  0.18156200  0.68855400  0.36411300  1
  Cu  Cu41  1  0.31843800  0.31144600  0.86411300  1
  Cu  Cu42  1  0.68156200  0.81144600  0.63588700  1
  Cu  Cu43  1  0.81843800  0.18855400  0.13588700  1
  Cu  Cu44  1  0.81566000  0.86469900  0.31768300  1
  Cu  Cu45  1  0.68434000  0.13530100  0.81768300  1
  Cu  Cu46  1  0.31566000  0.63530100  0.68231700  1
  Cu  Cu47  1  0.18434000  0.36469900  0.18231700  1
  Cu  Cu48  1  0.86867400  0.57573100  0.22606100  1
  Cu  Cu49  1  0.63132600  0.42426900  0.72606100  1
  Cu  Cu50  1  0.36867400  0.92426900  0.77393900  1
  Cu  Cu51  1  0.13132600  0.07573100  0.27393900  1
  Cu  Cu52  1  0.78623000  0.60444700  0.45955800  1
  Cu  Cu53  1  0.71377000  0.39555300  0.95955800  1
  Cu  Cu54  1  0.28623000  0.89555300  0.54044200  1
  Cu  Cu55  1  0.21377000  0.10444700  0.04044200  1
