# generated using pymatgen
data_Cu4Ni5C21
_symmetry_space_group_name_H-M   'P 1'
_cell_length_a   8.60234078
_cell_length_b   8.60234078
_cell_length_c   8.60234078
_cell_angle_alpha   95.65690701
_cell_angle_beta   95.65690701
_cell_angle_gamma   143.40383185
_symmetry_Int_Tables_number   1
_chemical_formula_structural   Cu4Ni5C21
_chemical_formula_sum   'Cu4 Ni5 C21'
_cell_volume   360.31852671
_cell_formula_units_Z   1
loop_
 _symmetry_equiv_pos_site_id
 _symmetry_equiv_pos_as_xyz
  1  'x, y, z'
loop_
 _atom_site_type_symbol
 _atom_site_label
 _atom_site_symmetry_multiplicity
 _atom_site_fract_x
 _atom_site_fract_y
 _atom_site_fract_z
 _atom_site_occupancy
  Ni  Ni0  1  0.58353000  0.09917900  0.69424200  1
  Ni  Ni1  1  0.40493800  0.88928800  0.30575800  1
  Ni  Ni2  1  0.11071200  0.41647000  0.51565000  1
  Ni  Ni3  1  0.90082100  0.59506200  0.48435000  1
  Ni  Ni4  1  0.00000000  0.00000000  0.00000000  1
  Cu  Cu5  1  0.59186100  0.65856300  0.29697400  1
  Cu  Cu6  1  0.36158900  0.29488700  0.70302600  1
  Cu  Cu7  1  0.70511300  0.40813900  0.06670200  1
  Cu  Cu8  1  0.34143700  0.63841100  0.93329800  1
  C  C9  1  0.76459900  0.90697100  0.64968000  1
  C  C10  1  0.25729100  0.11491900  0.35032000  1
  C  C11  1  0.88508100  0.23540100  0.14237200  1
  C  C12  1  0.09302900  0.74270900  0.85762800  1
  C  C13  1  0.59953400  0.87729400  0.50130600  1
  C  C14  1  0.37598800  0.09822800  0.49869400  1
  C  C15  1  0.90177200  0.40046600  0.27776000  1
  C  C16  1  0.12270600  0.62401200  0.72224000  1
  C  C17  1  0.57628200  0.71388500  0.76479200  1
  C  C18  1  0.94909300  0.81149000  0.23520800  1
  C  C19  1  0.18851000  0.42371800  0.13760300  1
  C  C20  1  0.28611500  0.05090700  0.86239700  1
  C  C21  1  0.05555200  0.22609000  0.76311300  1
  C  C22  1  0.46297700  0.29243900  0.23688700  1
  C  C23  1  0.70756100  0.94444800  0.17053800  1
  C  C24  1  0.77391000  0.53702300  0.82946200  1
  C  C25  1  0.86491500  0.83078900  0.55861700  1
  C  C26  1  0.27217200  0.30629900  0.44138300  1
  C  C27  1  0.69370100  0.13508500  0.96587300  1
  C  C28  1  0.16921100  0.72782800  0.03412700  1
  C  C29  1  0.50000000  0.50000000  0.00000000  1
