# generated using pymatgen
data_Cu(Ni3C2)2
_symmetry_space_group_name_H-M   'P 1'
_cell_length_a   7.38236541
_cell_length_b   7.38236541
_cell_length_c   7.38236541
_cell_angle_alpha   121.18234068
_cell_angle_beta   117.93161345
_cell_angle_gamma   90.79181171
_symmetry_Int_Tables_number   1
_chemical_formula_structural   Cu(Ni3C2)2
_chemical_formula_sum   'Cu2 Ni12 C8'
_cell_volume   286.08518122
_cell_formula_units_Z   2
loop_
 _symmetry_equiv_pos_site_id
 _symmetry_equiv_pos_as_xyz
  1  'x, y, z'
loop_
 _atom_site_type_symbol
 _atom_site_label
 _atom_site_symmetry_multiplicity
 _atom_site_fract_x
 _atom_site_fract_y
 _atom_site_fract_z
 _atom_site_occupancy
  C  C0  1  0.50000000  0.00000000  0.00000000  1
  C  C1  1  0.50000000  0.50000000  0.50000000  1
  C  C2  1  0.50000000  0.00000000  0.50000000  1
  C  C3  1  0.00000000  0.00000000  0.00000000  1
  C  C4  1  0.00000000  0.50000000  0.00000000  1
  C  C5  1  0.00000000  0.00000000  0.50000000  1
  C  C6  1  0.00000000  0.50000000  0.50000000  1
  C  C7  1  0.50000000  0.50000000  0.00000000  1
  Ni  Ni8  1  0.92161900  0.17161900  0.75000000  1
  Ni  Ni9  1  0.31596500  0.56596500  0.75000000  1
  Ni  Ni10  1  0.93685300  0.58367500  0.76574300  1
  Ni  Ni11  1  0.31793200  0.17111000  0.73425700  1
  Ni  Ni12  1  0.93685300  0.17111000  0.35317800  1
  Ni  Ni13  1  0.31793200  0.58367500  0.14682200  1
  Ni  Ni14  1  0.07838100  0.82838100  0.25000000  1
  Ni  Ni15  1  0.68403500  0.43403500  0.25000000  1
  Ni  Ni16  1  0.06314700  0.41632500  0.23425700  1
  Ni  Ni17  1  0.68206800  0.82889000  0.26574300  1
  Ni  Ni18  1  0.06314700  0.82889000  0.64682200  1
  Ni  Ni19  1  0.68206800  0.41632500  0.85317800  1
  Cu  Cu20  1  0.62034500  0.87034500  0.75000000  1
  Cu  Cu21  1  0.37965500  0.12965500  0.25000000  1
