# generated using pymatgen
data_Cu7NiC30
_symmetry_space_group_name_H-M   'P 1'
_cell_length_a   7.71894081
_cell_length_b   7.71894081
_cell_length_c   7.66542258
_cell_angle_alpha   89.89351248
_cell_angle_beta   89.89351248
_cell_angle_gamma   90.71054868
_symmetry_Int_Tables_number   1
_chemical_formula_structural   Cu7NiC30
_chemical_formula_sum   'Cu7 Ni1 C30'
_cell_volume   456.68485222
_cell_formula_units_Z   1
loop_
 _symmetry_equiv_pos_site_id
 _symmetry_equiv_pos_as_xyz
  1  'x, y, z'
loop_
 _atom_site_type_symbol
 _atom_site_label
 _atom_site_symmetry_multiplicity
 _atom_site_fract_x
 _atom_site_fract_y
 _atom_site_fract_z
 _atom_site_occupancy
  Ni  Ni0  1  0.25122200  0.25122200  0.23029300  1
  Cu  Cu1  1  0.25234500  0.25234500  0.74021500  1
  Cu  Cu2  1  0.25084400  0.75011200  0.24133900  1
  Cu  Cu3  1  0.24975700  0.74792900  0.73243400  1
  Cu  Cu4  1  0.75011200  0.25084400  0.24133900  1
  Cu  Cu5  1  0.74792900  0.24975700  0.73243400  1
  Cu  Cu6  1  0.74886200  0.74886200  0.25067600  1
  Cu  Cu7  1  0.75044400  0.75044400  0.70325700  1
  C  C8  1  0.00053900  0.00053900  0.50670300  1
  C  C9  1  0.99430800  0.50567900  0.00389400  1
  C  C10  1  0.99904700  0.50102200  0.49572600  1
  C  C11  1  0.50567900  0.99430800  0.00389400  1
  C  C12  1  0.50102200  0.99904700  0.49572600  1
  C  C13  1  0.50685400  0.50685400  0.98617100  1
  C  C14  1  0.50128100  0.50128100  0.50802800  1
  C  C15  1  0.99183900  0.99183900  0.98806700  1
  C  C16  1  0.95898000  0.95898000  0.75757400  1
  C  C17  1  0.03046800  0.47051300  0.25200000  1
  C  C18  1  0.96541300  0.53392100  0.75171600  1
  C  C19  1  0.47051300  0.03046800  0.25200000  1
  C  C20  1  0.53392100  0.96541300  0.75171600  1
  C  C21  1  0.53914500  0.53914500  0.75002700  1
  C  C22  1  0.23916800  0.99572800  0.99289900  1
  C  C23  1  0.24931000  0.99944100  0.53225400  1
  C  C24  1  0.25453300  0.50445400  0.98297200  1
  C  C25  1  0.25223300  0.50106200  0.52698600  1
  C  C26  1  0.76064300  0.00072600  0.05893100  1
  C  C27  1  0.75522500  0.00324700  0.45655400  1
  C  C28  1  0.74296600  0.49841600  0.05687200  1
  C  C29  1  0.74499900  0.49732600  0.45491600  1
  C  C30  1  0.99572800  0.23916800  0.99289900  1
  C  C31  1  0.99944100  0.24931000  0.53225400  1
  C  C32  1  0.00072600  0.76064300  0.05893100  1
  C  C33  1  0.00324700  0.75522500  0.45655400  1
  C  C34  1  0.50445400  0.25453300  0.98297200  1
  C  C35  1  0.50106200  0.25223300  0.52698600  1
  C  C36  1  0.49841600  0.74296600  0.05687200  1
  C  C37  1  0.49732600  0.74499900  0.45491600  1
