# generated using pymatgen
data_Cu5Ni2C
_symmetry_space_group_name_H-M   'P 1'
_cell_length_a   10.63720587
_cell_length_b   10.63720587
_cell_length_c   10.63720587
_cell_angle_alpha   128.76149779
_cell_angle_beta   128.76149779
_cell_angle_gamma   75.39463771
_symmetry_Int_Tables_number   1
_chemical_formula_structural   Cu5Ni2C
_chemical_formula_sum   'Cu10 Ni4 C2'
_cell_volume   712.20715236
_cell_formula_units_Z   2
loop_
 _symmetry_equiv_pos_site_id
 _symmetry_equiv_pos_as_xyz
  1  'x, y, z'
loop_
 _atom_site_type_symbol
 _atom_site_label
 _atom_site_symmetry_multiplicity
 _atom_site_fract_x
 _atom_site_fract_y
 _atom_site_fract_z
 _atom_site_occupancy
  C  C0  1  0.25000000  0.25000000  0.00000000  1
  C  C1  1  0.75000000  0.75000000  0.00000000  1
  Ni  Ni2  1  0.83336000  0.33336000  0.16672000  1
  Ni  Ni3  1  0.66664000  0.83336000  0.50000000  1
  Ni  Ni4  1  0.33336000  0.16664000  0.50000000  1
  Ni  Ni5  1  0.16664000  0.66664000  0.83328000  1
  Cu  Cu6  1  0.00000000  0.00000000  0.00000000  1
  Cu  Cu7  1  0.50000000  0.50000000  0.00000000  1
  Cu  Cu8  1  0.97292500  0.78114800  0.50000000  1
  Cu  Cu9  1  0.78114800  0.28114800  0.80822300  1
  Cu  Cu10  1  0.47292500  0.97292500  0.19177700  1
  Cu  Cu11  1  0.28114800  0.47292500  0.50000000  1
  Cu  Cu12  1  0.71885200  0.52707500  0.50000000  1
  Cu  Cu13  1  0.52707500  0.02707500  0.80822300  1
  Cu  Cu14  1  0.21885200  0.71885200  0.19177700  1
  Cu  Cu15  1  0.02707500  0.21885200  0.50000000  1
