# generated using pymatgen
data_Cu2NiC4
_symmetry_space_group_name_H-M   'P 1'
_cell_length_a   7.23275007
_cell_length_b   7.23275007
_cell_length_c   7.23274989
_cell_angle_alpha   53.29041246
_cell_angle_beta   53.29041246
_cell_angle_gamma   53.29040951
_symmetry_Int_Tables_number   1
_chemical_formula_structural   Cu2NiC4
_chemical_formula_sum   'Cu4 Ni2 C8'
_cell_volume   225.50954122
_cell_formula_units_Z   2
loop_
 _symmetry_equiv_pos_site_id
 _symmetry_equiv_pos_as_xyz
  1  'x, y, z'
loop_
 _atom_site_type_symbol
 _atom_site_label
 _atom_site_symmetry_multiplicity
 _atom_site_fract_x
 _atom_site_fract_y
 _atom_site_fract_z
 _atom_site_occupancy
  Ni  Ni0  1  0.08753400  0.08753400  0.08753400  1
  Ni  Ni1  1  0.91246600  0.91246600  0.91246600  1
  Cu  Cu2  1  0.50000000  0.50000000  0.00000000  1
  Cu  Cu3  1  0.50000000  0.50000000  0.50000000  1
  Cu  Cu4  1  0.50000000  0.00000000  0.50000000  1
  Cu  Cu5  1  0.00000000  0.50000000  0.50000000  1
  C  C6  1  0.72382200  0.72382200  0.72382200  1
  C  C7  1  0.76227300  0.28583800  0.76227300  1
  C  C8  1  0.28583800  0.76227300  0.76227300  1
  C  C9  1  0.23772700  0.23772700  0.71416200  1
  C  C10  1  0.71416200  0.23772700  0.23772700  1
  C  C11  1  0.23772700  0.71416200  0.23772700  1
  C  C12  1  0.76227300  0.76227300  0.28583800  1
  C  C13  1  0.27617800  0.27617800  0.27617800  1
