# generated using pymatgen
data_Cu3Ni9C2
_symmetry_space_group_name_H-M   'P 1'
_cell_length_a   7.36796493
_cell_length_b   7.36796493
_cell_length_c   9.40872800
_cell_angle_alpha   90.00000000
_cell_angle_beta   90.00000000
_cell_angle_gamma   119.84320304
_symmetry_Int_Tables_number   1
_chemical_formula_structural   Cu3Ni9C2
_chemical_formula_sum   'Cu6 Ni18 C4'
_cell_volume   443.03767661
_cell_formula_units_Z   2
loop_
 _symmetry_equiv_pos_site_id
 _symmetry_equiv_pos_as_xyz
  1  'x, y, z'
loop_
 _atom_site_type_symbol
 _atom_site_label
 _atom_site_symmetry_multiplicity
 _atom_site_fract_x
 _atom_site_fract_y
 _atom_site_fract_z
 _atom_site_occupancy
  C  C0  1  0.33174800  0.00328400  0.25000000  1
  C  C1  1  0.99671600  0.66825200  0.75000000  1
  C  C2  1  0.66825200  0.99671600  0.75000000  1
  C  C3  1  0.00328400  0.33174800  0.25000000  1
  Ni  Ni4  1  0.33398100  0.99999200  0.92779200  1
  Ni  Ni5  1  0.00000800  0.66601900  0.07220800  1
  Ni  Ni6  1  0.33398100  0.99999200  0.57220800  1
  Ni  Ni7  1  0.00000800  0.66601900  0.42779200  1
  Ni  Ni8  1  0.66601900  0.00000800  0.07220800  1
  Ni  Ni9  1  0.99999200  0.33398100  0.92779200  1
  Ni  Ni10  1  0.66601900  0.00000800  0.42779200  1
  Ni  Ni11  1  0.99999200  0.33398100  0.57220800  1
  Ni  Ni12  1  0.66559800  0.66559800  0.94255700  1
  Ni  Ni13  1  0.33440200  0.33440200  0.05744300  1
  Ni  Ni14  1  0.66559800  0.66559800  0.55744300  1
  Ni  Ni15  1  0.33440200  0.33440200  0.44255700  1
  Ni  Ni16  1  0.12098600  0.12098600  0.75000000  1
  Ni  Ni17  1  0.87901400  0.87901400  0.25000000  1
  Ni  Ni18  1  0.44970000  0.66432800  0.25000000  1
  Ni  Ni19  1  0.33567200  0.55030000  0.75000000  1
  Ni  Ni20  1  0.55030000  0.33567200  0.75000000  1
  Ni  Ni21  1  0.66432800  0.44970000  0.25000000  1
  Cu  Cu22  1  0.00000000  0.00000000  0.00000000  1
  Cu  Cu23  1  0.00000000  0.00000000  0.50000000  1
  Cu  Cu24  1  0.32860200  0.67139800  0.00000000  1
  Cu  Cu25  1  0.32860200  0.67139800  0.50000000  1
  Cu  Cu26  1  0.67139800  0.32860200  0.00000000  1
  Cu  Cu27  1  0.67139800  0.32860200  0.50000000  1
