# generated using pymatgen
data_CuNiC5
_symmetry_space_group_name_H-M   'P 1'
_cell_length_a   10.36432342
_cell_length_b   10.36432342
_cell_length_c   7.91686191
_cell_angle_alpha   78.04467186
_cell_angle_beta   78.04467186
_cell_angle_gamma   43.10593143
_symmetry_Int_Tables_number   1
_chemical_formula_structural   CuNiC5
_chemical_formula_sum   'Cu6 Ni6 C30'
_cell_volume   566.53900583
_cell_formula_units_Z   6
loop_
 _symmetry_equiv_pos_site_id
 _symmetry_equiv_pos_as_xyz
  1  'x, y, z'
loop_
 _atom_site_type_symbol
 _atom_site_label
 _atom_site_symmetry_multiplicity
 _atom_site_fract_x
 _atom_site_fract_y
 _atom_site_fract_z
 _atom_site_occupancy
  C  C0  1  0.65750200  0.34249800  0.25000000  1
  C  C1  1  0.34249800  0.65750200  0.75000000  1
  Ni  Ni2  1  0.87025000  0.80493500  0.81070400  1
  Ni  Ni3  1  0.19506500  0.12975000  0.68929600  1
  Ni  Ni4  1  0.12975000  0.19506500  0.18929600  1
  Ni  Ni5  1  0.80493500  0.87025000  0.31070400  1
  Ni  Ni6  1  0.50000000  0.00000000  0.00000000  1
  Ni  Ni7  1  0.00000000  0.50000000  0.50000000  1
  Cu  Cu8  1  0.87552200  0.12447800  0.75000000  1
  Cu  Cu9  1  0.12447800  0.87552200  0.25000000  1
  Cu  Cu10  1  0.84663000  0.50134000  0.90990500  1
  Cu  Cu11  1  0.49866000  0.15337000  0.59009500  1
  Cu  Cu12  1  0.15337000  0.49866000  0.09009500  1
  Cu  Cu13  1  0.50134000  0.84663000  0.40990500  1
  C  C14  1  0.91560300  0.96458300  0.70474300  1
  C  C15  1  0.03541700  0.08439700  0.79525700  1
  C  C16  1  0.08439700  0.03541700  0.29525700  1
  C  C17  1  0.96458300  0.91560300  0.20474300  1
  C  C18  1  0.79644500  0.67602400  0.93437200  1
  C  C19  1  0.32397600  0.20355500  0.56562800  1
  C  C20  1  0.20355500  0.32397600  0.06562800  1
  C  C21  1  0.67602400  0.79644500  0.43437200  1
  C  C22  1  0.89369000  0.36970000  0.07249400  1
  C  C23  1  0.63030000  0.10631000  0.42750600  1
  C  C24  1  0.10631000  0.63030000  0.92750600  1
  C  C25  1  0.36970000  0.89369000  0.57249400  1
  C  C26  1  0.98464400  0.40085600  0.74963700  1
  C  C27  1  0.59914400  0.01535600  0.75036200  1
  C  C28  1  0.01535600  0.59914400  0.25036300  1
  C  C29  1  0.40085600  0.98464400  0.24963700  1
  C  C30  1  0.65236000  0.58107900  0.86828400  1
  C  C31  1  0.41892100  0.34764000  0.63171600  1
  C  C32  1  0.34764000  0.41892100  0.13171600  1
  C  C33  1  0.58107900  0.65236000  0.36828400  1
  C  C34  1  0.98766200  0.67080600  0.57198100  1
  C  C35  1  0.32919400  0.01233800  0.92801900  1
  C  C36  1  0.01233800  0.32919400  0.42801900  1
  C  C37  1  0.67080600  0.98766200  0.07198100  1
  C  C38  1  0.76396600  0.29085300  0.60203900  1
  C  C39  1  0.70914700  0.23603400  0.89796100  1
  C  C40  1  0.23603400  0.70914700  0.39796100  1
  C  C41  1  0.29085300  0.76396600  0.10203900  1
