# generated using pymatgen
data_Cu(Ni4C3)2
_symmetry_space_group_name_H-M   'P 1'
_cell_length_a   5.17789800
_cell_length_b   11.16812700
_cell_length_c   14.45781900
_cell_angle_alpha   90.00000000
_cell_angle_beta   90.00000000
_cell_angle_gamma   90.00000000
_symmetry_Int_Tables_number   1
_chemical_formula_structural   Cu(Ni4C3)2
_chemical_formula_sum   'Cu4 Ni32 C24'
_cell_volume   836.05840712
_cell_formula_units_Z   4
loop_
 _symmetry_equiv_pos_site_id
 _symmetry_equiv_pos_as_xyz
  1  'x, y, z'
loop_
 _atom_site_type_symbol
 _atom_site_label
 _atom_site_symmetry_multiplicity
 _atom_site_fract_x
 _atom_site_fract_y
 _atom_site_fract_z
 _atom_site_occupancy
  C  C0  1  0.25489000  0.34497500  0.75422100  1
  C  C1  1  0.24511000  0.84497500  0.74577900  1
  C  C2  1  0.75489000  0.65502500  0.74577900  1
  C  C3  1  0.74511000  0.15502500  0.75422100  1
  C  C4  1  0.74511000  0.65502500  0.24577900  1
  C  C5  1  0.75489000  0.15502500  0.25422100  1
  C  C6  1  0.24511000  0.34497500  0.25422100  1
  C  C7  1  0.25489000  0.84497500  0.24577900  1
  C  C8  1  0.17854700  0.33674600  0.98981600  1
  C  C9  1  0.32145300  0.83674600  0.51018400  1
  C  C10  1  0.67854700  0.66325400  0.51018400  1
  C  C11  1  0.82145300  0.16325400  0.98981600  1
  C  C12  1  0.82145300  0.66325400  0.01018400  1
  C  C13  1  0.67854700  0.16325400  0.48981600  1
  C  C14  1  0.32145300  0.33674600  0.48981600  1
  C  C15  1  0.17854700  0.83674600  0.01018400  1
  C  C16  1  0.17060400  0.09053200  0.61311500  1
  C  C17  1  0.32939600  0.59053200  0.88688500  1
  C  C18  1  0.67060400  0.90946800  0.88688500  1
  C  C19  1  0.82939600  0.40946800  0.61311500  1
  C  C20  1  0.82939600  0.90946800  0.38688500  1
  C  C21  1  0.67060400  0.40946800  0.11311500  1
  C  C22  1  0.32939600  0.09053200  0.11311500  1
  C  C23  1  0.17060400  0.59053200  0.38688500  1
  Ni  Ni24  1  0.22589900  0.95430000  0.60354800  1
  Ni  Ni25  1  0.27410100  0.45430000  0.89645200  1
  Ni  Ni26  1  0.72589900  0.04570000  0.89645200  1
  Ni  Ni27  1  0.77410100  0.54570000  0.60354800  1
  Ni  Ni28  1  0.77410100  0.04570000  0.39645200  1
  Ni  Ni29  1  0.72589900  0.54570000  0.10354800  1
  Ni  Ni30  1  0.27410100  0.95430000  0.10354800  1
  Ni  Ni31  1  0.22589900  0.45430000  0.39645200  1
  Ni  Ni32  1  0.26422700  0.13700400  0.70561100  1
  Ni  Ni33  1  0.23577300  0.63700400  0.79438900  1
  Ni  Ni34  1  0.76422700  0.86299600  0.79438900  1
  Ni  Ni35  1  0.73577300  0.36299600  0.70561100  1
  Ni  Ni36  1  0.73577300  0.86299600  0.29438900  1
  Ni  Ni37  1  0.76422700  0.36299600  0.20561100  1
  Ni  Ni38  1  0.23577300  0.13700400  0.20561100  1
  Ni  Ni39  1  0.26422700  0.63700400  0.29438900  1
  Ni  Ni40  1  0.87510300  0.11316300  0.59956400  1
  Ni  Ni41  1  0.62489700  0.61316300  0.90043600  1
  Ni  Ni42  1  0.37510300  0.88683700  0.90043600  1
  Ni  Ni43  1  0.12489700  0.38683700  0.59956400  1
  Ni  Ni44  1  0.12489700  0.88683700  0.40043600  1
  Ni  Ni45  1  0.37510300  0.38683700  0.09956400  1
  Ni  Ni46  1  0.62489700  0.11316300  0.09956400  1
  Ni  Ni47  1  0.87510300  0.61316300  0.40043600  1
  Ni  Ni48  1  0.30554900  0.15592600  0.52774100  1
  Ni  Ni49  1  0.19445100  0.65592600  0.97225900  1
  Ni  Ni50  1  0.80554900  0.84407400  0.97225900  1
  Ni  Ni51  1  0.69445100  0.34407400  0.52774100  1
  Ni  Ni52  1  0.69445100  0.84407400  0.47225900  1
  Ni  Ni53  1  0.80554900  0.34407400  0.02774100  1
  Ni  Ni54  1  0.19445100  0.15592600  0.02774100  1
  Ni  Ni55  1  0.30554900  0.65592600  0.47225900  1
  Cu  Cu56  1  0.00000000  0.25000000  0.87809700  1
  Cu  Cu57  1  0.50000000  0.75000000  0.62190300  1
  Cu  Cu58  1  0.00000000  0.75000000  0.12190300  1
  Cu  Cu59  1  0.50000000  0.25000000  0.37809700  1
