# generated using pymatgen
data_Cu2NiC
_symmetry_space_group_name_H-M   'P 1'
_cell_length_a   6.92924033
_cell_length_b   6.92924033
_cell_length_c   6.92923962
_cell_angle_alpha   33.49742506
_cell_angle_beta   33.49742506
_cell_angle_gamma   33.49742321
_symmetry_Int_Tables_number   1
_chemical_formula_structural   Cu2NiC
_chemical_formula_sum   'Cu4 Ni2 C2'
_cell_volume   90.25619633
_cell_formula_units_Z   2
loop_
 _symmetry_equiv_pos_site_id
 _symmetry_equiv_pos_as_xyz
  1  'x, y, z'
loop_
 _atom_site_type_symbol
 _atom_site_label
 _atom_site_symmetry_multiplicity
 _atom_site_fract_x
 _atom_site_fract_y
 _atom_site_fract_z
 _atom_site_occupancy
  Ni  Ni0  1  0.25001600  0.25001600  0.25001600  1
  Ni  Ni1  1  0.74998400  0.74998400  0.74998400  1
  Cu  Cu2  1  0.87256900  0.87256900  0.87256900  1
  Cu  Cu3  1  0.37824800  0.37824800  0.37824800  1
  Cu  Cu4  1  0.12743100  0.12743100  0.12743100  1
  Cu  Cu5  1  0.62175200  0.62175200  0.62175200  1
  C  C6  1  0.50000000  0.50000000  0.50000000  1
  C  C7  1  0.00000000  0.00000000  0.00000000  1
