# generated using pymatgen
data_Cu13(NiC5)6
_symmetry_space_group_name_H-M   'P 1'
_cell_length_a   8.27777300
_cell_length_b   8.55841971
_cell_length_c   14.60870188
_cell_angle_alpha   102.20258198
_cell_angle_beta   100.75694218
_cell_angle_gamma   107.32606511
_symmetry_Int_Tables_number   1
_chemical_formula_structural   Cu13(NiC5)6
_chemical_formula_sum   'Cu26 Ni12 C60'
_cell_volume   930.47553183
_cell_formula_units_Z   2
loop_
 _symmetry_equiv_pos_site_id
 _symmetry_equiv_pos_as_xyz
  1  'x, y, z'
loop_
 _atom_site_type_symbol
 _atom_site_label
 _atom_site_symmetry_multiplicity
 _atom_site_fract_x
 _atom_site_fract_y
 _atom_site_fract_z
 _atom_site_occupancy
  C  C0  1  0.00474600  0.85229000  0.63548700  1
  C  C1  1  0.99525400  0.14771000  0.36451300  1
  C  C2  1  0.50000000  0.50000000  0.50000000  1
  C  C3  1  0.50000000  0.50000000  0.00000000  1
  C  C4  1  0.44311900  0.06312600  0.86190000  1
  C  C5  1  0.55688100  0.93687400  0.13810000  1
  C  C6  1  0.31097500  0.97640200  0.97074400  1
  C  C7  1  0.68902500  0.02359800  0.02925600  1
  C  C8  1  0.12461700  0.73521700  0.02828700  1
  C  C9  1  0.87538300  0.26478300  0.97171300  1
  C  C10  1  0.10155300  0.82164300  0.11232700  1
  C  C11  1  0.89844700  0.17835700  0.88767300  1
  C  C12  1  0.09278400  0.09436100  0.77112100  1
  C  C13  1  0.90721600  0.90563900  0.22887900  1
  C  C14  1  0.18779400  0.11609000  0.85255400  1
  C  C15  1  0.81220600  0.88391000  0.14744600  1
  C  C16  1  0.38253400  0.18103600  0.52660500  1
  C  C17  1  0.61746600  0.81896400  0.47339500  1
  C  C18  1  0.38694700  0.27744500  0.41630900  1
  C  C19  1  0.61305300  0.72255500  0.58369100  1
  C  C20  1  0.57363100  0.26645200  0.43662100  1
  C  C21  1  0.42636900  0.73354800  0.56337900  1
  C  C22  1  0.18561000  0.43415900  0.49120100  1
  C  C23  1  0.81439000  0.56584100  0.50879900  1
  C  C24  1  0.18725000  0.31422600  0.59437400  1
  C  C25  1  0.81275000  0.68577400  0.40562600  1
  C  C26  1  0.20771100  0.51961200  0.58220600  1
  C  C27  1  0.79229000  0.48038800  0.41779400  1
  C  C28  1  0.39679800  0.54122900  0.34988900  1
  C  C29  1  0.60320200  0.45877100  0.65011100  1
  C  C30  1  0.48955100  0.73047800  0.36113600  1
  C  C31  1  0.51044900  0.26952200  0.63886400  1
  C  C32  1  0.61442100  0.62717600  0.31529500  1
  C  C33  1  0.38557900  0.37282400  0.68470500  1
  C  C34  1  0.16676500  0.33870100  0.05039600  1
  C  C35  1  0.83323500  0.66129900  0.94960400  1
  C  C36  1  0.23497800  0.45213500  0.93419000  1
  C  C37  1  0.76502200  0.54786500  0.06581000  1
  C  C38  1  0.26899100  0.26906900  0.96660300  1
  C  C39  1  0.73100900  0.73093100  0.03339700  1
  C  C40  1  0.50695800  0.80130700  0.97946700  1
  C  C41  1  0.49304200  0.19869300  0.02053300  1
  C  C42  1  0.59925000  0.78885200  0.87082400  1
  C  C43  1  0.40075000  0.21114800  0.12917600  1
  C  C44  1  0.38105600  0.71118300  0.91582300  1
  C  C45  1  0.61894400  0.28881700  0.08417700  1
  C  C46  1  0.73409600  0.56493900  0.84106500  1
  C  C47  1  0.26590400  0.43506100  0.15893500  1
  C  C48  1  0.60876400  0.36101000  0.87407000  1
  C  C49  1  0.39123600  0.63899000  0.12593000  1
  C  C50  1  0.53460900  0.50957100  0.82502200  1
  C  C51  1  0.46539100  0.49042900  0.17497800  1
  C  C52  1  0.23454300  0.65592200  0.74616700  1
  C  C53  1  0.76545700  0.34407800  0.25383300  1
  C  C54  1  0.10789400  0.68258900  0.83117100  1
  C  C55  1  0.89210600  0.31741100  0.16882900  1
  C  C56  1  0.69997600  0.02120200  0.70700100  1
  C  C57  1  0.30002400  0.97879800  0.29299900  1
  C  C58  1  0.77336500  0.10704800  0.59511700  1
  C  C59  1  0.22663500  0.89295200  0.40488300  1
  Ni  Ni60  1  0.45730200  0.28188700  0.46622000  1
  Ni  Ni61  1  0.54269800  0.71811300  0.53378000  1
  Ni  Ni62  1  0.24078700  0.43563800  0.54775400  1
  Ni  Ni63  1  0.75921300  0.56436200  0.45224600  1
  Ni  Ni64  1  0.50330200  0.61362500  0.36714000  1
  Ni  Ni65  1  0.49669800  0.38637500  0.63286000  1
  Ni  Ni66  1  0.26662500  0.37659400  0.98660400  1
  Ni  Ni67  1  0.73337500  0.62340600  0.01339600  1
  Ni  Ni68  1  0.49722300  0.72424700  0.93416300  1
  Ni  Ni69  1  0.50277700  0.27575300  0.06583700  1
  Ni  Ni70  1  0.60632800  0.48088300  0.87112700  1
  Ni  Ni71  1  0.39367200  0.51911700  0.12887300  1
  Cu  Cu72  1  0.83815700  0.65727900  0.63071100  1
  Cu  Cu73  1  0.16184300  0.34272100  0.36928900  1
  Cu  Cu74  1  0.16654600  0.04982000  0.64210200  1
  Cu  Cu75  1  0.83345400  0.95018000  0.35789800  1
  Cu  Cu76  1  0.20689700  0.69960700  0.66280100  1
  Cu  Cu77  1  0.79310300  0.30039300  0.33719900  1
  Cu  Cu78  1  0.98047600  0.72562400  0.81107200  1
  Cu  Cu79  1  0.01952400  0.27437600  0.18892800  1
  Cu  Cu80  1  0.34825000  0.59500900  0.76304900  1
  Cu  Cu81  1  0.65175000  0.40499100  0.23695100  1
  Cu  Cu82  1  0.13571100  0.65855300  0.91294000  1
  Cu  Cu83  1  0.86428900  0.34144700  0.08706000  1
  Cu  Cu84  1  0.76776400  0.91345600  0.74150400  1
  Cu  Cu85  1  0.23223600  0.08654400  0.25849600  1
  Cu  Cu86  1  0.87187300  0.03855900  0.54859700  1
  Cu  Cu87  1  0.12812700  0.96144100  0.45140300  1
  Cu  Cu88  1  0.58225500  0.06213900  0.75295500  1
  Cu  Cu89  1  0.41774500  0.93786100  0.24704500  1
  Cu  Cu90  1  0.73651400  0.22903200  0.55614800  1
  Cu  Cu91  1  0.26348600  0.77096800  0.44385200  1
  Cu  Cu92  1  0.36512700  0.08404200  0.91558900  1
  Cu  Cu93  1  0.63487300  0.91595800  0.08441100  1
  Cu  Cu94  1  0.19024400  0.79710700  0.06667100  1
  Cu  Cu95  1  0.80975600  0.20289300  0.93332900  1
  Cu  Cu96  1  0.10759900  0.15584600  0.82019500  1
  Cu  Cu97  1  0.89240100  0.84415400  0.17980500  1
