# generated using pymatgen
data_Cu6NiC8
_symmetry_space_group_name_H-M   'P 1'
_cell_length_a   7.35995786
_cell_length_b   20.97563998
_cell_length_c   26.44116194
_cell_angle_alpha   113.30081983
_cell_angle_beta   90.00000000
_cell_angle_gamma   90.00000000
_symmetry_Int_Tables_number   1
_chemical_formula_structural   Cu6NiC8
_chemical_formula_sum   'Cu96 Ni16 C128'
_cell_volume   3749.05848266
_cell_formula_units_Z   16
loop_
 _symmetry_equiv_pos_site_id
 _symmetry_equiv_pos_as_xyz
  1  'x, y, z'
loop_
 _atom_site_type_symbol
 _atom_site_label
 _atom_site_symmetry_multiplicity
 _atom_site_fract_x
 _atom_site_fract_y
 _atom_site_fract_z
 _atom_site_occupancy
  C  C0  1  0.93230523  0.26684862  0.97844045  1
  C  C1  1  0.43230523  0.23315138  0.02155955  1
  C  C2  1  0.06769477  0.73315138  0.02155955  1
  C  C3  1  0.56769477  0.76684862  0.97844045  1
  C  C4  1  0.71630544  0.63585031  0.13001046  1
  C  C5  1  0.21630544  0.86414969  0.86998954  1
  C  C6  1  0.28369456  0.36414969  0.86998954  1
  C  C7  1  0.78369456  0.13585031  0.13001046  1
  C  C8  1  0.21679216  0.63700695  0.13190134  1
  C  C9  1  0.71679216  0.86299305  0.86809866  1
  C  C10  1  0.78320784  0.36299305  0.86809866  1
  C  C11  1  0.28320784  0.13700695  0.13190134  1
  C  C12  1  0.29326803  0.44918511  0.14923688  1
  C  C13  1  0.79326803  0.05081489  0.85076312  1
  C  C14  1  0.70673197  0.55081489  0.85076312  1
  C  C15  1  0.20673197  0.94918511  0.14923688  1
  C  C16  1  0.53518013  0.71100426  0.47967406  1
  C  C17  1  0.03518013  0.78899574  0.52032594  1
  C  C18  1  0.46481987  0.28899574  0.52032594  1
  C  C19  1  0.96481987  0.21100426  0.47967406  1
  C  C20  1  0.67183895  0.79897777  0.35010419  1
  C  C21  1  0.17183895  0.70102223  0.64989581  1
  C  C22  1  0.32816105  0.20102223  0.64989581  1
  C  C23  1  0.82816105  0.29897777  0.35010419  1
  C  C24  1  0.28794760  0.00612895  0.36898114  1
  C  C25  1  0.78794760  0.49387105  0.63101886  1
  C  C26  1  0.71205240  0.99387105  0.63101886  1
  C  C27  1  0.21205240  0.50612895  0.36898114  1
  C  C28  1  0.78812372  0.00462801  0.36808086  1
  C  C29  1  0.28812372  0.49537199  0.63191914  1
  C  C30  1  0.21187628  0.99537199  0.63191914  1
  C  C31  1  0.71187628  0.50462801  0.36808086  1
  Ni  Ni32  1  0.75797649  0.42538021  0.10402388  1
  Ni  Ni33  1  0.25797649  0.07461979  0.89597612  1
  Ni  Ni34  1  0.24202351  0.57461979  0.89597612  1
  Ni  Ni35  1  0.74202351  0.92538021  0.10402388  1
  Ni  Ni36  1  0.76446350  0.34429418  0.14283465  1
  Ni  Ni37  1  0.26446350  0.15570582  0.85716535  1
  Ni  Ni38  1  0.23553650  0.65570582  0.85716535  1
  Ni  Ni39  1  0.73553650  0.84429418  0.14283465  1
  Ni  Ni40  1  0.21592124  0.82204446  0.39607675  1
  Ni  Ni41  1  0.71592124  0.67795554  0.60392325  1
  Ni  Ni42  1  0.78407876  0.17795554  0.60392325  1
  Ni  Ni43  1  0.28407876  0.32204446  0.39607675  1
  Ni  Ni44  1  0.19416414  0.70234345  0.35720831  1
  Ni  Ni45  1  0.69416414  0.79765655  0.64279169  1
  Ni  Ni46  1  0.80583586  0.29765655  0.64279169  1
  Ni  Ni47  1  0.30583586  0.20234345  0.35720831  1
  Cu  Cu48  1  0.76690423  0.23032040  0.87732205  1
  Cu  Cu49  1  0.26690423  0.26967960  0.12267795  1
  Cu  Cu50  1  0.23309577  0.76967960  0.12267795  1
  Cu  Cu51  1  0.73309577  0.73032040  0.87732205  1
  Cu  Cu52  1  0.61361681  0.27351264  0.91698588  1
  Cu  Cu53  1  0.11361681  0.22648736  0.08301412  1
  Cu  Cu54  1  0.38638319  0.72648736  0.08301412  1
  Cu  Cu55  1  0.88638319  0.77351264  0.91698588  1
  Cu  Cu56  1  0.45843369  0.69638663  0.22806169  1
  Cu  Cu57  1  0.95843369  0.80361337  0.77193831  1
  Cu  Cu58  1  0.54156631  0.30361337  0.77193831  1
  Cu  Cu59  1  0.04156631  0.19638663  0.22806169  1
  Cu  Cu60  1  0.47347637  0.74891338  0.19939408  1
  Cu  Cu61  1  0.97347637  0.75108662  0.80060592  1
  Cu  Cu62  1  0.52652363  0.25108662  0.80060592  1
  Cu  Cu63  1  0.02652363  0.24891338  0.19939408  1
  Cu  Cu64  1  0.05705822  0.56190921  0.19391801  1
  Cu  Cu65  1  0.55705822  0.93809079  0.80608199  1
  Cu  Cu66  1  0.94294178  0.43809079  0.80608199  1
  Cu  Cu67  1  0.44294178  0.06190921  0.19391801  1
  Cu  Cu68  1  0.24044487  0.59317481  0.22398624  1
  Cu  Cu69  1  0.74044487  0.90682519  0.77601376  1
  Cu  Cu70  1  0.75955513  0.40682519  0.77601376  1
  Cu  Cu71  1  0.25955513  0.09317481  0.22398624  1
  Cu  Cu72  1  0.46911868  0.52215667  0.06273551  1
  Cu  Cu73  1  0.96911868  0.97784333  0.93726449  1
  Cu  Cu74  1  0.53088132  0.47784333  0.93726449  1
  Cu  Cu75  1  0.03088132  0.02215667  0.06273551  1
  Cu  Cu76  1  0.45076086  0.57500982  0.03430008  1
  Cu  Cu77  1  0.95076086  0.92499018  0.96569992  1
  Cu  Cu78  1  0.54923914  0.42499018  0.96569992  1
  Cu  Cu79  1  0.04923914  0.07500982  0.03430008  1
  Cu  Cu80  1  0.97949832  0.58380360  0.03307907  1
  Cu  Cu81  1  0.47949832  0.91619640  0.96692093  1
  Cu  Cu82  1  0.02050168  0.41619640  0.96692093  1
  Cu  Cu83  1  0.52050168  0.08380360  0.03307907  1
  Cu  Cu84  1  0.97500540  0.52935797  0.06015736  1
  Cu  Cu85  1  0.47500540  0.97064203  0.93984264  1
  Cu  Cu86  1  0.02499460  0.47064203  0.93984264  1
  Cu  Cu87  1  0.52499460  0.02935797  0.06015736  1
  Cu  Cu88  1  0.97308157  0.69762659  0.22644975  1
  Cu  Cu89  1  0.47308157  0.80237341  0.77355025  1
  Cu  Cu90  1  0.02691843  0.30237341  0.77355025  1
  Cu  Cu91  1  0.52691843  0.19762659  0.22644975  1
  Cu  Cu92  1  0.96987287  0.74737101  0.19474407  1
  Cu  Cu93  1  0.46987287  0.75262899  0.80525593  1
  Cu  Cu94  1  0.03012713  0.25262899  0.80525593  1
  Cu  Cu95  1  0.53012713  0.24737101  0.19474407  1
  Cu  Cu96  1  0.70329005  0.64740697  0.37706543  1
  Cu  Cu97  1  0.20329005  0.85259303  0.62293457  1
  Cu  Cu98  1  0.29670995  0.35259303  0.62293457  1
  Cu  Cu99  1  0.79670995  0.14740697  0.37706543  1
  Cu  Cu100  1  0.85355885  0.64571363  0.41760692  1
  Cu  Cu101  1  0.35355885  0.85428637  0.58239308  1
  Cu  Cu102  1  0.14644115  0.35428637  0.58239308  1
  Cu  Cu103  1  0.64644115  0.14571363  0.41760692  1
  Cu  Cu104  1  0.91652433  0.86443428  0.30446150  1
  Cu  Cu105  1  0.41652433  0.63556572  0.69553850  1
  Cu  Cu106  1  0.08347567  0.13556572  0.69553850  1
  Cu  Cu107  1  0.58347567  0.36443428  0.30446150  1
  Cu  Cu108  1  0.73156118  0.87003802  0.27674664  1
  Cu  Cu109  1  0.23156118  0.62996198  0.72325336  1
  Cu  Cu110  1  0.26843882  0.12996198  0.72325336  1
  Cu  Cu111  1  0.76843882  0.37003802  0.27674664  1
  Cu  Cu112  1  0.02342643  0.96356790  0.27105280  1
  Cu  Cu113  1  0.52342643  0.53643210  0.72894720  1
  Cu  Cu114  1  0.97657357  0.03643210  0.72894720  1
  Cu  Cu115  1  0.47657357  0.46356790  0.27105280  1
  Cu  Cu116  1  0.04059897  0.04498669  0.29924239  1
  Cu  Cu117  1  0.54059897  0.45501331  0.70075761  1
  Cu  Cu118  1  0.95940103  0.95501331  0.70075761  1
  Cu  Cu119  1  0.45940103  0.54498669  0.29924239  1
  Cu  Cu120  1  0.02611611  0.05191080  0.46662580  1
  Cu  Cu121  1  0.52611611  0.44808920  0.53337420  1
  Cu  Cu122  1  0.97388389  0.94808920  0.53337420  1
  Cu  Cu123  1  0.47388389  0.55191080  0.46662580  1
  Cu  Cu124  1  0.02637662  0.97062651  0.43957153  1
  Cu  Cu125  1  0.52637662  0.52937349  0.56042847  1
  Cu  Cu126  1  0.97362338  0.02937349  0.56042847  1
  Cu  Cu127  1  0.47362338  0.47062651  0.43957153  1
  Cu  Cu128  1  0.54196933  0.05810862  0.30584760  1
  Cu  Cu129  1  0.04196933  0.44189138  0.69415240  1
  Cu  Cu130  1  0.45803067  0.94189138  0.69415240  1
  Cu  Cu131  1  0.95803067  0.55810862  0.30584760  1
  Cu  Cu132  1  0.54199147  0.97706588  0.27353957  1
  Cu  Cu133  1  0.04199147  0.52293412  0.72646043  1
  Cu  Cu134  1  0.45800853  0.02293412  0.72646043  1
  Cu  Cu135  1  0.95800853  0.47706588  0.27353957  1
  Cu  Cu136  1  0.52877054  0.95793002  0.43666645  1
  Cu  Cu137  1  0.02877054  0.54206998  0.56333355  1
  Cu  Cu138  1  0.47122946  0.04206998  0.56333355  1
  Cu  Cu139  1  0.97122946  0.45793002  0.43666645  1
  Cu  Cu140  1  0.55114133  0.03890283  0.46518619  1
  Cu  Cu141  1  0.05114133  0.46109717  0.53481381  1
  Cu  Cu142  1  0.44885867  0.96109717  0.53481381  1
  Cu  Cu143  1  0.94885867  0.53890283  0.46518619  1
  C  C144  1  0.01945678  0.41395496  0.05979891  1
  C  C145  1  0.51945678  0.08604504  0.94020109  1
  C  C146  1  0.98054322  0.58604504  0.94020109  1
  C  C147  1  0.48054322  0.91395496  0.05979891  1
  C  C148  1  0.72216972  0.52306689  0.17507338  1
  C  C149  1  0.22216972  0.97693311  0.82492662  1
  C  C150  1  0.27783028  0.47693311  0.82492662  1
  C  C151  1  0.77783028  0.02306689  0.17507338  1
  C  C152  1  0.52245331  0.39555385  0.04688782  1
  C  C153  1  0.02245331  0.10444615  0.95311218  1
  C  C154  1  0.47754669  0.60444615  0.95311218  1
  C  C155  1  0.97754669  0.89555385  0.04688782  1
  C  C156  1  -0.00099180  0.36687106  0.19928928  1
  C  C157  1  0.49900820  0.13312894  0.80071072  1
  C  C158  1  0.00099180  0.63312894  0.80071072  1
  C  C159  1  0.50099180  0.86687106  0.19928928  1
  C  C160  1  0.50113935  0.35435123  0.18622809  1
  C  C161  1  0.00113935  0.14564877  0.81377191  1
  C  C162  1  0.49886065  0.64564877  0.81377191  1
  C  C163  1  0.99886065  0.85435123  0.18622809  1
  C  C164  1  0.79384308  0.24085569  0.07416245  1
  C  C165  1  0.29384308  0.25914431  0.92583755  1
  C  C166  1  0.20615692  0.75914431  0.92583755  1
  C  C167  1  0.70615692  0.74085569  0.07416245  1
  C  C168  1  0.25765405  0.84794827  0.32482693  1
  C  C169  1  0.75765405  0.65205173  0.67517307  1
  C  C170  1  0.74234595  0.15205173  0.67517307  1
  C  C171  1  0.24234595  0.34794827  0.32482693  1
  C  C172  1  0.45284255  0.84634618  0.45268468  1
  C  C173  1  0.95284255  0.65365382  0.54731532  1
  C  C174  1  0.54715745  0.15365382  0.54731532  1
  C  C175  1  0.04715745  0.34634618  0.45268468  1
  C  C176  1  0.95647646  0.85767413  0.44060792  1
  C  C177  1  0.45647646  0.64232587  0.55939208  1
  C  C178  1  0.04352354  0.14232587  0.55939208  1
  C  C179  1  0.54352354  0.35767413  0.44060792  1
  C  C180  1  0.44326786  0.66262895  0.30685162  1
  C  C181  1  0.94326786  0.83737105  0.69314838  1
  C  C182  1  0.55673214  0.33737105  0.69314838  1
  C  C183  1  0.05673214  0.16262895  0.30685162  1
  C  C184  1  0.17627302  0.66696102  0.42587036  1
  C  C185  1  0.67627302  0.83303898  0.57412964  1
  C  C186  1  0.82372698  0.33303898  0.57412964  1
  C  C187  1  0.32372698  0.16696102  0.42587036  1
  C  C188  1  0.94341177  0.67516620  0.30780258  1
  C  C189  1  0.44341177  0.82483380  0.69219742  1
  C  C190  1  0.05658823  0.32483380  0.69219742  1
  C  C191  1  0.55658823  0.17516620  0.30780258  1
  C  C192  1  0.74541324  0.27422791  0.90942957  1
  C  C193  1  0.24541324  0.22577209  0.09057043  1
  C  C194  1  0.25458676  0.72577209  0.09057043  1
  C  C195  1  0.75458676  0.77422791  0.90942957  1
  C  C196  1  0.47324681  0.69882204  0.19175408  1
  C  C197  1  0.97324681  0.80117796  0.80824592  1
  C  C198  1  0.52675319  0.30117796  0.80824592  1
  C  C199  1  0.02675319  0.19882204  0.19175408  1
  C  C200  1  0.18897121  0.56346203  0.18775893  1
  C  C201  1  0.68897121  0.93653797  0.81224107  1
  C  C202  1  0.81102879  0.43653797  0.81224107  1
  C  C203  1  0.31102879  0.06346203  0.18775893  1
  C  C204  1  0.45976003  0.57216674  0.07058390  1
  C  C205  1  0.95976003  0.92783326  0.92941610  1
  C  C206  1  0.54023997  0.42783326  0.92941610  1
  C  C207  1  0.04023997  0.07216674  0.07058390  1
  C  C208  1  0.96640396  0.57964224  0.06877543  1
  C  C209  1  0.46640396  0.92035776  0.93122457  1
  C  C210  1  0.03359604  0.42035776  0.93122457  1
  C  C211  1  0.53359604  0.07964224  0.06877543  1
  C  C212  1  0.96307030  0.69789244  0.18921801  1
  C  C213  1  0.46307030  0.80210756  0.81078199  1
  C  C214  1  0.03692970  0.30210756  0.81078199  1
  C  C215  1  0.53692970  0.19789244  0.18921801  1
  C  C216  1  0.72211218  0.63667042  0.40980205  1
  C  C217  1  0.22211218  0.86332958  0.59019795  1
  C  C218  1  0.27788782  0.36332958  0.59019795  1
  C  C219  1  0.77788782  0.13667042  0.40980205  1
  C  C220  1  0.78626301  0.87474268  0.31215847  1
  C  C221  1  0.28626301  0.62525732  0.68784153  1
  C  C222  1  0.21373699  0.12525732  0.68784153  1
  C  C223  1  0.71373699  0.37474268  0.31215847  1
  C  C224  1  0.04240202  0.00254259  0.30693924  1
  C  C225  1  0.54240202  0.49745741  0.69306076  1
  C  C226  1  0.95759798  0.99745741  0.69306076  1
  C  C227  1  0.45759798  0.50254259  0.30693924  1
  C  C228  1  0.03854920  0.01209780  0.43082272  1
  C  C229  1  0.53854920  0.48790220  0.56917728  1
  C  C230  1  0.96145080  0.98790220  0.56917728  1
  C  C231  1  0.46145080  0.51209780  0.43082272  1
  C  C232  1  0.53655467  0.01398315  0.31110011  1
  C  C233  1  0.03655467  0.48601685  0.68889989  1
  C  C234  1  0.46344533  0.98601685  0.68889989  1
  C  C235  1  0.96344533  0.51398315  0.31110011  1
  C  C236  1  0.54107347  0.00006783  0.42893141  1
  C  C237  1  0.04107347  0.49993217  0.57106859  1
  C  C238  1  0.45892653  -0.00006783  0.57106859  1
  C  C239  1  0.95892653  0.50006783  0.42893141  1
