# generated using pymatgen
data_CuNiC3
_symmetry_space_group_name_H-M   'P 1'
_cell_length_a   6.78723028
_cell_length_b   7.24785600
_cell_length_c   10.09749833
_cell_angle_alpha   90.00065845
_cell_angle_beta   91.34604110
_cell_angle_gamma   90.00136111
_symmetry_Int_Tables_number   1
_chemical_formula_structural   CuNiC3
_chemical_formula_sum   'Cu8 Ni8 C24'
_cell_volume   496.58783148
_cell_formula_units_Z   8
loop_
 _symmetry_equiv_pos_site_id
 _symmetry_equiv_pos_as_xyz
  1  'x, y, z'
loop_
 _atom_site_type_symbol
 _atom_site_label
 _atom_site_symmetry_multiplicity
 _atom_site_fract_x
 _atom_site_fract_y
 _atom_site_fract_z
 _atom_site_occupancy
  C  C0  1  0.99996600  0.99999100  0.00000600  1
  C  C1  1  0.50000600  0.49998600  0.00000200  1
  C  C2  1  0.00003600  0.50010300  0.49994700  1
  C  C3  1  0.50006500  0.99999600  0.50013200  1
  Ni  Ni4  1  0.15465100  0.11350900  0.39791600  1
  Ni  Ni5  1  0.65472200  0.61356100  0.39784800  1
  Ni  Ni6  1  0.15466600  0.88646700  0.39790800  1
  Ni  Ni7  1  0.65476700  0.38642500  0.39785900  1
  Ni  Ni8  1  0.84538700  0.88641200  0.60212300  1
  Ni  Ni9  1  0.34517800  0.38643000  0.60212600  1
  Ni  Ni10  1  0.84540300  0.11357100  0.60212000  1
  Ni  Ni11  1  0.34522600  0.61355400  0.60213500  1
  Cu  Cu12  1  0.62952100  0.89250300  0.24684500  1
  Cu  Cu13  1  0.12949600  0.39246600  0.24677300  1
  Cu  Cu14  1  0.62952600  0.10748300  0.24683700  1
  Cu  Cu15  1  0.12950600  0.60753900  0.24675400  1
  Cu  Cu16  1  0.37043400  0.10748300  0.75322800  1
  Cu  Cu17  1  0.87054100  0.60750000  0.75311500  1
  Cu  Cu18  1  0.37043600  0.89250300  0.75322000  1
  Cu  Cu19  1  0.87054700  0.39251400  0.75309200  1
  C  C20  1  0.21372700  0.99999400  0.43945800  1
  C  C21  1  0.71383500  0.50001200  0.43935500  1
  C  C22  1  0.78629600  0.99999300  0.56062300  1
  C  C23  1  0.28618700  0.50000700  0.56055400  1
  C  C24  1  0.56754600  0.81923000  0.35768800  1
  C  C25  1  0.06750700  0.31923600  0.35763800  1
  C  C26  1  0.56755200  0.18076100  0.35768100  1
  C  C27  1  0.06752800  0.68083600  0.35760800  1
  C  C28  1  0.43245600  0.18080300  0.64241600  1
  C  C29  1  0.93249100  0.68082400  0.64228200  1
  C  C30  1  0.43244900  0.81919000  0.64240900  1
  C  C31  1  0.93248400  0.31924500  0.64225400  1
  C  C32  1  0.68638700  0.80454700  0.15087300  1
  C  C33  1  0.18629700  0.30454300  0.15083100  1
  C  C34  1  0.68639300  0.19542200  0.15087100  1
  C  C35  1  0.18632000  0.69542700  0.15079400  1
  C  C36  1  0.31352500  0.19544300  0.84922200  1
  C  C37  1  0.81370300  0.69544000  0.84912800  1
  C  C38  1  0.31352400  0.80451900  0.84922000  1
  C  C39  1  0.81371300  0.30453200  0.84911000  1
