# generated using pymatgen
data_Cu(Ni5C17)2
_symmetry_space_group_name_H-M   'P 1'
_cell_length_a   10.01896926
_cell_length_b   10.01896926
_cell_length_c   10.01896926
_cell_angle_alpha   133.50862116
_cell_angle_beta   117.87903965
_cell_angle_gamma   81.02113092
_symmetry_Int_Tables_number   1
_chemical_formula_structural   Cu(Ni5C17)2
_chemical_formula_sum   'Cu1 Ni10 C34'
_cell_volume   622.79760410
_cell_formula_units_Z   1
loop_
 _symmetry_equiv_pos_site_id
 _symmetry_equiv_pos_as_xyz
  1  'x, y, z'
loop_
 _atom_site_type_symbol
 _atom_site_label
 _atom_site_symmetry_multiplicity
 _atom_site_fract_x
 _atom_site_fract_y
 _atom_site_fract_z
 _atom_site_occupancy
  C  C0  1  0.25685300  0.75685300  0.50000000  1
  C  C1  1  0.24425700  0.24425700  0.00000000  1
  C  C2  1  0.65402500  0.65402500  0.00000000  1
  C  C3  1  0.65239600  0.15239600  0.50000000  1
  Ni  Ni4  1  0.45091600  0.20062600  0.74970900  1
  Ni  Ni5  1  0.45091600  0.70120700  0.25029100  1
  Ni  Ni6  1  0.00929900  0.57776000  0.93262500  1
  Ni  Ni7  1  0.00929900  0.07667500  0.43153900  1
  Ni  Ni8  1  0.64513600  0.57776000  0.56846100  1
  Ni  Ni9  1  0.64513600  0.07667500  0.06737500  1
  Ni  Ni10  1  0.26428700  0.33229600  0.43670500  1
  Ni  Ni11  1  0.26428700  0.82758200  0.93199200  1
  Ni  Ni12  1  0.89559000  0.82758200  0.56329500  1
  Ni  Ni13  1  0.89559000  0.33229600  0.06800800  1
  Cu  Cu14  1  0.97359500  0.97359500  0.00000000  1
  C  C15  1  0.12249700  0.84703600  0.72453900  1
  C  C16  1  0.12249700  0.39795800  0.27546100  1
  C  C17  1  0.08246600  0.73743400  0.92131900  1
  C  C18  1  0.08246600  0.16114700  0.34503200  1
  C  C19  1  0.81611400  0.73743400  0.65496800  1
  C  C20  1  0.81611400  0.16114700  0.07868100  1
  C  C21  1  0.26117600  0.57182800  0.68934800  1
  C  C22  1  0.22806200  0.08275300  0.14530900  1
  C  C23  1  0.88248100  0.57182800  0.31065200  1
  C  C24  1  0.93744400  0.08275300  0.85469100  1
  C  C25  1  0.41359600  0.80678300  0.13018700  1
  C  C26  1  0.41359600  0.28340800  0.60681300  1
  C  C27  1  0.67659600  0.80678300  0.39318700  1
  C  C28  1  0.67659600  0.28340800  0.86981300  1
  C  C29  1  0.77828100  0.52545000  0.74716900  1
  C  C30  1  0.77828100  0.03111100  0.25283100  1
  C  C31  1  0.44627200  0.94627200  0.50000000  1
  C  C32  1  0.45577300  0.45577300  0.00000000  1
  C  C33  1  0.00378900  0.32708400  0.67670500  1
  C  C34  1  0.98382600  0.80459400  0.17923100  1
  C  C35  1  0.65037900  0.32708400  0.32329500  1
  C  C36  1  0.62536300  0.80459400  0.82076900  1
  C  C37  1  0.44694000  0.43585700  0.48581900  1
  C  C38  1  0.44694000  0.96112100  0.01108300  1
  C  C39  1  0.95003800  0.96112100  0.51418100  1
  C  C40  1  0.95003800  0.43585700  0.98891700  1
  C  C41  1  0.22391300  0.60396700  0.11788300  1
  C  C42  1  0.22391300  0.10603000  0.61994600  1
  C  C43  1  0.48608400  0.60396700  0.38005400  1
  C  C44  1  0.48608400  0.10603000  0.88211700  1
