# generated using pymatgen
data_Cu8NiC3
_symmetry_space_group_name_H-M   'P 1'
_cell_length_a   5.00705763
_cell_length_b   5.00705763
_cell_length_c   8.36299100
_cell_angle_alpha   90.00000000
_cell_angle_beta   90.00000000
_cell_angle_gamma   119.99999512
_symmetry_Int_Tables_number   1
_chemical_formula_structural   Cu8NiC3
_chemical_formula_sum   'Cu8 Ni1 C3'
_cell_volume   181.57558946
_cell_formula_units_Z   1
loop_
 _symmetry_equiv_pos_site_id
 _symmetry_equiv_pos_as_xyz
  1  'x, y, z'
loop_
 _atom_site_type_symbol
 _atom_site_label
 _atom_site_symmetry_multiplicity
 _atom_site_fract_x
 _atom_site_fract_y
 _atom_site_fract_z
 _atom_site_occupancy
  C  C0  1  0.00000000  0.00000000  0.00000000  1
  C  C1  1  0.33333300  0.66666700  0.19670500  1
  C  C2  1  0.66666700  0.33333300  0.80329500  1
  Ni  Ni3  1  0.00000000  0.00000000  0.50000000  1
  Cu  Cu4  1  0.15540100  0.34664800  0.13472000  1
  Cu  Cu5  1  0.65335200  0.80875300  0.13472000  1
  Cu  Cu6  1  0.34664800  0.15540100  0.86528000  1
  Cu  Cu7  1  0.19124700  0.84459900  0.13472000  1
  Cu  Cu8  1  0.80875300  0.65335200  0.86528000  1
  Cu  Cu9  1  0.84459900  0.19124700  0.86528000  1
  Cu  Cu10  1  0.33333300  0.66666700  0.37011200  1
  Cu  Cu11  1  0.66666700  0.33333300  0.62988800  1
