# generated using pymatgen
data_Cu2NiC4
_symmetry_space_group_name_H-M   'P 1'
_cell_length_a   6.26838437
_cell_length_b   6.26838437
_cell_length_c   25.42531541
_cell_angle_alpha   81.31912259
_cell_angle_beta   81.31912259
_cell_angle_gamma   60.81557589
_symmetry_Int_Tables_number   1
_chemical_formula_structural   Cu2NiC4
_chemical_formula_sum   'Cu16 Ni8 C32'
_cell_volume   858.74586388
_cell_formula_units_Z   8
loop_
 _symmetry_equiv_pos_site_id
 _symmetry_equiv_pos_as_xyz
  1  'x, y, z'
loop_
 _atom_site_type_symbol
 _atom_site_label
 _atom_site_symmetry_multiplicity
 _atom_site_fract_x
 _atom_site_fract_y
 _atom_site_fract_z
 _atom_site_occupancy
  Ni  Ni0  1  0.63956800  0.63956800  0.06823800  1
  Ni  Ni1  1  0.12344300  0.12344300  0.12860300  1
  Ni  Ni2  1  0.87678000  0.87678000  0.32450500  1
  Ni  Ni3  1  0.36615100  0.36615100  0.39702600  1
  Ni  Ni4  1  0.63775300  0.63775300  0.65713700  1
  Ni  Ni5  1  0.50384000  0.50384000  0.50173700  1
  Ni  Ni6  1  0.88948600  0.88948600  0.86829900  1
  Ni  Ni7  1  0.75316700  0.75316700  0.75672800  1
  Cu  Cu8  1  0.62086600  0.12386400  0.12272700  1
  Cu  Cu9  1  0.24994100  0.24994100  0.26828200  1
  Cu  Cu10  1  0.12386400  0.62086600  0.12272700  1
  Cu  Cu11  1  0.14776300  0.14776300  0.53416300  1
  Cu  Cu12  1  0.85719600  0.36802300  0.38286400  1
  Cu  Cu13  1  0.59498400  0.59498400  0.21172600  1
  Cu  Cu14  1  0.41400900  0.41400900  0.77417500  1
  Cu  Cu15  1  0.36802300  0.85719600  0.38286400  1
  Cu  Cu16  1  0.12668900  0.63139500  0.62167000  1
  Cu  Cu17  1  0.83929400  0.83929400  0.48132200  1
  Cu  Cu18  1  0.63139500  0.12668900  0.62167000  1
  Cu  Cu19  1  0.88786700  0.39037200  0.86430900  1
  Cu  Cu20  1  0.39037200  0.88786700  0.86430900  1
  Cu  Cu21  1  0.10163100  0.10163100  0.71720200  1
  Cu  Cu22  1  0.01234000  0.01234000  0.00808900  1
  Cu  Cu23  1  0.36233400  0.36233400  0.95082400  1
  C  C24  1  0.28310100  0.81074500  0.06939400  1
  C  C25  1  0.93792500  0.93792500  0.16280200  1
  C  C26  1  0.81074500  0.28310100  0.06939400  1
  C  C27  1  0.82132800  0.82132800  0.07052100  1
  C  C28  1  0.44530600  0.44530600  0.16463200  1
  C  C29  1  0.52294900  0.03954900  0.32677800  1
  C  C30  1  0.44936600  0.93709800  0.16766100  1
  C  C31  1  0.18317400  0.18317400  0.41957800  1
  C  C32  1  0.03954900  0.52294900  0.32677800  1
  C  C33  1  0.30296300  0.30296300  0.08476100  1
  C  C34  1  0.05227200  0.05227200  0.33441800  1
  C  C35  1  0.93709800  0.44936600  0.16766100  1
  C  C36  1  0.75988200  0.26262800  0.54951000  1
  C  C37  1  0.68490400  0.68490400  0.42584100  1
  C  C38  1  0.68150900  0.21041300  0.43868100  1
  C  C39  1  0.46424800  0.46424800  0.65371400  1
  C  C40  1  0.26262800  0.75988200  0.54951000  1
  C  C41  1  0.53339600  0.53339600  0.34633200  1
  C  C42  1  0.28077100  0.28077100  0.59392300  1
  C  C43  1  0.21041300  0.68150900  0.43868100  1
  C  C44  1  0.98052300  0.98052300  0.64866900  1
  C  C45  1  0.03880900  0.57888100  0.80823000  1
  C  C46  1  0.95829900  0.50140900  0.69209600  1
  C  C47  1  0.70544700  0.70544700  0.90437900  1
  C  C48  1  0.57888100  0.03880900  0.80823000  1
  C  C49  1  0.77875000  0.77875000  0.59440200  1
  C  C50  1  0.58436700  0.58436700  0.81361200  1
  C  C51  1  0.50140900  0.95829900  0.69209600  1
  C  C52  1  0.21060900  0.21060900  0.90475000  1
  C  C53  1  0.20926400  0.71306000  0.90928300  1
  C  C54  1  0.07239500  0.07239500  0.82304400  1
  C  C55  1  0.71306000  0.20926400  0.90928300  1
