# generated using pymatgen
data_Cu3NiC18
_symmetry_space_group_name_H-M   'P 1'
_cell_length_a   6.34215575
_cell_length_b   6.34215575
_cell_length_c   12.68417324
_cell_angle_alpha   92.49021402
_cell_angle_beta   92.49021402
_cell_angle_gamma   92.63190423
_symmetry_Int_Tables_number   1
_chemical_formula_structural   Cu3NiC18
_chemical_formula_sum   'Cu6 Ni2 C36'
_cell_volume   508.64712489
_cell_formula_units_Z   2
loop_
 _symmetry_equiv_pos_site_id
 _symmetry_equiv_pos_as_xyz
  1  'x, y, z'
loop_
 _atom_site_type_symbol
 _atom_site_label
 _atom_site_symmetry_multiplicity
 _atom_site_fract_x
 _atom_site_fract_y
 _atom_site_fract_z
 _atom_site_occupancy
  C  C0  1  0.61984900  0.88015100  0.12500000  1
  C  C1  1  0.61984900  0.88015100  0.62500000  1
  C  C2  1  0.88281000  0.25035400  0.30932500  1
  C  C3  1  0.88281000  0.25035400  0.80932500  1
  C  C4  1  0.24964600  0.61719000  0.44067500  1
  C  C5  1  0.24964600  0.61719000  0.94067500  1
  C  C6  1  0.11970100  0.74925500  0.19038900  1
  C  C7  1  0.11970100  0.74925500  0.69038900  1
  C  C8  1  0.75074500  0.38029900  0.05961100  1
  C  C9  1  0.75074500  0.38029900  0.55961100  1
  C  C10  1  0.37946100  0.12053900  0.37500000  1
  C  C11  1  0.37946100  0.12053900  0.87500000  1
  Ni  Ni12  1  0.75020900  0.74979100  0.37500000  1
  Ni  Ni13  1  0.75020900  0.74979100  0.87500000  1
  Cu  Cu14  1  0.49924100  0.50002800  0.24987800  1
  Cu  Cu15  1  0.49924100  0.50002800  0.74987800  1
  Cu  Cu16  1  0.99997200  0.00075900  0.00012200  1
  Cu  Cu17  1  0.99997200  0.00075900  0.50012200  1
  Cu  Cu18  1  0.25380900  0.24619100  0.12500000  1
  Cu  Cu19  1  0.25380900  0.24619100  0.62500000  1
  C  C20  1  0.53569400  0.20935900  0.20330700  1
  C  C21  1  0.53569400  0.20935900  0.70330700  1
  C  C22  1  0.20988100  0.41152700  0.26888300  1
  C  C23  1  0.20988100  0.41152700  0.76888300  1
  C  C24  1  0.40699400  0.53784100  0.10576400  1
  C  C25  1  0.40699400  0.53784100  0.60576400  1
  C  C26  1  0.03843000  0.90871100  0.35462600  1
  C  C27  1  0.03843000  0.90871100  0.85462600  1
  C  C28  1  0.90860500  0.70960100  0.01903500  1
  C  C29  1  0.90860500  0.70960100  0.51903500  1
  C  C30  1  0.70945300  0.03746100  0.45415600  1
  C  C31  1  0.70945300  0.03746100  0.95415600  1
  C  C32  1  0.46253900  0.79054700  0.29584400  1
  C  C33  1  0.46253900  0.79054700  0.79584400  1
  C  C34  1  0.79039900  0.59139500  0.23096500  1
  C  C35  1  0.79039900  0.59139500  0.73096500  1
  C  C36  1  0.59128900  0.46157000  0.39537400  1
  C  C37  1  0.59128900  0.46157000  0.89537400  1
  C  C38  1  0.96215900  0.09300600  0.14423600  1
  C  C39  1  0.96215900  0.09300600  0.64423600  1
  C  C40  1  0.08847300  0.29011900  0.48111700  1
  C  C41  1  0.08847300  0.29011900  0.98111700  1
  C  C42  1  0.29064100  0.96430600  0.04669300  1
  C  C43  1  0.29064100  0.96430600  0.54669300  1
