# generated using pymatgen
data_Cu7NiC4
_symmetry_space_group_name_H-M   'P 1'
_cell_length_a   10.27758414
_cell_length_b   10.27758414
_cell_length_c   6.50755700
_cell_angle_alpha   90.00000000
_cell_angle_beta   90.00000000
_cell_angle_gamma   120.00000093
_symmetry_Int_Tables_number   1
_chemical_formula_structural   Cu7NiC4
_chemical_formula_sum   'Cu14 Ni2 C8'
_cell_volume   595.29288334
_cell_formula_units_Z   2
loop_
 _symmetry_equiv_pos_site_id
 _symmetry_equiv_pos_as_xyz
  1  'x, y, z'
loop_
 _atom_site_type_symbol
 _atom_site_label
 _atom_site_symmetry_multiplicity
 _atom_site_fract_x
 _atom_site_fract_y
 _atom_site_fract_z
 _atom_site_occupancy
  C  C0  1  0.64255500  0.84951600  0.90139500  1
  C  C1  1  0.79303900  0.64255500  0.40139500  1
  C  C2  1  0.84951600  0.20696100  0.40139500  1
  C  C3  1  0.15048400  0.79303900  0.90139500  1
  C  C4  1  0.20696100  0.35744500  0.90139500  1
  C  C5  1  0.35744500  0.15048400  0.40139500  1
  C  C6  1  0.00000000  0.00000000  0.50024500  1
  C  C7  1  0.00000000  0.00000000  0.00024500  1
  Ni  Ni8  1  0.66666700  0.33333300  0.82966100  1
  Ni  Ni9  1  0.33333300  0.66666700  0.32966100  1
  Cu  Cu10  1  0.48199500  0.56074300  0.14796100  1
  Cu  Cu11  1  0.92125200  0.48199500  0.64796100  1
  Cu  Cu12  1  0.56074300  0.07874800  0.64796100  1
  Cu  Cu13  1  0.43925700  0.92125200  0.14796100  1
  Cu  Cu14  1  0.33333300  0.66666700  0.72218900  1
  Cu  Cu15  1  0.66666700  0.33333300  0.22218900  1
  Cu  Cu16  1  0.07874800  0.51800500  0.14796100  1
  Cu  Cu17  1  0.51800500  0.43925700  0.64796100  1
  Cu  Cu18  1  0.26416100  0.11575300  0.97341200  1
  Cu  Cu19  1  0.14840800  0.26416100  0.47341200  1
  Cu  Cu20  1  0.11575300  0.85159200  0.47341200  1
  Cu  Cu21  1  0.88424700  0.14840800  0.97341200  1
  Cu  Cu22  1  0.85159200  0.73583900  0.97341200  1
  Cu  Cu23  1  0.73583900  0.88424700  0.47341200  1
