# generated using pymatgen
data_CuNiC9
_symmetry_space_group_name_H-M   'P 1'
_cell_length_a   13.14754312
_cell_length_b   13.14754312
_cell_length_c   13.14754241
_cell_angle_alpha   22.22753328
_cell_angle_beta   22.22753328
_cell_angle_gamma   22.22753605
_symmetry_Int_Tables_number   1
_chemical_formula_structural   CuNiC9
_chemical_formula_sum   'Cu2 Ni2 C18'
_cell_volume   285.17723238
_cell_formula_units_Z   2
loop_
 _symmetry_equiv_pos_site_id
 _symmetry_equiv_pos_as_xyz
  1  'x, y, z'
loop_
 _atom_site_type_symbol
 _atom_site_label
 _atom_site_symmetry_multiplicity
 _atom_site_fract_x
 _atom_site_fract_y
 _atom_site_fract_z
 _atom_site_occupancy
  Ni  Ni0  1  0.00000000  0.00000000  0.00000000  1
  Ni  Ni1  1  0.50000000  0.50000000  0.50000000  1
  Cu  Cu2  1  0.25490300  0.25490300  0.25490300  1
  Cu  Cu3  1  0.74509700  0.74509700  0.74509700  1
  C  C4  1  0.87468000  0.87468000  0.87468000  1
  C  C5  1  0.12532000  0.12532000  0.12532000  1
  C  C6  1  0.60654000  0.60654000  0.60654000  1
  C  C7  1  0.39346000  0.39346000  0.39346000  1
  C  C8  1  0.97854900  0.97854900  0.42158800  1
  C  C9  1  0.42158800  0.97854900  0.97854900  1
  C  C10  1  0.68888200  0.24703700  0.24703700  1
  C  C11  1  0.24703700  0.24703700  0.68888200  1
  C  C12  1  0.24703700  0.68888200  0.24703700  1
  C  C13  1  0.75296300  0.31111800  0.75296300  1
  C  C14  1  0.31111800  0.75296300  0.75296300  1
  C  C15  1  0.75296300  0.75296300  0.31111800  1
  C  C16  1  0.57841200  0.02145100  0.02145100  1
  C  C17  1  0.02145100  0.02145100  0.57841200  1
  C  C18  1  0.02145100  0.57841200  0.02145100  1
  C  C19  1  0.97854900  0.42158800  0.97854900  1
  C  C20  1  0.31410900  0.31410900  0.31410900  1
  C  C21  1  0.68589100  0.68589100  0.68589100  1
