# generated using pymatgen
data_CuNiC8
_symmetry_space_group_name_H-M   'P 1'
_cell_length_a   7.95891700
_cell_length_b   5.57451800
_cell_length_c   5.75188744
_cell_angle_alpha   89.62921116
_cell_angle_beta   90.00000000
_cell_angle_gamma   90.00000000
_symmetry_Int_Tables_number   1
_chemical_formula_structural   CuNiC8
_chemical_formula_sum   'Cu2 Ni2 C16'
_cell_volume   255.18937165
_cell_formula_units_Z   2
loop_
 _symmetry_equiv_pos_site_id
 _symmetry_equiv_pos_as_xyz
  1  'x, y, z'
loop_
 _atom_site_type_symbol
 _atom_site_label
 _atom_site_symmetry_multiplicity
 _atom_site_fract_x
 _atom_site_fract_y
 _atom_site_fract_z
 _atom_site_occupancy
  C  C0  1  0.75000000  0.99019900  0.04381500  1
  C  C1  1  0.75000000  0.50958700  0.56209200  1
  C  C2  1  0.25000000  0.49041300  0.43790800  1
  C  C3  1  0.25000000  0.00980100  0.95618500  1
  Ni  Ni4  1  0.00000000  0.00000000  0.50000000  1
  Ni  Ni5  1  0.50000000  0.00000000  0.50000000  1
  Cu  Cu6  1  0.00000000  0.50000000  0.00000000  1
  Cu  Cu7  1  0.50000000  0.50000000  0.00000000  1
  C  C8  1  0.44764000  0.18683000  0.21418500  1
  C  C9  1  0.54969600  0.71034600  0.31172300  1
  C  C10  1  0.55236000  0.81317000  0.78581500  1
  C  C11  1  0.04969600  0.28965400  0.68827700  1
  C  C12  1  0.25000000  0.90694800  0.53313500  1
  C  C13  1  0.45030400  0.28965400  0.68827700  1
  C  C14  1  0.95030400  0.71034600  0.31172300  1
  C  C15  1  0.05236000  0.18683000  0.21418500  1
  C  C16  1  0.75000000  0.38203600  0.95165900  1
  C  C17  1  0.94764000  0.81317000  0.78581500  1
  C  C18  1  0.25000000  0.61796400  0.04834100  1
  C  C19  1  0.75000000  0.09305200  0.46686500  1
