# generated using pymatgen
data_CuNiC5
_symmetry_space_group_name_H-M   'P 1'
_cell_length_a   8.78912392
_cell_length_b   18.90340914
_cell_length_c   18.90340915
_cell_angle_alpha   120.00000005
_cell_angle_beta   90.00000000
_cell_angle_gamma   90.00000000
_symmetry_Int_Tables_number   1
_chemical_formula_structural   CuNiC5
_chemical_formula_sum   'Cu24 Ni24 C120'
_cell_volume   2719.92223751
_cell_formula_units_Z   24
loop_
 _symmetry_equiv_pos_site_id
 _symmetry_equiv_pos_as_xyz
  1  'x, y, z'
loop_
 _atom_site_type_symbol
 _atom_site_label
 _atom_site_symmetry_multiplicity
 _atom_site_fract_x
 _atom_site_fract_y
 _atom_site_fract_z
 _atom_site_occupancy
  C  C0  1  0.98351009  0.99599142  0.52557896  1
  C  C1  1  0.98351009  0.52958753  0.00400858  1
  C  C2  1  0.48351009  0.00400858  0.47442104  1
  C  C3  1  0.98351009  0.47442104  0.47041247  1
  C  C4  1  0.48351009  0.47041247  0.99599142  1
  C  C5  1  0.48351009  0.52557896  0.52958753  1
  C  C6  1  0.98335291  0.66666700  0.33333300  1
  C  C7  1  0.48335291  0.33333300  0.66666700  1
  C  C8  1  0.98052967  0.80252622  0.13365686  1
  C  C9  1  0.98052967  0.33113064  0.19747378  1
  C  C10  1  0.48052967  0.19747378  0.86634314  1
  C  C11  1  0.98052967  0.86634314  0.66886936  1
  C  C12  1  0.48052967  0.66886936  0.80252622  1
  C  C13  1  0.48052967  0.13365686  0.33113064  1
  C  C14  1  0.47631942  0.66666700  0.33333300  1
  C  C15  1  0.97631942  0.33333300  0.66666700  1
  C  C16  1  0.97999541  0.66947948  0.85569300  1
  C  C17  1  0.97999541  0.18621352  0.33052052  1
  C  C18  1  0.47999541  0.33052052  0.14430700  1
  C  C19  1  0.97999541  0.14430700  0.81378648  1
  C  C20  1  0.47999541  0.81378648  0.66947948  1
  C  C21  1  0.47999541  0.85569300  0.18621352  1
  C  C22  1  0.99330433  -0.00000000  0.00000000  1
  C  C23  1  0.49330433  -0.00000000  0.00000000  1
  Ni  Ni24  1  0.68567344  0.50226780  0.82453036  1
  Ni  Ni25  1  0.68567344  0.32226255  0.49773220  1
  Ni  Ni26  1  0.18567344  0.49773220  0.17546964  1
  Ni  Ni27  1  0.68567344  0.17546964  0.67773745  1
  Ni  Ni28  1  0.18567344  0.67773745  0.50226780  1
  Ni  Ni29  1  0.18567344  0.82453036  0.32226255  1
  Ni  Ni30  1  0.68521510  0.65278767  0.16508714  1
  Ni  Ni31  1  0.68521510  0.51229947  0.34721233  1
  Ni  Ni32  1  0.18521510  0.34721233  0.83491286  1
  Ni  Ni33  1  0.68521510  0.83491286  0.48770053  1
  Ni  Ni34  1  0.18521510  0.48770053  0.65278767  1
  Ni  Ni35  1  0.18521510  0.16508714  0.51229947  1
  Ni  Ni36  1  0.78887727  0.66903640  0.66976036  1
  Ni  Ni37  1  0.78887727  0.00072396  0.33096360  1
  Ni  Ni38  1  0.28887727  0.33096360  0.33023964  1
  Ni  Ni39  1  0.78887727  0.33023964  0.99927604  1
  Ni  Ni40  1  0.28887727  0.99927604  0.66903640  1
  Ni  Ni41  1  0.28887727  0.66976036  0.00072396  1
  Ni  Ni42  1  0.66286566  0.83110984  0.99327881  1
  Ni  Ni43  1  0.66286566  0.16216897  0.16889016  1
  Ni  Ni44  1  0.16286566  0.16889016  0.00672119  1
  Ni  Ni45  1  0.66286566  0.00672119  0.83783103  1
  Ni  Ni46  1  0.16286566  0.83783103  0.83110984  1
  Ni  Ni47  1  0.16286566  0.99327881  0.16216897  1
  Cu  Cu48  1  0.80226212  0.82492611  0.31948626  1
  Cu  Cu49  1  0.80226212  0.49456015  0.17507389  1
  Cu  Cu50  1  0.30226212  0.17507389  0.68051374  1
  Cu  Cu51  1  0.80226212  0.68051374  0.50543985  1
  Cu  Cu52  1  0.30226212  0.50543985  0.82492611  1
  Cu  Cu53  1  0.30226212  0.31948626  0.49456015  1
  Cu  Cu54  1  0.77968946  0.99272396  0.15859486  1
  Cu  Cu55  1  0.77968946  0.16587089  0.00727604  1
  Cu  Cu56  1  0.27968946  0.00727604  0.84140514  1
  Cu  Cu57  1  0.77968946  0.84140514  0.83412911  1
  Cu  Cu58  1  0.27968946  0.83412911  0.99272396  1
  Cu  Cu59  1  0.27968946  0.15859486  0.16587089  1
  Cu  Cu60  1  0.68775248  0.66742576  0.00361765  1
  Cu  Cu61  1  0.68775248  0.33619189  0.33257424  1
  Cu  Cu62  1  0.18775248  0.33257424  0.99638235  1
  Cu  Cu63  1  0.68775248  0.99638235  0.66380811  1
  Cu  Cu64  1  0.18775248  0.66380811  0.66742576  1
  Cu  Cu65  1  0.18775248  0.00361765  0.33619189  1
  Cu  Cu66  1  0.80124544  0.49311794  0.65636627  1
  Cu  Cu67  1  0.80124544  0.16324833  0.50688206  1
  Cu  Cu68  1  0.30124544  0.50688206  0.34363373  1
  Cu  Cu69  1  0.80124544  0.34363373  0.83675167  1
  Cu  Cu70  1  0.30124544  0.83675167  0.49311794  1
  Cu  Cu71  1  0.30124544  0.65636627  0.16324833  1
  C  C72  1  0.76676889  0.73842743  0.97837184  1
  C  C73  1  0.76676889  0.23994441  0.26157257  1
  C  C74  1  0.26676889  0.26157257  0.02162816  1
  C  C75  1  0.76676889  0.02162816  0.76005559  1
  C  C76  1  0.26676889  0.76005559  0.73842743  1
  C  C77  1  0.26676889  0.97837184  0.23994441  1
  C  C78  1  0.74948739  0.56729889  0.93240599  1
  C  C79  1  0.74948739  0.36510711  0.43270111  1
  C  C80  1  0.24948739  0.43270111  0.06759401  1
  C  C81  1  0.74948739  0.06759401  0.63489289  1
  C  C82  1  0.24948739  0.63489289  0.56729889  1
  C  C83  1  0.24948739  0.93240599  0.36510711  1
  C  C84  1  0.76329061  0.69269764  0.10046645  1
  C  C85  1  0.76329061  0.40776881  0.30730236  1
  C  C86  1  0.26329061  0.30730236  0.89953355  1
  C  C87  1  0.76329061  0.89953355  0.59223119  1
  C  C88  1  0.26329061  0.59223119  0.69269764  1
  C  C89  1  0.26329061  0.10046645  0.40776881  1
  C  C90  1  0.70905844  0.56594684  0.63750631  1
  C  C91  1  0.70905844  0.07155947  0.43405316  1
  C  C92  1  0.20905844  0.43405316  0.36249369  1
  C  C93  1  0.70905844  0.36249369  0.92844053  1
  C  C94  1  0.20905844  0.92844053  0.56594684  1
  C  C95  1  0.20905844  0.63750631  0.07155947  1
  C  C96  1  0.70178374  0.73125469  0.27468221  1
  C  C97  1  0.70178374  0.54342753  0.26874531  1
  C  C98  1  0.20178374  0.26874531  0.72531779  1
  C  C99  1  0.70178374  0.72531779  0.45657247  1
  C  C100  1  0.20178374  0.45657247  0.73125469  1
  C  C101  1  0.20178374  0.27468221  0.54342753  1
  C  C102  1  0.96579782  0.95064190  0.14129921  1
  C  C103  1  0.96579782  0.19065731  0.04935810  1
  C  C104  1  0.46579782  0.04935810  0.85870079  1
  C  C105  1  0.96579782  0.85870079  0.80934269  1
  C  C106  1  0.46579782  0.80934269  0.95064190  1
  C  C107  1  0.46579782  0.14129921  0.19065731  1
  C  C108  1  0.72048657  0.73796401  0.77583650  1
  C  C109  1  0.72048657  0.03787250  0.26203599  1
  C  C110  1  0.22048657  0.26203599  0.22416350  1
  C  C111  1  0.72048657  0.22416350  0.96212750  1
  C  C112  1  0.22048657  0.96212750  0.73796401  1
  C  C113  1  0.22048657  0.77583650  0.03787250  1
  C  C114  1  0.77201553  0.87406388  0.93949624  1
  C  C115  1  0.77201553  0.06543236  0.12593612  1
  C  C116  1  0.27201553  0.12593612  0.06050376  1
  C  C117  1  0.77201553  0.06050376  0.93456764  1
  C  C118  1  0.27201553  0.93456764  0.87406388  1
  C  C119  1  0.27201553  0.93949624  0.06543236  1
  C  C120  1  0.80512815  0.86562034  0.42618167  1
  C  C121  1  0.80512815  0.56056133  0.13437966  1
  C  C122  1  0.30512815  0.13437966  0.57381833  1
  C  C123  1  0.80512815  0.57381833  0.43943867  1
  C  C124  1  0.30512815  0.43943867  0.86562034  1
  C  C125  1  0.30512815  0.42618167  0.56056133  1
  C  C126  1  0.98671489  0.46956889  0.61347004  1
  C  C127  1  0.98671489  0.14390115  0.53043111  1
  C  C128  1  0.48671489  0.53043111  0.38652996  1
  C  C129  1  0.98671489  0.38652996  0.85609885  1
  C  C130  1  0.48671489  0.85609885  0.46956889  1
  C  C131  1  0.48671489  0.61347004  0.14390115  1
  C  C132  1  0.99299143  0.66456734  0.68032972  1
  C  C133  1  0.99299143  0.01576238  0.33543266  1
  C  C134  1  0.49299143  0.33543266  0.31967028  1
  C  C135  1  0.99299143  0.31967028  0.98423762  1
  C  C136  1  0.49299143  0.98423762  0.66456734  1
  C  C137  1  0.49299143  0.68032972  0.01576238  1
  C  C138  1  0.65101070  0.91107169  0.10217354  1
  C  C139  1  0.65101070  0.19110185  0.08892831  1
  C  C140  1  0.15101070  0.08892831  0.89782646  1
  C  C141  1  0.65101070  0.89782646  0.80889815  1
  C  C142  1  0.15101070  0.80889815  0.91107169  1
  C  C143  1  0.15101070  0.10217354  0.19110185  1
  C  C144  1  0.81194712  0.52933733  0.76259434  1
  C  C145  1  0.81194712  0.23325702  0.47066267  1
  C  C146  1  0.31194712  0.47066267  0.23740566  1
  C  C147  1  0.81194712  0.23740566  0.76674298  1
  C  C148  1  0.31194712  0.76674298  0.52933733  1
  C  C149  1  0.31194712  0.76259434  0.23325702  1
  C  C150  1  0.69701200  0.40035025  0.60783447  1
  C  C151  1  0.69701200  0.20748422  0.59964975  1
  C  C152  1  0.19701200  0.59964975  0.39216553  1
  C  C153  1  0.69701200  0.39216553  0.79251578  1
  C  C154  1  0.19701200  0.79251578  0.40035025  1
  C  C155  1  0.19701200  0.60783447  0.20748422  1
  C  C156  1  0.98994408  0.80389473  0.27962931  1
  C  C157  1  0.98994408  0.47573458  0.19610527  1
  C  C158  1  0.48994408  0.19610527  0.72037069  1
  C  C159  1  0.98994408  0.72037069  0.52426542  1
  C  C160  1  0.48994408  0.52426542  0.80389473  1
  C  C161  1  0.48994408  0.27962931  0.47573458  1
  C  C162  1  0.71718759  0.89574298  0.29508295  1
  C  C163  1  0.71718759  0.39933997  0.10425702  1
  C  C164  1  0.21718759  0.10425702  0.70491705  1
  C  C165  1  0.71718759  0.70491705  0.60066003  1
  C  C166  1  0.21718759  0.60066003  0.89574298  1
  C  C167  1  0.21718759  0.29508295  0.39933997  1
