# generated using pymatgen
data_Cu3Ni6C23
_symmetry_space_group_name_H-M   'P 1'
_cell_length_a   11.84613140
_cell_length_b   11.84613140
_cell_length_c   11.84613140
_cell_angle_alpha   161.56887213
_cell_angle_beta   121.52112438
_cell_angle_gamma   61.86716879
_symmetry_Int_Tables_number   1
_chemical_formula_structural   Cu3Ni6C23
_chemical_formula_sum   'Cu3 Ni6 C23'
_cell_volume   446.18173911
_cell_formula_units_Z   1
loop_
 _symmetry_equiv_pos_site_id
 _symmetry_equiv_pos_as_xyz
  1  'x, y, z'
loop_
 _atom_site_type_symbol
 _atom_site_label
 _atom_site_symmetry_multiplicity
 _atom_site_fract_x
 _atom_site_fract_y
 _atom_site_fract_z
 _atom_site_occupancy
  Ni  Ni0  1  0.14338200  0.82404900  0.32492600  1
  Ni  Ni1  1  0.85661800  0.18154400  0.68066700  1
  Ni  Ni2  1  0.50087700  0.18154400  0.32492600  1
  Ni  Ni3  1  0.49912300  0.82404900  0.68066700  1
  Ni  Ni4  1  0.80274000  0.80175300  0.99901300  1
  Ni  Ni5  1  0.19726000  0.19627300  0.99901300  1
  Cu  Cu6  1  0.00000000  0.00282000  0.00282000  1
  Cu  Cu7  1  0.29645100  0.98343300  0.27988400  1
  Cu  Cu8  1  0.70354900  0.98343300  0.68698200  1
  C  C9  1  0.75059200  0.39619700  0.35230100  1
  C  C10  1  0.24940800  0.60170900  0.64560500  1
  C  C11  1  0.95610400  0.60170900  0.35230100  1
  C  C12  1  0.04389600  0.39619700  0.64560500  1
  C  C13  1  0.41393600  0.45767900  0.04374300  1
  C  C14  1  0.58606400  0.62980700  0.04374300  1
  C  C15  1  0.86291800  0.50180400  0.36472200  1
  C  C16  1  0.13708200  0.50180400  0.63888600  1
  C  C17  1  0.04896800  0.90622600  0.14120200  1
  C  C18  1  0.95103200  0.09223300  0.85725800  1
  C  C19  1  0.23497600  0.09223300  0.14120200  1
  C  C20  1  0.76502400  0.90622600  0.85725800  1
  C  C21  1  0.74300000  0.57662800  0.15722300  1
  C  C22  1  0.25700000  0.41422300  0.83362800  1
  C  C23  1  0.58059500  0.41422300  0.15722300  1
  C  C24  1  0.41940500  0.57662800  0.83362800  1
  C  C25  1  0.31976900  0.30797100  0.98820200  1
  C  C26  1  0.68023100  0.66843300  0.98820200  1
  C  C27  1  0.64203900  0.29818400  0.34185800  1
  C  C28  1  0.35796100  0.69981900  0.65614600  1
  C  C29  1  0.04367300  0.69981900  0.34185800  1
  C  C30  1  0.95632700  0.29818400  0.65614600  1
  C  C31  1  0.50000000  0.77816600  0.27816600  1
