# generated using pymatgen
data_CuNiC8
_symmetry_space_group_name_H-M   'P 1'
_cell_length_a   8.62716227
_cell_length_b   8.63138310
_cell_length_c   8.62230810
_cell_angle_alpha   90.00000000
_cell_angle_beta   90.00000000
_cell_angle_gamma   90.00000000
_symmetry_Int_Tables_number   1
_chemical_formula_structural   CuNiC8
_chemical_formula_sum   'Cu4 Ni4 C32'
_cell_volume   642.05450452
_cell_formula_units_Z   4
loop_
 _symmetry_equiv_pos_site_id
 _symmetry_equiv_pos_as_xyz
  1  'x, y, z'
loop_
 _atom_site_type_symbol
 _atom_site_label
 _atom_site_symmetry_multiplicity
 _atom_site_fract_x
 _atom_site_fract_y
 _atom_site_fract_z
 _atom_site_occupancy
  Ni  Ni0  1  0.00000000  -0.00000000  -0.00000000  1
  Ni  Ni1  1  0.50000000  0.50000000  0.50000000  1
  Ni  Ni2  1  0.50000000  -0.00000000  0.50000000  1
  Ni  Ni3  1  0.00000000  -0.00000000  0.50000000  1
  Cu  Cu4  1  0.00000000  0.50000000  0.50000000  1
  Cu  Cu5  1  0.50000000  0.50000000  0.00000000  1
  Cu  Cu6  1  0.50000000  -0.00000000  0.00000000  1
  Cu  Cu7  1  0.00000000  0.50000000  -0.00000000  1
  C  C8  1  0.24958860  0.25250194  0.24817881  1
  C  C9  1  0.75041140  0.74749806  0.24817881  1
  C  C10  1  0.75041140  0.25250194  0.75182119  1
  C  C11  1  0.24958860  0.74749806  0.75182119  1
  C  C12  1  0.75043488  0.74667862  0.75223586  1
  C  C13  1  0.24956512  0.25332138  0.75223586  1
  C  C14  1  0.24956512  0.74667862  0.24776414  1
  C  C15  1  0.75043488  0.25332138  0.24776414  1
  C  C16  1  0.99391965  0.21877681  0.27417890  1
  C  C17  1  0.00608035  0.78122319  0.27417890  1
  C  C18  1  0.00608035  0.21877681  0.72582110  1
  C  C19  1  0.99391965  0.78122319  0.72582110  1
  C  C20  1  0.28403689  0.99208525  0.21072229  1
  C  C21  1  0.28403689  0.00791475  0.78927771  1
  C  C22  1  0.71596311  0.00791475  0.21072229  1
  C  C23  1  0.71596311  0.99208525  0.78927771  1
  C  C24  1  0.21235767  0.28921195  0.99424230  1
  C  C25  1  0.78764233  0.28921195  0.00575770  1
  C  C26  1  0.21235767  0.71078805  0.00575770  1
  C  C27  1  0.78764233  0.71078805  0.99424230  1
  C  C28  1  0.50689040  0.28982238  0.21377849  1
  C  C29  1  0.49310960  0.71017762  0.21377849  1
  C  C30  1  0.49310960  0.28982238  0.78622151  1
  C  C31  1  0.50689040  0.71017762  0.78622151  1
  C  C32  1  0.21455082  0.50585343  0.28844379  1
  C  C33  1  0.21455082  0.49414657  0.71155621  1
  C  C34  1  0.78544918  0.49414657  0.28844379  1
  C  C35  1  0.78544918  0.50585343  0.71155621  1
  C  C36  1  0.27975620  0.22437423  0.50727098  1
  C  C37  1  0.72024380  0.22437423  0.49272902  1
  C  C38  1  0.27975620  0.77562577  0.49272902  1
  C  C39  1  0.72024380  0.77562577  0.50727098  1
