# generated using pymatgen
data_CuNi8C9
_symmetry_space_group_name_H-M   'P 1'
_cell_length_a   13.74660800
_cell_length_b   6.08962800
_cell_length_c   9.94699093
_cell_angle_alpha   53.24363308
_cell_angle_beta   90.00000000
_cell_angle_gamma   90.00000000
_symmetry_Int_Tables_number   1
_chemical_formula_structural   CuNi8C9
_chemical_formula_sum   'Cu4 Ni32 C36'
_cell_volume   667.13250408
_cell_formula_units_Z   4
loop_
 _symmetry_equiv_pos_site_id
 _symmetry_equiv_pos_as_xyz
  1  'x, y, z'
loop_
 _atom_site_type_symbol
 _atom_site_label
 _atom_site_symmetry_multiplicity
 _atom_site_fract_x
 _atom_site_fract_y
 _atom_site_fract_z
 _atom_site_occupancy
  C  C0  1  0.60272700  0.15764600  0.27987600  1
  C  C1  1  0.89727300  0.15764600  0.77987600  1
  C  C2  1  0.39727300  0.84235400  0.72012400  1
  C  C3  1  0.10272700  0.84235400  0.22012400  1
  Ni  Ni4  1  0.57624100  0.12032500  0.01763500  1
  Ni  Ni5  1  0.92375900  0.12032500  0.51763500  1
  Ni  Ni6  1  0.42375900  0.87967500  0.98236500  1
  Ni  Ni7  1  0.07624100  0.87967500  0.48236500  1
  Ni  Ni8  1  0.51584300  0.87622400  0.17473000  1
  Ni  Ni9  1  0.98415700  0.87622400  0.67473000  1
  Ni  Ni10  1  0.48415700  0.12377600  0.82527000  1
  Ni  Ni11  1  0.01584300  0.12377600  0.32527000  1
  Ni  Ni12  1  0.69456400  0.43443000  0.38249000  1
  Ni  Ni13  1  0.80543600  0.43443000  0.88249000  1
  Ni  Ni14  1  0.30543600  0.56557000  0.61751000  1
  Ni  Ni15  1  0.19456400  0.56557000  0.11751000  1
  Ni  Ni16  1  0.59280700  0.34533700  0.47734400  1
  Ni  Ni17  1  0.90719300  0.34533700  0.97734400  1
  Ni  Ni18  1  0.40719300  0.65466300  0.52265600  1
  Ni  Ni19  1  0.09280700  0.65466300  0.02265600  1
  Ni  Ni20  1  0.67607100  0.67487600  0.04472500  1
  Ni  Ni21  1  0.82392900  0.67487600  0.54472500  1
  Ni  Ni22  1  0.32392900  0.32512400  0.95527500  1
  Ni  Ni23  1  0.17607100  0.32512400  0.45527500  1
  Ni  Ni24  1  0.59739200  0.63411500  0.94191600  1
  Ni  Ni25  1  0.90260800  0.63411500  0.44191600  1
  Ni  Ni26  1  0.40260800  0.36588500  0.05808400  1
  Ni  Ni27  1  0.09739200  0.36588500  0.55808400  1
  Ni  Ni28  1  0.75647700  0.94028300  0.22413900  1
  Ni  Ni29  1  0.74352300  0.94028300  0.72413900  1
  Ni  Ni30  1  0.24352300  0.05971700  0.77586100  1
  Ni  Ni31  1  0.25647700  0.05971700  0.27586100  1
  Ni  Ni32  1  0.69440100  0.14071400  0.75897400  1
  Ni  Ni33  1  0.80559900  0.14071400  0.25897400  1
  Ni  Ni34  1  0.30559900  0.85928600  0.24102600  1
  Ni  Ni35  1  0.19440100  0.85928600  0.74102600  1
  Cu  Cu36  1  0.61027000  0.62152100  0.67898900  1
  Cu  Cu37  1  0.88973000  0.62152100  0.17898900  1
  Cu  Cu38  1  0.38973000  0.37847900  0.32101100  1
  Cu  Cu39  1  0.11027000  0.37847900  0.82101100  1
  C  C40  1  0.55005400  0.73667900  0.74951900  1
  C  C41  1  0.94994600  0.73667900  0.24951900  1
  C  C42  1  0.44994600  0.26332100  0.25048100  1
  C  C43  1  0.05005400  0.26332100  0.75048100  1
  C  C44  1  0.57808500  0.74622300  0.50384000  1
  C  C45  1  0.92191500  0.74622300  0.00384000  1
  C  C46  1  0.42191500  0.25377700  0.49616000  1
  C  C47  1  0.07808500  0.25377700  0.99616000  1
  C  C48  1  0.59432900  0.31706100  0.78210500  1
  C  C49  1  0.90567100  0.31706100  0.28210500  1
  C  C50  1  0.40567100  0.68293900  0.21789500  1
  C  C51  1  0.09432900  0.68293900  0.71789500  1
  C  C52  1  0.71402600  0.67695400  0.68767700  1
  C  C53  1  0.78597400  0.67695400  0.18767700  1
  C  C54  1  0.28597400  0.32304600  0.31232300  1
  C  C55  1  0.21402600  0.32304600  0.81232300  1
  C  C56  1  0.57074000  0.00398000  0.14035400  1
  C  C57  1  0.92926000  0.00398000  0.64035400  1
  C  C58  1  0.42926000  0.99602000  0.85964600  1
  C  C59  1  0.07074000  0.99602000  0.35964600  1
  C  C60  1  0.64235700  0.29796500  0.42786700  1
  C  C61  1  0.85764300  0.29796500  0.92786700  1
  C  C62  1  0.35764300  0.70203500  0.57213300  1
  C  C63  1  0.14235700  0.70203500  0.07213300  1
  C  C64  1  0.62241900  0.56009200  0.05548100  1
  C  C65  1  0.87758100  0.56009200  0.55548100  1
  C  C66  1  0.37758100  0.43990800  0.94451900  1
  C  C67  1  0.12241900  0.43990800  0.44451900  1
  C  C68  1  0.74719900  0.03059100  0.27902800  1
  C  C69  1  0.75280100  0.03059100  0.77902800  1
  C  C70  1  0.25280100  0.96940900  0.72097200  1
  C  C71  1  0.24719900  0.96940900  0.22097200  1
