# generated using pymatgen
data_Cu7NiC29
_symmetry_space_group_name_H-M   'P 1'
_cell_length_a   7.79777401
_cell_length_b   7.80881537
_cell_length_c   7.72903376
_cell_angle_alpha   89.93076036
_cell_angle_beta   89.63853113
_cell_angle_gamma   90.00678233
_symmetry_Int_Tables_number   1
_chemical_formula_structural   Cu7NiC29
_chemical_formula_sum   'Cu7 Ni1 C29'
_cell_volume   470.62179975
_cell_formula_units_Z   1
loop_
 _symmetry_equiv_pos_site_id
 _symmetry_equiv_pos_as_xyz
  1  'x, y, z'
loop_
 _atom_site_type_symbol
 _atom_site_label
 _atom_site_symmetry_multiplicity
 _atom_site_fract_x
 _atom_site_fract_y
 _atom_site_fract_z
 _atom_site_occupancy
  Ni  Ni0  1  0.24389300  0.25473800  0.24479800  1
  Cu  Cu1  1  0.26788800  0.27273800  0.70129500  1
  Cu  Cu2  1  0.23127400  0.73301400  0.24679800  1
  Cu  Cu3  1  0.26434600  0.73215900  0.69775700  1
  Cu  Cu4  1  0.74221600  0.25886900  0.26046000  1
  Cu  Cu5  1  0.74459700  0.24669700  0.71847200  1
  Cu  Cu6  1  0.73468400  0.74501300  0.25929000  1
  Cu  Cu7  1  0.74745800  0.75053600  0.71743100  1
  C  C8  1  0.00600600  0.99997100  0.50573700  1
  C  C9  1  0.99020900  0.50653500  0.00911700  1
  C  C10  1  0.99927400  0.50119100  0.49808800  1
  C  C11  1  0.51091900  0.99904700  0.48282600  1
  C  C12  1  0.50137500  0.50391000  0.99031800  1
  C  C13  1  0.50593700  0.50267900  0.49870200  1
  C  C14  1  0.01630600  0.99522900  0.98491000  1
  C  C15  1  0.48192400  0.99620300  0.99642100  1
  C  C16  1  0.95124600  0.99183200  0.76670600  1
  C  C17  1  0.01887700  0.49696600  0.25451700  1
  C  C18  1  0.99282500  0.50923300  0.75715500  1
  C  C19  1  0.55014300  0.01609000  0.23485200  1
  C  C20  1  0.53381700  0.98612800  0.74590500  1
  C  C21  1  0.50439700  0.51808300  0.74508900  1
  C  C22  1  0.24259500  0.98129100  0.04227900  1
  C  C23  1  0.25579700  0.00388600  0.49674900  1
  C  C24  1  0.25258800  0.51277700  0.01608700  1
  C  C25  1  0.25895300  0.49799500  0.49501900  1
  C  C26  1  0.76324300  0.99549700  0.47491600  1
  C  C27  1  0.73916900  0.49252100  0.04936500  1
  C  C28  1  0.74797600  0.50494700  0.47927100  1
  C  C29  1  0.95715200  0.19775800  0.06882100  1
  C  C30  1  0.00424300  0.24911800  0.51108500  1
  C  C31  1  0.95423000  0.79361200  0.07223700  1
  C  C32  1  0.01553700  0.75240300  0.49372700  1
  C  C33  1  0.49983100  0.25407600  0.99644500  1
  C  C34  1  0.50706900  0.25767000  0.49254900  1
  C  C35  1  0.51836400  0.74599500  0.03064600  1
  C  C36  1  0.49364200  0.74359400  0.46416200  1
