# generated using pymatgen
data_CuNiC12
_symmetry_space_group_name_H-M   'P 1'
_cell_length_a   8.86881300
_cell_length_b   9.24389500
_cell_length_c   18.27749500
_cell_angle_alpha   90.00000000
_cell_angle_beta   90.00000000
_cell_angle_gamma   90.00000000
_symmetry_Int_Tables_number   1
_chemical_formula_structural   CuNiC12
_chemical_formula_sum   'Cu8 Ni8 C96'
_cell_volume   1498.43247011
_cell_formula_units_Z   8
loop_
 _symmetry_equiv_pos_site_id
 _symmetry_equiv_pos_as_xyz
  1  'x, y, z'
loop_
 _atom_site_type_symbol
 _atom_site_label
 _atom_site_symmetry_multiplicity
 _atom_site_fract_x
 _atom_site_fract_y
 _atom_site_fract_z
 _atom_site_occupancy
  Ni  Ni0  1  0.50034800  0.16129200  0.28739100  1
  Ni  Ni1  1  0.00034800  0.33870800  0.71260900  1
  Ni  Ni2  1  0.49965200  0.66129200  0.21260900  1
  Ni  Ni3  1  0.99965200  0.83870800  0.78739100  1
  Ni  Ni4  1  0.49965200  0.83870800  0.71260900  1
  Ni  Ni5  1  0.99965200  0.66129200  0.28739100  1
  Ni  Ni6  1  0.50034800  0.33870800  0.78739100  1
  Ni  Ni7  1  0.00034800  0.16129200  0.21260900  1
  Cu  Cu8  1  0.69899300  0.91230100  0.41444700  1
  Cu  Cu9  1  0.19899300  0.58769900  0.58555300  1
  Cu  Cu10  1  0.30100700  0.41230100  0.08555300  1
  Cu  Cu11  1  0.80100700  0.08769900  0.91444700  1
  Cu  Cu12  1  0.30100700  0.08769900  0.58555300  1
  Cu  Cu13  1  0.80100700  0.41230100  0.41444700  1
  Cu  Cu14  1  0.69899300  0.58769900  0.91444700  1
  Cu  Cu15  1  0.19899300  0.91230100  0.08555300  1
  C  C16  1  0.75043700  0.40962800  0.25959200  1
  C  C17  1  0.25043700  0.09037200  0.74040800  1
  C  C18  1  0.24956300  0.90962800  0.24040800  1
  C  C19  1  0.74956300  0.59037200  0.75959200  1
  C  C20  1  0.24956300  0.59037200  0.74040800  1
  C  C21  1  0.74956300  0.90962800  0.25959200  1
  C  C22  1  0.75043700  0.09037200  0.75959200  1
  C  C23  1  0.25043700  0.40962800  0.24040800  1
  C  C24  1  0.95075500  0.79922500  0.97743400  1
  C  C25  1  0.45075500  0.70077500  0.02256600  1
  C  C26  1  0.04924500  0.29922500  0.52256600  1
  C  C27  1  0.54924500  0.20077500  0.47743400  1
  C  C28  1  0.04924500  0.20077500  0.02256600  1
  C  C29  1  0.54924500  0.29922500  0.97743400  1
  C  C30  1  0.95075500  0.70077500  0.47743400  1
  C  C31  1  0.45075500  0.79922500  0.52256600  1
  C  C32  1  0.68194100  0.00623800  0.08849600  1
  C  C33  1  0.18194100  0.49376200  0.91150400  1
  C  C34  1  0.31805900  0.50623800  0.41150400  1
  C  C35  1  0.81805900  0.99376200  0.58849600  1
  C  C36  1  0.31805900  0.99376200  0.91150400  1
  C  C37  1  0.81805900  0.50623800  0.08849600  1
  C  C38  1  0.68194100  0.49376200  0.58849600  1
  C  C39  1  0.18194100  0.00623800  0.41150400  1
  C  C40  1  0.56060300  0.66496200  0.08689900  1
  C  C41  1  0.06060300  0.83503800  0.91310100  1
  C  C42  1  0.43939700  0.16496200  0.41310100  1
  C  C43  1  0.93939700  0.33503800  0.58689900  1
  C  C44  1  0.43939700  0.33503800  0.91310100  1
  C  C45  1  0.93939700  0.16496200  0.08689900  1
  C  C46  1  0.56060300  0.83503800  0.58689900  1
  C  C47  1  0.06060300  0.66496200  0.41310100  1
  C  C48  1  0.65080700  0.82134000  0.20679500  1
  C  C49  1  0.15080700  0.67866000  0.79320500  1
  C  C50  1  0.34919300  0.32134000  0.29320500  1
  C  C51  1  0.84919300  0.17866000  0.70679500  1
  C  C52  1  0.34919300  0.17866000  0.79320500  1
  C  C53  1  0.84919300  0.32134000  0.20679500  1
  C  C54  1  0.65080700  0.67866000  0.70679500  1
  C  C55  1  0.15080700  0.82134000  0.29320500  1
  C  C56  1  0.81387200  0.90567400  0.97681300  1
  C  C57  1  0.31387200  0.59432600  0.02318700  1
  C  C58  1  0.18612800  0.40567400  0.52318700  1
  C  C59  1  0.68612800  0.09432600  0.47681300  1
  C  C60  1  0.18612800  0.09432600  0.02318700  1
  C  C61  1  0.68612800  0.40567400  0.97681300  1
  C  C62  1  0.81387200  0.59432600  0.47681300  1
  C  C63  1  0.31387200  0.90567400  0.52318700  1
  C  C64  1  0.53091100  0.14944000  0.19867700  1
  C  C65  1  0.03091100  0.35056000  0.80132300  1
  C  C66  1  0.46908900  0.64944000  0.30132300  1
  C  C67  1  0.96908900  0.85056000  0.69867700  1
  C  C68  1  0.46908900  0.85056000  0.80132300  1
  C  C69  1  0.96908900  0.64944000  0.19867700  1
  C  C70  1  0.53091100  0.35056000  0.69867700  1
  C  C71  1  0.03091100  0.14944000  0.30132300  1
  C  C72  1  0.88846200  0.64019400  0.96776600  1
  C  C73  1  0.38846200  0.85980600  0.03223400  1
  C  C74  1  0.11153800  0.14019400  0.53223400  1
  C  C75  1  0.61153800  0.35980600  0.46776600  1
  C  C76  1  0.11153800  0.35980600  0.03223400  1
  C  C77  1  0.61153800  0.14019400  0.96776600  1
  C  C78  1  0.88846200  0.85980600  0.46776600  1
  C  C79  1  0.38846200  0.64019400  0.53223400  1
  C  C80  1  0.84572900  0.50143600  0.31553700  1
  C  C81  1  0.34572900  0.99856400  0.68446300  1
  C  C82  1  0.15427100  0.00143600  0.18446300  1
  C  C83  1  0.65427100  0.49856400  0.81553700  1
  C  C84  1  0.15427100  0.49856400  0.68446300  1
  C  C85  1  0.65427100  0.00143600  0.31553700  1
  C  C86  1  0.84572900  0.99856400  0.81553700  1
  C  C87  1  0.34572900  0.50143600  0.18446300  1
  C  C88  1  0.02546500  0.80097300  0.05318800  1
  C  C89  1  0.52546500  0.69902700  0.94681200  1
  C  C90  1  0.97453500  0.30097300  0.44681200  1
  C  C91  1  0.47453500  0.19902700  0.55318800  1
  C  C92  1  0.97453500  0.19902700  0.94681200  1
  C  C93  1  0.47453500  0.30097300  0.05318800  1
  C  C94  1  0.02546500  0.69902700  0.55318800  1
  C  C95  1  0.52546500  0.80097300  0.44681200  1
  C  C96  1  0.66175500  0.50877900  0.20679200  1
  C  C97  1  0.16175500  0.99122100  0.79320800  1
  C  C98  1  0.33824500  0.00877900  0.29320800  1
  C  C99  1  0.83824500  0.49122100  0.70679200  1
  C  C100  1  0.33824500  0.49122100  0.79320800  1
  C  C101  1  0.83824500  0.00877900  0.20679200  1
  C  C102  1  0.66175500  0.99122100  0.70679200  1
  C  C103  1  0.16175500  0.50877900  0.29320800  1
  C  C104  1  0.65529800  0.31520300  0.31159100  1
  C  C105  1  0.15529800  0.18479700  0.68840900  1
  C  C106  1  0.34470200  0.81520300  0.18840900  1
  C  C107  1  0.84470200  0.68479700  0.81159100  1
  C  C108  1  0.34470200  0.68479700  0.68840900  1
  C  C109  1  0.84470200  0.81520300  0.31159100  1
  C  C110  1  0.65529800  0.18479700  0.81159100  1
  C  C111  1  0.15529800  0.31520300  0.18840900  1
