# generated using pymatgen
data_CuNi6C
_symmetry_space_group_name_H-M   'P 1'
_cell_length_a   5.33220100
_cell_length_b   6.77352000
_cell_length_c   11.91677300
_cell_angle_alpha   90.00000000
_cell_angle_beta   90.00000000
_cell_angle_gamma   90.00000000
_symmetry_Int_Tables_number   1
_chemical_formula_structural   CuNi6C
_chemical_formula_sum   'Cu2 Ni12 C2'
_cell_volume   430.40726776
_cell_formula_units_Z   2
loop_
 _symmetry_equiv_pos_site_id
 _symmetry_equiv_pos_as_xyz
  1  'x, y, z'
loop_
 _atom_site_type_symbol
 _atom_site_label
 _atom_site_symmetry_multiplicity
 _atom_site_fract_x
 _atom_site_fract_y
 _atom_site_fract_z
 _atom_site_occupancy
  C  C0  1  0.00000000  0.00000000  0.16163000  1
  C  C1  1  0.00000000  0.50000000  0.66163000  1
  Ni  Ni2  1  0.50000000  0.71997300  0.07422600  1
  Ni  Ni3  1  0.50000000  0.28002700  0.07422600  1
  Ni  Ni4  1  0.50000000  0.50000000  0.33343000  1
  Ni  Ni5  1  0.00000000  0.23354500  0.41151000  1
  Ni  Ni6  1  0.00000000  0.76645500  0.41151000  1
  Ni  Ni7  1  0.00000000  0.50000000  0.17247300  1
  Ni  Ni8  1  0.50000000  0.21997300  0.57422600  1
  Ni  Ni9  1  0.50000000  0.78002700  0.57422600  1
  Ni  Ni10  1  0.50000000  0.00000000  0.83343000  1
  Ni  Ni11  1  0.00000000  0.73354500  0.91151000  1
  Ni  Ni12  1  0.00000000  0.26645500  0.91151000  1
  Ni  Ni13  1  0.00000000  0.00000000  0.67247300  1
  Cu  Cu14  1  0.50000000  0.00000000  0.36099100  1
  Cu  Cu15  1  0.50000000  0.50000000  0.86099100  1
