# generated using pymatgen
data_Cu3Ni43C14
_symmetry_space_group_name_H-M   'P 1'
_cell_length_a   4.47243100
_cell_length_b   15.48671400
_cell_length_c   17.32340696
_cell_angle_alpha   89.88326123
_cell_angle_beta   90.00000000
_cell_angle_gamma   90.00000000
_symmetry_Int_Tables_number   1
_chemical_formula_structural   Cu3Ni43C14
_chemical_formula_sum   'Cu3 Ni43 C14'
_cell_volume   1199.87314587
_cell_formula_units_Z   1
loop_
 _symmetry_equiv_pos_site_id
 _symmetry_equiv_pos_as_xyz
  1  'x, y, z'
loop_
 _atom_site_type_symbol
 _atom_site_label
 _atom_site_symmetry_multiplicity
 _atom_site_fract_x
 _atom_site_fract_y
 _atom_site_fract_z
 _atom_site_occupancy
  C  C0  1  0.50000000  0.33189300  0.31856900  1
  C  C1  1  0.50000000  0.66984600  0.68139600  1
  C  C2  1  0.50000000  0.82988000  0.18176000  1
  C  C3  1  0.50000000  0.16914100  0.81767700  1
  C  C4  1  0.50000000  0.08565800  0.24637400  1
  C  C5  1  0.50000000  0.91536400  0.75448300  1
  C  C6  1  0.50000000  0.58511200  0.25535400  1
  C  C7  1  0.50000000  0.41468000  0.74575700  1
  C  C8  1  0.00000000  0.33762700  0.04404800  1
  C  C9  1  0.00000000  0.66225300  0.95638000  1
  C  C10  1  0.00000000  0.83653200  0.45560400  1
  C  C11  1  0.00000000  0.16280900  0.54382900  1
  C  C12  1  0.50000000  0.50030600  0.49934400  1
  C  C13  1  0.50000000  0.99981000  0.99938800  1
  Ni  Ni14  1  0.00000000  0.19525100  0.35819500  1
  Ni  Ni15  1  0.00000000  0.80507500  0.64149900  1
  Ni  Ni16  1  0.00000000  0.69494800  0.14173900  1
  Ni  Ni17  1  0.00000000  0.30500800  0.85833100  1
  Ni  Ni18  1  0.00000000  0.14548100  0.09795000  1
  Ni  Ni19  1  0.00000000  0.85435900  0.90196600  1
  Ni  Ni20  1  0.00000000  0.63775800  0.40032900  1
  Ni  Ni21  1  0.00000000  0.35389900  0.59755700  1
  Ni  Ni22  1  0.00000000  0.42402700  0.21573300  1
  Ni  Ni23  1  0.00000000  0.57829700  0.78887100  1
  Ni  Ni24  1  0.00000000  0.92120000  0.28907000  1
  Ni  Ni25  1  0.00000000  0.07837500  0.71094400  1
  Ni  Ni26  1  0.00000000  0.24389700  0.21892800  1
  Ni  Ni27  1  0.00000000  0.75639600  0.78122200  1
  Ni  Ni28  1  0.00000000  0.74286400  0.28139900  1
  Ni  Ni29  1  0.00000000  0.25662600  0.71917700  1
  Ni  Ni30  1  0.00000000  0.34672700  0.44684300  1
  Ni  Ni31  1  0.00000000  0.65832500  0.54957400  1
  Ni  Ni32  1  0.00000000  0.84189200  0.05042300  1
  Ni  Ni33  1  0.00000000  0.15811600  0.94945800  1
  Ni  Ni34  1  0.50000000  0.42732400  0.14084500  1
  Ni  Ni35  1  0.50000000  0.57281000  0.85923300  1
  Ni  Ni36  1  0.50000000  0.92680900  0.35997300  1
  Ni  Ni37  1  0.50000000  0.07320800  0.64077700  1
  Ni  Ni38  1  0.50000000  0.25181000  0.14652200  1
  Ni  Ni39  1  0.50000000  0.74873700  0.85335600  1
  Ni  Ni40  1  0.50000000  0.75206400  0.35308100  1
  Ni  Ni41  1  0.50000000  0.24842800  0.64674100  1
  Ni  Ni42  1  0.00000000  0.03405800  0.40168800  1
  Ni  Ni43  1  0.00000000  0.96601600  0.59849800  1
  Ni  Ni44  1  0.00000000  0.53309000  0.09867600  1
  Ni  Ni45  1  0.00000000  0.46571500  0.90163800  1
  Ni  Ni46  1  0.50000000  0.14863900  0.41885800  1
  Ni  Ni47  1  0.50000000  0.85158900  0.58073800  1
  Ni  Ni48  1  0.50000000  0.64862900  0.08126800  1
  Ni  Ni49  1  0.50000000  0.35152900  0.91962500  1
  Ni  Ni50  1  0.50000000  0.50004900  0.00014900  1
  Ni  Ni51  1  0.50000000  0.00013300  0.50008000  1
  Ni  Ni52  1  0.50000000  0.20149200  0.00651200  1
  Ni  Ni53  1  0.50000000  0.79896400  0.99329100  1
  Ni  Ni54  1  0.50000000  0.70127200  0.49278500  1
  Ni  Ni55  1  0.50000000  0.29964300  0.50622600  1
  Ni  Ni56  1  0.00000000  0.48042400  0.35775000  1
  Cu  Cu57  1  0.00000000  0.51830600  0.64180000  1
  Cu  Cu58  1  0.00000000  0.98161100  0.14258300  1
  Cu  Cu59  1  0.00000000  0.01821800  0.85813500  1
