# generated using pymatgen
data_Cu3(Ni2C)2
_symmetry_space_group_name_H-M   'P 1'
_cell_length_a   6.35091700
_cell_length_b   8.25936860
_cell_length_c   8.98016341
_cell_angle_alpha   79.54659061
_cell_angle_beta   87.50006531
_cell_angle_gamma   80.96600384
_symmetry_Int_Tables_number   1
_chemical_formula_structural   Cu3(Ni2C)2
_chemical_formula_sum   'Cu6 Ni8 C4'
_cell_volume   457.43067685
_cell_formula_units_Z   2
loop_
 _symmetry_equiv_pos_site_id
 _symmetry_equiv_pos_as_xyz
  1  'x, y, z'
loop_
 _atom_site_type_symbol
 _atom_site_label
 _atom_site_symmetry_multiplicity
 _atom_site_fract_x
 _atom_site_fract_y
 _atom_site_fract_z
 _atom_site_occupancy
  C  C0  1  0.50000000  0.00000000  0.50000000  1
  C  C1  1  0.00000000  0.00000000  0.00000000  1
  C  C2  1  0.74732300  0.56943700  0.85911400  1
  C  C3  1  0.25267700  0.43056300  0.14088600  1
  Ni  Ni4  1  0.31641500  0.81889000  0.01433600  1
  Ni  Ni5  1  0.68358500  0.18111000  0.98566400  1
  Ni  Ni6  1  0.20374500  0.37457700  0.89809300  1
  Ni  Ni7  1  0.79625500  0.62542300  0.10190700  1
  Ni  Ni8  1  0.98550600  0.13956600  0.33979500  1
  Ni  Ni9  1  0.01449400  0.86043400  0.66020500  1
  Ni  Ni10  1  0.31594900  0.47831000  0.38214900  1
  Ni  Ni11  1  0.68405100  0.52169000  0.61785100  1
  Cu  Cu12  1  0.74043900  0.79808600  0.46988300  1
  Cu  Cu13  1  0.25956100  0.20191400  0.53011700  1
  Cu  Cu14  1  0.28289700  0.08040400  0.32331300  1
  Cu  Cu15  1  0.71710300  0.91959600  0.67668700  1
  Cu  Cu16  1  0.26949700  0.86024200  0.62689900  1
  Cu  Cu17  1  0.73050300  0.13975800  0.37310100  1
