# generated using pymatgen
data_CuNiC12
_symmetry_space_group_name_H-M   'P 1'
_cell_length_a   14.81141551
_cell_length_b   14.77186914
_cell_length_c   14.78628328
_cell_angle_alpha   90.00000000
_cell_angle_beta   90.00000000
_cell_angle_gamma   90.00000000
_symmetry_Int_Tables_number   1
_chemical_formula_structural   CuNiC12
_chemical_formula_sum   'Cu16 Ni16 C192'
_cell_volume   3235.12480444
_cell_formula_units_Z   16
loop_
 _symmetry_equiv_pos_site_id
 _symmetry_equiv_pos_as_xyz
  1  'x, y, z'
loop_
 _atom_site_type_symbol
 _atom_site_label
 _atom_site_symmetry_multiplicity
 _atom_site_fract_x
 _atom_site_fract_y
 _atom_site_fract_z
 _atom_site_occupancy
  Ni  Ni0  1  0.11574360  0.86576975  0.37654937  1
  Ni  Ni1  1  0.38425640  0.13423025  0.87654937  1
  Ni  Ni2  1  0.61574360  0.63423025  0.62345063  1
  Ni  Ni3  1  0.88425640  0.36576975  0.12345063  1
  Ni  Ni4  1  0.62592594  0.12348681  0.37490915  1
  Ni  Ni5  1  0.87407406  0.87651319  0.87490915  1
  Ni  Ni6  1  0.12592594  0.37651319  0.62509085  1
  Ni  Ni7  1  0.37407406  0.62348681  0.12509085  1
  Ni  Ni8  1  0.62219148  0.87341488  0.12461269  1
  Ni  Ni9  1  0.87780852  0.12658512  0.62461269  1
  Ni  Ni10  1  0.12219148  0.62658512  0.87538731  1
  Ni  Ni11  1  0.37780852  0.37341488  0.37538731  1
  Ni  Ni12  1  0.86692604  0.61488839  0.37264564  1
  Ni  Ni13  1  0.63307396  0.38511161  0.87264564  1
  Ni  Ni14  1  0.36692604  0.88511161  0.62735436  1
  Ni  Ni15  1  0.13307396  0.11488839  0.12735436  1
  Cu  Cu16  1  0.00088726  0.50894595  0.50682220  1
  Cu  Cu17  1  0.49911274  0.49105405  0.00682220  1
  Cu  Cu18  1  0.50088726  0.99105405  0.49317780  1
  Cu  Cu19  1  0.99911274  0.00894595  0.99317780  1
  Cu  Cu20  1  0.50186322  0.49424069  0.50308752  1
  Cu  Cu21  1  0.99813678  0.50575931  0.00308752  1
  Cu  Cu22  1  0.00186322  0.00575931  0.49691248  1
  Cu  Cu23  1  0.49813678  0.99424069  0.99691248  1
  Cu  Cu24  1  0.25444082  0.75549257  0.25087684  1
  Cu  Cu25  1  0.24555918  0.24450743  0.75087684  1
  Cu  Cu26  1  0.75444082  0.74450743  0.74912316  1
  Cu  Cu27  1  0.74555918  0.25549257  0.24912316  1
  Cu  Cu28  1  0.75772107  0.75584098  0.24795900  1
  Cu  Cu29  1  0.74227893  0.24415902  0.74795900  1
  Cu  Cu30  1  0.25772107  0.74415902  0.75204100  1
  Cu  Cu31  1  0.24227893  0.25584098  0.25204100  1
  C  C32  1  0.47235757  0.02475300  0.23326970  1
  C  C33  1  0.02764243  0.97524700  0.73326970  1
  C  C34  1  0.97235757  0.47524700  0.76673030  1
  C  C35  1  0.52764243  0.52475300  0.26673030  1
  C  C36  1  0.27520493  0.00376990  0.27767899  1
  C  C37  1  0.22479507  0.99623010  0.77767899  1
  C  C38  1  0.77520493  0.49623010  0.72232101  1
  C  C39  1  0.72479507  0.50376990  0.22232101  1
  C  C40  1  0.25599506  0.02428005  0.47610304  1
  C  C41  1  0.24400494  0.97571995  0.97610304  1
  C  C42  1  0.75599506  0.47571995  0.52389696  1
  C  C43  1  0.74400494  0.52428005  0.02389696  1
  C  C44  1  0.27339148  0.22366414  0.51504921  1
  C  C45  1  0.22660852  0.77633586  0.01504921  1
  C  C46  1  0.77339148  0.27633586  0.48495079  1
  C  C47  1  0.72660852  0.72366414  0.98495079  1
  C  C48  1  0.47232593  0.23432917  0.52443076  1
  C  C49  1  0.02767407  0.76567083  0.02443076  1
  C  C50  1  0.97232593  0.26567083  0.47556924  1
  C  C51  1  0.52767407  0.73432917  0.97556924  1
  C  C52  1  0.49659218  0.27659970  0.72189784  1
  C  C53  1  0.00340782  0.72340030  0.22189784  1
  C  C54  1  0.99659218  0.22340030  0.27810216  1
  C  C55  1  0.50340782  0.77659970  0.77810216  1
  C  C56  1  0.47529612  0.47534406  0.73695157  1
  C  C57  1  0.02470388  0.52465594  0.23695157  1
  C  C58  1  0.97529612  0.02465594  0.26304843  1
  C  C59  1  0.52470388  0.97534406  0.76304843  1
  C  C60  1  0.27630296  0.49336003  0.77751451  1
  C  C61  1  0.22369704  0.50663997  0.27751451  1
  C  C62  1  0.77630296  0.00663997  0.22248549  1
  C  C63  1  0.72369704  0.99336003  0.72248549  1
  C  C64  1  0.26259315  0.47533273  0.97634671  1
  C  C65  1  0.23740685  0.52466727  0.47634671  1
  C  C66  1  0.76259315  0.02466727  0.02365329  1
  C  C67  1  0.73740685  0.97533273  0.52365329  1
  C  C68  1  0.22740679  0.27548047  0.99146383  1
  C  C69  1  0.27259321  0.72451953  0.49146383  1
  C  C70  1  0.72740679  0.22451953  0.00853617  1
  C  C71  1  0.77259321  0.77548047  0.50853617  1
  C  C72  1  0.03009072  0.25335500  0.97245657  1
  C  C73  1  0.46990928  0.74664500  0.47245657  1
  C  C74  1  0.53009072  0.24664500  0.02754343  1
  C  C75  1  0.96990928  0.75335500  0.52754343  1
  C  C76  1  0.98436428  0.27585465  0.77552994  1
  C  C77  1  0.51563572  0.72414535  0.27552994  1
  C  C78  1  0.48436428  0.22414535  0.22447006  1
  C  C79  1  0.01563572  0.77585465  0.72447006  1
  C  C80  1  0.52054481  0.97475704  0.15886528  1
  C  C81  1  0.97945519  0.02524296  0.65886528  1
  C  C82  1  0.02054481  0.52524296  0.84113472  1
  C  C83  1  0.47945519  0.47475704  0.34113472  1
  C  C84  1  0.37403963  0.97850735  0.23942259  1
  C  C85  1  0.12596037  0.02149265  0.73942259  1
  C  C86  1  0.87403963  0.52149265  0.76057741  1
  C  C87  1  0.62596037  0.47850735  0.26057741  1
  C  C88  1  0.44701465  0.12490214  0.19671129  1
  C  C89  1  0.05298535  0.87509786  0.69671129  1
  C  C90  1  0.94701465  0.37509786  0.80328871  1
  C  C91  1  0.55298535  0.62490214  0.30328871  1
  C  C92  1  0.51670026  0.03073731  0.32444496  1
  C  C93  1  0.98329974  0.96926269  0.82444496  1
  C  C94  1  0.01670026  0.46926269  0.67555504  1
  C  C95  1  0.48329974  0.53073731  0.17555504  1
  C  C96  1  0.30054793  0.04063056  0.37745977  1
  C  C97  1  0.19945207  0.95936944  0.87745977  1
  C  C98  1  0.80054793  0.45936944  0.62254023  1
  C  C99  1  0.69945207  0.54063056  0.12254023  1
  C  C100  1  0.22395035  0.91610885  0.28315601  1
  C  C101  1  0.27604965  0.08389115  0.78315601  1
  C  C102  1  0.72395035  0.58389115  0.71684399  1
  C  C103  1  0.77604965  0.41610885  0.21684399  1
  C  C104  1  0.23583508  0.08161027  0.22566835  1
  C  C105  1  0.26416492  0.91838973  0.72566835  1
  C  C106  1  0.73583508  0.41838973  0.77433165  1
  C  C107  1  0.76416492  0.58161027  0.27433165  1
  C  C108  1  0.22733916  0.12529903  0.50542776  1
  C  C109  1  0.27266084  0.87470097  0.00542776  1
  C  C110  1  0.72733916  0.37470097  0.49457224  1
  C  C111  1  0.77266084  0.62529903  0.99457224  1
  C  C112  1  0.16996407  0.97096207  0.46933991  1
  C  C113  1  0.33003593  0.02903793  0.96933991  1
  C  C114  1  0.66996407  0.52903793  0.53066009  1
  C  C115  1  0.83003593  0.47096207  0.03066009  1
  C  C116  1  0.33112587  0.99132536  0.53566962  1
  C  C117  1  0.16887413  0.00867464  0.03566962  1
  C  C118  1  0.83112587  0.50867464  0.46433038  1
  C  C119  1  0.66887413  0.49132536  0.96433038  1
  C  C120  1  0.22218036  0.27094047  0.58926338  1
  C  C121  1  0.27781964  0.72905953  0.08926338  1
  C  C122  1  0.72218036  0.22905953  0.41073662  1
  C  C123  1  0.77781964  0.77094047  0.91073662  1
  C  C124  1  0.28048686  0.26824700  0.42417104  1
  C  C125  1  0.21951314  0.73175300  0.92417104  1
  C  C126  1  0.78048686  0.23175300  0.57582896  1
  C  C127  1  0.71951314  0.76824700  0.07582896  1
  C  C128  1  0.37290635  0.19872540  0.55355157  1
  C  C129  1  0.12709365  0.80127460  0.05355157  1
  C  C130  1  0.87290635  0.30127460  0.44644843  1
  C  C131  1  0.62709365  0.69872540  0.94644843  1
  C  C132  1  0.52123273  0.24259487  0.62135057  1
  C  C133  1  0.97876727  0.75740513  0.12135057  1
  C  C134  1  0.02123273  0.25740513  0.37864943  1
  C  C135  1  0.47876727  0.74259487  0.87864943  1
  C  C136  1  0.52000366  0.16078228  0.47350614  1
  C  C137  1  0.97999634  0.83921772  0.97350614  1
  C  C138  1  0.02000366  0.33921772  0.52649386  1
  C  C139  1  0.47999634  0.66078228  0.02649386  1
  C  C140  1  0.46578303  0.32660244  0.48163380  1
  C  C141  1  0.03421697  0.67339756  0.98163380  1
  C  C142  1  0.96578303  0.17339756  0.51836620  1
  C  C143  1  0.53421697  0.82660244  0.01836620  1
  C  C144  1  0.45070445  0.37423377  0.70204280  1
  C  C145  1  0.04929555  0.62576623  0.20204280  1
  C  C146  1  0.95070445  0.12576623  0.29795720  1
  C  C147  1  0.54929555  0.87423377  0.79795720  1
  C  C148  1  0.58547136  0.28738382  0.76989583  1
  C  C149  1  0.91452864  0.71261618  0.26989583  1
  C  C150  1  0.08547136  0.21261618  0.23010417  1
  C  C151  1  0.41452864  0.78738382  0.73010417  1
  C  C152  1  0.42538835  0.21758180  0.76335175  1
  C  C153  1  0.07461165  0.78241820  0.26335175  1
  C  C154  1  0.92538835  0.28241820  0.23664825  1
  C  C155  1  0.57461165  0.71758180  0.73664825  1
  C  C156  1  0.52017754  0.47138313  0.82779818  1
  C  C157  1  0.97982246  0.52861687  0.32779818  1
  C  C158  1  0.02017754  0.02861687  0.17220182  1
  C  C159  1  0.47982246  0.97138313  0.67220182  1
  C  C160  1  0.52190806  0.52509828  0.66129546  1
  C  C161  1  0.97809194  0.47490172  0.16129546  1
  C  C162  1  0.02190806  0.97490172  0.33870454  1
  C  C163  1  0.47809194  0.02509828  0.83870454  1
  C  C164  1  0.37641744  0.51952208  0.74404732  1
  C  C165  1  0.12358256  0.48047792  0.24404732  1
  C  C166  1  0.87641744  0.98047792  0.25595268  1
  C  C167  1  0.62358256  0.01952208  0.75595268  1
  C  C168  1  0.22880773  0.58285582  0.78706115  1
  C  C169  1  0.27119227  0.41714418  0.28706115  1
  C  C170  1  0.72880773  0.91714418  0.21293885  1
  C  C171  1  0.77119227  0.08285582  0.71293885  1
  C  C172  1  0.23468443  0.42112996  0.71969250  1
  C  C173  1  0.26531557  0.57887004  0.21969250  1
  C  C174  1  0.73468443  0.07887004  0.28030750  1
  C  C175  1  0.76531557  0.92112996  0.78030750  1
  C  C176  1  0.29644041  0.44869451  0.87554132  1
  C  C177  1  0.20355959  0.55130549  0.37554132  1
  C  C178  1  0.79644041  0.05130549  0.12445868  1
  C  C179  1  0.70355959  0.94869451  0.62445868  1
  C  C180  1  0.33829888  0.52244589  0.02521542  1
  C  C181  1  0.16170112  0.47755411  0.52521542  1
  C  C182  1  0.83829888  0.97755411  0.97478458  1
  C  C183  1  0.66170112  0.02244589  0.47478458  1
  C  C184  1  0.17204604  0.52067504  0.97224246  1
  C  C185  1  0.32795396  0.47932496  0.47224246  1
  C  C186  1  0.67204604  0.97932496  0.02775754  1
  C  C187  1  0.82795396  0.02067504  0.52775754  1
  C  C188  1  0.25572656  0.37638521  0.02153959  1
  C  C189  1  0.24427344  0.62361479  0.52153959  1
  C  C190  1  0.75572656  0.12361479  0.97846041  1
  C  C191  1  0.74427344  0.87638521  0.47846041  1
  C  C192  1  0.12870609  0.29327807  0.94713241  1
  C  C193  1  0.37129391  0.70672193  0.44713241  1
  C  C194  1  0.62870609  0.20672193  0.05286759  1
  C  C195  1  0.87129391  0.79327807  0.55286759  1
  C  C196  1  0.22085957  0.22262075  0.07783569  1
  C  C197  1  0.27914043  0.77737925  0.57783569  1
  C  C198  1  0.72085957  0.27737925  0.92216431  1
  C  C199  1  0.77914043  0.72262075  0.42216431  1
  C  C200  1  0.28663195  0.24101044  0.91621193  1
  C  C201  1  0.21336805  0.75898956  0.41621193  1
  C  C202  1  0.78663195  0.25898956  0.08378807  1
  C  C203  1  0.71336805  0.74101044  0.58378807  1
  C  C204  1  0.03854689  0.16481710  0.02200421  1
  C  C205  1  0.46145311  0.83518290  0.52200421  1
  C  C206  1  0.53854689  0.33518290  0.97799579  1
  C  C207  1  0.96145311  0.66481710  0.47799579  1
  C  C208  1  0.97611321  0.32795260  0.01511735  1
  C  C209  1  0.52388679  0.67204740  0.51511735  1
  C  C210  1  0.47611321  0.17204740  0.98488265  1
  C  C211  1  0.02388679  0.82795260  0.48488265  1
  C  C212  1  0.99223664  0.22827596  0.87338419  1
  C  C213  1  0.50776336  0.77172404  0.37338419  1
  C  C214  1  0.49223664  0.27172404  0.12661581  1
  C  C215  1  0.00776336  0.72827596  0.62661581  1
  C  C216  1  0.07548129  0.28304112  0.73137152  1
  C  C217  1  0.42451871  0.71695888  0.23137152  1
  C  C218  1  0.57548129  0.21695888  0.26862848  1
  C  C219  1  0.92451871  0.78304112  0.76862848  1
  C  C220  1  0.90998859  0.22645418  0.72702973  1
  C  C221  1  0.59001141  0.77354582  0.22702973  1
  C  C222  1  0.40998859  0.27354582  0.27297027  1
  C  C223  1  0.09001141  0.72645418  0.77297027  1
