# generated using pymatgen
data_Cu2Ni2C5
_symmetry_space_group_name_H-M   'P 1'
_cell_length_a   10.99269559
_cell_length_b   10.99269559
_cell_length_c   10.99269559
_cell_angle_alpha   160.60254298
_cell_angle_beta   160.60254298
_cell_angle_gamma   27.56643948
_symmetry_Int_Tables_number   1
_chemical_formula_structural   Cu2Ni2C5
_chemical_formula_sum   'Cu2 Ni2 C5'
_cell_volume   146.45877276
_cell_formula_units_Z   1
loop_
 _symmetry_equiv_pos_site_id
 _symmetry_equiv_pos_as_xyz
  1  'x, y, z'
loop_
 _atom_site_type_symbol
 _atom_site_label
 _atom_site_symmetry_multiplicity
 _atom_site_fract_x
 _atom_site_fract_y
 _atom_site_fract_z
 _atom_site_occupancy
  Ni  Ni0  1  0.08518000  0.08518000  0.00000000  1
  Ni  Ni1  1  0.91482000  0.91482000  0.00000000  1
  Cu  Cu2  1  0.19476500  0.19476500  0.00000000  1
  Cu  Cu3  1  0.80523500  0.80523500  0.00000000  1
  C  C4  1  0.90054800  0.40054800  0.50000000  1
  C  C5  1  0.40054800  0.90054800  0.50000000  1
  C  C6  1  0.09945200  0.59945200  0.50000000  1
  C  C7  1  0.59945200  0.09945200  0.50000000  1
  C  C8  1  0.00000000  0.00000000  0.00000000  1
