# generated using pymatgen
data_CuNiC4
_symmetry_space_group_name_H-M   'P 1'
_cell_length_a   7.40411867
_cell_length_b   7.40411867
_cell_length_c   13.90877424
_cell_angle_alpha   89.88573257
_cell_angle_beta   89.88573257
_cell_angle_gamma   120.47339928
_symmetry_Int_Tables_number   1
_chemical_formula_structural   CuNiC4
_chemical_formula_sum   'Cu8 Ni8 C32'
_cell_volume   657.16010313
_cell_formula_units_Z   8
loop_
 _symmetry_equiv_pos_site_id
 _symmetry_equiv_pos_as_xyz
  1  'x, y, z'
loop_
 _atom_site_type_symbol
 _atom_site_label
 _atom_site_symmetry_multiplicity
 _atom_site_fract_x
 _atom_site_fract_y
 _atom_site_fract_z
 _atom_site_occupancy
  C  C0  1  0.81489000  0.78208400  0.12063500  1
  C  C1  1  0.21791600  0.18511000  0.37936500  1
  C  C2  1  0.18511000  0.21791600  0.87936500  1
  C  C3  1  0.78208400  0.81489000  0.62063500  1
  Ni  Ni4  1  0.76889200  0.23110800  0.25000000  1
  Ni  Ni5  1  0.23110800  0.76889200  0.75000000  1
  Ni  Ni6  1  0.22923200  0.77076800  0.25000000  1
  Ni  Ni7  1  0.77076800  0.22923200  0.75000000  1
  Ni  Ni8  1  0.19723300  0.72737000  0.50878100  1
  Ni  Ni9  1  0.27263000  0.80276700  0.99121900  1
  Ni  Ni10  1  0.80276700  0.27263000  0.49121900  1
  Ni  Ni11  1  0.72737000  0.19723300  0.00878100  1
  Cu  Cu12  1  0.58850400  0.84091700  0.36634200  1
  Cu  Cu13  1  0.15908300  0.41149600  0.13365800  1
  Cu  Cu14  1  0.41149600  0.15908300  0.63365800  1
  Cu  Cu15  1  0.84091700  0.58850400  0.86634200  1
  Cu  Cu16  1  0.78290400  0.57279900  0.37885600  1
  Cu  Cu17  1  0.42720100  0.21709600  0.12114400  1
  Cu  Cu18  1  0.21709600  0.42720100  0.62114400  1
  Cu  Cu19  1  0.57279900  0.78290400  0.87885600  1
  C  C20  1  0.35092900  0.79844100  0.38547000  1
  C  C21  1  0.20155900  0.64907100  0.11453000  1
  C  C22  1  0.64907100  0.20155900  0.61453000  1
  C  C23  1  0.79844100  0.35092900  0.88547000  1
  C  C24  1  0.94553600  0.71329800  0.29472700  1
  C  C25  1  0.28670200  0.05446400  0.20527300  1
  C  C26  1  0.05446400  0.28670200  0.70527300  1
  C  C27  1  0.71329800  0.94553600  0.79472700  1
  C  C28  1  0.89029300  0.61167600  0.48546100  1
  C  C29  1  0.38832400  0.10970700  0.01453900  1
  C  C30  1  0.10970700  0.38832400  0.51453900  1
  C  C31  1  0.61167600  0.89029300  0.98546100  1
  C  C32  1  0.67719900  0.31716600  0.36576400  1
  C  C33  1  0.68283400  0.32280100  0.13423600  1
  C  C34  1  0.32280100  0.68283400  0.63423600  1
  C  C35  1  0.31716600  0.67719900  0.86576400  1
  C  C36  1  0.57657500  0.60844100  0.37868700  1
  C  C37  1  0.39155900  0.42342500  0.12131300  1
  C  C38  1  0.42342500  0.39155900  0.62131300  1
  C  C39  1  0.60844100  0.57657500  0.87868700  1
  C  C40  1  0.63975700  0.92155700  0.25419500  1
  C  C41  1  0.07844300  0.36024300  0.24580500  1
  C  C42  1  0.36024300  0.07844300  0.74580500  1
  C  C43  1  0.92155700  0.63975700  0.75419500  1
  C  C44  1  0.76723200  0.99879300  0.44213400  1
  C  C45  1  0.00120700  0.23276800  0.05786600  1
  C  C46  1  0.23276800  0.00120700  0.55786600  1
  C  C47  1  0.99879300  0.76723200  0.94213400  1
