# generated using pymatgen
data_Cu2Ni3C4
_symmetry_space_group_name_H-M   'P 1'
_cell_length_a   6.40041400
_cell_length_b   13.63159600
_cell_length_c   3.55926100
_cell_angle_alpha   90.00000000
_cell_angle_beta   90.00000000
_cell_angle_gamma   90.00000000
_symmetry_Int_Tables_number   1
_chemical_formula_structural   Cu2Ni3C4
_chemical_formula_sum   'Cu4 Ni6 C8'
_cell_volume   310.53789789
_cell_formula_units_Z   2
loop_
 _symmetry_equiv_pos_site_id
 _symmetry_equiv_pos_as_xyz
  1  'x, y, z'
loop_
 _atom_site_type_symbol
 _atom_site_label
 _atom_site_symmetry_multiplicity
 _atom_site_fract_x
 _atom_site_fract_y
 _atom_site_fract_z
 _atom_site_occupancy
  C  C0  1  0.70452600  0.93632200  0.50000000  1
  C  C1  1  0.29547400  0.06367800  0.50000000  1
  C  C2  1  0.20452600  0.56367800  0.00000000  1
  C  C3  1  0.79547400  0.43632200  0.00000000  1
  C  C4  1  0.79321900  0.65339000  0.50000000  1
  C  C5  1  0.20678100  0.34661000  0.50000000  1
  C  C6  1  0.29321900  0.84661000  0.00000000  1
  C  C7  1  0.70678100  0.15339000  0.00000000  1
  Ni  Ni8  1  0.50000000  0.50000000  0.50000000  1
  Ni  Ni9  1  0.00000000  0.00000000  0.00000000  1
  Ni  Ni10  1  0.81344600  0.29356500  0.50000000  1
  Ni  Ni11  1  0.18655400  0.70643500  0.50000000  1
  Ni  Ni12  1  0.31344600  0.20643500  0.00000000  1
  Ni  Ni13  1  0.68655400  0.79356500  0.00000000  1
  Cu  Cu14  1  0.62023800  0.08266300  0.50000000  1
  Cu  Cu15  1  0.37976200  0.91733700  0.50000000  1
  Cu  Cu16  1  0.12023800  0.41733700  0.00000000  1
  Cu  Cu17  1  0.87976200  0.58266300  0.00000000  1
