# generated using pymatgen
data_Cu22NiC26
_symmetry_space_group_name_H-M   'P 1'
_cell_length_a   8.95984200
_cell_length_b   11.18284898
_cell_length_c   11.93035085
_cell_angle_alpha   66.55534044
_cell_angle_beta   74.04467660
_cell_angle_gamma   79.87332021
_symmetry_Int_Tables_number   1
_chemical_formula_structural   Cu22NiC26
_chemical_formula_sum   'Cu44 Ni2 C52'
_cell_volume   1051.44969978
_cell_formula_units_Z   2
loop_
 _symmetry_equiv_pos_site_id
 _symmetry_equiv_pos_as_xyz
  1  'x, y, z'
loop_
 _atom_site_type_symbol
 _atom_site_label
 _atom_site_symmetry_multiplicity
 _atom_site_fract_x
 _atom_site_fract_y
 _atom_site_fract_z
 _atom_site_occupancy
  C  C0  1  0.61788900  0.73338800  0.80430200  1
  C  C1  1  0.38211100  0.26661200  0.19569800  1
  C  C2  1  0.19353800  0.98584200  0.05420800  1
  C  C3  1  0.80646200  0.01415800  0.94579200  1
  C  C4  1  0.94584000  0.92472000  0.31536000  1
  C  C5  1  0.05416000  0.07528000  0.68464000  1
  C  C6  1  0.79478300  0.29491100  0.02423600  1
  C  C7  1  0.20521700  0.70508900  0.97576400  1
  C  C8  1  0.85474900  0.73517000  0.20578100  1
  C  C9  1  0.14525100  0.26483000  0.79421900  1
  C  C10  1  0.21095500  0.72840000  0.24908500  1
  C  C11  1  0.78904500  0.27160000  0.75091500  1
  C  C12  1  0.66770900  0.95232700  0.62932800  1
  C  C13  1  0.33229100  0.04767300  0.37067200  1
  C  C14  1  0.35312400  0.80595800  0.61982400  1
  C  C15  1  0.64687600  0.19404200  0.38017600  1
  C  C16  1  0.76411300  0.02407800  0.15413300  1
  C  C17  1  0.23588700  0.97592200  0.84586700  1
  C  C18  1  0.93173600  0.45724800  0.71534800  1
  C  C19  1  0.06826400  0.54275200  0.28465200  1
  C  C20  1  0.40010400  0.65267300  0.81444800  1
  C  C21  1  0.59989600  0.34732700  0.18555200  1
  C  C22  1  0.61555500  0.48837200  0.85054700  1
  C  C23  1  0.38444500  0.51162800  0.14945300  1
  C  C24  1  0.47849200  0.73991900  0.02185700  1
  C  C25  1  0.52150800  0.26008100  0.97814300  1
  C  C26  1  0.63659900  0.79839400  0.00555000  1
  C  C27  1  0.36340100  0.20160600  0.99445000  1
  C  C28  1  0.92368500  0.85917700  0.80704500  1
  C  C29  1  0.07631500  0.14082300  0.19295500  1
  C  C30  1  0.64399800  0.17015600  0.44951800  1
  C  C31  1  0.35600200  0.82984400  0.55048200  1
  C  C32  1  0.86259900  0.51723500  0.94552900  1
  C  C33  1  0.13740100  0.48276500  0.05447100  1
  C  C34  1  0.92594700  0.63074800  0.03988800  1
  C  C35  1  0.07405300  0.36925200  0.96011200  1
  C  C36  1  0.43420700  0.90641800  0.26626900  1
  C  C37  1  0.56579300  0.09358200  0.73373100  1
  C  C38  1  0.57205800  0.88952900  0.33053900  1
  C  C39  1  0.42794200  0.11047100  0.66946100  1
  C  C40  1  0.57109700  0.60454100  0.45809900  1
  C  C41  1  0.42890300  0.39545900  0.54190100  1
  C  C42  1  0.40264700  0.52942600  0.35989000  1
  C  C43  1  0.59735300  0.47057400  0.64011000  1
  C  C44  1  0.82285700  0.38108900  0.36374900  1
  C  C45  1  0.17714300  0.61891100  0.63625100  1
  C  C46  1  0.91118700  0.26221300  0.48647400  1
  C  C47  1  0.08881300  0.73778700  0.51352600  1
  C  C48  1  0.50122700  0.68136900  0.54780800  1
  C  C49  1  0.49877300  0.31863100  0.45219200  1
  C  C50  1  0.11935000  0.77461800  0.63432900  1
  C  C51  1  0.88065000  0.22538200  0.36567100  1
  Ni  Ni52  1  0.09615500  0.69843500  0.61461800  1
  Ni  Ni53  1  0.90384500  0.30156500  0.38538200  1
  Cu  Cu54  1  0.05651400  0.06645600  0.17536600  1
  Cu  Cu55  1  0.94348600  0.93354400  0.82463400  1
  Cu  Cu56  1  0.33168100  0.90032100  0.13612600  1
  Cu  Cu57  1  0.66831900  0.09967900  0.86387400  1
  Cu  Cu58  1  0.79934200  0.08782000  0.06841100  1
  Cu  Cu59  1  0.20065800  0.91218000  0.93158900  1
  Cu  Cu60  1  0.25163300  0.13161600  0.93276400  1
  Cu  Cu61  1  0.74836700  0.86838400  0.06723600  1
  Cu  Cu62  1  0.05261700  0.85931900  0.15113900  1
  Cu  Cu63  1  0.94738300  0.14068100  0.84886100  1
  Cu  Cu64  1  0.87582600  0.01049800  0.40358000  1
  Cu  Cu65  1  0.12417400  0.98950200  0.59642000  1
  Cu  Cu66  1  0.78677200  0.86029600  0.29951100  1
  Cu  Cu67  1  0.21322800  0.13970400  0.70048900  1
  Cu  Cu68  1  0.08980600  0.80287500  0.37994000  1
  Cu  Cu69  1  0.91019400  0.19712500  0.62006000  1
  Cu  Cu70  1  0.02118000  0.30800800  0.94706900  1
  Cu  Cu71  1  0.97882000  0.69199200  0.05293100  1
  Cu  Cu72  1  0.64293500  0.26114600  0.17615300  1
  Cu  Cu73  1  0.35706500  0.73885400  0.82384700  1
  Cu  Cu74  1  0.29644400  0.68185700  0.09522400  1
  Cu  Cu75  1  0.70355600  0.31814300  0.90477600  1
  Cu  Cu76  1  0.03252800  0.62382200  0.30026800  1
  Cu  Cu77  1  0.96747200  0.37617800  0.69973200  1
  Cu  Cu78  1  0.73551300  0.61799900  0.28463900  1
  Cu  Cu79  1  0.26448700  0.38200100  0.71536100  1
  Cu  Cu80  1  0.34361300  0.62028200  0.32873700  1
  Cu  Cu81  1  0.65638700  0.37971800  0.67126300  1
  Cu  Cu82  1  0.72317200  0.86469000  0.65418200  1
  Cu  Cu83  1  0.27682800  0.13531000  0.34581800  1
  Cu  Cu84  1  0.79933400  0.46182600  0.02486900  1
  Cu  Cu85  1  0.20066600  0.53817400  0.97513100  1
  Cu  Cu86  1  0.58962000  0.57496500  0.79219500  1
  Cu  Cu87  1  0.41038000  0.42503500  0.20780500  1
  Cu  Cu88  1  0.58006000  0.76731400  0.96330600  1
  Cu  Cu89  1  0.41994000  0.23268600  0.03669400  1
  Cu  Cu90  1  0.90240300  0.69391300  0.79487800  1
  Cu  Cu91  1  0.09759700  0.30608700  0.20512200  1
  Cu  Cu92  1  0.94266800  0.65444600  0.69388600  1
  Cu  Cu93  1  0.05733200  0.34555400  0.30611400  1
  Cu  Cu94  1  0.54245700  0.09860600  0.65650800  1
  Cu  Cu95  1  0.45754300  0.90139400  0.34349200  1
  Cu  Cu96  1  0.51703500  0.59398600  0.54466800  1
  Cu  Cu97  1  0.48296500  0.40601400  0.45533200  1
