# generated using pymatgen
data_Cu(NiC)2
_symmetry_space_group_name_H-M   'P 1'
_cell_length_a   10.40063496
_cell_length_b   10.40063496
_cell_length_c   10.40063529
_cell_angle_alpha   21.34896683
_cell_angle_beta   21.34896683
_cell_angle_gamma   21.34896539
_symmetry_Int_Tables_number   1
_chemical_formula_structural   Cu(NiC)2
_chemical_formula_sum   'Cu1 Ni2 C2'
_cell_volume   130.62310862
_cell_formula_units_Z   1
loop_
 _symmetry_equiv_pos_site_id
 _symmetry_equiv_pos_as_xyz
  1  'x, y, z'
loop_
 _atom_site_type_symbol
 _atom_site_label
 _atom_site_symmetry_multiplicity
 _atom_site_fract_x
 _atom_site_fract_y
 _atom_site_fract_z
 _atom_site_occupancy
  C  C0  1  0.61952500  0.61952500  0.61952500  1
  C  C1  1  0.38047500  0.38047500  0.38047500  1
  Ni  Ni2  1  0.22403700  0.22403700  0.22403700  1
  Ni  Ni3  1  0.77596300  0.77596300  0.77596300  1
  Cu  Cu4  1  0.00000000  0.00000000  0.00000000  1
