# generated using pymatgen
data_CuNi7C9
_symmetry_space_group_name_H-M   'P 1'
_cell_length_a   13.71316800
_cell_length_b   9.69432100
_cell_length_c   14.06342485
_cell_angle_alpha   83.78025031
_cell_angle_beta   90.00000000
_cell_angle_gamma   90.00000000
_symmetry_Int_Tables_number   1
_chemical_formula_structural   CuNi7C9
_chemical_formula_sum   'Cu4 Ni28 C36'
_cell_volume   1858.58461854
_cell_formula_units_Z   4
loop_
 _symmetry_equiv_pos_site_id
 _symmetry_equiv_pos_as_xyz
  1  'x, y, z'
loop_
 _atom_site_type_symbol
 _atom_site_label
 _atom_site_symmetry_multiplicity
 _atom_site_fract_x
 _atom_site_fract_y
 _atom_site_fract_z
 _atom_site_occupancy
  C  C0  1  0.66957400  0.62652100  0.28949100  1
  C  C1  1  0.16957400  0.37347900  0.21050900  1
  C  C2  1  0.33042600  0.37347900  0.71050900  1
  C  C3  1  0.83042600  0.62652100  0.78949100  1
  Ni  Ni4  1  0.43856300  0.07581600  0.17302800  1
  Ni  Ni5  1  0.93856300  0.92418400  0.32697200  1
  Ni  Ni6  1  0.56143700  0.92418400  0.82697200  1
  Ni  Ni7  1  0.06143700  0.07581600  0.67302800  1
  Ni  Ni8  1  0.38759000  0.02440600  0.34552500  1
  Ni  Ni9  1  0.88759000  0.97559400  0.15447500  1
  Ni  Ni10  1  0.61241000  0.97559400  0.65447500  1
  Ni  Ni11  1  0.11241000  0.02440600  0.84552500  1
  Ni  Ni12  1  0.53711200  0.16871200  0.30224200  1
  Ni  Ni13  1  0.03711200  0.83128800  0.19775800  1
  Ni  Ni14  1  0.46288800  0.83128800  0.69775800  1
  Ni  Ni15  1  0.96288800  0.16871200  0.80224200  1
  Ni  Ni16  1  0.61105700  0.59816200  0.00960400  1
  Ni  Ni17  1  0.11105700  0.40183800  0.49039600  1
  Ni  Ni18  1  0.38894300  0.40183800  0.99039600  1
  Ni  Ni19  1  0.88894300  0.59816200  0.50960400  1
  Ni  Ni20  1  0.66969500  0.38485200  0.92539400  1
  Ni  Ni21  1  0.16969500  0.61514800  0.57460600  1
  Ni  Ni22  1  0.33030500  0.61514800  0.07460600  1
  Ni  Ni23  1  0.83030500  0.38485200  0.42539400  1
  Ni  Ni24  1  0.74894400  0.36020700  0.16462800  1
  Ni  Ni25  1  0.24894400  0.63979300  0.33537200  1
  Ni  Ni26  1  0.25105600  0.63979300  0.83537200  1
  Ni  Ni27  1  0.75105600  0.36020700  0.66462800  1
  Ni  Ni28  1  0.85799500  0.53377900  0.05695700  1
  Ni  Ni29  1  0.35799500  0.46622100  0.44304300  1
  Ni  Ni30  1  0.14200500  0.46622100  0.94304300  1
  Ni  Ni31  1  0.64200500  0.53377900  0.55695700  1
  Cu  Cu32  1  0.58422200  0.82310400  0.29062300  1
  Cu  Cu33  1  0.08422200  0.17689600  0.20937700  1
  Cu  Cu34  1  0.41577800  0.17689600  0.70937700  1
  Cu  Cu35  1  0.91577800  0.82310400  0.79062300  1
  C  C36  1  0.52486900  0.88076100  0.15489000  1
  C  C37  1  0.02486900  0.11923900  0.34511000  1
  C  C38  1  0.47513100  0.11923900  0.84511000  1
  C  C39  1  0.97513100  0.88076100  0.65489000  1
  C  C40  1  0.46197800  0.81592700  0.38228100  1
  C  C41  1  0.96197800  0.18407300  0.11771900  1
  C  C42  1  0.53802200  0.18407300  0.61771900  1
  C  C43  1  0.03802200  0.81592700  0.88228100  1
  C  C44  1  0.65475500  0.00387900  0.32470100  1
  C  C45  1  0.15475500  0.99612100  0.17529900  1
  C  C46  1  0.34524500  0.99612100  0.67529900  1
  C  C47  1  0.84524500  0.00387900  0.82470100  1
  C  C48  1  0.61283700  0.49582000  0.16504600  1
  C  C49  1  0.11283700  0.50418000  0.33495400  1
  C  C50  1  0.38716300  0.50418000  0.83495400  1
  C  C51  1  0.88716300  0.49582000  0.66504600  1
  C  C52  1  0.75304400  0.70977900  0.01955000  1
  C  C53  1  0.25304400  0.29022100  0.48045000  1
  C  C54  1  0.24695600  0.29022100  0.98045000  1
  C  C55  1  0.74695600  0.70977900  0.51955000  1
  C  C56  1  0.83237000  0.44219200  0.91350000  1
  C  C57  1  0.33237000  0.55780800  0.58650000  1
  C  C58  1  0.16763000  0.55780800  0.08650000  1
  C  C59  1  0.66763000  0.44219200  0.41350000  1
  C  C60  1  0.69181900  0.22808300  0.05432800  1
  C  C61  1  0.19181900  0.77191700  0.44567200  1
  C  C62  1  0.30818100  0.77191700  0.94567200  1
  C  C63  1  0.80818100  0.22808300  0.55432800  1
  C  C64  1  0.84073300  0.64841200  0.26418200  1
  C  C65  1  0.34073300  0.35158800  0.23581800  1
  C  C66  1  0.15926700  0.35158800  0.73581800  1
  C  C67  1  0.65926700  0.64841200  0.76418200  1
