# generated using pymatgen
data_CuNiC7
_symmetry_space_group_name_H-M   'P 1'
_cell_length_a   5.66735900
_cell_length_b   8.61592900
_cell_length_c   12.74367010
_cell_angle_alpha   68.60633239
_cell_angle_beta   90.00000000
_cell_angle_gamma   90.00000000
_symmetry_Int_Tables_number   1
_chemical_formula_structural   CuNiC7
_chemical_formula_sum   'Cu4 Ni4 C28'
_cell_volume   579.39118097
_cell_formula_units_Z   4
loop_
 _symmetry_equiv_pos_site_id
 _symmetry_equiv_pos_as_xyz
  1  'x, y, z'
loop_
 _atom_site_type_symbol
 _atom_site_label
 _atom_site_symmetry_multiplicity
 _atom_site_fract_x
 _atom_site_fract_y
 _atom_site_fract_z
 _atom_site_occupancy
  Ni  Ni0  1  0.28972200  0.86049900  0.71019800  1
  Ni  Ni1  1  0.78972200  0.13950100  0.78980200  1
  Ni  Ni2  1  0.71027800  0.13950100  0.28980200  1
  Ni  Ni3  1  0.21027800  0.86049900  0.21019800  1
  Cu  Cu4  1  0.20915900  0.28868000  0.43618500  1
  Cu  Cu5  1  0.70915900  0.71132000  0.06381500  1
  Cu  Cu6  1  0.79084100  0.71132000  0.56381500  1
  Cu  Cu7  1  0.29084100  0.28868000  0.93618500  1
  C  C8  1  0.58114300  0.98120300  0.73985000  1
  C  C9  1  0.08114300  0.01879700  0.76015000  1
  C  C10  1  0.41885700  0.01879700  0.26015000  1
  C  C11  1  0.91885700  0.98120300  0.23985000  1
  C  C12  1  0.38280600  0.31448700  0.55268500  1
  C  C13  1  0.88280600  0.68551300  0.94731500  1
  C  C14  1  0.61719400  0.68551300  0.44731500  1
  C  C15  1  0.11719400  0.31448700  0.05268500  1
  C  C16  1  0.46281300  0.26180300  0.81084300  1
  C  C17  1  0.96281300  0.73819700  0.68915700  1
  C  C18  1  0.53718700  0.73819700  0.18915700  1
  C  C19  1  0.03718700  0.26180300  0.31084300  1
  C  C20  1  0.00105400  0.30343500  0.84998300  1
  C  C21  1  0.50105400  0.69656500  0.65001700  1
  C  C22  1  0.99894600  0.69656500  0.15001700  1
  C  C23  1  0.49894600  0.30343500  0.34998300  1
  C  C24  1  0.24948600  0.05370400  0.00104400  1
  C  C25  1  0.74948600  0.94629600  0.49895600  1
  C  C26  1  0.75051400  0.94629600  0.99895600  1
  C  C27  1  0.25051400  0.05370400  0.50104400  1
  C  C28  1  0.32478700  0.52061300  0.86504900  1
  C  C29  1  0.82478700  0.47938700  0.63495100  1
  C  C30  1  0.67521300  0.47938700  0.13495100  1
  C  C31  1  0.17521300  0.52061300  0.36504900  1
  C  C32  1  0.57404300  0.27157700  0.01390600  1
  C  C33  1  0.07404300  0.72842300  0.48609400  1
  C  C34  1  0.42595700  0.72842300  0.98609400  1
  C  C35  1  0.92595700  0.27157700  0.51390600  1
