# generated using pymatgen
data_Cu(NiC6)2
_symmetry_space_group_name_H-M   'P 1'
_cell_length_a   5.83221902
_cell_length_b   5.83221902
_cell_length_c   7.10008758
_cell_angle_alpha   86.31282817
_cell_angle_beta   86.31282817
_cell_angle_gamma   57.49025504
_symmetry_Int_Tables_number   1
_chemical_formula_structural   Cu(NiC6)2
_chemical_formula_sum   'Cu1 Ni2 C12'
_cell_volume   203.11504819
_cell_formula_units_Z   1
loop_
 _symmetry_equiv_pos_site_id
 _symmetry_equiv_pos_as_xyz
  1  'x, y, z'
loop_
 _atom_site_type_symbol
 _atom_site_label
 _atom_site_symmetry_multiplicity
 _atom_site_fract_x
 _atom_site_fract_y
 _atom_site_fract_z
 _atom_site_occupancy
  C  C0  1  0.83290400  0.83290400  0.32663200  1
  C  C1  1  0.50000000  0.50000000  0.00000000  1
  C  C2  1  0.16709600  0.16709600  0.67336800  1
  Ni  Ni3  1  0.84396500  0.84396500  0.81913100  1
  Ni  Ni4  1  0.15603500  0.15603500  0.18086900  1
  Cu  Cu5  1  0.50000000  0.50000000  0.50000000  1
  C  C6  1  0.00000000  0.00000000  0.00000000  1
  C  C7  1  0.70632600  0.70632600  0.65049800  1
  C  C8  1  0.29367400  0.29367400  0.34950200  1
  C  C9  1  0.80190200  0.31297100  0.31366200  1
  C  C10  1  0.50000000  0.00000000  0.00000000  1
  C  C11  1  0.19809800  0.68702900  0.68633800  1
  C  C12  1  0.31297100  0.80190200  0.31366200  1
  C  C13  1  0.00000000  0.50000000  0.00000000  1
  C  C14  1  0.68702900  0.19809800  0.68633800  1
