# generated using pymatgen
data_Cu8Ni2C5
_symmetry_space_group_name_H-M   'P 1'
_cell_length_a   5.51205700
_cell_length_b   5.52083631
_cell_length_c   10.04933037
_cell_angle_alpha   104.98832022
_cell_angle_beta   87.95180732
_cell_angle_gamma   118.56838062
_symmetry_Int_Tables_number   1
_chemical_formula_structural   Cu8Ni2C5
_chemical_formula_sum   'Cu8 Ni2 C5'
_cell_volume   258.04430426
_cell_formula_units_Z   1
loop_
 _symmetry_equiv_pos_site_id
 _symmetry_equiv_pos_as_xyz
  1  'x, y, z'
loop_
 _atom_site_type_symbol
 _atom_site_label
 _atom_site_symmetry_multiplicity
 _atom_site_fract_x
 _atom_site_fract_y
 _atom_site_fract_z
 _atom_site_occupancy
  C  C0  1  0.00000000  0.50000000  0.00000000  1
  C  C1  1  0.70063400  0.75636200  0.18869900  1
  C  C2  1  0.29936600  0.24363800  0.81130100  1
  C  C3  1  0.59222000  0.94960300  0.53786200  1
  C  C4  1  0.40778000  0.05039700  0.46213800  1
  Ni  Ni5  1  0.74733200  0.86145200  0.60361900  1
  Ni  Ni6  1  0.25266800  0.13854800  0.39638100  1
  Cu  Cu7  1  0.38540100  0.63528000  0.12130000  1
  Cu  Cu8  1  0.61459900  0.36472000  0.87870000  1
  Cu  Cu9  1  0.83587700  0.63261300  0.11790300  1
  Cu  Cu10  1  0.83181500  0.08371300  0.11795300  1
  Cu  Cu11  1  0.16412300  0.36738700  0.88209700  1
  Cu  Cu12  1  0.16818500  0.91628700  0.88204700  1
  Cu  Cu13  1  0.73412300  0.69178500  0.34068500  1
  Cu  Cu14  1  0.26587700  0.30821500  0.65931500  1
