# generated using pymatgen
data_Cu2NiC7
_symmetry_space_group_name_H-M   'P 1'
_cell_length_a   6.00662568
_cell_length_b   6.00662568
_cell_length_c   5.51234555
_cell_angle_alpha   88.63127762
_cell_angle_beta   88.63127762
_cell_angle_gamma   70.50109522
_symmetry_Int_Tables_number   1
_chemical_formula_structural   Cu2NiC7
_chemical_formula_sum   'Cu2 Ni1 C7'
_cell_volume   187.39638206
_cell_formula_units_Z   1
loop_
 _symmetry_equiv_pos_site_id
 _symmetry_equiv_pos_as_xyz
  1  'x, y, z'
loop_
 _atom_site_type_symbol
 _atom_site_label
 _atom_site_symmetry_multiplicity
 _atom_site_fract_x
 _atom_site_fract_y
 _atom_site_fract_z
 _atom_site_occupancy
  Ni  Ni0  1  0.00000000  0.00000000  0.00000000  1
  Cu  Cu1  1  0.64017200  0.64017200  0.38659300  1
  Cu  Cu2  1  0.35982800  0.35982800  0.61340700  1
  C  C3  1  0.50000000  0.50000000  0.50000000  1
  C  C4  1  0.11324800  0.11324800  0.27807700  1
  C  C5  1  0.88675200  0.88675200  0.72192300  1
  C  C6  1  0.91804000  0.30943400  0.85109900  1
  C  C7  1  0.69056600  0.08196000  0.14890100  1
  C  C8  1  0.08196000  0.69056600  0.14890100  1
  C  C9  1  0.30943400  0.91804000  0.85109900  1
