# generated using pymatgen
data_CuNiC14
_symmetry_space_group_name_H-M   'P 1'
_cell_length_a   6.35285906
_cell_length_b   6.66113692
_cell_length_c   10.34404720
_cell_angle_alpha   90.00000000
_cell_angle_beta   90.00000000
_cell_angle_gamma   121.61864239
_symmetry_Int_Tables_number   1
_chemical_formula_structural   CuNiC14
_chemical_formula_sum   'Cu1 Ni1 C14'
_cell_volume   372.75329525
_cell_formula_units_Z   1
loop_
 _symmetry_equiv_pos_site_id
 _symmetry_equiv_pos_as_xyz
  1  'x, y, z'
loop_
 _atom_site_type_symbol
 _atom_site_label
 _atom_site_symmetry_multiplicity
 _atom_site_fract_x
 _atom_site_fract_y
 _atom_site_fract_z
 _atom_site_occupancy
  C  C0  1  0.17011144  0.33505522  0.62500000  1
  C  C1  1  0.16991153  0.83495526  0.62500000  1
  C  C2  1  0.66915696  0.33373601  0.12500000  1
  C  C3  1  0.66807273  0.33426871  0.62500000  1
  C  C4  1  0.66915696  0.83541995  0.12500000  1
  C  C5  1  0.66807273  0.83380302  0.62500000  1
  C  C6  1  0.33210285  0.16651310  0.37609171  1
  C  C7  1  0.33210285  0.16651310  0.87390829  1
  C  C8  1  0.33210285  0.66559075  0.37609171  1
  C  C9  1  0.33210285  0.66559075  0.87390829  1
  C  C10  1  0.83282735  0.16641417  0.37570715  1
  C  C11  1  0.83282735  0.16641417  0.87429285  1
  C  C12  1  0.83218036  0.66609068  0.37663924  1
  C  C13  1  0.83218036  0.66609068  0.87336076  1
  Ni  Ni14  1  0.16484319  0.33242109  0.12500000  1
  Cu  Cu15  1  0.16224765  0.83112332  0.12500000  1
