# generated using pymatgen
data_CuNi6C
_symmetry_space_group_name_H-M   'P 1'
_cell_length_a   5.08969500
_cell_length_b   6.23193200
_cell_length_c   12.96838200
_cell_angle_alpha   90.00000000
_cell_angle_beta   90.00000000
_cell_angle_gamma   90.00000000
_symmetry_Int_Tables_number   1
_chemical_formula_structural   CuNi6C
_chemical_formula_sum   'Cu2 Ni12 C2'
_cell_volume   411.33935109
_cell_formula_units_Z   2
loop_
 _symmetry_equiv_pos_site_id
 _symmetry_equiv_pos_as_xyz
  1  'x, y, z'
loop_
 _atom_site_type_symbol
 _atom_site_label
 _atom_site_symmetry_multiplicity
 _atom_site_fract_x
 _atom_site_fract_y
 _atom_site_fract_z
 _atom_site_occupancy
  C  C0  1  0.50000000  0.50000000  0.19700000  1
  C  C1  1  0.50000000  0.00000000  0.69700000  1
  Ni  Ni2  1  0.50000000  0.24298300  0.43560200  1
  Ni  Ni3  1  0.50000000  0.75701700  0.43560200  1
  Ni  Ni4  1  0.00000000  0.75387900  0.07336700  1
  Ni  Ni5  1  0.00000000  0.24612100  0.07336700  1
  Ni  Ni6  1  0.00000000  0.00000000  0.30194600  1
  Ni  Ni7  1  0.00000000  0.50000000  0.36346400  1
  Ni  Ni8  1  0.50000000  0.74298300  0.93560200  1
  Ni  Ni9  1  0.50000000  0.25701700  0.93560200  1
  Ni  Ni10  1  0.00000000  0.25387900  0.57336700  1
  Ni  Ni11  1  0.00000000  0.74612100  0.57336700  1
  Ni  Ni12  1  0.00000000  0.50000000  0.80194600  1
  Ni  Ni13  1  0.00000000  0.00000000  0.86346400  1
  Cu  Cu14  1  0.50000000  0.00000000  0.11964700  1
  Cu  Cu15  1  0.50000000  0.50000000  0.61964700  1
