# generated using pymatgen
data_CuNiC20
_symmetry_space_group_name_H-M   'P 1'
_cell_length_a   6.27920400
_cell_length_b   6.27920400
_cell_length_c   6.33324700
_cell_angle_alpha   90.00000000
_cell_angle_beta   90.00000000
_cell_angle_gamma   90.00000000
_symmetry_Int_Tables_number   1
_chemical_formula_structural   CuNiC20
_chemical_formula_sum   'Cu1 Ni1 C20'
_cell_volume   249.70981421
_cell_formula_units_Z   1
loop_
 _symmetry_equiv_pos_site_id
 _symmetry_equiv_pos_as_xyz
  1  'x, y, z'
loop_
 _atom_site_type_symbol
 _atom_site_label
 _atom_site_symmetry_multiplicity
 _atom_site_fract_x
 _atom_site_fract_y
 _atom_site_fract_z
 _atom_site_occupancy
  Ni  Ni0  1  0.00000000  0.00000000  0.50000000  1
  Cu  Cu1  1  0.50000000  0.50000000  0.50000000  1
  C  C2  1  0.74462200  0.74462200  0.30937100  1
  C  C3  1  0.25537800  0.25537800  0.30937100  1
  C  C4  1  0.74462200  0.25537800  0.69062900  1
  C  C5  1  0.25537800  0.74462200  0.69062900  1
  C  C6  1  0.76097400  0.76097400  0.50366700  1
  C  C7  1  0.23902600  0.23902600  0.50366700  1
  C  C8  1  0.76097400  0.23902600  0.49633300  1
  C  C9  1  0.23902600  0.76097400  0.49633300  1
  C  C10  1  0.86330800  0.86330800  0.21562100  1
  C  C11  1  0.13669200  0.13669200  0.21562100  1
  C  C12  1  0.86330800  0.13669200  0.78437900  1
  C  C13  1  0.13669200  0.86330800  0.78437900  1
  C  C14  1  0.78230200  0.55549800  0.26667400  1
  C  C15  1  0.21769800  0.44450200  0.26667400  1
  C  C16  1  0.78230200  0.44450200  0.73332600  1
  C  C17  1  0.21769800  0.55549800  0.73332600  1
  C  C18  1  0.55549800  0.21769800  0.73332600  1
  C  C19  1  0.44450200  0.78230200  0.73332600  1
  C  C20  1  0.44450200  0.21769800  0.26667400  1
  C  C21  1  0.55549800  0.78230200  0.26667400  1
