# generated using pymatgen
data_Cu3NiC16
_symmetry_space_group_name_H-M   'P 1'
_cell_length_a   6.50796300
_cell_length_b   8.34042594
_cell_length_c   10.71220450
_cell_angle_alpha   109.39715972
_cell_angle_beta   90.00000000
_cell_angle_gamma   90.00000000
_symmetry_Int_Tables_number   1
_chemical_formula_structural   Cu3NiC16
_chemical_formula_sum   'Cu6 Ni2 C32'
_cell_volume   548.44611735
_cell_formula_units_Z   2
loop_
 _symmetry_equiv_pos_site_id
 _symmetry_equiv_pos_as_xyz
  1  'x, y, z'
loop_
 _atom_site_type_symbol
 _atom_site_label
 _atom_site_symmetry_multiplicity
 _atom_site_fract_x
 _atom_site_fract_y
 _atom_site_fract_z
 _atom_site_occupancy
  Ni  Ni0  1  0.25000000  0.46814700  0.72078200  1
  Ni  Ni1  1  0.75000100  0.53185400  0.27921900  1
  Cu  Cu2  1  0.75000100  0.76083100  0.00185700  1
  Cu  Cu3  1  0.25000000  0.23916800  0.99814300  1
  Cu  Cu4  1  0.75000100  0.74159300  0.67900300  1
  Cu  Cu5  1  0.75000100  0.16776400  0.62007200  1
  Cu  Cu6  1  0.25000000  0.25840700  0.32099700  1
  Cu  Cu7  1  0.25000000  0.83223600  0.37992900  1
  C  C8  1  0.25000000  0.84747800  0.06543700  1
  C  C9  1  0.75000100  0.15252100  0.93456300  1
  C  C10  1  0.75000100  0.12377300  0.29880200  1
  C  C11  1  0.25000000  0.87622600  0.70119800  1
  C  C12  1  0.25000000  0.94167700  0.58153700  1
  C  C13  1  0.75000100  0.05832300  0.41846300  1
  C  C14  1  0.25000000  0.78167100  0.18408500  1
  C  C15  1  0.75000100  0.21832800  0.81591500  1
  C  C16  1  0.53126900  0.28931800  0.62542100  1
  C  C17  1  0.03126800  0.71068300  0.37457900  1
  C  C18  1  0.46873200  0.71068300  0.37457900  1
  C  C19  1  0.96873100  0.28931800  0.62542100  1
  C  C20  1  0.06156400  0.75952400  0.69473800  1
  C  C21  1  0.56156300  0.24047500  0.30526200  1
  C  C22  1  0.93843700  0.24047500  0.30526200  1
  C  C23  1  0.43843700  0.75952400  0.69473800  1
  C  C24  1  0.75000100  0.60622200  0.07530400  1
  C  C25  1  0.25000000  0.39377700  0.92469600  1
  C  C26  1  0.75000100  0.97054400  0.17143300  1
  C  C27  1  0.25000000  0.02945500  0.82856600  1
  C  C28  1  0.44001900  0.77576800  0.97899300  1
  C  C29  1  0.94001800  0.22423200  0.02100800  1
  C  C30  1  0.55998100  0.22423200  0.02100800  1
  C  C31  1  0.05998200  0.77576800  0.97899300  1
  C  C32  1  0.25000000  0.06947000  0.38289200  1
  C  C33  1  0.25000000  0.36698900  0.19291300  1
  C  C34  1  0.75000100  0.95576700  0.88712000  1
  C  C35  1  0.25000000  0.04423300  0.11288000  1
  C  C36  1  0.75000100  0.57139100  0.53551600  1
  C  C37  1  0.25000000  0.42861000  0.46448400  1
  C  C38  1  0.75000100  0.93053000  0.61710700  1
  C  C39  1  0.75000100  0.63301100  0.80708700  1
