# generated using pymatgen
data_Cu3NiC4
_symmetry_space_group_name_H-M   'P 1'
_cell_length_a   5.49029536
_cell_length_b   5.47599700
_cell_length_c   6.60447886
_cell_angle_alpha   65.50795805
_cell_angle_beta   65.14957790
_cell_angle_gamma   90.00000000
_symmetry_Int_Tables_number   1
_chemical_formula_structural   Cu3NiC4
_chemical_formula_sum   'Cu3 Ni1 C4'
_cell_volume   160.27380229
_cell_formula_units_Z   1
loop_
 _symmetry_equiv_pos_site_id
 _symmetry_equiv_pos_as_xyz
  1  'x, y, z'
loop_
 _atom_site_type_symbol
 _atom_site_label
 _atom_site_symmetry_multiplicity
 _atom_site_fract_x
 _atom_site_fract_y
 _atom_site_fract_z
 _atom_site_occupancy
  C  C0  1  0.75972500  0.26011200  0.49442100  1
  C  C1  1  0.99027500  0.00453300  0.00557900  1
  C  C2  1  0.24559900  0.74589800  0.49454900  1
  C  C3  1  0.50440100  0.49044700  0.00545100  1
  Ni  Ni4  1  0.37500000  0.86023200  0.75000000  1
  Cu  Cu5  1  0.87500000  0.39071100  0.75000000  1
  Cu  Cu6  1  0.14337000  0.12412500  0.24981700  1
  Cu  Cu7  1  0.60663000  0.62394200  0.25018300  1
