# generated using pymatgen
data_Cu4NiC
_symmetry_space_group_name_H-M   'P 1'
_cell_length_a   9.82761065
_cell_length_b   12.42125861
_cell_length_c   12.42125862
_cell_angle_alpha   120.00000125
_cell_angle_beta   90.00000000
_cell_angle_gamma   90.00000000
_symmetry_Int_Tables_number   1
_chemical_formula_structural   Cu4NiC
_chemical_formula_sum   'Cu72 Ni18 C18'
_cell_volume   1313.13620791
_cell_formula_units_Z   18
loop_
 _symmetry_equiv_pos_site_id
 _symmetry_equiv_pos_as_xyz
  1  'x, y, z'
loop_
 _atom_site_type_symbol
 _atom_site_label
 _atom_site_symmetry_multiplicity
 _atom_site_fract_x
 _atom_site_fract_y
 _atom_site_fract_z
 _atom_site_occupancy
  C  C0  1  0.75192078  0.44308797  0.54607524  1
  C  C1  1  0.75192078  0.10298728  0.55691203  1
  C  C2  1  0.24807922  0.44308797  0.54607524  1
  C  C3  1  0.75192078  0.45392476  0.89701272  1
  C  C4  1  0.24807922  0.10298728  0.55691203  1
  C  C5  1  0.24807922  0.45392476  0.89701272  1
  C  C6  1  0.74245406  0.77049358  0.88388417  1
  C  C7  1  0.74245406  0.11339059  0.22950642  1
  C  C8  1  0.25754594  0.77049358  0.88388417  1
  C  C9  1  0.74245406  0.11611583  0.88660941  1
  C  C10  1  0.25754594  0.11339059  0.22950642  1
  C  C11  1  0.25754594  0.11611583  0.88660941  1
  C  C12  1  0.75329319  0.78602552  0.21973879  1
  C  C13  1  0.75329319  0.43371327  0.21397448  1
  C  C14  1  0.24670681  0.78602552  0.21973879  1
  C  C15  1  0.75329319  0.78026121  0.56628673  1
  C  C16  1  0.24670681  0.43371327  0.21397448  1
  C  C17  1  0.24670681  0.78026121  0.56628673  1
  Ni  Ni18  1  0.50000000  0.64636533  0.13738223  1
  Ni  Ni19  1  0.50000000  0.49101690  0.35363467  1
  Ni  Ni20  1  0.50000000  0.86261777  0.50898310  1
  Ni  Ni21  1  0.00000000  0.52488931  0.69411595  1
  Ni  Ni22  1  0.00000000  0.16922664  0.47511069  1
  Ni  Ni23  1  0.00000000  0.30588405  0.83077336  1
  Ni  Ni24  1  0.50000000  0.91002165  0.11273079  1
  Ni  Ni25  1  0.50000000  0.20270914  0.08997835  1
  Ni  Ni26  1  0.50000000  0.88726921  0.79729086  1
  Ni  Ni27  1  0.00000000  0.86287292  0.36725640  1
  Ni  Ni28  1  0.00000000  0.50438348  0.13712708  1
  Ni  Ni29  1  0.00000000  0.63274360  0.49561652  1
  Ni  Ni30  1  0.00000000  0.97955212  0.17341018  1
  Ni  Ni31  1  0.00000000  0.19385806  0.02044788  1
  Ni  Ni32  1  0.00000000  0.82658982  0.80614194  1
  Ni  Ni33  1  0.50000000  0.53281793  0.83429988  1
  Ni  Ni34  1  0.50000000  0.30148195  0.46718207  1
  Ni  Ni35  1  0.50000000  0.16570012  0.69851805  1
  Cu  Cu36  1  0.00000000  0.42521963  0.58457866  1
  Cu  Cu37  1  0.00000000  0.15935903  0.57478037  1
  Cu  Cu38  1  0.00000000  0.41542134  0.84064097  1
  Cu  Cu39  1  0.50000000  0.75482051  0.23853118  1
  Cu  Cu40  1  0.50000000  0.48371067  0.24517949  1
  Cu  Cu41  1  0.50000000  0.76146882  0.51628933  1
  Cu  Cu42  1  0.61531416  0.58204847  0.83359077  1
  Cu  Cu43  1  0.61531416  0.25154231  0.41795153  1
  Cu  Cu44  1  0.38468584  0.58204847  0.83359077  1
  Cu  Cu45  1  0.61531416  0.16640923  0.74845769  1
  Cu  Cu46  1  0.38468584  0.25154231  0.41795153  1
  Cu  Cu47  1  0.38468584  0.16640923  0.74845769  1
  Cu  Cu48  1  0.61508579  0.85107844  0.08354539  1
  Cu  Cu49  1  0.61508579  0.23246695  0.14892156  1
  Cu  Cu50  1  0.38491421  0.85107844  0.08354539  1
  Cu  Cu51  1  0.61508579  0.91645461  0.76753305  1
  Cu  Cu52  1  0.38491421  0.23246695  0.14892156  1
  Cu  Cu53  1  0.38491421  0.91645461  0.76753305  1
  Cu  Cu54  1  0.75272815  0.00000000  0.00000000  1
  Cu  Cu55  1  0.24727185  0.00000000  0.00000000  1
  Cu  Cu56  1  0.69085502  0.00199008  0.34043350  1
  Cu  Cu57  1  0.69085502  0.33844342  0.99800992  1
  Cu  Cu58  1  0.30914498  0.00199008  0.34043350  1
  Cu  Cu59  1  0.69085502  0.65956650  0.66155658  1
  Cu  Cu60  1  0.30914498  0.33844342  0.99800992  1
  Cu  Cu61  1  0.30914498  0.65956650  0.66155658  1
  Cu  Cu62  1  0.88409646  0.91005326  0.41738837  1
  Cu  Cu63  1  0.88409646  0.50733512  0.08994674  1
  Cu  Cu64  1  0.11590354  0.91005326  0.41738837  1
  Cu  Cu65  1  0.88409646  0.58261163  0.49266488  1
  Cu  Cu66  1  0.11590354  0.50733512  0.08994674  1
  Cu  Cu67  1  0.11590354  0.58261163  0.49266488  1
  Cu  Cu68  1  0.88457098  0.92982829  0.17378537  1
  Cu  Cu69  1  0.88457098  0.24395709  0.07017171  1
  Cu  Cu70  1  0.11542902  0.92982829  0.17378537  1
  Cu  Cu71  1  0.88457098  0.82621463  0.75604291  1
  Cu  Cu72  1  0.11542902  0.24395709  0.07017171  1
  Cu  Cu73  1  0.11542902  0.82621463  0.75604291  1
  Cu  Cu74  1  0.88369595  0.57237530  0.74389899  1
  Cu  Cu75  1  0.88369595  0.17152369  0.42762470  1
  Cu  Cu76  1  0.11630405  0.57237530  0.74389899  1
  Cu  Cu77  1  0.88369595  0.25610101  0.82847631  1
  Cu  Cu78  1  0.11630405  0.17152369  0.42762470  1
  Cu  Cu79  1  0.11630405  0.25610101  0.82847631  1
  Cu  Cu80  1  0.50000000  0.40869927  0.56829790  1
  Cu  Cu81  1  0.50000000  0.15959863  0.59130073  1
  Cu  Cu82  1  0.50000000  0.43170210  0.84040137  1
  Cu  Cu83  1  0.00000000  0.76410094  0.25716269  1
  Cu  Cu84  1  0.00000000  0.49306175  0.23589906  1
  Cu  Cu85  1  0.00000000  0.74283731  0.50693825  1
  Cu  Cu86  1  0.50000000  0.82731077  0.85764221  1
  Cu  Cu87  1  0.50000000  0.03033144  0.17268923  1
  Cu  Cu88  1  0.50000000  0.14235779  0.96966856  1
  Cu  Cu89  1  0.80747724  0.67417284  0.00233134  1
  Cu  Cu90  1  0.80747724  0.32815850  0.32582716  1
  Cu  Cu91  1  0.19252276  0.67417284  0.00233134  1
  Cu  Cu92  1  0.80747724  0.99766866  0.67184150  1
  Cu  Cu93  1  0.19252276  0.32815850  0.32582716  1
  Cu  Cu94  1  0.19252276  0.99766866  0.67184150  1
  Cu  Cu95  1  0.00000000  0.82254253  0.90829484  1
  Cu  Cu96  1  0.00000000  0.08575231  0.17745747  1
  Cu  Cu97  1  0.00000000  0.09170516  0.91424769  1
  Cu  Cu98  1  0.74934662  0.66666700  0.33333300  1
  Cu  Cu99  1  0.25065338  0.66666700  0.33333300  1
  Cu  Cu100  1  0.61575523  0.91062426  0.50704167  1
  Cu  Cu101  1  0.61575523  0.59641741  0.08937574  1
  Cu  Cu102  1  0.38424477  0.91062426  0.50704167  1
  Cu  Cu103  1  0.61575523  0.49295833  0.40358259  1
  Cu  Cu104  1  0.38424477  0.59641741  0.08937574  1
  Cu  Cu105  1  0.38424477  0.49295833  0.40358259  1
  Cu  Cu106  1  0.74584326  0.33333300  0.66666700  1
  Cu  Cu107  1  0.25415674  0.33333300  0.66666700  1
