# generated using pymatgen
data_CuNi2C5
_symmetry_space_group_name_H-M   'P 1'
_cell_length_a   6.76513200
_cell_length_b   7.45944600
_cell_length_c   11.07514000
_cell_angle_alpha   90.00000000
_cell_angle_beta   90.00000000
_cell_angle_gamma   90.00000000
_symmetry_Int_Tables_number   1
_chemical_formula_structural   CuNi2C5
_chemical_formula_sum   'Cu4 Ni8 C20'
_cell_volume   558.89738045
_cell_formula_units_Z   4
loop_
 _symmetry_equiv_pos_site_id
 _symmetry_equiv_pos_as_xyz
  1  'x, y, z'
loop_
 _atom_site_type_symbol
 _atom_site_label
 _atom_site_symmetry_multiplicity
 _atom_site_fract_x
 _atom_site_fract_y
 _atom_site_fract_z
 _atom_site_occupancy
  Ni  Ni0  1  0.52799200  0.99696700  0.82798600  1
  Ni  Ni1  1  0.47200800  0.49696700  0.17201400  1
  Ni  Ni2  1  0.97200800  0.99696700  0.32798600  1
  Ni  Ni3  1  0.02799200  0.49696700  0.67201400  1
  Ni  Ni4  1  0.52799200  0.50303300  0.82798600  1
  Ni  Ni5  1  0.47200800  0.00303300  0.17201400  1
  Ni  Ni6  1  0.97200800  0.50303300  0.32798600  1
  Ni  Ni7  1  0.02799200  0.00303300  0.67201400  1
  Cu  Cu8  1  0.56522300  0.25000000  0.50256100  1
  Cu  Cu9  1  0.43477700  0.75000000  0.49743900  1
  Cu  Cu10  1  0.93477700  0.25000000  0.00256100  1
  Cu  Cu11  1  0.06522300  0.75000000  0.99743900  1
  C  C12  1  0.86635400  0.75000000  0.83223900  1
  C  C13  1  0.13364600  0.25000000  0.16776100  1
  C  C14  1  0.63364600  0.75000000  0.33223900  1
  C  C15  1  0.36635400  0.25000000  0.66776100  1
  C  C16  1  0.83534500  0.25000000  0.80547500  1
  C  C17  1  0.16465500  0.75000000  0.19452500  1
  C  C18  1  0.66465500  0.25000000  0.30547500  1
  C  C19  1  0.33534500  0.75000000  0.69452500  1
  C  C20  1  0.64603700  0.96641800  0.57948400  1
  C  C21  1  0.35396300  0.46641800  0.42051600  1
  C  C22  1  0.85396300  0.96641800  0.07948400  1
  C  C23  1  0.14603700  0.46641800  0.92051600  1
  C  C24  1  0.39871300  0.75000000  0.98760700  1
  C  C25  1  0.60128700  0.25000000  0.01239300  1
  C  C26  1  0.10128700  0.75000000  0.48760700  1
  C  C27  1  0.89871300  0.25000000  0.51239300  1
  C  C28  1  0.14603700  0.03358200  0.92051600  1
  C  C29  1  0.85396300  0.53358200  0.07948400  1
  C  C30  1  0.35396300  0.03358200  0.42051600  1
  C  C31  1  0.64603700  0.53358200  0.57948400  1
