# generated using pymatgen
data_CuNiC30
_symmetry_space_group_name_H-M   'P 1'
_cell_length_a   5.40918200
_cell_length_b   5.43484807
_cell_length_c   15.91871111
_cell_angle_alpha   89.83830574
_cell_angle_beta   89.87802056
_cell_angle_gamma   89.17890622
_symmetry_Int_Tables_number   1
_chemical_formula_structural   CuNiC30
_chemical_formula_sum   'Cu1 Ni1 C30'
_cell_volume   467.92864237
_cell_formula_units_Z   1
loop_
 _symmetry_equiv_pos_site_id
 _symmetry_equiv_pos_as_xyz
  1  'x, y, z'
loop_
 _atom_site_type_symbol
 _atom_site_label
 _atom_site_symmetry_multiplicity
 _atom_site_fract_x
 _atom_site_fract_y
 _atom_site_fract_z
 _atom_site_occupancy
  C  C0  1  0.50128200  0.50147100  0.78024600  1
  C  C1  1  0.49871800  0.49852900  0.21975400  1
  C  C2  1  0.00077300  0.00133800  0.78258300  1
  C  C3  1  0.99922700  0.99866200  0.21741700  1
  Ni  Ni4  1  0.00000000  0.00000000  0.00000000  1
  Cu  Cu5  1  0.50000000  0.50000000  0.00000000  1
  C  C6  1  0.50000000  0.50000000  0.50000000  1
  C  C7  1  0.50015900  0.99969500  0.89462300  1
  C  C8  1  0.49984100  0.00030500  0.10537700  1
  C  C9  1  0.00000000  0.00000000  0.50000000  1
  C  C10  1  0.99988800  0.50060100  0.89483700  1
  C  C11  1  0.00011200  0.49939900  0.10516300  1
  C  C12  1  0.49343600  0.01283300  0.61209100  1
  C  C13  1  0.50656400  0.98716700  0.38790900  1
  C  C14  1  0.01158000  0.49688800  0.61216600  1
  C  C15  1  0.98842000  0.50311200  0.38783400  1
  C  C16  1  0.74578500  0.25427700  0.90368200  1
  C  C17  1  0.25421500  0.74572300  0.09631800  1
  C  C18  1  0.74487400  0.74511600  0.90701300  1
  C  C19  1  0.25512600  0.25488400  0.09298700  1
  C  C20  1  0.50539900  0.99326000  0.74881100  1
  C  C21  1  0.49460100  0.00674000  0.25118900  1
  C  C22  1  0.99624100  0.50910200  0.74870000  1
  C  C23  1  0.00375900  0.49089800  0.25130000  1
  C  C24  1  0.25564500  0.25554300  0.90521100  1
  C  C25  1  0.74435500  0.74445700  0.09478900  1
  C  C26  1  0.04603000  0.05928200  0.61399200  1
  C  C27  1  0.95397000  0.94071800  0.38600800  1
  C  C28  1  0.25426800  0.74589400  0.90411300  1
  C  C29  1  0.74573200  0.25410600  0.09588700  1
  C  C30  1  0.46794400  0.45128000  0.61497100  1
  C  C31  1  0.53205600  0.54872000  0.38502900  1
