# generated using pymatgen
data_CuNiC4
_symmetry_space_group_name_H-M   'P 1'
_cell_length_a   3.77312200
_cell_length_b   12.56837600
_cell_length_c   13.75701200
_cell_angle_alpha   90.00000000
_cell_angle_beta   90.00000000
_cell_angle_gamma   90.00000000
_symmetry_Int_Tables_number   1
_chemical_formula_structural   CuNiC4
_chemical_formula_sum   'Cu4 Ni4 C16'
_cell_volume   652.38524304
_cell_formula_units_Z   4
loop_
 _symmetry_equiv_pos_site_id
 _symmetry_equiv_pos_as_xyz
  1  'x, y, z'
loop_
 _atom_site_type_symbol
 _atom_site_label
 _atom_site_symmetry_multiplicity
 _atom_site_fract_x
 _atom_site_fract_y
 _atom_site_fract_z
 _atom_site_occupancy
  Ni  Ni0  1  0.50000000  0.94043900  0.50591700  1
  Ni  Ni1  1  0.00000000  0.05956100  0.00591700  1
  Ni  Ni2  1  0.50000000  0.72393100  0.98950900  1
  Ni  Ni3  1  0.00000000  0.27606900  0.48950900  1
  C  C4  1  0.50000000  0.93443600  0.89632500  1
  C  C5  1  0.00000000  0.06556400  0.39632500  1
  C  C6  1  0.50000000  0.80326900  0.35404700  1
  C  C7  1  0.00000000  0.19673100  0.85404700  1
  C  C8  1  0.50000000  0.65258700  0.59071200  1
  C  C9  1  0.00000000  0.34741300  0.09071200  1
  C  C10  1  0.50000000  0.58335500  0.13774000  1
  C  C11  1  0.00000000  0.41664500  0.63774000  1
  C  C12  1  0.50000000  0.43510100  0.90037800  1
  C  C13  1  0.00000000  0.56489900  0.40037800  1
  C  C14  1  0.50000000  0.32361400  0.34805800  1
  C  C15  1  0.00000000  0.67638600  0.84805800  1
  C  C16  1  0.50000000  0.15099900  0.60195100  1
  C  C17  1  0.00000000  0.84900100  0.10195100  1
  C  C18  1  0.50000000  0.10754400  0.14714700  1
  C  C19  1  0.00000000  0.89245600  0.64714700  1
  Cu  Cu20  1  0.50000000  0.45413700  0.50313700  1
  Cu  Cu21  1  0.00000000  0.54586300  0.00313700  1
  Cu  Cu22  1  0.50000000  0.23608400  0.98908000  1
  Cu  Cu23  1  0.00000000  0.76391600  0.48908000  1
