# generated using pymatgen
data_CuNi8C3
_symmetry_space_group_name_H-M   'P 1'
_cell_length_a   4.76216983
_cell_length_b   4.76216983
_cell_length_c   7.76990900
_cell_angle_alpha   90.00000000
_cell_angle_beta   90.00000000
_cell_angle_gamma   119.99999763
_symmetry_Int_Tables_number   1
_chemical_formula_structural   CuNi8C3
_chemical_formula_sum   'Cu1 Ni8 C3'
_cell_volume   152.60063225
_cell_formula_units_Z   1
loop_
 _symmetry_equiv_pos_site_id
 _symmetry_equiv_pos_as_xyz
  1  'x, y, z'
loop_
 _atom_site_type_symbol
 _atom_site_label
 _atom_site_symmetry_multiplicity
 _atom_site_fract_x
 _atom_site_fract_y
 _atom_site_fract_z
 _atom_site_occupancy
  C  C0  1  0.00000000  0.00000000  0.44226200  1
  C  C1  1  0.00000000  0.00000000  0.06631400  1
  C  C2  1  0.66666700  0.33333300  0.91740100  1
  Ni  Ni3  1  0.33333300  0.66666700  0.50206300  1
  Ni  Ni4  1  0.33333300  0.66666700  0.00791200  1
  Ni  Ni5  1  0.16469300  0.83530700  0.74932600  1
  Ni  Ni6  1  0.67061300  0.83530700  0.74932600  1
  Ni  Ni7  1  0.16469300  0.32938700  0.74932600  1
  Ni  Ni8  1  0.50331500  0.49668500  0.25317000  1
  Ni  Ni9  1  0.99336900  0.49668500  0.25317000  1
  Ni  Ni10  1  0.50331500  0.00663100  0.25317000  1
  Cu  Cu11  1  0.66666700  0.33333300  0.55658100  1
