# generated using pymatgen
data_Cu5NiC3
_symmetry_space_group_name_H-M   'P 1'
_cell_length_a   9.14495600
_cell_length_b   9.38916200
_cell_length_c   12.79951600
_cell_angle_alpha   90.00000000
_cell_angle_beta   90.00000000
_cell_angle_gamma   90.00000000
_symmetry_Int_Tables_number   1
_chemical_formula_structural   Cu5NiC3
_chemical_formula_sum   'Cu20 Ni4 C12'
_cell_volume   1099.01090117
_cell_formula_units_Z   4
loop_
 _symmetry_equiv_pos_site_id
 _symmetry_equiv_pos_as_xyz
  1  'x, y, z'
loop_
 _atom_site_type_symbol
 _atom_site_label
 _atom_site_symmetry_multiplicity
 _atom_site_fract_x
 _atom_site_fract_y
 _atom_site_fract_z
 _atom_site_occupancy
  C  C0  1  0.99397100  0.13226300  0.67419200  1
  C  C1  1  0.50602900  0.36773700  0.17419200  1
  C  C2  1  0.49397100  0.86773700  0.32580800  1
  C  C3  1  0.00602900  0.63226300  0.82580800  1
  C  C4  1  0.00602900  0.86773700  0.32580800  1
  C  C5  1  0.49397100  0.63226300  0.82580800  1
  C  C6  1  0.50602900  0.13226300  0.67419200  1
  C  C7  1  0.99397100  0.36773700  0.17419200  1
  C  C8  1  0.25000000  0.83574600  0.59669300  1
  C  C9  1  0.25000000  0.66425400  0.09669300  1
  C  C10  1  0.75000000  0.16425400  0.40330700  1
  C  C11  1  0.75000000  0.33574600  0.90330700  1
  Ni  Ni12  1  0.25000000  0.49456100  0.53566900  1
  Ni  Ni13  1  0.25000000  0.00543900  0.03566900  1
  Ni  Ni14  1  0.75000000  0.50543900  0.46433100  1
  Ni  Ni15  1  0.75000000  0.99456100  0.96433100  1
  Cu  Cu16  1  0.04714000  0.66994700  0.55693000  1
  Cu  Cu17  1  0.45286000  0.83005300  0.05693000  1
  Cu  Cu18  1  0.54714000  0.33005300  0.44307000  1
  Cu  Cu19  1  0.95286000  0.16994700  0.94307000  1
  Cu  Cu20  1  0.95286000  0.33005300  0.44307000  1
  Cu  Cu21  1  0.54714000  0.16994700  0.94307000  1
  Cu  Cu22  1  0.45286000  0.66994700  0.55693000  1
  Cu  Cu23  1  0.04714000  0.83005300  0.05693000  1
  Cu  Cu24  1  0.75000000  0.95833200  0.51203200  1
  Cu  Cu25  1  0.75000000  0.54166800  0.01203200  1
  Cu  Cu26  1  0.25000000  0.04166800  0.48796800  1
  Cu  Cu27  1  0.25000000  0.45833200  0.98796800  1
  Cu  Cu28  1  0.25000000  0.90088900  0.77839100  1
  Cu  Cu29  1  0.25000000  0.59911100  0.27839100  1
  Cu  Cu30  1  0.75000000  0.09911100  0.22160900  1
  Cu  Cu31  1  0.75000000  0.40088900  0.72160900  1
  Cu  Cu32  1  0.25000000  0.39791600  0.71261400  1
  Cu  Cu33  1  0.25000000  0.10208400  0.21261400  1
  Cu  Cu34  1  0.75000000  0.60208400  0.28738600  1
  Cu  Cu35  1  0.75000000  0.89791600  0.78738600  1
