# generated using pymatgen
data_CuNiC3
_symmetry_space_group_name_H-M   'P 1'
_cell_length_a   8.53639600
_cell_length_b   13.21681300
_cell_length_c   13.66097736
_cell_angle_alpha   88.54438309
_cell_angle_beta   90.00000000
_cell_angle_gamma   90.00000000
_symmetry_Int_Tables_number   1
_chemical_formula_structural   CuNiC3
_chemical_formula_sum   'Cu12 Ni12 C36'
_cell_volume   1540.78805292
_cell_formula_units_Z   12
loop_
 _symmetry_equiv_pos_site_id
 _symmetry_equiv_pos_as_xyz
  1  'x, y, z'
loop_
 _atom_site_type_symbol
 _atom_site_label
 _atom_site_symmetry_multiplicity
 _atom_site_fract_x
 _atom_site_fract_y
 _atom_site_fract_z
 _atom_site_occupancy
  C  C0  1  0.27796800  0.83697800  0.03365300  1
  C  C1  1  0.77796800  0.66302200  0.96634700  1
  C  C2  1  0.72203200  0.16302200  0.96634700  1
  C  C3  1  0.22203200  0.33697800  0.03365300  1
  C  C4  1  0.78868400  0.18155800  0.57606500  1
  C  C5  1  0.28868400  0.31844200  0.42393500  1
  C  C6  1  0.21131600  0.81844200  0.42393500  1
  C  C7  1  0.71131600  0.68155800  0.57606500  1
  C  C8  1  0.49888300  0.40178700  0.74469700  1
  C  C9  1  0.99888300  0.09821300  0.25530300  1
  C  C10  1  0.50111700  0.59821300  0.25530300  1
  C  C11  1  0.00111700  0.90178700  0.74469700  1
  Ni  Ni12  1  0.30901200  0.12040400  0.85064500  1
  Ni  Ni13  1  0.80901200  0.37959600  0.14935500  1
  Ni  Ni14  1  0.69098800  0.87959600  0.14935500  1
  Ni  Ni15  1  0.19098800  0.62040400  0.85064500  1
  Ni  Ni16  1  0.54759600  0.98240200  0.76052900  1
  Ni  Ni17  1  0.04759600  0.51759800  0.23947100  1
  Ni  Ni18  1  0.45240400  0.01759800  0.23947100  1
  Ni  Ni19  1  0.95240400  0.48240200  0.76052900  1
  Ni  Ni20  1  0.83362600  0.39022500  0.36457100  1
  Ni  Ni21  1  0.33362600  0.10977500  0.63542900  1
  Ni  Ni22  1  0.16637400  0.60977500  0.63542900  1
  Ni  Ni23  1  0.66637400  0.89022500  0.36457100  1
  Cu  Cu24  1  0.36104300  0.58017800  0.94062500  1
  Cu  Cu25  1  0.86104300  0.91982200  0.05937500  1
  Cu  Cu26  1  0.63895700  0.41982200  0.05937500  1
  Cu  Cu27  1  0.13895700  0.08017800  0.94062500  1
  Cu  Cu28  1  0.67846300  0.43226700  0.46239900  1
  Cu  Cu29  1  0.17846300  0.06773300  0.53760100  1
  Cu  Cu30  1  0.32153700  0.56773300  0.53760100  1
  Cu  Cu31  1  0.82153700  0.93226700  0.46239900  1
  Cu  Cu32  1  0.55007200  0.83437400  0.77592100  1
  Cu  Cu33  1  0.05007200  0.66562600  0.22407900  1
  Cu  Cu34  1  0.44992800  0.16562600  0.22407900  1
  Cu  Cu35  1  0.94992800  0.33437400  0.77592100  1
  C  C36  1  0.76245800  0.88078300  0.26076400  1
  C  C37  1  0.26245800  0.61921700  0.73923600  1
  C  C38  1  0.23754200  0.11921700  0.73923600  1
  C  C39  1  0.73754200  0.38078300  0.26076400  1
  C  C40  1  0.56819400  0.97521100  0.15263900  1
  C  C41  1  0.06819400  0.52478900  0.84736100  1
  C  C42  1  0.43180600  0.02478900  0.84736100  1
  C  C43  1  0.93180600  0.47521100  0.15263900  1
  C  C44  1  0.39820800  0.21638700  0.86814600  1
  C  C45  1  0.89820800  0.28361300  0.13185400  1
  C  C46  1  0.60179200  0.78361300  0.13185400  1
  C  C47  1  0.10179200  0.71638700  0.86814600  1
  C  C48  1  0.55532700  0.98816300  0.33820400  1
  C  C49  1  0.05532700  0.51183700  0.66179600  1
  C  C50  1  0.44467300  0.01183700  0.66179600  1
  C  C51  1  0.94467300  0.48816300  0.33820400  1
  C  C52  1  0.69756200  0.04168400  0.75962100  1
  C  C53  1  0.19756200  0.45831600  0.24037900  1
  C  C54  1  0.30243800  0.95831600  0.24037900  1
  C  C55  1  0.80243800  0.54168400  0.75962100  1
  C  C56  1  0.93076500  0.29723800  0.38509000  1
  C  C57  1  0.43076500  0.20276200  0.61491000  1
  C  C58  1  0.06923500  0.70276200  0.61491000  1
  C  C59  1  0.56923500  0.79723800  0.38509000  1
