# generated using pymatgen
data_Cu2NiC4
_symmetry_space_group_name_H-M   'P 1'
_cell_length_a   6.41357399
_cell_length_b   6.41357399
_cell_length_c   15.46190500
_cell_angle_alpha   90.00000000
_cell_angle_beta   90.00000000
_cell_angle_gamma   119.99999988
_symmetry_Int_Tables_number   1
_chemical_formula_structural   Cu2NiC4
_chemical_formula_sum   'Cu12 Ni6 C24'
_cell_volume   550.79989813
_cell_formula_units_Z   6
loop_
 _symmetry_equiv_pos_site_id
 _symmetry_equiv_pos_as_xyz
  1  'x, y, z'
loop_
 _atom_site_type_symbol
 _atom_site_label
 _atom_site_symmetry_multiplicity
 _atom_site_fract_x
 _atom_site_fract_y
 _atom_site_fract_z
 _atom_site_occupancy
  Ni  Ni0  1  0.33333300  0.66666700  0.95219500  1
  Ni  Ni1  1  0.00000000  0.00000000  0.62454700  1
  Ni  Ni2  1  0.00000000  0.00000000  0.99757300  1
  Ni  Ni3  1  0.66666700  0.33333300  0.28585100  1
  Ni  Ni4  1  0.33333300  0.66666700  0.71083200  1
  Ni  Ni5  1  0.00000000  0.00000000  0.37778400  1
  Cu  Cu6  1  0.83606200  0.67212300  0.83449700  1
  Cu  Cu7  1  0.32787700  0.16393800  0.83449700  1
  Cu  Cu8  1  0.50041200  0.00082400  0.50010400  1
  Cu  Cu9  1  0.83606200  0.16393800  0.83449700  1
  Cu  Cu10  1  0.66666700  0.33333300  0.66742200  1
  Cu  Cu11  1  0.99917600  0.49958800  0.50010400  1
  Cu  Cu12  1  0.16528900  0.33057700  0.16542000  1
  Cu  Cu13  1  0.50041200  0.49958800  0.50010400  1
  Cu  Cu14  1  0.16528900  0.83471100  0.16542000  1
  Cu  Cu15  1  0.33333300  0.66666700  0.33386500  1
  Cu  Cu16  1  0.66942300  0.83471100  0.16542000  1
  Cu  Cu17  1  0.66666700  0.33333300  0.04349700  1
  C  C18  1  0.69042100  0.84521100  0.91920900  1
  C  C19  1  0.00000000  0.00000000  0.75551200  1
  C  C20  1  0.15478900  0.84521100  0.91920900  1
  C  C21  1  0.15478900  0.30957900  0.91920900  1
  C  C22  1  0.50573100  0.01146300  0.75534800  1
  C  C23  1  0.34344300  0.17172100  0.58196900  1
  C  C24  1  0.50573100  0.49426900  0.75534800  1
  C  C25  1  0.66666700  0.33333300  0.90460300  1
  C  C26  1  0.82827900  0.17172100  0.58196900  1
  C  C27  1  0.66666700  0.33333300  0.41733400  1
  C  C28  1  0.98853700  0.49426900  0.75534800  1
  C  C29  1  0.82827900  0.65655700  0.58196900  1
  C  C30  1  0.17247100  0.34494300  0.41836000  1
  C  C31  1  0.01897500  0.50948800  0.24110800  1
  C  C32  1  0.17247100  0.82752900  0.41836000  1
  C  C33  1  0.33333300  0.66666700  0.58041100  1
  C  C34  1  0.33333300  0.66666700  0.08325700  1
  C  C35  1  0.49051200  0.50948800  0.24110800  1
  C  C36  1  0.65505700  0.82752900  0.41836000  1
  C  C37  1  0.49051200  0.98102500  0.24110800  1
  C  C38  1  0.85470800  0.70941700  0.08886400  1
  C  C39  1  0.00000000  0.00000000  0.24990600  1
  C  C40  1  0.85470800  0.14529200  0.08886400  1
  C  C41  1  0.29058300  0.14529200  0.08886400  1
