# generated using pymatgen
data_Cu5Ni17C6
_symmetry_space_group_name_H-M   'P 1'
_cell_length_a   8.15761755
_cell_length_b   8.15761755
_cell_length_c   15.66989102
_cell_angle_alpha   76.05012166
_cell_angle_beta   76.05012166
_cell_angle_gamma   30.27768493
_symmetry_Int_Tables_number   1
_chemical_formula_structural   Cu5Ni17C6
_chemical_formula_sum   'Cu5 Ni17 C6'
_cell_volume   509.10076324
_cell_formula_units_Z   1
loop_
 _symmetry_equiv_pos_site_id
 _symmetry_equiv_pos_as_xyz
  1  'x, y, z'
loop_
 _atom_site_type_symbol
 _atom_site_label
 _atom_site_symmetry_multiplicity
 _atom_site_fract_x
 _atom_site_fract_y
 _atom_site_fract_z
 _atom_site_occupancy
  C  C0  1  0.74928700  0.74928700  0.75180000  1
  C  C1  1  0.25071300  0.25071300  0.24820000  1
  C  C2  1  0.60045400  0.60045400  0.59997500  1
  C  C3  1  0.09560600  0.09560600  0.09567100  1
  C  C4  1  0.90439400  0.90439400  0.90432900  1
  C  C5  1  0.39954600  0.39954600  0.40002500  1
  Ni  Ni6  1  0.82125300  0.82125300  0.54009900  1
  Ni  Ni7  1  0.32643600  0.32643600  0.04177400  1
  Ni  Ni8  1  0.67356400  0.67356400  0.95822600  1
  Ni  Ni9  1  0.17874700  0.17874700  0.45990100  1
  Ni  Ni10  1  0.54233100  0.54233100  0.82627100  1
  Ni  Ni11  1  0.04035500  0.04035500  0.32140400  1
  Ni  Ni12  1  0.95964500  0.95964500  0.67859600  1
  Ni  Ni13  1  0.45766900  0.45766900  0.17372900  1
  Ni  Ni14  1  0.26541900  0.26541900  0.89559400  1
  Ni  Ni15  1  0.76036500  0.76036500  0.39393000  1
  Ni  Ni16  1  0.23963500  0.23963500  0.60607000  1
  Ni  Ni17  1  0.73458100  0.73458100  0.10440600  1
  Ni  Ni18  1  0.39537400  0.39537400  0.76191800  1
  Ni  Ni19  1  0.89360200  0.89360200  0.26440300  1
  Ni  Ni20  1  0.10639800  0.10639800  0.73559700  1
  Ni  Ni21  1  0.60462600  0.60462600  0.23808200  1
  Ni  Ni22  1  0.00000000  0.00000000  0.50000000  1
  Cu  Cu23  1  0.10057900  0.10057900  0.89934500  1
  Cu  Cu24  1  0.58983600  0.58983600  0.40976000  1
  Cu  Cu25  1  0.41016400  0.41016400  0.59024000  1
  Cu  Cu26  1  0.89942100  0.89942100  0.10065500  1
  Cu  Cu27  1  0.50000000  0.50000000  0.00000000  1
