# generated using pymatgen
data_CuNiC20
_symmetry_space_group_name_H-M   'P 1'
_cell_length_a   7.86004200
_cell_length_b   7.86004200
_cell_length_c   7.86004200
_cell_angle_alpha   60.00000000
_cell_angle_beta   60.00000000
_cell_angle_gamma   60.00000000
_symmetry_Int_Tables_number   1
_chemical_formula_structural   CuNiC20
_chemical_formula_sum   'Cu1 Ni1 C20'
_cell_volume   343.36782899
_cell_formula_units_Z   1
loop_
 _symmetry_equiv_pos_site_id
 _symmetry_equiv_pos_as_xyz
  1  'x, y, z'
loop_
 _atom_site_type_symbol
 _atom_site_label
 _atom_site_symmetry_multiplicity
 _atom_site_fract_x
 _atom_site_fract_y
 _atom_site_fract_z
 _atom_site_occupancy
  C  C0  1  0.25000000  0.25000000  0.25000000  1
  C  C1  1  0.75000000  0.75000000  0.75000000  1
  Ni  Ni2  1  0.00000000  0.00000000  0.00000000  1
  Cu  Cu3  1  0.50000000  0.50000000  0.50000000  1
  C  C4  1  0.80552500  0.19447500  0.19447500  1
  C  C5  1  0.19447500  0.80552500  0.80552500  1
  C  C6  1  0.19447500  0.19447500  0.80552500  1
  C  C7  1  0.80552500  0.80552500  0.19447500  1
  C  C8  1  0.19447500  0.80552500  0.19447500  1
  C  C9  1  0.80552500  0.19447500  0.80552500  1
  C  C10  1  0.84268900  0.15731100  0.34956300  1
  C  C11  1  0.15731100  0.84268900  0.65043700  1
  C  C12  1  0.34956300  0.65043700  0.84268900  1
  C  C13  1  0.65043700  0.34956300  0.15731100  1
  C  C14  1  0.15731100  0.34956300  0.84268900  1
  C  C15  1  0.34956300  0.15731100  0.65043700  1
  C  C16  1  0.84268900  0.65043700  0.15731100  1
  C  C17  1  0.65043700  0.84268900  0.34956300  1
  C  C18  1  0.34956300  0.84268900  0.15731100  1
  C  C19  1  0.84268900  0.34956300  0.65043700  1
  C  C20  1  0.15731100  0.65043700  0.34956300  1
  C  C21  1  0.65043700  0.15731100  0.84268900  1
