# generated using pymatgen
data_CuNiC8
_symmetry_space_group_name_H-M   'P 1'
_cell_length_a   5.43635500
_cell_length_b   5.50389500
_cell_length_c   7.70476400
_cell_angle_alpha   90.00000000
_cell_angle_beta   90.00000000
_cell_angle_gamma   90.00000000
_symmetry_Int_Tables_number   1
_chemical_formula_structural   CuNiC8
_chemical_formula_sum   'Cu2 Ni2 C16'
_cell_volume   230.53522294
_cell_formula_units_Z   2
loop_
 _symmetry_equiv_pos_site_id
 _symmetry_equiv_pos_as_xyz
  1  'x, y, z'
loop_
 _atom_site_type_symbol
 _atom_site_label
 _atom_site_symmetry_multiplicity
 _atom_site_fract_x
 _atom_site_fract_y
 _atom_site_fract_z
 _atom_site_occupancy
  Ni  Ni0  1  0.48978700  0.20754800  0.00000000  1
  Ni  Ni1  1  0.98978700  0.79245200  0.50000000  1
  Cu  Cu2  1  0.00971800  0.70920800  0.00000000  1
  Cu  Cu3  1  0.50971800  0.29079200  0.50000000  1
  C  C4  1  0.00030300  0.24846100  0.75070300  1
  C  C5  1  0.00030300  0.24846100  0.24929700  1
  C  C6  1  0.50030300  0.75153900  0.25070300  1
  C  C7  1  0.50030300  0.75153900  0.74929700  1
  C  C8  1  0.07819300  0.22849500  0.50000000  1
  C  C9  1  0.21482400  0.96469900  0.79183600  1
  C  C10  1  0.21482400  0.96469900  0.20816400  1
  C  C11  1  0.28741100  0.46259600  0.20643400  1
  C  C12  1  0.28741100  0.46259600  0.79356600  1
  C  C13  1  0.41722300  0.73020500  0.50000000  1
  C  C14  1  0.57819300  0.77150500  0.00000000  1
  C  C15  1  0.71482400  0.03530100  0.70816400  1
  C  C16  1  0.71482400  0.03530100  0.29183600  1
  C  C17  1  0.78741100  0.53740400  0.70643400  1
  C  C18  1  0.78741100  0.53740400  0.29356600  1
  C  C19  1  0.91722300  0.26979500  0.00000000  1
