# generated using pymatgen
data_Cu(NiC7)3
_symmetry_space_group_name_H-M   'P 1'
_cell_length_a   7.02964400
_cell_length_b   11.86001500
_cell_length_c   13.51651600
_cell_angle_alpha   90.00000000
_cell_angle_beta   90.00000000
_cell_angle_gamma   90.00000000
_symmetry_Int_Tables_number   1
_chemical_formula_structural   Cu(NiC7)3
_chemical_formula_sum   'Cu4 Ni12 C84'
_cell_volume   1126.89469106
_cell_formula_units_Z   4
loop_
 _symmetry_equiv_pos_site_id
 _symmetry_equiv_pos_as_xyz
  1  'x, y, z'
loop_
 _atom_site_type_symbol
 _atom_site_label
 _atom_site_symmetry_multiplicity
 _atom_site_fract_x
 _atom_site_fract_y
 _atom_site_fract_z
 _atom_site_occupancy
  Ni  Ni0  1  0.72660900  0.21150100  0.06116100  1
  Ni  Ni1  1  0.77339100  0.78849900  0.56116100  1
  Ni  Ni2  1  0.27339100  0.71150100  0.43883900  1
  Ni  Ni3  1  0.22660900  0.28849900  0.93883900  1
  Ni  Ni4  1  0.22121200  0.37834500  0.40210300  1
  Ni  Ni5  1  0.27878800  0.62165500  0.90210300  1
  Ni  Ni6  1  0.77878800  0.87834500  0.09789700  1
  Ni  Ni7  1  0.72121200  0.12165500  0.59789700  1
  Ni  Ni8  1  0.15194400  0.72873300  0.16299900  1
  Ni  Ni9  1  0.34805600  0.27126700  0.66299900  1
  Ni  Ni10  1  0.84805600  0.22873300  0.33700100  1
  Ni  Ni11  1  0.65194400  0.77126700  0.83700100  1
  Cu  Cu12  1  0.35605800  0.01292200  0.79937300  1
  Cu  Cu13  1  0.14394200  0.98707800  0.29937300  1
  Cu  Cu14  1  0.64394200  0.51292200  0.70062700  1
  Cu  Cu15  1  0.85605800  0.48707800  0.20062700  1
  C  C16  1  0.11428200  0.01430900  0.03535400  1
  C  C17  1  0.38571800  0.98569100  0.53535400  1
  C  C18  1  0.88571800  0.51430900  0.46464600  1
  C  C19  1  0.61428200  0.48569100  0.96464600  1
  C  C20  1  0.12295700  0.23769600  0.15650800  1
  C  C21  1  0.37704300  0.76230400  0.65650800  1
  C  C22  1  0.87704300  0.73769600  0.34349200  1
  C  C23  1  0.62295700  0.26230400  0.84349200  1
  C  C24  1  0.34949400  0.46016500  0.13955600  1
  C  C25  1  0.15050600  0.53983500  0.63955600  1
  C  C26  1  0.65050600  0.96016500  0.36044400  1
  C  C27  1  0.84949400  0.03983500  0.86044400  1
  C  C28  1  0.12417200  0.14632100  0.47093700  1
  C  C29  1  0.37582800  0.85367900  0.97093700  1
  C  C30  1  0.87582800  0.64632100  0.02906300  1
  C  C31  1  0.62417200  0.35367900  0.52906300  1
  C  C32  1  0.03855500  0.23660000  0.54416900  1
  C  C33  1  0.46144500  0.76340000  0.04416900  1
  C  C34  1  0.96144500  0.73660000  0.95583100  1
  C  C35  1  0.53855500  0.26340000  0.45583100  1
  C  C36  1  0.52611500  0.33434300  0.28167100  1
  C  C37  1  0.97388500  0.66565700  0.78167100  1
  C  C38  1  0.47388500  0.83434300  0.21832900  1
  C  C39  1  0.02611500  0.16565700  0.71832900  1
  C  C40  1  0.53166500  0.02601500  0.17160600  1
  C  C41  1  0.96833500  0.97398500  0.67160600  1
  C  C42  1  0.46833500  0.52601500  0.32839400  1
  C  C43  1  0.03166500  0.47398500  0.82839400  1
  C  C44  1  0.48346100  0.01971000  0.05537200  1
  C  C45  1  0.01653900  0.98029000  0.55537200  1
  C  C46  1  0.51653900  0.51971000  0.44462800  1
  C  C47  1  0.98346100  0.48029000  0.94462800  1
  C  C48  1  0.40282700  0.22088300  0.29679600  1
  C  C49  1  0.09717300  0.77911700  0.79679600  1
  C  C50  1  0.59717300  0.72088300  0.20320400  1
  C  C51  1  0.90282700  0.27911700  0.70320400  1
  C  C52  1  0.39927400  0.05731000  0.63674200  1
  C  C53  1  0.10072600  0.94269000  0.13674200  1
  C  C54  1  0.60072600  0.55731000  0.86325800  1
  C  C55  1  0.89927400  0.44269000  0.36325800  1
  C  C56  1  0.06546900  0.22350400  0.47300200  1
  C  C57  1  0.43453100  0.77649600  0.97300200  1
  C  C58  1  0.93453100  0.72350400  0.02699800  1
  C  C59  1  0.56546900  0.27649600  0.52699800  1
  C  C60  1  0.19831100  0.01147300  0.46792100  1
  C  C61  1  0.30168900  0.98852700  0.96792100  1
  C  C62  1  0.80168900  0.51147300  0.03207900  1
  C  C63  1  0.69831100  0.48852700  0.53207900  1
  C  C64  1  0.58368400  0.04174700  0.10409000  1
  C  C65  1  0.91631600  0.95825300  0.60409000  1
  C  C66  1  0.41631600  0.54174700  0.39591000  1
  C  C67  1  0.08368400  0.45825300  0.89591000  1
  C  C68  1  0.53158400  0.45510200  0.21464300  1
  C  C69  1  0.96841600  0.54489800  0.71464200  1
  C  C70  1  0.46841600  0.95510200  0.28535700  1
  C  C71  1  0.03158400  0.04489800  0.78535800  1
  C  C72  1  0.09898900  0.15330100  0.05800300  1
  C  C73  1  0.40101100  0.84669900  0.55800300  1
  C  C74  1  0.90101100  0.65330100  0.44199700  1
  C  C75  1  0.59898900  0.34669900  0.94199700  1
  C  C76  1  0.16653000  0.52971400  0.17791200  1
  C  C77  1  0.33347000  0.47028600  0.67791200  1
  C  C78  1  0.83347000  0.02971400  0.32208800  1
  C  C79  1  0.66653000  0.97028600  0.82208800  1
  C  C80  1  0.19233000  0.17092200  0.25504600  1
  C  C81  1  0.30767000  0.82907800  0.75504600  1
  C  C82  1  0.80767000  0.67092200  0.24495400  1
  C  C83  1  0.69233000  0.32907800  0.74495400  1
  C  C84  1  0.07961700  0.80098400  0.32566700  1
  C  C85  1  0.42038300  0.19901600  0.82566700  1
  C  C86  1  0.92038300  0.30098400  0.17433300  1
  C  C87  1  0.57961700  0.69901600  0.67433300  1
  C  C88  1  0.28809200  0.32615400  0.11538300  1
  C  C89  1  0.21190800  0.67384600  0.61538300  1
  C  C90  1  0.71190800  0.82615400  0.38461700  1
  C  C91  1  0.78809200  0.17384600  0.88461700  1
  C  C92  1  0.50926800  0.26710000  0.32652400  1
  C  C93  1  0.99073200  0.73290000  0.82652400  1
  C  C94  1  0.49073200  0.76710000  0.17347600  1
  C  C95  1  0.00926800  0.23290000  0.67347600  1
  C  C96  1  0.41832600  0.51180600  0.03053200  1
  C  C97  1  0.08167400  0.48819400  0.53053200  1
  C  C98  1  0.58167400  0.01180600  0.46946800  1
  C  C99  1  0.91832600  0.98819400  0.96946800  1
