# generated using pymatgen
data_Cu5NiC2
_symmetry_space_group_name_H-M   'P 1'
_cell_length_a   7.82269300
_cell_length_b   8.10850000
_cell_length_c   12.88607700
_cell_angle_alpha   90.00000000
_cell_angle_beta   90.00000000
_cell_angle_gamma   90.00000000
_symmetry_Int_Tables_number   1
_chemical_formula_structural   Cu5NiC2
_chemical_formula_sum   'Cu20 Ni4 C8'
_cell_volume   817.36780970
_cell_formula_units_Z   4
loop_
 _symmetry_equiv_pos_site_id
 _symmetry_equiv_pos_as_xyz
  1  'x, y, z'
loop_
 _atom_site_type_symbol
 _atom_site_label
 _atom_site_symmetry_multiplicity
 _atom_site_fract_x
 _atom_site_fract_y
 _atom_site_fract_z
 _atom_site_occupancy
  C  C0  1  0.52002100  0.50173300  0.32083200  1
  C  C1  1  0.97997900  0.99826700  0.82083200  1
  C  C2  1  0.47997900  0.00173300  0.67916800  1
  C  C3  1  0.02002100  0.49826700  0.17916800  1
  C  C4  1  0.47997900  0.49826700  0.67916800  1
  C  C5  1  0.02002100  0.00173300  0.17916800  1
  C  C6  1  0.52002100  0.99826700  0.32083200  1
  C  C7  1  0.97997900  0.50173300  0.82083200  1
  Ni  Ni8  1  0.06660100  0.75000000  0.49088900  1
  Ni  Ni9  1  0.43339900  0.75000000  0.99088900  1
  Ni  Ni10  1  0.93339900  0.25000000  0.50911100  1
  Ni  Ni11  1  0.56660100  0.25000000  0.00911100  1
  Cu  Cu12  1  0.82816600  0.96096000  0.62006100  1
  Cu  Cu13  1  0.67183400  0.53904000  0.12006100  1
  Cu  Cu14  1  0.17183400  0.46096000  0.37993900  1
  Cu  Cu15  1  0.32816600  0.03904000  0.87993900  1
  Cu  Cu16  1  0.17183400  0.03904000  0.37993900  1
  Cu  Cu17  1  0.32816600  0.46096000  0.87993900  1
  Cu  Cu18  1  0.82816600  0.53904000  0.62006100  1
  Cu  Cu19  1  0.67183400  0.96096000  0.12006100  1
  Cu  Cu20  1  0.82559000  0.75000000  0.31148200  1
  Cu  Cu21  1  0.67441000  0.75000000  0.81148200  1
  Cu  Cu22  1  0.17441000  0.25000000  0.68851800  1
  Cu  Cu23  1  0.32559000  0.25000000  0.18851800  1
  Cu  Cu24  1  0.48208600  0.75000000  0.49873300  1
  Cu  Cu25  1  0.01791400  0.75000000  0.99873300  1
  Cu  Cu26  1  0.51791400  0.25000000  0.50126700  1
  Cu  Cu27  1  0.98208600  0.25000000  0.00126700  1
  Cu  Cu28  1  0.19708000  0.75000000  0.71330900  1
  Cu  Cu29  1  0.30292000  0.75000000  0.21330900  1
  Cu  Cu30  1  0.80292000  0.25000000  0.28669100  1
  Cu  Cu31  1  0.69708000  0.25000000  0.78669100  1
