# generated using pymatgen
data_Cu3NiC16
_symmetry_space_group_name_H-M   'P 1'
_cell_length_a   11.15903382
_cell_length_b   11.15903382
_cell_length_c   11.15903343
_cell_angle_alpha   25.57122986
_cell_angle_beta   25.57122986
_cell_angle_gamma   25.57122923
_symmetry_Int_Tables_number   1
_chemical_formula_structural   Cu3NiC16
_chemical_formula_sum   'Cu3 Ni1 C16'
_cell_volume   227.92061727
_cell_formula_units_Z   1
loop_
 _symmetry_equiv_pos_site_id
 _symmetry_equiv_pos_as_xyz
  1  'x, y, z'
loop_
 _atom_site_type_symbol
 _atom_site_label
 _atom_site_symmetry_multiplicity
 _atom_site_fract_x
 _atom_site_fract_y
 _atom_site_fract_z
 _atom_site_occupancy
  Ni  Ni0  1  0.50000000  0.50000000  0.50000000  1
  Cu  Cu1  1  0.00000000  0.00000000  0.00000000  1
  Cu  Cu2  1  0.75376900  0.75376900  0.75376900  1
  Cu  Cu3  1  0.24623100  0.24623100  0.24623100  1
  C  C4  1  0.87143200  0.87143200  0.87143200  1
  C  C5  1  0.37598600  0.37598600  0.37598600  1
  C  C6  1  0.12856800  0.12856800  0.12856800  1
  C  C7  1  0.62401400  0.62401400  0.62401400  1
  C  C8  1  0.83822300  0.14992400  0.62636200  1
  C  C9  1  0.38124600  0.63586100  0.11085600  1
  C  C10  1  0.62636200  0.83822300  0.14992400  1
  C  C11  1  0.11085600  0.38124600  0.63586100  1
  C  C12  1  0.14992400  0.62636200  0.83822300  1
  C  C13  1  0.63586100  0.11085600  0.38124600  1
  C  C14  1  0.37363800  0.16177700  0.85007600  1
  C  C15  1  0.88914400  0.61875400  0.36413900  1
  C  C16  1  0.85007600  0.37363800  0.16177700  1
  C  C17  1  0.36413900  0.88914400  0.61875400  1
  C  C18  1  0.16177700  0.85007600  0.37363800  1
  C  C19  1  0.61875400  0.36413900  0.88914400  1
