# generated using pymatgen
data_CuNiC6
_symmetry_space_group_name_H-M   'P 1'
_cell_length_a   7.73301800
_cell_length_b   10.99145300
_cell_length_c   12.65971900
_cell_angle_alpha   90.00000000
_cell_angle_beta   90.00000000
_cell_angle_gamma   90.00000000
_symmetry_Int_Tables_number   1
_chemical_formula_structural   CuNiC6
_chemical_formula_sum   'Cu8 Ni8 C48'
_cell_volume   1076.03945113
_cell_formula_units_Z   8
loop_
 _symmetry_equiv_pos_site_id
 _symmetry_equiv_pos_as_xyz
  1  'x, y, z'
loop_
 _atom_site_type_symbol
 _atom_site_label
 _atom_site_symmetry_multiplicity
 _atom_site_fract_x
 _atom_site_fract_y
 _atom_site_fract_z
 _atom_site_occupancy
  Ni  Ni0  1  0.19436800  0.79570700  0.87268700  1
  Ni  Ni1  1  0.80563200  0.20429300  0.12731300  1
  Ni  Ni2  1  0.30563200  0.29570700  0.12731300  1
  Ni  Ni3  1  0.80563200  0.70429300  0.37268700  1
  Ni  Ni4  1  0.69436800  0.70429300  0.87268700  1
  Ni  Ni5  1  0.19436800  0.29570700  0.62731300  1
  Ni  Ni6  1  0.69436800  0.20429300  0.62731300  1
  Ni  Ni7  1  0.30563200  0.79570700  0.37268700  1
  Cu  Cu8  1  0.00894300  0.58209300  0.67465800  1
  Cu  Cu9  1  0.99105700  0.41790700  0.32534200  1
  Cu  Cu10  1  0.49105700  0.08209300  0.32534200  1
  Cu  Cu11  1  0.99105700  0.91790700  0.17465800  1
  Cu  Cu12  1  0.50894300  0.91790700  0.67465800  1
  Cu  Cu13  1  0.00894300  0.08209300  0.82534200  1
  Cu  Cu14  1  0.50894300  0.41790700  0.82534200  1
  Cu  Cu15  1  0.49105700  0.58209300  0.17465800  1
  C  C16  1  0.43807000  0.62191000  0.62418700  1
  C  C17  1  0.56193000  0.37809000  0.37581300  1
  C  C18  1  0.06193000  0.12191000  0.37581300  1
  C  C19  1  0.56193000  0.87809000  0.12418700  1
  C  C20  1  0.93807000  0.87809000  0.62418700  1
  C  C21  1  0.43807000  0.12191000  0.87581300  1
  C  C22  1  0.93807000  0.37809000  0.87581300  1
  C  C23  1  0.06193000  0.62191000  0.12418700  1
  C  C24  1  0.22273500  0.56188100  0.59789600  1
  C  C25  1  0.77726500  0.43811900  0.40210400  1
  C  C26  1  0.27726500  0.06188100  0.40210400  1
  C  C27  1  0.77726500  0.93811900  0.09789600  1
  C  C28  1  0.72273500  0.93811900  0.59789600  1
  C  C29  1  0.22273500  0.06188100  0.90210400  1
  C  C30  1  0.72273500  0.43811900  0.90210400  1
  C  C31  1  0.27726500  0.56188100  0.09789600  1
  C  C32  1  0.03621500  0.83432900  0.50145600  1
  C  C33  1  0.96378500  0.16567100  0.49854400  1
  C  C34  1  0.46378500  0.33432900  0.49854400  1
  C  C35  1  0.96378500  0.66567100  0.00145600  1
  C  C36  1  0.53621500  0.66567100  0.50145600  1
  C  C37  1  0.03621500  0.33432900  0.99854400  1
  C  C38  1  0.53621500  0.16567100  0.99854400  1
  C  C39  1  0.46378500  0.83432900  0.00145600  1
  C  C40  1  0.06971300  0.98896500  0.69699800  1
  C  C41  1  0.93028700  0.01103500  0.30300200  1
  C  C42  1  0.43028700  0.48896500  0.30300200  1
  C  C43  1  0.93028700  0.51103500  0.19699800  1
  C  C44  1  0.56971300  0.51103500  0.69699800  1
  C  C45  1  0.06971300  0.48896500  0.80300200  1
  C  C46  1  0.56971300  0.01103500  0.80300200  1
  C  C47  1  0.43028700  0.98896500  0.19699800  1
  C  C48  1  0.34116800  0.54685600  0.89065200  1
  C  C49  1  0.65883200  0.45314400  0.10934800  1
  C  C50  1  0.15883200  0.04685600  0.10934800  1
  C  C51  1  0.65883200  0.95314400  0.39065200  1
  C  C52  1  0.84116800  0.95314400  0.89065200  1
  C  C53  1  0.34116800  0.04685600  0.60934800  1
  C  C54  1  0.84116800  0.45314400  0.60934800  1
  C  C55  1  0.15883200  0.54685600  0.39065200  1
  C  C56  1  0.42180600  0.75673500  0.70762000  1
  C  C57  1  0.57819400  0.24326500  0.29238000  1
  C  C58  1  0.07819400  0.25673500  0.29238000  1
  C  C59  1  0.57819400  0.74326500  0.20762000  1
  C  C60  1  0.92180600  0.74326500  0.70762000  1
  C  C61  1  0.42180600  0.25673500  0.79238000  1
  C  C62  1  0.92180600  0.24326500  0.79238000  1
  C  C63  1  0.07819400  0.75673500  0.20762000  1
