# generated using pymatgen
data_CuNiC4
_symmetry_space_group_name_H-M   'P 1'
_cell_length_a   8.76357586
_cell_length_b   8.76357586
_cell_length_c   8.76357650
_cell_angle_alpha   111.40863019
_cell_angle_beta   111.40863019
_cell_angle_gamma   111.40863068
_symmetry_Int_Tables_number   1
_chemical_formula_structural   CuNiC4
_chemical_formula_sum   'Cu6 Ni6 C24'
_cell_volume   477.34969392
_cell_formula_units_Z   6
loop_
 _symmetry_equiv_pos_site_id
 _symmetry_equiv_pos_as_xyz
  1  'x, y, z'
loop_
 _atom_site_type_symbol
 _atom_site_label
 _atom_site_symmetry_multiplicity
 _atom_site_fract_x
 _atom_site_fract_y
 _atom_site_fract_z
 _atom_site_occupancy
  Ni  Ni0  1  0.47565200  0.08859700  0.66267500  1
  Ni  Ni1  1  0.08859700  0.66267500  0.47565200  1
  Ni  Ni2  1  0.66267500  0.47565200  0.08859700  1
  Ni  Ni3  1  0.52434800  0.91140300  0.33732500  1
  Ni  Ni4  1  0.91140300  0.33732500  0.52434800  1
  Ni  Ni5  1  0.33732500  0.52434800  0.91140300  1
  Cu  Cu6  1  0.07946400  0.82016200  0.21228700  1
  Cu  Cu7  1  0.82016200  0.21228700  0.07946400  1
  Cu  Cu8  1  0.21228700  0.07946400  0.82016200  1
  Cu  Cu9  1  0.92053600  0.17983800  0.78771300  1
  Cu  Cu10  1  0.17983800  0.78771300  0.92053600  1
  Cu  Cu11  1  0.78771300  0.92053600  0.17983800  1
  C  C12  1  0.01223200  0.97193400  0.26624400  1
  C  C13  1  0.97193400  0.26624400  0.01223200  1
  C  C14  1  0.26624400  0.01223200  0.97193400  1
  C  C15  1  0.98776800  0.02806600  0.73375600  1
  C  C16  1  0.02806600  0.73375600  0.98776800  1
  C  C17  1  0.73375600  0.98776800  0.02806600  1
  C  C18  1  0.63097900  0.21831900  0.95595500  1
  C  C19  1  0.21831900  0.95595500  0.63097900  1
  C  C20  1  0.95595500  0.63097900  0.21831900  1
  C  C21  1  0.36902100  0.78168100  0.04404500  1
  C  C22  1  0.78168100  0.04404500  0.36902100  1
  C  C23  1  0.04404500  0.36902100  0.78168100  1
  C  C24  1  0.32115800  0.93770200  0.36784700  1
  C  C25  1  0.93770200  0.36784700  0.32115800  1
  C  C26  1  0.36784700  0.32115800  0.93770200  1
  C  C27  1  0.67884200  0.06229800  0.63215300  1
  C  C28  1  0.06229800  0.63215300  0.67884200  1
  C  C29  1  0.63215300  0.67884200  0.06229800  1
  C  C30  1  0.54070400  0.33045200  0.67873800  1
  C  C31  1  0.33045200  0.67873800  0.54070400  1
  C  C32  1  0.67873800  0.54070400  0.33045200  1
  C  C33  1  0.45929600  0.66954800  0.32126200  1
  C  C34  1  0.66954800  0.32126200  0.45929600  1
  C  C35  1  0.32126200  0.45929600  0.66954800  1
