# generated using pymatgen
data_Cu2NiC33
_symmetry_space_group_name_H-M   'P 1'
_cell_length_a   14.03390848
_cell_length_b   14.03390848
_cell_length_c   6.64893981
_cell_angle_alpha   89.62990111
_cell_angle_beta   89.62990111
_cell_angle_gamma   60.98324666
_symmetry_Int_Tables_number   1
_chemical_formula_structural   Cu2NiC33
_chemical_formula_sum   'Cu4 Ni2 C66'
_cell_volume   1145.10766863
_cell_formula_units_Z   2
loop_
 _symmetry_equiv_pos_site_id
 _symmetry_equiv_pos_as_xyz
  1  'x, y, z'
loop_
 _atom_site_type_symbol
 _atom_site_label
 _atom_site_symmetry_multiplicity
 _atom_site_fract_x
 _atom_site_fract_y
 _atom_site_fract_z
 _atom_site_occupancy
  Ni  Ni0  1  0.00000000  0.50000000  0.00000000  1
  Ni  Ni1  1  0.50000000  0.00000000  0.00000000  1
  Cu  Cu2  1  0.25673800  0.74326200  0.00000000  1
  Cu  Cu3  1  0.74326200  0.25673800  0.00000000  1
  Cu  Cu4  1  0.89108000  0.10892000  0.50000000  1
  Cu  Cu5  1  0.10892000  0.89108000  0.50000000  1
  C  C6  1  0.50000000  0.50000000  0.00000000  1
  C  C7  1  0.00000000  0.00000000  0.00000000  1
  C  C8  1  0.25013100  0.52396000  0.23296700  1
  C  C9  1  0.52396000  0.25013100  0.23296700  1
  C  C10  1  0.74986900  0.47604000  0.76703300  1
  C  C11  1  0.47604000  0.74986900  0.76703300  1
  C  C12  1  0.11189800  0.11189800  0.39991700  1
  C  C13  1  0.88810200  0.88810200  0.60008300  1
  C  C14  1  0.97044100  0.25049200  0.76497600  1
  C  C15  1  0.25049200  0.97044100  0.76497600  1
  C  C16  1  0.02955900  0.74950800  0.23502400  1
  C  C17  1  0.74950800  0.02955900  0.23502400  1
  C  C18  1  0.31565200  0.31565200  0.98533700  1
  C  C19  1  0.68434800  0.68434800  0.01466300  1
  C  C20  1  0.39048500  0.39048500  0.60128400  1
  C  C21  1  0.60951500  0.60951500  0.39871600  1
  C  C22  1  0.18211300  0.18211300  0.01338300  1
  C  C23  1  0.81788700  0.81788700  0.98661700  1
  C  C24  1  0.28832800  0.47489700  0.45888200  1
  C  C25  1  0.47489700  0.28832800  0.45888200  1
  C  C26  1  0.71167200  0.52510300  0.54111800  1
  C  C27  1  0.52510300  0.71167200  0.54111800  1
  C  C28  1  0.06326600  0.25568400  0.91036900  1
  C  C29  1  0.25568400  0.06326600  0.91036900  1
  C  C30  1  0.93673400  0.74431600  0.08963100  1
  C  C31  1  0.74431600  0.93673400  0.08963100  1
  C  C32  1  0.44691000  0.44691000  0.72368700  1
  C  C33  1  0.55309000  0.55309000  0.27631300  1
  C  C34  1  0.24841600  0.24841600  0.98597800  1
  C  C35  1  0.75158400  0.75158400  0.01402200  1
  C  C36  1  0.92984700  0.16822400  0.84893400  1
  C  C37  1  0.16822400  0.92984700  0.84893400  1
  C  C38  1  0.07015300  0.83177600  0.15106600  1
  C  C39  1  0.83177600  0.07015300  0.15106600  1
  C  C40  1  0.12289700  0.62215600  0.24957500  1
  C  C41  1  0.62215600  0.12289700  0.24957500  1
  C  C42  1  0.87710300  0.37784400  0.75042500  1
  C  C43  1  0.37784400  0.87710300  0.75042500  1
  C  C44  1  0.33588000  0.33588000  0.75357900  1
  C  C45  1  0.66412000  0.66412000  0.24642100  1
  C  C46  1  0.23706200  0.43002100  0.10115600  1
  C  C47  1  0.43002100  0.23706200  0.10115600  1
  C  C48  1  0.76293800  0.56997900  0.89884400  1
  C  C49  1  0.56997900  0.76293800  0.89884400  1
  C  C50  1  0.05263600  0.05263600  0.28988400  1
  C  C51  1  0.94736400  0.94736400  0.71011600  1
  C  C52  1  0.16629600  0.16629600  0.25073000  1
  C  C53  1  0.83370400  0.83370400  0.74927000  1
  C  C54  1  0.32685300  0.56344800  0.12434400  1
  C  C55  1  0.56344800  0.32685300  0.12434400  1
  C  C56  1  0.67314700  0.43655200  0.87565600  1
  C  C57  1  0.43655200  0.67314700  0.87565600  1
  C  C58  1  0.02347800  0.21257800  0.53951100  1
  C  C59  1  0.21257800  0.02347800  0.53951100  1
  C  C60  1  0.97652200  0.78742200  0.46048900  1
  C  C61  1  0.78742200  0.97652200  0.46048900  1
  C  C62  1  0.22875800  0.70578800  0.61658900  1
  C  C63  1  0.70578800  0.22875800  0.61658900  1
  C  C64  1  0.77124200  0.29421200  0.38341100  1
  C  C65  1  0.29421200  0.77124200  0.38341100  1
  C  C66  1  0.02998900  0.51011900  0.55307300  1
  C  C67  1  0.51011900  0.02998900  0.55307300  1
  C  C68  1  0.97001100  0.48988100  0.44692700  1
  C  C69  1  0.48988100  0.97001100  0.44692700  1
  C  C70  1  0.31101800  0.68898200  0.50000000  1
  C  C71  1  0.68898200  0.31101800  0.50000000  1
