# generated using pymatgen
data_Cu6Ni2C5
_symmetry_space_group_name_H-M   'P 1'
_cell_length_a   8.25429600
_cell_length_b   9.78613500
_cell_length_c   16.19553900
_cell_angle_alpha   90.00000000
_cell_angle_beta   90.00000000
_cell_angle_gamma   90.00000000
_symmetry_Int_Tables_number   1
_chemical_formula_structural   Cu6Ni2C5
_chemical_formula_sum   'Cu48 Ni16 C40'
_cell_volume   1308.23766165
_cell_formula_units_Z   8
loop_
 _symmetry_equiv_pos_site_id
 _symmetry_equiv_pos_as_xyz
  1  'x, y, z'
loop_
 _atom_site_type_symbol
 _atom_site_label
 _atom_site_symmetry_multiplicity
 _atom_site_fract_x
 _atom_site_fract_y
 _atom_site_fract_z
 _atom_site_occupancy
  C  C0  1  0.35555600  0.49583500  0.15668100  1
  C  C1  1  0.64444400  0.99583500  0.34331900  1
  C  C2  1  0.14444400  0.50416500  0.65668100  1
  C  C3  1  0.85555600  0.00416500  0.84331900  1
  C  C4  1  0.64444400  0.50416500  0.84331900  1
  C  C5  1  0.35555600  0.00416500  0.65668100  1
  C  C6  1  0.85555600  0.49583500  0.34331900  1
  C  C7  1  0.14444400  0.99583500  0.15668100  1
  C  C8  1  0.25379200  0.79150100  0.48565200  1
  C  C9  1  0.74620800  0.29150100  0.01434800  1
  C  C10  1  0.24620800  0.20849900  0.98565200  1
  C  C11  1  0.75379200  0.70849900  0.51434800  1
  C  C12  1  0.74620800  0.20849900  0.51434800  1
  C  C13  1  0.25379200  0.70849900  0.98565200  1
  C  C14  1  0.75379200  0.79150100  0.01434800  1
  C  C15  1  0.24620800  0.29150100  0.48565200  1
  C  C16  1  0.38803900  0.64439200  0.34581300  1
  C  C17  1  0.61196100  0.14439200  0.15418700  1
  C  C18  1  0.11196100  0.35560800  0.84581300  1
  C  C19  1  0.88803900  0.85560800  0.65418700  1
  C  C20  1  0.61196100  0.35560800  0.65418700  1
  C  C21  1  0.38803900  0.85560800  0.84581300  1
  C  C22  1  0.88803900  0.64439200  0.15418700  1
  C  C23  1  0.11196100  0.14439200  0.34581300  1
  C  C24  1  0.17424700  0.80337800  0.30946400  1
  C  C25  1  0.82575300  0.30337800  0.19053600  1
  C  C26  1  0.32575300  0.19662200  0.80946400  1
  C  C27  1  0.67424700  0.69662200  0.69053600  1
  C  C28  1  0.82575300  0.19662200  0.69053600  1
  C  C29  1  0.17424700  0.69662200  0.80946400  1
  C  C30  1  0.67424700  0.80337800  0.19053600  1
  C  C31  1  0.32575300  0.30337800  0.30946400  1
  C  C32  1  0.26609600  0.76200700  0.42078700  1
  C  C33  1  0.73390400  0.26200700  0.07921300  1
  C  C34  1  0.23390400  0.23799300  0.92078700  1
  C  C35  1  0.76609600  0.73799300  0.57921300  1
  C  C36  1  0.73390400  0.23799300  0.57921300  1
  C  C37  1  0.26609600  0.73799300  0.92078700  1
  C  C38  1  0.76609600  0.76200700  0.07921300  1
  C  C39  1  0.23390400  0.26200700  0.42078700  1
  Ni  Ni40  1  0.16601200  0.81753700  0.37111600  1
  Ni  Ni41  1  0.83398800  0.31753700  0.12888400  1
  Ni  Ni42  1  0.33398800  0.18246300  0.87111600  1
  Ni  Ni43  1  0.66601200  0.68246300  0.62888400  1
  Ni  Ni44  1  0.83398800  0.18246300  0.62888400  1
  Ni  Ni45  1  0.16601200  0.68246300  0.87111600  1
  Ni  Ni46  1  0.66601200  0.81753700  0.12888400  1
  Ni  Ni47  1  0.33398800  0.31753700  0.37111600  1
  Ni  Ni48  1  0.37922600  0.67622100  0.40474000  1
  Ni  Ni49  1  0.62077400  0.17622100  0.09526000  1
  Ni  Ni50  1  0.12077400  0.32377900  0.90474000  1
  Ni  Ni51  1  0.87922600  0.82377900  0.59526000  1
  Ni  Ni52  1  0.62077400  0.32377900  0.59526000  1
  Ni  Ni53  1  0.37922600  0.82377900  0.90474000  1
  Ni  Ni54  1  0.87922600  0.67622100  0.09526000  1
  Ni  Ni55  1  0.12077400  0.17622100  0.40474000  1
  Cu  Cu56  1  0.34274000  0.65336400  0.10473700  1
  Cu  Cu57  1  0.65726000  0.15336400  0.39526300  1
  Cu  Cu58  1  0.15726000  0.34663600  0.60473700  1
  Cu  Cu59  1  0.84274000  0.84663600  0.89526300  1
  Cu  Cu60  1  0.65726000  0.34663600  0.89526300  1
  Cu  Cu61  1  0.34274000  0.84663600  0.60473700  1
  Cu  Cu62  1  0.84274000  0.65336400  0.39526300  1
  Cu  Cu63  1  0.15726000  0.15336400  0.10473700  1
  Cu  Cu64  1  0.35485100  0.40476200  0.06297100  1
  Cu  Cu65  1  0.64514900  0.90476200  0.43702900  1
  Cu  Cu66  1  0.14514900  0.59523800  0.56297100  1
  Cu  Cu67  1  0.85485100  0.09523800  0.93702900  1
  Cu  Cu68  1  0.64514900  0.59523800  0.93702900  1
  Cu  Cu69  1  0.35485100  0.09523800  0.56297100  1
  Cu  Cu70  1  0.85485100  0.40476200  0.43702900  1
  Cu  Cu71  1  0.14514900  0.90476200  0.06297100  1
  Cu  Cu72  1  0.37343800  0.33696900  0.21337500  1
  Cu  Cu73  1  0.62656200  0.83696900  0.28662500  1
  Cu  Cu74  1  0.12656200  0.66303100  0.71337500  1
  Cu  Cu75  1  0.87343800  0.16303100  0.78662500  1
  Cu  Cu76  1  0.62656200  0.66303100  0.78662500  1
  Cu  Cu77  1  0.37343800  0.16303100  0.71337500  1
  Cu  Cu78  1  0.87343800  0.33696900  0.28662500  1
  Cu  Cu79  1  0.12656200  0.83696900  0.21337500  1
  Cu  Cu80  1  0.36044400  0.58750700  0.25375600  1
  Cu  Cu81  1  0.63955600  0.08750700  0.24624400  1
  Cu  Cu82  1  0.13955600  0.41249300  0.75375600  1
  Cu  Cu83  1  0.86044400  0.91249300  0.74624400  1
  Cu  Cu84  1  0.63955600  0.41249300  0.74624400  1
  Cu  Cu85  1  0.36044400  0.91249300  0.75375600  1
  Cu  Cu86  1  0.86044400  0.58750700  0.24624400  1
  Cu  Cu87  1  0.13955600  0.08750700  0.25375600  1
  Cu  Cu88  1  0.56931500  0.50382500  0.15345000  1
  Cu  Cu89  1  0.43068500  0.00382500  0.34655000  1
  Cu  Cu90  1  0.93068500  0.49617500  0.65345000  1
  Cu  Cu91  1  0.06931500  0.99617500  0.84655000  1
  Cu  Cu92  1  0.43068500  0.49617500  0.84655000  1
  Cu  Cu93  1  0.56931500  0.99617500  0.65345000  1
  Cu  Cu94  1  0.06931500  0.50382500  0.34655000  1
  Cu  Cu95  1  0.93068500  0.00382500  0.15345000  1
  Cu  Cu96  1  0.14447200  0.48465900  0.16447600  1
  Cu  Cu97  1  0.85552800  0.98465900  0.33552400  1
  Cu  Cu98  1  0.35552800  0.51534100  0.66447600  1
  Cu  Cu99  1  0.64447200  0.01534100  0.83552400  1
  Cu  Cu100  1  0.85552800  0.51534100  0.83552400  1
  Cu  Cu101  1  0.14447200  0.01534100  0.66447600  1
  Cu  Cu102  1  0.64447200  0.48465900  0.33552400  1
  Cu  Cu103  1  0.35552800  0.98465900  0.16447600  1
