# generated using pymatgen
data_CuNiC13
_symmetry_space_group_name_H-M   'P 1'
_cell_length_a   5.96188040
_cell_length_b   5.96188040
_cell_length_c   14.97522500
_cell_angle_alpha   90.00000000
_cell_angle_beta   90.00000000
_cell_angle_gamma   120.00000448
_symmetry_Int_Tables_number   1
_chemical_formula_structural   CuNiC13
_chemical_formula_sum   'Cu2 Ni2 C26'
_cell_volume   460.96769198
_cell_formula_units_Z   2
loop_
 _symmetry_equiv_pos_site_id
 _symmetry_equiv_pos_as_xyz
  1  'x, y, z'
loop_
 _atom_site_type_symbol
 _atom_site_label
 _atom_site_symmetry_multiplicity
 _atom_site_fract_x
 _atom_site_fract_y
 _atom_site_fract_z
 _atom_site_occupancy
  C  C0  1  0.33333300  0.66666700  0.58964400  1
  C  C1  1  0.66666700  0.33333300  0.41035600  1
  C  C2  1  0.66666700  0.33333300  0.09935700  1
  C  C3  1  0.33333300  0.66666700  0.90064300  1
  C  C4  1  0.00000000  0.00000000  0.25656000  1
  C  C5  1  0.00000000  0.00000000  0.74344000  1
  C  C6  1  0.00000000  0.00000000  0.50000000  1
  C  C7  1  0.00000000  0.00000000  0.00000000  1
  Ni  Ni8  1  0.66666700  0.33333300  0.84259300  1
  Ni  Ni9  1  0.33333300  0.66666700  0.15740700  1
  Cu  Cu10  1  0.33333300  0.66666700  0.33712300  1
  Cu  Cu11  1  0.66666700  0.33333300  0.66287700  1
  C  C12  1  0.17505700  0.82494300  0.08665800  1
  C  C13  1  0.17505700  0.35011500  0.08665800  1
  C  C14  1  0.64988500  0.82494300  0.08665800  1
  C  C15  1  0.82494300  0.17505700  0.91334200  1
  C  C16  1  0.82494300  0.64988500  0.91334200  1
  C  C17  1  0.35011500  0.17505700  0.91334200  1
  C  C18  1  0.82649700  0.17350300  0.58695900  1
  C  C19  1  0.82649700  0.65299400  0.58695900  1
  C  C20  1  0.34700600  0.17350300  0.58695900  1
  C  C21  1  0.17350300  0.82649700  0.41304100  1
  C  C22  1  0.17350300  0.34700600  0.41304100  1
  C  C23  1  0.65299400  0.82649700  0.41304100  1
  C  C24  1  0.48486000  0.51514000  0.24581000  1
  C  C25  1  0.48486000  0.96971900  0.24581000  1
  C  C26  1  0.03028100  0.51514000  0.24581000  1
  C  C27  1  0.51514000  0.48486000  0.75419000  1
  C  C28  1  0.51514000  0.03028100  0.75419000  1
  C  C29  1  0.96971900  0.48486000  0.75419000  1
