# generated using pymatgen
data_CuNiC5
_symmetry_space_group_name_H-M   'P 1'
_cell_length_a   6.73100067
_cell_length_b   6.73100067
_cell_length_c   5.45660200
_cell_angle_alpha   90.00000000
_cell_angle_beta   90.00000000
_cell_angle_gamma   132.27548449
_symmetry_Int_Tables_number   1
_chemical_formula_structural   CuNiC5
_chemical_formula_sum   'Cu2 Ni2 C10'
_cell_volume   182.92190716
_cell_formula_units_Z   2
loop_
 _symmetry_equiv_pos_site_id
 _symmetry_equiv_pos_as_xyz
  1  'x, y, z'
loop_
 _atom_site_type_symbol
 _atom_site_label
 _atom_site_symmetry_multiplicity
 _atom_site_fract_x
 _atom_site_fract_y
 _atom_site_fract_z
 _atom_site_occupancy
  Ni  Ni0  1  0.60729200  0.39270800  0.25000000  1
  Ni  Ni1  1  0.39270800  0.60729200  0.75000000  1
  Cu  Cu2  1  0.11205400  0.88794600  0.75000000  1
  Cu  Cu3  1  0.88794600  0.11205400  0.25000000  1
  C  C4  1  0.24933000  0.75067000  0.25000000  1
  C  C5  1  0.75067000  0.24933000  0.75000000  1
  C  C6  1  0.92092200  0.07907800  0.75000000  1
  C  C7  1  0.40916600  0.59083400  0.25000000  1
  C  C8  1  0.07907800  0.92092200  0.25000000  1
  C  C9  1  0.59083400  0.40916600  0.75000000  1
  C  C10  1  0.00000000  0.50000000  0.50000000  1
  C  C11  1  0.50000000  0.00000000  0.00000000  1
  C  C12  1  0.50000000  0.00000000  0.50000000  1
  C  C13  1  0.00000000  0.50000000  0.00000000  1
