# generated using pymatgen
data_Cu(NiC4)2
_symmetry_space_group_name_H-M   'P 1'
_cell_length_a   14.20868500
_cell_length_b   6.90110900
_cell_length_c   10.78629347
_cell_angle_alpha   71.90344326
_cell_angle_beta   90.00000000
_cell_angle_gamma   90.00000000
_symmetry_Int_Tables_number   1
_chemical_formula_structural   Cu(NiC4)2
_chemical_formula_sum   'Cu8 Ni16 C64'
_cell_volume   1005.33972704
_cell_formula_units_Z   8
loop_
 _symmetry_equiv_pos_site_id
 _symmetry_equiv_pos_as_xyz
  1  'x, y, z'
loop_
 _atom_site_type_symbol
 _atom_site_label
 _atom_site_symmetry_multiplicity
 _atom_site_fract_x
 _atom_site_fract_y
 _atom_site_fract_z
 _atom_site_occupancy
  C  C0  1  0.49691900  0.97572700  0.74286200  1
  C  C1  1  0.87818900  0.66931500  0.95755600  1
  C  C2  1  0.37818900  0.33068500  0.54244400  1
  C  C3  1  0.12181100  0.33068500  0.04244400  1
  C  C4  1  0.62181100  0.66931500  0.45755600  1
  C  C5  1  0.00308100  0.97572700  0.24286200  1
  C  C6  1  0.50308100  0.02427300  0.25713800  1
  C  C7  1  0.99691900  0.02427300  0.75713800  1
  Ni  Ni8  1  0.88536800  0.16631500  0.97437400  1
  Ni  Ni9  1  0.02828900  0.56279700  0.71290900  1
  Ni  Ni10  1  0.47171100  0.56279700  0.21290900  1
  Ni  Ni11  1  0.97171100  0.43720300  0.28709100  1
  Ni  Ni12  1  0.73304700  0.51479800  0.76869800  1
  Ni  Ni13  1  0.23304700  0.48520200  0.73130200  1
  Ni  Ni14  1  0.26695300  0.48520200  0.23130200  1
  Ni  Ni15  1  0.76695300  0.51479800  0.26869800  1
  Ni  Ni16  1  0.52828900  0.43720300  0.78709100  1
  Ni  Ni17  1  0.12484900  0.13148300  0.46092700  1
  Ni  Ni18  1  0.62484900  0.86851700  0.03907300  1
  Ni  Ni19  1  0.87515100  0.86851700  0.53907300  1
  Ni  Ni20  1  0.38536800  0.83368500  0.52562600  1
  Ni  Ni21  1  0.61463200  0.16631500  0.47437400  1
  Ni  Ni22  1  0.11463200  0.83368500  0.02562600  1
  Ni  Ni23  1  0.37515100  0.13148300  0.96092700  1
  Cu  Cu24  1  0.64607300  0.36692400  0.08033100  1
  Cu  Cu25  1  0.14607300  0.63307600  0.41966900  1
  Cu  Cu26  1  0.35392700  0.63307600  0.91966900  1
  Cu  Cu27  1  0.85392700  0.36692400  0.58033100  1
  Cu  Cu28  1  0.76115200  0.00716300  0.25704800  1
  Cu  Cu29  1  0.26115200  0.99283700  0.24295200  1
  Cu  Cu30  1  0.23884800  0.99283700  0.74295200  1
  Cu  Cu31  1  0.73884800  0.00716300  0.75704800  1
  C  C32  1  0.99705900  0.23265900  0.95934300  1
  C  C33  1  0.49705900  0.76734100  0.54065700  1
  C  C34  1  0.00294100  0.76734100  0.04065700  1
  C  C35  1  0.50294100  0.23265900  0.45934300  1
  C  C36  1  0.86593000  0.99846200  0.88340000  1
  C  C37  1  0.36593000  0.00153800  0.61660000  1
  C  C38  1  0.13407000  0.00153800  0.11660000  1
  C  C39  1  0.63407000  0.99846200  0.38340000  1
  C  C40  1  0.87074500  0.02353300  0.13813600  1
  C  C41  1  0.37074500  0.97646700  0.36186400  1
  C  C42  1  0.12925500  0.97646700  0.86186400  1
  C  C43  1  0.62925500  0.02353300  0.63813600  1
  C  C44  1  0.30582100  0.35811000  0.90240600  1
  C  C45  1  0.80582100  0.64189000  0.59759400  1
  C  C46  1  0.69417900  0.64189000  0.09759400  1
  C  C47  1  0.19417900  0.35811000  0.40240600  1
  C  C48  1  0.37298200  0.01203400  0.12714200  1
  C  C49  1  0.87298200  0.98796600  0.37285800  1
  C  C50  1  0.62701800  0.98796600  0.87285800  1
  C  C51  1  0.12701800  0.01203400  0.62714200  1
  C  C52  1  0.35822900  0.95225100  0.87827700  1
  C  C53  1  0.46478100  0.65906900  0.81948700  1
  C  C54  1  0.85822900  0.04774900  0.62172300  1
  C  C55  1  0.14177100  0.95225100  0.37827700  1
  C  C56  1  0.47200200  0.29613500  0.69397900  1
  C  C57  1  0.97200200  0.70386500  0.80602100  1
  C  C58  1  0.52799800  0.70386500  0.30602100  1
  C  C59  1  0.02799800  0.29613500  0.19397900  1
  C  C60  1  0.48553300  0.23418200  0.94421000  1
  C  C61  1  0.98553300  0.76581800  0.55579000  1
  C  C62  1  0.51446700  0.76581800  0.05579000  1
  C  C63  1  0.01446700  0.23418200  0.44421000  1
  C  C64  1  0.87483600  0.56394200  0.16349200  1
  C  C65  1  0.37483600  0.43605800  0.33650800  1
  C  C66  1  0.12516400  0.43605800  0.83650800  1
  C  C67  1  0.62516400  0.56394200  0.66349200  1
  C  C68  1  0.74339400  0.28608200  0.20693800  1
  C  C69  1  0.24339400  0.71391800  0.29306200  1
  C  C70  1  0.25660600  0.71391800  0.79306200  1
  C  C71  1  0.75660600  0.28608200  0.70693800  1
  C  C72  1  0.68085300  0.39043400  0.42639000  1
  C  C73  1  0.18085300  0.60956600  0.07361000  1
  C  C74  1  0.31914700  0.60956600  0.57361000  1
  C  C75  1  0.81914700  0.39043400  0.92639000  1
  C  C76  1  0.73740800  0.74314500  0.32018100  1
  C  C77  1  0.23740800  0.25685500  0.17981900  1
  C  C78  1  0.26259200  0.25685500  0.67981900  1
  C  C79  1  0.76259200  0.74314500  0.82018100  1
  C  C80  1  0.86355500  0.44220400  0.40349500  1
  C  C81  1  0.36355500  0.55779600  0.09650500  1
  C  C82  1  0.13644500  0.55779600  0.59650500  1
  C  C83  1  0.63644500  0.44220400  0.90349500  1
  C  C84  1  0.03521900  0.65906900  0.31948700  1
  C  C85  1  0.53521900  0.34093100  0.18051300  1
  C  C86  1  0.96478100  0.34093100  0.68051300  1
  C  C87  1  0.64177100  0.04774900  0.12172300  1
