# generated using pymatgen
data_CuNiC11
_symmetry_space_group_name_H-M   'P 1'
_cell_length_a   7.04805000
_cell_length_b   5.67218100
_cell_length_c   9.76642896
_cell_angle_alpha   89.06013362
_cell_angle_beta   90.00000000
_cell_angle_gamma   90.00000000
_symmetry_Int_Tables_number   1
_chemical_formula_structural   CuNiC11
_chemical_formula_sum   'Cu2 Ni2 C22'
_cell_volume   390.38796382
_cell_formula_units_Z   2
loop_
 _symmetry_equiv_pos_site_id
 _symmetry_equiv_pos_as_xyz
  1  'x, y, z'
loop_
 _atom_site_type_symbol
 _atom_site_label
 _atom_site_symmetry_multiplicity
 _atom_site_fract_x
 _atom_site_fract_y
 _atom_site_fract_z
 _atom_site_occupancy
  C  C0  1  0.25000000  0.76208100  0.92126200  1
  C  C1  1  0.00871900  0.25861600  0.73072100  1
  C  C2  1  0.49128100  0.25861600  0.73072100  1
  C  C3  1  0.50871900  0.74138400  0.26927900  1
  C  C4  1  0.99128100  0.74138400  0.26927900  1
  C  C5  1  0.75000000  0.23791900  0.07873800  1
  C  C6  1  0.75000000  0.77490200  0.63617700  1
  C  C7  1  0.25000000  0.22509800  0.36382300  1
  Ni  Ni8  1  0.25000000  0.71477900  0.57754700  1
  Ni  Ni9  1  0.75000000  0.28522100  0.42245300  1
  Cu  Cu10  1  0.75000000  0.74162400  0.91778900  1
  Cu  Cu11  1  0.25000000  0.25837600  0.08221100  1
  C  C12  1  0.25000000  0.26720300  0.94926200  1
  C  C13  1  0.75000000  0.94393900  0.85188700  1
  C  C14  1  0.75000000  0.54920100  0.84631400  1
  C  C15  1  0.07047800  0.76089200  0.66709600  1
  C  C16  1  0.42952200  0.76089200  0.66709600  1
  C  C17  1  0.25000000  0.45046900  0.53359100  1
  C  C18  1  0.75000000  0.12428600  0.55273400  1
  C  C19  1  0.25000000  0.87571400  0.44726600  1
  C  C20  1  0.75000000  0.54953100  0.46640900  1
  C  C21  1  0.57047800  0.23910800  0.33290400  1
  C  C22  1  0.92952200  0.23910800  0.33290400  1
  C  C23  1  0.25000000  0.45079900  0.15368600  1
  C  C24  1  0.25000000  0.05606100  0.14811300  1
  C  C25  1  0.75000000  0.73279700  0.05073800  1
