# generated using pymatgen
data_Cu5Ni3C2
_symmetry_space_group_name_H-M   'P 1'
_cell_length_a   9.46709900
_cell_length_b   9.46709900
_cell_length_c   3.01514000
_cell_angle_alpha   90.00000000
_cell_angle_beta   90.00000000
_cell_angle_gamma   90.00000000
_symmetry_Int_Tables_number   1
_chemical_formula_structural   Cu5Ni3C2
_chemical_formula_sum   'Cu10 Ni6 C4'
_cell_volume   270.23482751
_cell_formula_units_Z   2
loop_
 _symmetry_equiv_pos_site_id
 _symmetry_equiv_pos_as_xyz
  1  'x, y, z'
loop_
 _atom_site_type_symbol
 _atom_site_label
 _atom_site_symmetry_multiplicity
 _atom_site_fract_x
 _atom_site_fract_y
 _atom_site_fract_z
 _atom_site_occupancy
  Ni  Ni0  1  0.82390500  0.67609500  0.00000000  1
  Ni  Ni1  1  0.17609500  0.32390500  0.00000000  1
  Ni  Ni2  1  0.32390500  0.82390500  0.00000000  1
  Ni  Ni3  1  0.67609500  0.17609500  0.00000000  1
  Ni  Ni4  1  0.50000000  0.50000000  0.00000000  1
  Ni  Ni5  1  0.00000000  0.00000000  0.00000000  1
  C  C6  1  0.62151200  0.87848800  0.00000000  1
  C  C7  1  0.37848800  0.12151200  0.00000000  1
  C  C8  1  0.12151200  0.62151200  0.00000000  1
  C  C9  1  0.87848800  0.37848800  0.00000000  1
  Cu  Cu10  1  0.57130200  0.71839400  0.50000000  1
  Cu  Cu11  1  0.42869800  0.28160600  0.50000000  1
  Cu  Cu12  1  0.07130200  0.78160600  0.50000000  1
  Cu  Cu13  1  0.92869800  0.21839400  0.50000000  1
  Cu  Cu14  1  0.28160600  0.57130200  0.50000000  1
  Cu  Cu15  1  0.71839400  0.42869800  0.50000000  1
  Cu  Cu16  1  0.21839400  0.07130200  0.50000000  1
  Cu  Cu17  1  0.78160600  0.92869800  0.50000000  1
  Cu  Cu18  1  0.50000000  0.00000000  0.50000000  1
  Cu  Cu19  1  0.00000000  0.50000000  0.50000000  1
