# generated using pymatgen
data_CuNiC12
_symmetry_space_group_name_H-M   'P 1'
_cell_length_a   5.84829721
_cell_length_b   5.84829721
_cell_length_c   5.84829619
_cell_angle_alpha   96.83802812
_cell_angle_beta   96.83802812
_cell_angle_gamma   96.83803419
_symmetry_Int_Tables_number   1
_chemical_formula_structural   CuNiC12
_chemical_formula_sum   'Cu1 Ni1 C12'
_cell_volume   195.38190459
_cell_formula_units_Z   1
loop_
 _symmetry_equiv_pos_site_id
 _symmetry_equiv_pos_as_xyz
  1  'x, y, z'
loop_
 _atom_site_type_symbol
 _atom_site_label
 _atom_site_symmetry_multiplicity
 _atom_site_fract_x
 _atom_site_fract_y
 _atom_site_fract_z
 _atom_site_occupancy
  Ni  Ni0  1  0.00000000  0.00000000  0.00000000  1
  Cu  Cu1  1  0.50000000  0.50000000  0.50000000  1
  C  C2  1  0.79292600  0.61537600  0.44295100  1
  C  C3  1  0.61537600  0.44295100  0.79292600  1
  C  C4  1  0.44295100  0.79292600  0.61537600  1
  C  C5  1  0.20707400  0.38462400  0.55704900  1
  C  C6  1  0.38462400  0.55704900  0.20707400  1
  C  C7  1  0.55704900  0.20707400  0.38462400  1
  C  C8  1  0.74871200  0.07198600  0.79600400  1
  C  C9  1  0.07198600  0.79600400  0.74871200  1
  C  C10  1  0.79600400  0.74871200  0.07198600  1
  C  C11  1  0.25128800  0.92801400  0.20399600  1
  C  C12  1  0.92801400  0.20399600  0.25128800  1
  C  C13  1  0.20399600  0.25128800  0.92801400  1
