# generated using pymatgen
data_Cu3Ni4C13
_symmetry_space_group_name_H-M   'P 1'
_cell_length_a   6.62376759
_cell_length_b   6.62376759
_cell_length_c   10.81656718
_cell_angle_alpha   90.00000000
_cell_angle_beta   90.00000000
_cell_angle_gamma   109.47122063
_symmetry_Int_Tables_number   1
_chemical_formula_structural   Cu3Ni4C13
_chemical_formula_sum   'Cu6 Ni8 C26'
_cell_volume   447.42820945
_cell_formula_units_Z   2
loop_
 _symmetry_equiv_pos_site_id
 _symmetry_equiv_pos_as_xyz
  1  'x, y, z'
loop_
 _atom_site_type_symbol
 _atom_site_label
 _atom_site_symmetry_multiplicity
 _atom_site_fract_x
 _atom_site_fract_y
 _atom_site_fract_z
 _atom_site_occupancy
  C  C0  1  0.00000000  0.00000000  0.00000000  1
  C  C1  1  0.50000000  0.50000000  0.50000000  1
  Ni  Ni2  1  0.25000000  0.25000000  0.25000000  1
  Ni  Ni3  1  0.75000000  0.75000000  0.75000000  1
  Ni  Ni4  1  0.50000000  0.00000000  0.00000000  1
  Ni  Ni5  1  0.00000000  0.50000000  0.50000000  1
  Ni  Ni6  1  0.00000000  0.50000000  0.00000000  1
  Ni  Ni7  1  0.50000000  0.00000000  0.50000000  1
  Ni  Ni8  1  0.75000000  0.75000000  0.25000000  1
  Ni  Ni9  1  0.25000000  0.25000000  0.75000000  1
  Cu  Cu10  1  0.75000000  0.25000000  0.75000000  1
  Cu  Cu11  1  0.75000000  0.25000000  0.25000000  1
  Cu  Cu12  1  0.25000000  0.75000000  0.75000000  1
  Cu  Cu13  1  0.50000000  0.50000000  0.00000000  1
  Cu  Cu14  1  0.00000000  0.00000000  0.50000000  1
  Cu  Cu15  1  0.25000000  0.75000000  0.25000000  1
  C  C16  1  0.55123100  0.44876900  0.25770800  1
  C  C17  1  0.05123100  0.94876900  0.75770800  1
  C  C18  1  0.94876900  0.05123100  0.24229200  1
  C  C19  1  0.44876900  0.55123100  0.74229200  1
  C  C20  1  0.74229200  0.25770800  0.44876900  1
  C  C21  1  0.24229200  0.75770800  0.94876900  1
  C  C22  1  0.75770800  0.24229200  0.05123100  1
  C  C23  1  0.25770800  0.74229200  0.55123100  1
  C  C24  1  0.30200700  0.11094600  0.40446900  1
  C  C25  1  0.80200700  0.61094600  0.90446900  1
  C  C26  1  0.19799300  0.38905400  0.09553100  1
  C  C27  1  0.69799300  0.88905400  0.59553100  1
  C  C28  1  0.61094600  0.80200700  0.09553100  1
  C  C29  1  0.11094600  0.30200700  0.59553100  1
  C  C30  1  0.88905400  0.69799300  0.40446900  1
  C  C31  1  0.38905400  0.19799300  0.90446900  1
  C  C32  1  0.16217700  0.45570100  0.35323800  1
  C  C33  1  0.66217700  0.95570100  0.85323800  1
  C  C34  1  0.33782300  0.04429900  0.14676200  1
  C  C35  1  0.83782300  0.54429900  0.64676200  1
  C  C36  1  0.95570100  0.66217700  0.14676200  1
  C  C37  1  0.45570100  0.16217700  0.64676200  1
  C  C38  1  0.54429900  0.83782300  0.35323800  1
  C  C39  1  0.04429900  0.33782300  0.85323800  1
