# generated using pymatgen
data_CuNiC7
_symmetry_space_group_name_H-M   'P 1'
_cell_length_a   11.08225340
_cell_length_b   11.28343513
_cell_length_c   17.50037908
_cell_angle_alpha   108.76980572
_cell_angle_beta   108.55823172
_cell_angle_gamma   90.04674597
_symmetry_Int_Tables_number   1
_chemical_formula_structural   CuNiC7
_chemical_formula_sum   'Cu16 Ni16 C112'
_cell_volume   1951.19840282
_cell_formula_units_Z   16
loop_
 _symmetry_equiv_pos_site_id
 _symmetry_equiv_pos_as_xyz
  1  'x, y, z'
loop_
 _atom_site_type_symbol
 _atom_site_label
 _atom_site_symmetry_multiplicity
 _atom_site_fract_x
 _atom_site_fract_y
 _atom_site_fract_z
 _atom_site_occupancy
  Ni  Ni0  1  0.30934400  0.56074000  0.61024700  1
  Ni  Ni1  1  0.80763900  0.06028400  0.60816600  1
  Ni  Ni2  1  0.80999700  0.56004500  0.60994800  1
  Ni  Ni3  1  0.19667000  0.43705600  0.38844800  1
  Ni  Ni4  1  0.19240000  0.43738300  0.88906800  1
  Ni  Ni5  1  0.69755100  0.43895000  0.38756700  1
  Ni  Ni6  1  0.69926400  0.93581700  0.38652400  1
  Ni  Ni7  1  0.69544300  0.93620500  0.88832500  1
  Ni  Ni8  1  0.06029200  0.29879900  0.60991900  1
  Ni  Ni9  1  0.06018300  0.79895100  0.60919000  1
  Ni  Ni10  1  0.55833400  0.30024800  0.60996300  1
  Ni  Ni11  1  0.55997600  0.79709400  0.61000200  1
  Ni  Ni12  1  0.44661100  0.20115900  0.38699800  1
  Ni  Ni13  1  0.44093000  0.19889100  0.88601300  1
  Ni  Ni14  1  0.94747400  0.19941800  0.38841600  1
  Ni  Ni15  1  0.94875200  0.20488300  0.88991100  1
  Cu  Cu16  1  0.30041700  0.07089300  0.10956600  1
  Cu  Cu17  1  0.30510400  0.06129400  0.60532800  1
  Cu  Cu18  1  0.30442200  0.56346700  0.11286100  1
  Cu  Cu19  1  0.80362400  0.06737600  0.10846300  1
  Cu  Cu20  1  0.80267700  0.56861900  0.11440300  1
  Cu  Cu21  1  0.19455600  0.93331000  0.39108600  1
  Cu  Cu22  1  0.19675400  0.93664500  0.89260600  1
  Cu  Cu23  1  0.69878400  0.43837200  0.89449800  1
  Cu  Cu24  1  0.05559400  0.28819100  0.10914200  1
  Cu  Cu25  1  0.05164200  0.80036900  0.11267400  1
  Cu  Cu26  1  0.54800000  0.29105800  0.10896000  1
  Cu  Cu27  1  0.55424700  0.79431100  0.10976600  1
  Cu  Cu28  1  0.44798100  0.70426900  0.39118700  1
  Cu  Cu29  1  0.44303900  0.70554200  0.89125400  1
  Cu  Cu30  1  0.94703000  0.70693300  0.39218500  1
  Cu  Cu31  1  0.94360400  0.70190000  0.89315200  1
  C  C32  1  0.00353700  0.99786600  0.99852700  1
  C  C33  1  0.00618700  0.50483400  0.00905100  1
  C  C34  1  0.50135400  0.99658600  0.00098900  1
  C  C35  1  0.50308100  0.99761000  0.49799400  1
  C  C36  1  0.50331200  0.50305100  0.00159500  1
  C  C37  1  0.25335600  0.75185400  0.00450600  1
  C  C38  1  0.75107700  0.25413200  0.00222100  1
  C  C39  1  0.75508200  0.74935800  0.00191400  1
  C  C40  1  0.00662000  0.99680300  0.49801900  1
  C  C41  1  0.00431000  0.50076500  0.49826300  1
  C  C42  1  0.50388300  0.50084100  0.49857000  1
  C  C43  1  0.25553400  0.25213900  0.00196400  1
  C  C44  1  0.25452900  0.24595100  0.49913500  1
  C  C45  1  0.25557500  0.75016500  0.49826200  1
  C  C46  1  0.75334800  0.24923500  0.49797000  1
  C  C47  1  0.75519600  0.74802800  0.49724100  1
  C  C48  1  0.10526800  0.09096800  0.24662900  1
  C  C49  1  0.11348200  0.09228200  0.75008900  1
  C  C50  1  0.10910000  0.59598100  0.24998900  1
  C  C51  1  0.11563100  0.60328100  0.75423400  1
  C  C52  1  0.60422900  0.09085100  0.24290700  1
  C  C53  1  0.60752900  0.10074800  0.74906200  1
  C  C54  1  0.60916300  0.59192300  0.24636100  1
  C  C55  1  0.61291700  0.59572100  0.75458300  1
  C  C56  1  0.35555900  0.40684500  0.24851000  1
  C  C57  1  0.36673800  0.40705400  0.75256300  1
  C  C58  1  0.35696600  0.90208100  0.24773800  1
  C  C59  1  0.36087800  0.90366800  0.74976500  1
  C  C60  1  0.85624500  0.40481400  0.24603300  1
  C  C61  1  0.85891500  0.41116900  0.75673200  1
  C  C62  1  0.86238100  0.90329600  0.24584300  1
  C  C63  1  0.86562800  0.90359400  0.75037100  1
  C  C64  1  0.12792700  0.11579000  0.49063500  1
  C  C65  1  0.12358200  0.11257700  0.99347000  1
  C  C66  1  0.12187400  0.62542800  0.48539400  1
  C  C67  1  0.12441200  0.62595700  0.98857500  1
  C  C68  1  0.62255700  0.11983500  0.49042500  1
  C  C69  1  0.62836300  0.12543800  0.99356000  1
  C  C70  1  0.62125800  0.62267600  0.48772300  1
  C  C71  1  0.62904000  0.62134600  0.98763100  1
  C  C72  1  0.13132900  0.39053200  0.01594700  1
  C  C73  1  0.13425100  0.37173300  0.50489700  1
  C  C74  1  0.14252400  0.88061600  0.01850900  1
  C  C75  1  0.13724000  0.88020000  0.50640200  1
  C  C76  1  0.64281600  0.38336800  0.01933400  1
  C  C77  1  0.63035600  0.37549800  0.50267500  1
  C  C78  1  0.64151100  0.87796400  0.01673400  1
  C  C79  1  0.63070200  0.87577000  0.50487200  1
  C  C80  1  0.37031100  0.11182400  0.48624800  1
  C  C81  1  0.37808800  0.10929700  0.99096000  1
  C  C82  1  0.37552000  0.62132400  0.48839700  1
  C  C83  1  0.37999900  0.62103000  0.98766200  1
  C  C84  1  0.87627800  0.12073900  0.49424900  1
  C  C85  1  0.87773500  0.11819400  0.99308600  1
  C  C86  1  0.87326400  0.62370300  0.48867900  1
  C  C87  1  0.87627100  0.61763300  0.98786800  1
  C  C88  1  0.39410200  0.39403700  0.01768600  1
  C  C89  1  0.38002400  0.37536000  0.50348900  1
  C  C90  1  0.39258600  0.88436200  0.01832900  1
  C  C91  1  0.38350800  0.88269400  0.50984400  1
  C  C92  1  0.88753900  0.38944400  0.01740300  1
  C  C93  1  0.87912900  0.37619500  0.50362300  1
  C  C94  1  0.89184100  0.88367500  0.01725300  1
  C  C95  1  0.88402900  0.87687900  0.50472700  1
  C  C96  1  0.08273100  0.08964200  0.13290700  1
  C  C97  1  0.08050000  0.07781800  0.63282200  1
  C  C98  1  0.08008900  0.60323500  0.12884500  1
  C  C99  1  0.07280700  0.58301200  0.63223800  1
  C  C100  1  0.58470600  0.09319900  0.12870600  1
  C  C101  1  0.57405700  0.08365600  0.62507700  1
  C  C102  1  0.58674500  0.60025100  0.12740400  1
  C  C103  1  0.57289500  0.57853000  0.63082600  1
  C  C104  1  0.43488000  0.41768400  0.36409500  1
  C  C105  1  0.46102000  0.41246100  0.87752000  1
  C  C106  1  0.44507000  0.90704700  0.36955100  1
  C  C107  1  0.45489500  0.90828700  0.87695200  1
  C  C108  1  0.93470700  0.41479000  0.36150900  1
  C  C109  1  0.94443800  0.41628700  0.87251600  1
  C  C110  1  0.94837700  0.90939700  0.36756500  1
  C  C111  1  0.95400300  0.90400900  0.87643200  1
  C  C112  1  0.33595400  0.29246400  0.13793600  1
  C  C113  1  0.32663100  0.28781400  0.63046300  1
  C  C114  1  0.33241100  0.77605600  0.12657500  1
  C  C115  1  0.32024500  0.79080100  0.62703900  1
  C  C116  1  0.83636700  0.28864100  0.13037000  1
  C  C117  1  0.82501100  0.30943300  0.64150100  1
  C  C118  1  0.83660400  0.77773700  0.12656600  1
  C  C119  1  0.82316500  0.79393900  0.62753400  1
  C  C120  1  0.18468200  0.19561400  0.36173800  1
  C  C121  1  0.19079500  0.20480800  0.86466900  1
  C  C122  1  0.20366800  0.71377300  0.36952000  1
  C  C123  1  0.20751900  0.72120600  0.87711200  1
  C  C124  1  0.68299900  0.18918500  0.35850600  1
  C  C125  1  0.69919900  0.21910300  0.87843600  1
  C  C126  1  0.69831700  0.70242400  0.36760700  1
  C  C127  1  0.71180300  0.71366200  0.87632900  1
  C  C128  1  0.42230400  0.06929900  0.23871500  1
  C  C129  1  0.42000800  0.07204900  0.74403200  1
  C  C130  1  0.42211600  0.56917700  0.24743600  1
  C  C131  1  0.43257800  0.58303400  0.75997500  1
  C  C132  1  0.92356000  0.07319200  0.23960700  1
  C  C133  1  0.93805100  0.07243600  0.75143300  1
  C  C134  1  0.92210100  0.57133600  0.24904100  1
  C  C135  1  0.93436200  0.57402900  0.76120400  1
  C  C136  1  0.17182400  0.41905600  0.23963500  1
  C  C137  1  0.18531400  0.43764700  0.75289100  1
  C  C138  1  0.17027800  0.92796600  0.24788500  1
  C  C139  1  0.18194700  0.93256800  0.76093500  1
  C  C140  1  0.67201700  0.41655400  0.23810300  1
  C  C141  1  0.68289500  0.42592400  0.76040300  1
  C  C142  1  0.67443800  0.92904100  0.23917200  1
  C  C143  1  0.68600200  0.93764600  0.75291900  1
