# generated using pymatgen
data_Cu(NiC)3
_symmetry_space_group_name_H-M   'P 1'
_cell_length_a   7.98770200
_cell_length_b   7.98770133
_cell_length_c   5.38754400
_cell_angle_alpha   90.00000000
_cell_angle_beta   90.00000000
_cell_angle_gamma   119.99977428
_symmetry_Int_Tables_number   1
_chemical_formula_structural   Cu(NiC)3
_chemical_formula_sum   'Cu2 Ni6 C6'
_cell_volume   297.69128529
_cell_formula_units_Z   2
loop_
 _symmetry_equiv_pos_site_id
 _symmetry_equiv_pos_as_xyz
  1  'x, y, z'
loop_
 _atom_site_type_symbol
 _atom_site_label
 _atom_site_symmetry_multiplicity
 _atom_site_fract_x
 _atom_site_fract_y
 _atom_site_fract_z
 _atom_site_occupancy
  Ni  Ni0  1  0.92971600  0.65786600  0.25000000  1
  Ni  Ni1  1  0.72815000  0.07027900  0.25000000  1
  Ni  Ni2  1  0.34212900  0.27184800  0.25000000  1
  Ni  Ni3  1  0.07028400  0.34213400  0.75000000  1
  Ni  Ni4  1  0.27185000  0.92972100  0.75000000  1
  Ni  Ni5  1  0.65787100  0.72815200  0.75000000  1
  Cu  Cu6  1  0.66664200  0.33332400  0.75000000  1
  Cu  Cu7  1  0.33335800  0.66667600  0.25000000  1
  C  C8  1  0.90266200  0.60967500  0.75000000  1
  C  C9  1  0.70702100  0.09734400  0.75000000  1
  C  C10  1  0.39032600  0.29297900  0.75000000  1
  C  C11  1  0.09733800  0.39032500  0.25000000  1
  C  C12  1  0.29297900  0.90265600  0.25000000  1
  C  C13  1  0.60967400  0.70702100  0.25000000  1
