# generated using pymatgen
data_CuNiC8
_symmetry_space_group_name_H-M   'P 1'
_cell_length_a   8.42096166
_cell_length_b   8.34371133
_cell_length_c   8.41698465
_cell_angle_alpha   90.00000000
_cell_angle_beta   90.00000000
_cell_angle_gamma   90.00000000
_symmetry_Int_Tables_number   1
_chemical_formula_structural   CuNiC8
_chemical_formula_sum   'Cu4 Ni4 C32'
_cell_volume   591.39479170
_cell_formula_units_Z   4
loop_
 _symmetry_equiv_pos_site_id
 _symmetry_equiv_pos_as_xyz
  1  'x, y, z'
loop_
 _atom_site_type_symbol
 _atom_site_label
 _atom_site_symmetry_multiplicity
 _atom_site_fract_x
 _atom_site_fract_y
 _atom_site_fract_z
 _atom_site_occupancy
  Ni  Ni0  1  0.00000000  0.50000000  0.50000000  1
  Ni  Ni1  1  0.50000000  0.50000000  -0.00000000  1
  Ni  Ni2  1  0.50000000  -0.00000000  -0.00000000  1
  Ni  Ni3  1  0.00000000  -0.00000000  0.50000000  1
  Cu  Cu4  1  0.50000000  -0.00000000  0.50000000  1
  Cu  Cu5  1  0.00000000  0.50000000  -0.00000000  1
  Cu  Cu6  1  -0.00000000  -0.00000000  0.00000000  1
  Cu  Cu7  1  0.50000000  0.50000000  0.50000000  1
  C  C8  1  0.25000000  0.25000000  0.25000000  1
  C  C9  1  0.75000000  0.75000000  0.25000000  1
  C  C10  1  0.75000000  0.25000000  0.75000000  1
  C  C11  1  0.25000000  0.75000000  0.75000000  1
  C  C12  1  0.75000000  0.75000000  0.75000000  1
  C  C13  1  0.25000000  0.25000000  0.75000000  1
  C  C14  1  0.25000000  0.75000000  0.25000000  1
  C  C15  1  0.75000000  0.25000000  0.25000000  1
  C  C16  1  0.00447224  0.23001751  0.24768888  1
  C  C17  1  0.99552776  0.76998249  0.24768888  1
  C  C18  1  0.99552776  0.23001751  0.75231112  1
  C  C19  1  0.00447224  0.76998249  0.75231112  1
  C  C20  1  0.26548055  0.00480144  0.23323157  1
  C  C21  1  0.26548055  0.99519856  0.76676843  1
  C  C22  1  0.73451945  0.99519856  0.23323157  1
  C  C23  1  0.73451945  0.00480144  0.76676843  1
  C  C24  1  0.21009886  0.26751279  0.00396982  1
  C  C25  1  0.78990114  0.26751279  0.99603018  1
  C  C26  1  0.21009886  0.73248721  0.99603018  1
  C  C27  1  0.78990114  0.73248721  0.00396982  1
  C  C28  1  0.49552776  0.26998249  0.25231112  1
  C  C29  1  0.50447224  0.73001751  0.25231112  1
  C  C30  1  0.50447224  0.26998249  0.74768888  1
  C  C31  1  0.49552776  0.73001751  0.74768888  1
  C  C32  1  0.23451945  0.49519856  0.26676843  1
  C  C33  1  0.23451945  0.50480144  0.73323157  1
  C  C34  1  0.76548055  0.50480144  0.26676843  1
  C  C35  1  0.76548055  0.49519856  0.73323157  1
  C  C36  1  0.28990114  0.23248721  0.49603018  1
  C  C37  1  0.71009886  0.23248721  0.50396982  1
  C  C38  1  0.28990114  0.76751279  0.50396982  1
  C  C39  1  0.71009886  0.76751279  0.49603018  1
