# generated using pymatgen
data_CuNi5C3
_symmetry_space_group_name_H-M   'P 1'
_cell_length_a   14.26238859
_cell_length_b   14.26238859
_cell_length_c   14.26238891
_cell_angle_alpha   107.78413379
_cell_angle_beta   107.78413379
_cell_angle_gamma   107.78413282
_symmetry_Int_Tables_number   1
_chemical_formula_structural   CuNi5C3
_chemical_formula_sum   'Cu6 Ni30 C18'
_cell_volume   2362.55570086
_cell_formula_units_Z   6
loop_
 _symmetry_equiv_pos_site_id
 _symmetry_equiv_pos_as_xyz
  1  'x, y, z'
loop_
 _atom_site_type_symbol
 _atom_site_label
 _atom_site_symmetry_multiplicity
 _atom_site_fract_x
 _atom_site_fract_y
 _atom_site_fract_z
 _atom_site_occupancy
  C  C0  1  0.01982200  0.23764200  0.23764200  1
  C  C1  1  0.23764200  0.23764200  0.01982200  1
  C  C2  1  0.23764200  0.01982200  0.23764200  1
  C  C3  1  0.98429300  0.76357500  0.76357500  1
  C  C4  1  0.76357500  0.76357500  0.98429300  1
  C  C5  1  0.76357500  0.98429300  0.76357500  1
  C  C6  1  0.16514500  0.83577600  0.50005700  1
  C  C7  1  0.83577600  0.50005700  0.16514500  1
  C  C8  1  0.50005700  0.16514500  0.83577600  1
  C  C9  1  0.50005700  0.83577600  0.16514500  1
  C  C10  1  0.83577600  0.16514500  0.50005700  1
  C  C11  1  0.16514500  0.50005700  0.83577600  1
  C  C12  1  0.36810200  0.58367600  0.58367600  1
  C  C13  1  0.58367600  0.58367600  0.36810200  1
  C  C14  1  0.58367600  0.36810200  0.58367600  1
  C  C15  1  0.49727500  0.49727500  0.99613000  1
  C  C16  1  0.49727500  0.99613000  0.49727500  1
  C  C17  1  0.99613000  0.49727500  0.49727500  1
  Ni  Ni18  1  0.70114000  0.70114000  0.19837700  1
  Ni  Ni19  1  0.70114000  0.19837700  0.70114000  1
  Ni  Ni20  1  0.19837700  0.70114000  0.70114000  1
  Ni  Ni21  1  0.29608800  0.29608800  0.80139200  1
  Ni  Ni22  1  0.29608800  0.80139200  0.29608800  1
  Ni  Ni23  1  0.80139200  0.29608800  0.29608800  1
  Ni  Ni24  1  0.50038500  0.00024700  0.00024700  1
  Ni  Ni25  1  0.00024700  0.00024700  0.50038500  1
  Ni  Ni26  1  0.00024700  0.50038500  0.00024700  1
  Ni  Ni27  1  0.33770000  0.33770000  0.33770000  1
  Ni  Ni28  1  0.67194100  0.67194100  0.67194100  1
  Ni  Ni29  1  0.99974800  0.99974800  0.99974800  1
  Ni  Ni30  1  0.71661800  0.01612300  0.01612300  1
  Ni  Ni31  1  0.01612300  0.01612300  0.71661800  1
  Ni  Ni32  1  0.01612300  0.71661800  0.01612300  1
  Ni  Ni33  1  0.28344100  0.98343200  0.98343200  1
  Ni  Ni34  1  0.98343200  0.98343200  0.28344100  1
  Ni  Ni35  1  0.98343200  0.28344100  0.98343200  1
  Ni  Ni36  1  0.54055500  0.35210100  0.11143100  1
  Ni  Ni37  1  0.35210100  0.11143100  0.54055500  1
  Ni  Ni38  1  0.11143100  0.54055500  0.35210100  1
  Ni  Ni39  1  0.11143100  0.35210100  0.54055500  1
  Ni  Ni40  1  0.35210100  0.54055500  0.11143100  1
  Ni  Ni41  1  0.54055500  0.11143100  0.35210100  1
  Ni  Ni42  1  0.46018100  0.65142000  0.88975100  1
  Ni  Ni43  1  0.65142000  0.88975100  0.46018100  1
  Ni  Ni44  1  0.88975100  0.46018100  0.65142000  1
  Ni  Ni45  1  0.88975100  0.65142000  0.46018100  1
  Ni  Ni46  1  0.65142000  0.46018100  0.88975100  1
  Ni  Ni47  1  0.46018100  0.88975100  0.65142000  1
  Cu  Cu48  1  0.73733500  0.26342500  0.00035900  1
  Cu  Cu49  1  0.26342500  0.00035900  0.73733500  1
  Cu  Cu50  1  0.00035900  0.73733500  0.26342500  1
  Cu  Cu51  1  0.00035900  0.26342500  0.73733500  1
  Cu  Cu52  1  0.26342500  0.73733500  0.00035900  1
  Cu  Cu53  1  0.73733500  0.00035900  0.26342500  1
