# generated using pymatgen
data_Cu8Ni18C19
_symmetry_space_group_name_H-M   'P 1'
_cell_length_a   7.16325768
_cell_length_b   16.32908810
_cell_length_c   16.21997285
_cell_angle_alpha   90.00000000
_cell_angle_beta   90.00000000
_cell_angle_gamma   99.32479834
_symmetry_Int_Tables_number   1
_chemical_formula_structural   Cu8Ni18C19
_chemical_formula_sum   'Cu32 Ni72 C76'
_cell_volume   1872.17080037
_cell_formula_units_Z   4
loop_
 _symmetry_equiv_pos_site_id
 _symmetry_equiv_pos_as_xyz
  1  'x, y, z'
loop_
 _atom_site_type_symbol
 _atom_site_label
 _atom_site_symmetry_multiplicity
 _atom_site_fract_x
 _atom_site_fract_y
 _atom_site_fract_z
 _atom_site_occupancy
  C  C0  1  0.51181595  0.55126853  0.24359801  1
  C  C1  1  0.01181595  0.05126853  0.25640199  1
  C  C2  1  0.48818405  0.44873147  0.75640199  1
  C  C3  1  0.98818405  0.94873147  0.74359801  1
  C  C4  1  0.47578018  0.75172564  0.54949753  1
  C  C5  1  0.97578018  0.25172564  0.95050247  1
  C  C6  1  0.52421982  0.24827436  0.45050247  1
  C  C7  1  0.02421982  0.74827436  0.04949753  1
  Ni  Ni8  1  0.87559703  0.82957392  0.51066840  1
  Ni  Ni9  1  0.37559703  0.32957392  0.98933160  1
  Ni  Ni10  1  0.12440297  0.17042608  0.48933160  1
  Ni  Ni11  1  0.62440297  0.67042608  0.01066840  1
  Ni  Ni12  1  0.86739590  0.80286192  0.60648915  1
  Ni  Ni13  1  0.36739590  0.30286192  0.89351085  1
  Ni  Ni14  1  0.13260410  0.19713808  0.39351085  1
  Ni  Ni15  1  0.63260410  0.69713808  0.10648915  1
  Ni  Ni16  1  0.08829432  0.68986769  0.48715486  1
  Ni  Ni17  1  0.58829432  0.18986769  0.01284514  1
  Ni  Ni18  1  0.91170568  0.31013231  0.51284514  1
  Ni  Ni19  1  0.41170568  0.81013231  0.98715486  1
  Ni  Ni20  1  0.07542174  0.66697512  0.58495287  1
  Ni  Ni21  1  0.57542174  0.16697512  0.91504713  1
  Ni  Ni22  1  0.92457826  0.33302488  0.41504713  1
  Ni  Ni23  1  0.42457826  0.83302488  0.08495287  1
  Ni  Ni24  1  0.52921386  0.60070429  0.61849448  1
  Ni  Ni25  1  0.02921386  0.10070429  0.88150552  1
  Ni  Ni26  1  0.47078614  0.39929571  0.38150552  1
  Ni  Ni27  1  0.97078614  0.89929571  0.11849448  1
  Ni  Ni28  1  0.43717600  0.58082936  0.52998841  1
  Ni  Ni29  1  0.93717600  0.08082936  0.97001159  1
  Ni  Ni30  1  0.56282400  0.41917064  0.47001159  1
  Ni  Ni31  1  0.06282400  0.91917064  0.02998841  1
  Ni  Ni32  1  0.42873605  0.90265476  0.46776307  1
  Ni  Ni33  1  0.92873605  0.40265476  0.03223693  1
  Ni  Ni34  1  0.57126395  0.09734524  0.53223693  1
  Ni  Ni35  1  0.07126395  0.59734524  0.96776307  1
  Ni  Ni36  1  0.27335141  0.89462576  0.53864254  1
  Ni  Ni37  1  0.77335141  0.39462576  0.96135746  1
  Ni  Ni38  1  0.72664859  0.10537424  0.46135746  1
  Ni  Ni39  1  0.22664859  0.60537424  0.03864254  1
  Ni  Ni40  1  0.78494916  0.61148508  0.36904052  1
  Ni  Ni41  1  0.28494916  0.11148508  0.13095948  1
  Ni  Ni42  1  0.21505084  0.38851492  0.63095948  1
  Ni  Ni43  1  0.71505084  0.88851492  0.86904052  1
  Ni  Ni44  1  0.58882120  0.63583203  0.39193481  1
  Ni  Ni45  1  0.08882120  0.13583203  0.10806519  1
  Ni  Ni46  1  0.41117880  0.36416797  0.60806519  1
  Ni  Ni47  1  0.91117880  0.86416797  0.89193481  1
  Ni  Ni48  1  0.20792634  0.56777885  0.35581106  1
  Ni  Ni49  1  0.70792634  0.06777885  0.14418894  1
  Ni  Ni50  1  0.79207366  0.43222115  0.64418894  1
  Ni  Ni51  1  0.29207366  0.93222115  0.85581106  1
  Ni  Ni52  1  0.13790819  0.48516138  0.30997885  1
  Ni  Ni53  1  0.63790819  0.98516138  0.19002115  1
  Ni  Ni54  1  0.86209181  0.51483862  0.69002115  1
  Ni  Ni55  1  0.36209181  0.01483862  0.80997885  1
  Ni  Ni56  1  0.42624191  0.47209363  0.09267815  1
  Ni  Ni57  1  0.92624191  0.97209363  0.40732185  1
  Ni  Ni58  1  0.57375809  0.52790637  0.90732185  1
  Ni  Ni59  1  0.07375809  0.02790637  0.59267815  1
  Ni  Ni60  1  0.23202500  0.49314821  0.12269292  1
  Ni  Ni61  1  0.73202500  0.99314821  0.37730708  1
  Ni  Ni62  1  0.76797500  0.50685179  0.87730708  1
  Ni  Ni63  1  0.26797500  0.00685179  0.62269292  1
  Ni  Ni64  1  0.90614718  0.60783940  0.19300056  1
  Ni  Ni65  1  0.40614718  0.10783940  0.30699944  1
  Ni  Ni66  1  0.09385282  0.39216060  0.80699944  1
  Ni  Ni67  1  0.59385282  0.89216060  0.69300056  1
  Ni  Ni68  1  0.87975763  0.51025932  0.17464723  1
  Ni  Ni69  1  0.37975763  0.01025932  0.32535277  1
  Ni  Ni70  1  0.12024237  0.48974068  0.82535277  1
  Ni  Ni71  1  0.62024237  0.98974068  0.67464723  1
  Ni  Ni72  1  0.74317739  0.53525253  0.51079762  1
  Ni  Ni73  1  0.24317739  0.03525253  0.98920238  1
  Ni  Ni74  1  0.25682261  0.46474747  0.48920238  1
  Ni  Ni75  1  0.75682261  0.96474747  0.01079762  1
  Ni  Ni76  1  0.85170833  0.46557202  0.47590969  1
  Ni  Ni77  1  0.35170833  0.96557202  0.02409031  1
  Ni  Ni78  1  0.14829167  0.53442798  0.52409031  1
  Ni  Ni79  1  0.64829167  0.03442798  0.97590969  1
  Cu  Cu80  1  0.50357545  0.77058788  0.34251448  1
  Cu  Cu81  1  0.00357545  0.27058788  0.15748552  1
  Cu  Cu82  1  0.49642455  0.22941212  0.65748552  1
  Cu  Cu83  1  0.99642455  0.72941212  0.84251448  1
  Cu  Cu84  1  0.50115388  0.85872194  0.32472206  1
  Cu  Cu85  1  0.00115388  0.35872194  0.17527794  1
  Cu  Cu86  1  0.49884612  0.14127806  0.67527794  1
  Cu  Cu87  1  0.99884612  0.64127806  0.82472206  1
  Cu  Cu88  1  0.51566954  0.84236438  0.23582493  1
  Cu  Cu89  1  0.01566954  0.34236438  0.26417507  1
  Cu  Cu90  1  0.48433046  0.15763562  0.76417507  1
  Cu  Cu91  1  0.98433046  0.65763562  0.73582493  1
  Cu  Cu92  1  0.51769444  0.75388099  0.25357933  1
  Cu  Cu93  1  0.01769444  0.25388099  0.24642067  1
  Cu  Cu94  1  0.48230556  0.24611901  0.74642067  1
  Cu  Cu95  1  0.98230556  0.74611901  0.75357933  1
  Cu  Cu96  1  0.48436649  0.73797349  0.75403012  1
  Cu  Cu97  1  0.98436649  0.23797349  0.74596988  1
  Cu  Cu98  1  0.51563351  0.26202651  0.24596988  1
  Cu  Cu99  1  0.01563351  0.76202651  0.25403012  1
  Cu  Cu100  1  0.49190915  0.65007782  0.76996458  1
  Cu  Cu101  1  0.99190915  0.15007782  0.73003542  1
  Cu  Cu102  1  0.50809085  0.34992218  0.23003542  1
  Cu  Cu103  1  0.00809085  0.84992218  0.26996458  1
  Cu  Cu104  1  0.49551697  0.66537472  0.85961825  1
  Cu  Cu105  1  0.99551697  0.16537472  0.64038175  1
  Cu  Cu106  1  0.50448303  0.33462528  0.14038175  1
  Cu  Cu107  1  0.00448303  0.83462528  0.35961825  1
  Cu  Cu108  1  0.48882348  0.75432393  0.84376416  1
  Cu  Cu109  1  0.98882348  0.25432393  0.65623584  1
  Cu  Cu110  1  0.51117652  0.24567607  0.15623584  1
  Cu  Cu111  1  0.01117652  0.74567607  0.34376416  1
  C  C112  1  0.49996601  0.72590323  0.40645948  1
  C  C113  1  0.99996601  0.22590323  0.09354052  1
  C  C114  1  0.50003399  0.27409677  0.59354052  1
  C  C115  1  0.00003399  0.77409677  0.90645948  1
  C  C116  1  0.49271043  0.92311019  0.36754512  1
  C  C117  1  0.99271043  0.42311019  0.13245488  1
  C  C118  1  0.50728957  0.07688981  0.63245488  1
  C  C119  1  0.00728957  0.57688981  0.86754512  1
  C  C120  1  0.52506621  0.88609721  0.17181805  1
  C  C121  1  0.02506621  0.38609721  0.32818195  1
  C  C122  1  0.47493379  0.11390279  0.82818195  1
  C  C123  1  0.97493379  0.61390279  0.67181805  1
  C  C124  1  0.53099890  0.69170642  0.20902378  1
  C  C125  1  0.03099890  0.19170642  0.29097622  1
  C  C126  1  0.46900110  0.30829358  0.79097622  1
  C  C127  1  0.96900110  0.80829358  0.70902378  1
  C  C128  1  0.48057048  0.78293062  0.69061243  1
  C  C129  1  0.98057048  0.28293062  0.80938757  1
  C  C130  1  0.51942952  0.21706938  0.30938757  1
  C  C131  1  0.01942952  0.71706938  0.19061243  1
  C  C132  1  0.49970392  0.58814968  0.72347424  1
  C  C133  1  0.99970392  0.08814968  0.77652576  1
  C  C134  1  0.50029608  0.41185032  0.27652576  1
  C  C135  1  0.00029608  0.91185032  0.22347424  1
  C  C136  1  0.50773589  0.62175707  0.92313168  1
  C  C137  1  0.00773589  0.12175707  0.57686832  1
  C  C138  1  0.49226411  0.37824293  0.07686832  1
  C  C139  1  0.99226411  0.87824293  0.42313168  1
  C  C140  1  0.49327319  0.81800389  0.88787786  1
  C  C141  1  0.99327319  0.31800389  0.61212214  1
  C  C142  1  0.50672681  0.18199611  0.11212214  1
  C  C143  1  0.00672681  0.68199611  0.38787786  1
  C  C144  1  0.79841397  0.79649879  0.55353865  1
  C  C145  1  0.29841397  0.29649879  0.94646135  1
  C  C146  1  0.20158603  0.20350121  0.44646135  1
  C  C147  1  0.70158603  0.70350121  0.05353865  1
  C  C148  1  0.16264100  0.68543122  0.53856038  1
  C  C149  1  0.66264100  0.18543122  0.96143962  1
  C  C150  1  0.83735900  0.31456878  0.46143962  1
  C  C151  1  0.33735900  0.81456878  0.03856038  1
  C  C152  1  0.54458925  0.61560789  0.55885329  1
  C  C153  1  0.04458925  0.11560789  0.94114671  1
  C  C154  1  0.45541075  0.38439211  0.44114671  1
  C  C155  1  0.95541075  0.88439211  0.05885329  1
  C  C156  1  0.39965142  0.88277694  0.52547592  1
  C  C157  1  0.89965142  0.38277694  0.97452408  1
  C  C158  1  0.60034858  0.11722306  0.47452408  1
  C  C159  1  0.10034858  0.61722306  0.02547592  1
  C  C160  1  0.64851614  0.58822281  0.37187499  1
  C  C161  1  0.14851614  0.08822281  0.12812501  1
  C  C162  1  0.35148386  0.41177719  0.62812501  1
  C  C163  1  0.85148386  0.91177719  0.87187499  1
  C  C164  1  0.21014969  0.54234212  0.30122521  1
  C  C165  1  0.71014969  0.04234212  0.19877479  1
  C  C166  1  0.78985031  0.45765788  0.69877479  1
  C  C167  1  0.28985031  0.95765788  0.80122521  1
  C  C168  1  0.36512686  0.51917172  0.11432722  1
  C  C169  1  0.86512686  0.01917172  0.38567278  1
  C  C170  1  0.63487314  0.48082828  0.88567278  1
  C  C171  1  0.13487314  0.98082828  0.61432722  1
  C  C172  1  0.81336236  0.55595033  0.19153720  1
  C  C173  1  0.31336236  0.05595033  0.30846280  1
  C  C174  1  0.18663764  0.44404967  0.80846280  1
  C  C175  1  0.68663764  0.94404967  0.69153720  1
  C  C176  1  0.76659949  0.47825302  0.51929969  1
  C  C177  1  0.26659949  0.97825302  0.98070031  1
  C  C178  1  0.23340051  0.52174698  0.48070031  1
  C  C179  1  0.73340051  0.02174698  0.01929969  1
