# generated using pymatgen
data_Cu2NiC2
_symmetry_space_group_name_H-M   'P 1'
_cell_length_a   6.33340977
_cell_length_b   6.33340977
_cell_length_c   6.33340977
_cell_angle_alpha   117.13089368
_cell_angle_beta   117.13089368
_cell_angle_gamma   95.04570136
_symmetry_Int_Tables_number   1
_chemical_formula_structural   Cu2NiC2
_chemical_formula_sum   'Cu4 Ni2 C4'
_cell_volume   186.64487809
_cell_formula_units_Z   2
loop_
 _symmetry_equiv_pos_site_id
 _symmetry_equiv_pos_as_xyz
  1  'x, y, z'
loop_
 _atom_site_type_symbol
 _atom_site_label
 _atom_site_symmetry_multiplicity
 _atom_site_fract_x
 _atom_site_fract_y
 _atom_site_fract_z
 _atom_site_occupancy
  Ni  Ni0  1  0.00000000  0.00000000  0.00000000  1
  Ni  Ni1  1  0.75000000  0.25000000  0.50000000  1
  C  C2  1  0.37500000  0.67852700  0.80352700  1
  C  C3  1  0.87500000  0.57147300  0.19647300  1
  C  C4  1  0.32147300  0.12500000  0.69647300  1
  C  C5  1  0.42852700  0.62500000  0.30352700  1
  Cu  Cu6  1  0.37500000  0.29483500  0.41983500  1
  Cu  Cu7  1  0.87500000  0.95516500  0.58016500  1
  Cu  Cu8  1  0.70516500  0.12500000  0.08016500  1
  Cu  Cu9  1  0.04483500  0.62500000  0.91983500  1
