# generated using pymatgen
data_Cu4Ni3C17
_symmetry_space_group_name_H-M   'P 1'
_cell_length_a   11.68829354
_cell_length_b   11.68829354
_cell_length_c   7.72599000
_cell_angle_alpha   90.00000000
_cell_angle_beta   90.00000000
_cell_angle_gamma   119.99999740
_symmetry_Int_Tables_number   1
_chemical_formula_structural   Cu4Ni3C17
_chemical_formula_sum   'Cu8 Ni6 C34'
_cell_volume   914.08588901
_cell_formula_units_Z   2
loop_
 _symmetry_equiv_pos_site_id
 _symmetry_equiv_pos_as_xyz
  1  'x, y, z'
loop_
 _atom_site_type_symbol
 _atom_site_label
 _atom_site_symmetry_multiplicity
 _atom_site_fract_x
 _atom_site_fract_y
 _atom_site_fract_z
 _atom_site_occupancy
  Ni  Ni0  1  0.12185700  0.24371300  0.06860700  1
  Ni  Ni1  1  0.75628700  0.87814300  0.06860700  1
  Ni  Ni2  1  0.12185700  0.87814300  0.06860700  1
  Ni  Ni3  1  0.87814300  0.75628700  0.56860700  1
  Ni  Ni4  1  0.24371300  0.12185700  0.56860700  1
  Ni  Ni5  1  0.87814300  0.12185700  0.56860700  1
  Cu  Cu6  1  0.66666700  0.33333300  0.36041000  1
  Cu  Cu7  1  0.33333300  0.66666700  0.86041000  1
  Cu  Cu8  1  0.46278900  0.53721100  0.40413900  1
  Cu  Cu9  1  0.46278900  0.92557800  0.40413900  1
  Cu  Cu10  1  0.07442200  0.53721100  0.40413900  1
  Cu  Cu11  1  0.53721100  0.46278900  0.90413900  1
  Cu  Cu12  1  0.53721100  0.07442200  0.90413900  1
  Cu  Cu13  1  0.92557800  0.46278900  0.90413900  1
  C  C14  1  0.60386700  0.80193400  0.63627500  1
  C  C15  1  0.19806600  0.80193400  0.63627500  1
  C  C16  1  0.19806600  0.39613300  0.63627500  1
  C  C17  1  0.39613300  0.19806600  0.13627500  1
  C  C18  1  0.80193400  0.19806600  0.13627500  1
  C  C19  1  0.80193400  0.60386700  0.13627500  1
  C  C20  1  0.63762200  0.81881100  0.47386400  1
  C  C21  1  0.18118900  0.81881100  0.47386400  1
  C  C22  1  0.18118900  0.36237800  0.47386400  1
  C  C23  1  0.36237800  0.18118900  0.97386400  1
  C  C24  1  0.81881100  0.18118900  0.97386400  1
  C  C25  1  0.81881100  0.63762200  0.97386400  1
  C  C26  1  0.58448000  0.88894600  0.71723400  1
  C  C27  1  0.11105400  0.69553400  0.71723400  1
  C  C28  1  0.30446600  0.41552000  0.71723400  1
  C  C29  1  0.11105400  0.41552000  0.71723400  1
  C  C30  1  0.30446600  0.88894600  0.71723400  1
  C  C31  1  0.58448000  0.69553400  0.71723400  1
  C  C32  1  0.41552000  0.11105400  0.21723400  1
  C  C33  1  0.88894600  0.30446600  0.21723400  1
  C  C34  1  0.69553400  0.58448000  0.21723400  1
  C  C35  1  0.88894600  0.58448000  0.21723400  1
  C  C36  1  0.69553400  0.11105400  0.21723400  1
  C  C37  1  0.41552000  0.30446600  0.21723400  1
  C  C38  1  0.42809700  0.57190300  0.08497900  1
  C  C39  1  0.42809700  0.85619400  0.08497900  1
  C  C40  1  0.14380600  0.57190300  0.08497900  1
  C  C41  1  0.57190300  0.42809700  0.58497900  1
  C  C42  1  0.57190300  0.14380600  0.58497900  1
  C  C43  1  0.85619400  0.42809700  0.58497900  1
  C  C44  1  0.33333300  0.66666700  0.49783400  1
  C  C45  1  0.66666700  0.33333300  0.99783400  1
  C  C46  1  0.00000000  0.00000000  0.81152500  1
  C  C47  1  0.00000000  0.00000000  0.31152500  1
