# generated using pymatgen
data_Cu6Ni10C9
_symmetry_space_group_name_H-M   'P 1'
_cell_length_a   9.22611100
_cell_length_b   13.03574200
_cell_length_c   15.76859944
_cell_angle_alpha   89.10531068
_cell_angle_beta   90.00000000
_cell_angle_gamma   90.00000000
_symmetry_Int_Tables_number   1
_chemical_formula_structural   Cu6Ni10C9
_chemical_formula_sum   'Cu24 Ni40 C36'
_cell_volume   1896.24567138
_cell_formula_units_Z   4
loop_
 _symmetry_equiv_pos_site_id
 _symmetry_equiv_pos_as_xyz
  1  'x, y, z'
loop_
 _atom_site_type_symbol
 _atom_site_label
 _atom_site_symmetry_multiplicity
 _atom_site_fract_x
 _atom_site_fract_y
 _atom_site_fract_z
 _atom_site_occupancy
  C  C0  1  0.03967600  0.74534800  0.54833600  1
  C  C1  1  0.96032400  0.25465200  0.45166400  1
  C  C2  1  0.53967600  0.25465200  0.95166400  1
  C  C3  1  0.46032400  0.74534800  0.04833600  1
  C  C4  1  0.27709300  0.35560400  0.54885200  1
  C  C5  1  0.72290700  0.64439600  0.45114800  1
  C  C6  1  0.77709300  0.64439600  0.95114800  1
  C  C7  1  0.22290700  0.35560400  0.04885200  1
  C  C8  1  0.37833300  0.78425900  0.83364600  1
  C  C9  1  0.62166700  0.21574100  0.16635400  1
  C  C10  1  0.87833300  0.21574100  0.66635400  1
  C  C11  1  0.12166700  0.78425900  0.33364600  1
  C  C12  1  0.32768100  0.36818000  0.80209700  1
  C  C13  1  0.67231900  0.63182000  0.19790300  1
  C  C14  1  0.82768100  0.63182000  0.69790300  1
  C  C15  1  0.17231900  0.36818000  0.30209700  1
  C  C16  1  0.27786200  0.93362300  0.49955400  1
  C  C17  1  0.72213800  0.06637700  0.50044600  1
  C  C18  1  0.77786200  0.06637700  0.00044600  1
  C  C19  1  0.22213800  0.93362300  0.99955400  1
  C  C20  1  0.02134400  0.63107100  0.68238900  1
  C  C21  1  0.97865600  0.36892900  0.31761100  1
  C  C22  1  0.52134400  0.36892900  0.81761100  1
  C  C23  1  0.47865600  0.63107100  0.18238900  1
  C  C24  1  0.22951600  0.23332400  0.50467700  1
  C  C25  1  0.77048400  0.76667600  0.49532300  1
  C  C26  1  0.72951600  0.76667600  0.99532300  1
  C  C27  1  0.27048400  0.23332400  0.00467700  1
  C  C28  1  0.14573000  0.92153200  0.58471800  1
  C  C29  1  0.85427000  0.07846800  0.41528200  1
  C  C30  1  0.64573000  0.07846800  0.91528200  1
  C  C31  1  0.35427000  0.92153200  0.08471800  1
  C  C32  1  0.32622000  0.68980900  0.91344700  1
  C  C33  1  0.67378000  0.31019100  0.08655300  1
  C  C34  1  0.82622000  0.31019100  0.58655300  1
  C  C35  1  0.17378000  0.68980900  0.41344700  1
  Ni  Ni36  1  0.27921400  0.98843500  0.93904900  1
  Ni  Ni37  1  0.72078600  0.01156500  0.06095100  1
  Ni  Ni38  1  0.77921400  0.01156500  0.56095100  1
  Ni  Ni39  1  0.22078600  0.98843500  0.43904900  1
  Ni  Ni40  1  0.00787400  0.17516600  0.66066200  1
  Ni  Ni41  1  0.99212600  0.82483400  0.33933800  1
  Ni  Ni42  1  0.50787400  0.82483400  0.83933800  1
  Ni  Ni43  1  0.49212600  0.17516600  0.16066200  1
  Ni  Ni44  1  0.27893200  0.28079400  0.77507800  1
  Ni  Ni45  1  0.72106800  0.71920600  0.22492200  1
  Ni  Ni46  1  0.77893200  0.71920600  0.72492200  1
  Ni  Ni47  1  0.22106800  0.28079400  0.27507800  1
  Ni  Ni48  1  0.40108500  0.88887600  0.51508100  1
  Ni  Ni49  1  0.59891500  0.11112400  0.48491900  1
  Ni  Ni50  1  0.90108500  0.11112400  0.98491900  1
  Ni  Ni51  1  0.09891500  0.88887600  0.01508100  1
  Ni  Ni52  1  0.41642700  0.64007800  0.63256700  1
  Ni  Ni53  1  0.58357300  0.35992200  0.36743300  1
  Ni  Ni54  1  0.91642700  0.35992200  0.86743300  1
  Ni  Ni55  1  0.08357300  0.64007800  0.13256700  1
  Ni  Ni56  1  0.27383500  0.79866300  0.77778400  1
  Ni  Ni57  1  0.72616500  0.20133700  0.22221600  1
  Ni  Ni58  1  0.77383500  0.20133700  0.72221600  1
  Ni  Ni59  1  0.22616500  0.79866300  0.27778400  1
  Ni  Ni60  1  0.41850800  0.36738200  0.55229800  1
  Ni  Ni61  1  0.58149200  0.63261800  0.44770200  1
  Ni  Ni62  1  0.91850800  0.63261800  0.94770200  1
  Ni  Ni63  1  0.08149200  0.36738200  0.05229800  1
  Ni  Ni64  1  0.27393100  0.45644000  0.82123700  1
  Ni  Ni65  1  0.72606900  0.54356000  0.17876300  1
  Ni  Ni66  1  0.77393100  0.54356000  0.67876300  1
  Ni  Ni67  1  0.22606900  0.45644000  0.32123700  1
  Ni  Ni68  1  0.17062100  0.41488100  0.57064000  1
  Ni  Ni69  1  0.82937900  0.58511900  0.42936000  1
  Ni  Ni70  1  0.67062100  0.58511900  0.92936000  1
  Ni  Ni71  1  0.32937900  0.41488100  0.07064000  1
  Ni  Ni72  1  0.95732000  0.94165600  0.79381500  1
  Ni  Ni73  1  0.04268000  0.05834400  0.20618500  1
  Ni  Ni74  1  0.45732000  0.05834400  0.70618500  1
  Ni  Ni75  1  0.54268000  0.94165600  0.29381500  1
  Cu  Cu76  1  0.45326700  0.56007300  0.67188500  1
  Cu  Cu77  1  0.54673300  0.43992700  0.32811500  1
  Cu  Cu78  1  0.95326700  0.43992700  0.82811500  1
  Cu  Cu79  1  0.04673300  0.56007300  0.17188500  1
  Cu  Cu80  1  0.31080500  0.63498300  0.58062700  1
  Cu  Cu81  1  0.68919500  0.36501700  0.41937300  1
  Cu  Cu82  1  0.81080500  0.36501700  0.91937300  1
  Cu  Cu83  1  0.18919500  0.63498300  0.08062700  1
  Cu  Cu84  1  0.48060200  0.72331500  0.64343600  1
  Cu  Cu85  1  0.51939800  0.27668500  0.35656400  1
  Cu  Cu86  1  0.98060200  0.27668500  0.85656400  1
  Cu  Cu87  1  0.01939800  0.72331500  0.14343600  1
  Cu  Cu88  1  0.97780700  0.97654600  0.18946100  1
  Cu  Cu89  1  0.02219300  0.02345400  0.81053900  1
  Cu  Cu90  1  0.47780700  0.02345400  0.31053900  1
  Cu  Cu91  1  0.52219300  0.97654600  0.68946100  1
  Cu  Cu92  1  0.88495600  0.93576400  0.72696100  1
  Cu  Cu93  1  0.11504400  0.06423600  0.27303900  1
  Cu  Cu94  1  0.38495600  0.06423600  0.77303900  1
  Cu  Cu95  1  0.61504400  0.93576400  0.22696100  1
  Cu  Cu96  1  0.96546500  0.86620500  0.84419700  1
  Cu  Cu97  1  0.03453500  0.13379500  0.15580300  1
  Cu  Cu98  1  0.46546500  0.13379500  0.65580300  1
  Cu  Cu99  1  0.53453500  0.86620500  0.34419700  1
