# generated using pymatgen
data_CuNiC
_symmetry_space_group_name_H-M   'P 1'
_cell_length_a   3.11639200
_cell_length_b   9.10968200
_cell_length_c   15.84685600
_cell_angle_alpha   90.00000000
_cell_angle_beta   90.00000000
_cell_angle_gamma   90.00000000
_symmetry_Int_Tables_number   1
_chemical_formula_structural   CuNiC
_chemical_formula_sum   'Cu12 Ni12 C12'
_cell_volume   449.88178462
_cell_formula_units_Z   12
loop_
 _symmetry_equiv_pos_site_id
 _symmetry_equiv_pos_as_xyz
  1  'x, y, z'
loop_
 _atom_site_type_symbol
 _atom_site_label
 _atom_site_symmetry_multiplicity
 _atom_site_fract_x
 _atom_site_fract_y
 _atom_site_fract_z
 _atom_site_occupancy
  Ni  Ni0  1  0.00000000  0.80087600  0.49581300  1
  Ni  Ni1  1  0.00000000  0.19912400  0.50418700  1
  Ni  Ni2  1  0.00000000  0.30087600  0.00418700  1
  Ni  Ni3  1  0.00000000  0.69912400  0.99581300  1
  Ni  Ni4  1  0.00000000  0.51646200  0.59342300  1
  Ni  Ni5  1  0.00000000  0.48353800  0.40657700  1
  Ni  Ni6  1  0.00000000  0.01646200  0.90657700  1
  Ni  Ni7  1  0.00000000  0.98353800  0.09342300  1
  Ni  Ni8  1  0.00000000  0.68680400  0.20264600  1
  Ni  Ni9  1  0.00000000  0.31319600  0.79735400  1
  Ni  Ni10  1  0.00000000  0.18680400  0.29735400  1
  Ni  Ni11  1  0.00000000  0.81319600  0.70264600  1
  C  C12  1  0.50000000  0.60714500  0.49679300  1
  C  C13  1  0.50000000  0.39285500  0.50320700  1
  C  C14  1  0.50000000  0.10714500  0.00320700  1
  C  C15  1  0.50000000  0.89285500  0.99679300  1
  C  C16  1  0.00000000  0.61076600  0.83243100  1
  C  C17  1  0.00000000  0.38923400  0.16756900  1
  C  C18  1  0.00000000  0.11076600  0.66756900  1
  C  C19  1  0.00000000  0.88923400  0.33243100  1
  C  C20  1  0.50000000  0.71559700  0.59816800  1
  C  C21  1  0.50000000  0.28440300  0.40183200  1
  C  C22  1  0.50000000  0.21559700  0.90183200  1
  C  C23  1  0.50000000  0.78440300  0.09816800  1
  Cu  Cu24  1  0.50000000  0.71863200  0.35545600  1
  Cu  Cu25  1  0.50000000  0.28136800  0.64454400  1
  Cu  Cu26  1  0.50000000  0.21863200  0.14454400  1
  Cu  Cu27  1  0.50000000  0.78136800  0.85545600  1
  Cu  Cu28  1  0.50000000  0.51519700  0.09425000  1
  Cu  Cu29  1  0.50000000  0.48480300  0.90575000  1
  Cu  Cu30  1  0.50000000  0.01519700  0.40575000  1
  Cu  Cu31  1  0.50000000  0.98480300  0.59425000  1
  Cu  Cu32  1  0.50000000  0.56162400  0.73476300  1
  Cu  Cu33  1  0.50000000  0.43837600  0.26523700  1
  Cu  Cu34  1  0.50000000  0.06162400  0.76523700  1
  Cu  Cu35  1  0.50000000  0.93837600  0.23476300  1
