# generated using pymatgen
data_CuNiC4
_symmetry_space_group_name_H-M   'P 1'
_cell_length_a   9.81621932
_cell_length_b   9.81621932
_cell_length_c   9.81621932
_cell_angle_alpha   107.03563213
_cell_angle_beta   107.03563213
_cell_angle_gamma   114.46059085
_symmetry_Int_Tables_number   1
_chemical_formula_structural   CuNiC4
_chemical_formula_sum   'Cu4 Ni4 C16'
_cell_volume   723.95523249
_cell_formula_units_Z   4
loop_
 _symmetry_equiv_pos_site_id
 _symmetry_equiv_pos_as_xyz
  1  'x, y, z'
loop_
 _atom_site_type_symbol
 _atom_site_label
 _atom_site_symmetry_multiplicity
 _atom_site_fract_x
 _atom_site_fract_y
 _atom_site_fract_z
 _atom_site_occupancy
  Ni  Ni0  1  0.34241200  0.34241200  0.00000000  1
  Ni  Ni1  1  0.65758800  0.65758800  0.00000000  1
  Ni  Ni2  1  0.75000000  0.25000000  0.50000000  1
  Ni  Ni3  1  0.25000000  0.75000000  0.50000000  1
  Cu  Cu4  1  0.00000000  0.27669500  0.27669500  1
  Cu  Cu5  1  0.00000000  0.72330500  0.72330500  1
  Cu  Cu6  1  0.72330500  0.00000000  0.72330500  1
  Cu  Cu7  1  0.27669500  0.00000000  0.27669500  1
  C  C8  1  0.01882200  0.01882200  0.49632100  1
  C  C9  1  0.52250100  0.52250100  0.50367900  1
  C  C10  1  0.98117800  0.47749900  0.00000000  1
  C  C11  1  0.47749900  0.98117800  0.00000000  1
  C  C12  1  0.08469800  0.28679300  0.55306500  1
  C  C13  1  0.73372900  0.53163300  0.44693500  1
  C  C14  1  0.91530200  0.46836700  0.20209600  1
  C  C15  1  0.26627100  0.71320700  0.79790400  1
  C  C16  1  0.71320700  0.26627100  0.79790400  1
  C  C17  1  0.46836700  0.91530200  0.20209600  1
  C  C18  1  0.28679300  0.08469800  0.55306500  1
  C  C19  1  0.53163300  0.73372900  0.44693500  1
  C  C20  1  0.02640900  0.02640900  0.74005200  1
  C  C21  1  0.28635700  0.28635700  0.25994800  1
  C  C22  1  0.97359100  0.71364300  0.00000000  1
  C  C23  1  0.71364300  0.97359100  0.00000000  1
