# generated using pymatgen
data_CuNi149
_symmetry_space_group_name_H-M   'P 1'
_cell_length_a   16.00087109
_cell_length_b   16.00087859
_cell_length_c   15.62193415
_cell_angle_alpha   90.00000000
_cell_angle_beta   90.00000000
_cell_angle_gamma   120.00001549
_symmetry_Int_Tables_number   1
_chemical_formula_structural   CuNi149
_chemical_formula_sum   'Cu1 Ni149'
_cell_volume   3463.80011980
_cell_formula_units_Z   1
loop_
 _symmetry_equiv_pos_site_id
 _symmetry_equiv_pos_as_xyz
  1  'x, y, z'
loop_
 _atom_site_type_symbol
 _atom_site_label
 _atom_site_symmetry_multiplicity
 _atom_site_fract_x
 _atom_site_fract_y
 _atom_site_fract_z
 _atom_site_occupancy
  Ni  Ni0  1  0.79649517  0.00101066  -0.00000000  1
  Ni  Ni1  1  0.20451549  0.00101066  -0.00000000  1
  Ni  Ni2  1  0.79970690  0.20029210  -0.00000000  1
  Ni  Ni3  1  0.40058520  0.20029210  -0.00000000  1
  Ni  Ni4  1  0.60020142  0.20040183  -0.00000000  1
  Ni  Ni5  1  0.20451549  0.20350483  -0.00000000  1
  Ni  Ni6  1  0.99898934  0.20350483  -0.00000000  1
  Ni  Ni7  1  0.19984544  0.39968988  -0.00000000  1
  Ni  Ni8  1  0.79959817  0.39979958  -0.00000000  1
  Ni  Ni9  1  0.60020142  0.39979958  -0.00000000  1
  Ni  Ni10  1  0.00016968  0.40119926  -0.00000000  1
  Ni  Ni11  1  0.40102958  0.40119926  -0.00000000  1
  Ni  Ni12  1  0.00016968  0.59897042  -0.00000000  1
  Ni  Ni13  1  0.59880074  0.59897042  -0.00000000  1
  Ni  Ni14  1  0.79970690  0.59941480  -0.00000000  1
  Ni  Ni15  1  0.39987973  0.60012027  -0.00000000  1
  Ni  Ni16  1  0.20024154  0.60012127  -0.00000000  1
  Ni  Ni17  1  0.79649517  0.79548451  -0.00000000  1
  Ni  Ni18  1  0.99898934  0.79548451  -0.00000000  1
  Ni  Ni19  1  0.39987973  0.79975846  -0.00000000  1
  Ni  Ni20  1  0.19984544  0.80015456  -0.00000000  1
  Ni  Ni21  1  0.60031012  0.80015556  -0.00000000  1
  Ni  Ni22  1  0.59880074  0.99983032  -0.00000000  1
  Ni  Ni23  1  0.40102958  0.99983032  -0.00000000  1
  Ni  Ni24  1  0.46681813  0.13337706  0.16633578  1
  Ni  Ni25  1  0.66655892  0.13337706  0.16633578  1
  Ni  Ni26  1  0.46681813  0.33344108  0.16633578  1
  Ni  Ni27  1  0.86662294  0.33344108  0.16633578  1
  Ni  Ni28  1  0.66655892  0.53318187  0.16633578  1
  Ni  Ni29  1  0.86662294  0.53318187  0.16633578  1
  Ni  Ni30  1  0.66666700  0.33333300  0.16653972  1
  Ni  Ni31  1  0.26668209  0.53336417  0.16654452  1
  Ni  Ni32  1  0.26668209  0.73331791  0.16654452  1
  Ni  Ni33  1  0.46663583  0.73331791  0.16654452  1
  Ni  Ni34  1  0.06639660  0.33341350  0.16644578  1
  Ni  Ni35  1  0.26701790  0.33341350  0.16644578  1
  Ni  Ni36  1  0.66658550  0.73298210  0.16644578  1
  Ni  Ni37  1  0.06639660  0.73298310  0.16644578  1
  Ni  Ni38  1  0.66658550  0.93360340  0.16644578  1
  Ni  Ni39  1  0.26701790  0.93360340  0.16644578  1
  Ni  Ni40  1  0.46655677  0.53344323  0.16650779  1
  Ni  Ni41  1  0.06688645  0.53344323  0.16650779  1
  Ni  Ni42  1  0.46655677  0.93311355  0.16650779  1
  Ni  Ni43  1  0.26730206  0.13365103  0.16721010  1
  Ni  Ni44  1  0.86634897  0.13365103  0.16721010  1
  Ni  Ni45  1  0.86634897  0.73269794  0.16721010  1
  Ni  Ni46  1  0.06758151  0.13516402  0.17019775  1
  Ni  Ni47  1  0.86483598  0.93241849  0.17019775  1
  Ni  Ni48  1  0.06758151  0.93241849  0.17019775  1
  Ni  Ni49  1  0.19990982  0.39981964  0.33290527  1
  Ni  Ni50  1  0.19990982  0.80009018  0.33290527  1
  Ni  Ni51  1  0.60018036  0.80009018  0.33290527  1
  Ni  Ni52  1  0.79988637  0.20011363  0.33309200  1
  Ni  Ni53  1  0.40022725  0.20011363  0.33309200  1
  Ni  Ni54  1  0.79988637  0.59977175  0.33309200  1
  Ni  Ni55  1  0.60016808  0.20033517  0.33305403  1
  Ni  Ni56  1  0.79966483  0.39983192  0.33305403  1
  Ni  Ni57  1  0.60016808  0.39983192  0.33305403  1
  Ni  Ni58  1  0.39998916  0.00002865  0.33326359  1
  Ni  Ni59  1  0.60003949  0.00002865  0.33326359  1
  Ni  Ni60  1  0.99997135  0.39996051  0.33326359  1
  Ni  Ni61  1  0.39998916  0.39996051  0.33326359  1
  Ni  Ni62  1  0.99997135  0.60001084  0.33326359  1
  Ni  Ni63  1  0.60003949  0.60001084  0.33326359  1
  Ni  Ni64  1  0.39986717  0.60013183  0.33310178  1
  Ni  Ni65  1  0.20026465  0.60013283  0.33310178  1
  Ni  Ni66  1  0.39986717  0.79973535  0.33310178  1
  Ni  Ni67  1  -0.00000000  0.00000000  0.33375682  1
  Ni  Ni68  1  0.79996488  0.00025111  0.33435661  1
  Ni  Ni69  1  0.20028724  0.00025111  0.33435661  1
  Ni  Ni70  1  0.99974889  0.20003512  0.33435661  1
  Ni  Ni71  1  0.20028724  0.20003512  0.33435661  1
  Ni  Ni72  1  0.79996488  0.79971376  0.33435661  1
  Ni  Ni73  1  0.99974889  0.79971376  0.33435661  1
  Ni  Ni74  1  0.46666213  0.13315475  0.50000000  1
  Ni  Ni75  1  0.66649262  0.13315475  0.50000000  1
  Ni  Ni76  1  0.06656366  0.13312833  0.50000000  1
  Ni  Ni77  1  0.26678645  0.13339373  0.50000000  1
  Ni  Ni78  1  0.86660727  0.13339373  0.50000000  1
  Ni  Ni79  1  0.66666700  0.33333300  0.50000000  1
  Ni  Ni80  1  0.06674393  0.33344346  0.50000000  1
  Ni  Ni81  1  0.26669953  0.33344346  0.50000000  1
  Ni  Ni82  1  0.86684525  0.33350738  0.50000000  1
  Ni  Ni83  1  0.46666213  0.33350738  0.50000000  1
  Ni  Ni84  1  0.86684525  0.53333787  0.50000000  1
  Ni  Ni85  1  0.66649262  0.53333787  0.50000000  1
  Ni  Ni86  1  0.46662508  0.53337492  0.50000000  1
  Ni  Ni87  1  0.06674984  0.53337492  0.50000000  1
  Ni  Ni88  1  0.26661981  0.53323961  0.50000000  1
  Ni  Ni89  1  0.86660727  0.73321355  0.50000000  1
  Ni  Ni90  1  0.26661981  0.73338019  0.50000000  1
  Ni  Ni91  1  0.46676039  0.73338019  0.50000000  1
  Ni  Ni92  1  0.06674393  0.73330047  0.50000000  1
  Ni  Ni93  1  0.66655654  0.73330047  0.50000000  1
  Ni  Ni94  1  0.46662508  0.93325016  0.50000000  1
  Ni  Ni95  1  0.26669953  0.93325607  0.50000000  1
  Ni  Ni96  1  0.66655654  0.93325607  0.50000000  1
  Ni  Ni97  1  0.06656366  0.93343634  0.50000000  1
  Ni  Ni98  1  0.86687167  0.93343634  0.50000000  1
  Ni  Ni99  1  0.79996488  0.00025111  0.66564339  1
  Ni  Ni100  1  0.20028724  0.00025111  0.66564339  1
  Ni  Ni101  1  0.99974889  0.20003512  0.66564339  1
  Ni  Ni102  1  0.20028724  0.20003512  0.66564339  1
  Ni  Ni103  1  0.79996488  0.79971376  0.66564339  1
  Ni  Ni104  1  0.99974889  0.79971376  0.66564339  1
  Ni  Ni105  1  0.00000000  0.00000000  0.66624318  1
  Ni  Ni106  1  0.39986717  0.60013183  0.66689822  1
  Ni  Ni107  1  0.20026465  0.60013283  0.66689822  1
  Ni  Ni108  1  0.39986717  0.79973535  0.66689822  1
  Ni  Ni109  1  0.39998916  0.00002865  0.66673641  1
  Ni  Ni110  1  0.60003949  0.00002865  0.66673641  1
  Ni  Ni111  1  0.99997135  0.39996051  0.66673641  1
  Ni  Ni112  1  0.39998916  0.39996051  0.66673641  1
  Ni  Ni113  1  0.99997135  0.60001084  0.66673641  1
  Ni  Ni114  1  0.60003949  0.60001084  0.66673641  1
  Ni  Ni115  1  0.60016808  0.20033517  0.66694597  1
  Ni  Ni116  1  0.79966483  0.39983192  0.66694597  1
  Ni  Ni117  1  0.60016808  0.39983192  0.66694597  1
  Ni  Ni118  1  0.79988637  0.20011363  0.66690800  1
  Ni  Ni119  1  0.40022725  0.20011363  0.66690800  1
  Ni  Ni120  1  0.79988637  0.59977175  0.66690800  1
  Ni  Ni121  1  0.19990982  0.39981964  0.66709473  1
  Ni  Ni122  1  0.19990982  0.80009018  0.66709473  1
  Ni  Ni123  1  0.60018036  0.80009018  0.66709473  1
  Ni  Ni124  1  0.06758151  0.13516402  0.82980225  1
  Ni  Ni125  1  0.86483598  0.93241849  0.82980225  1
  Ni  Ni126  1  0.06758151  0.93241849  0.82980225  1
  Ni  Ni127  1  0.26730206  0.13365103  0.83278990  1
  Ni  Ni128  1  0.86634897  0.13365103  0.83278990  1
  Ni  Ni129  1  0.86634897  0.73269794  0.83278990  1
  Ni  Ni130  1  0.46655677  0.53344323  0.83349221  1
  Ni  Ni131  1  0.06688645  0.53344323  0.83349221  1
  Ni  Ni132  1  0.46655677  0.93311355  0.83349221  1
  Ni  Ni133  1  0.06639660  0.33341350  0.83355422  1
  Ni  Ni134  1  0.26701790  0.33341350  0.83355422  1
  Ni  Ni135  1  0.66658550  0.73298210  0.83355422  1
  Ni  Ni136  1  0.06639660  0.73298310  0.83355422  1
  Ni  Ni137  1  0.66658550  0.93360340  0.83355422  1
  Ni  Ni138  1  0.26701790  0.93360340  0.83355422  1
  Ni  Ni139  1  0.26668209  0.53336417  0.83345548  1
  Ni  Ni140  1  0.26668209  0.73331791  0.83345548  1
  Ni  Ni141  1  0.46663583  0.73331791  0.83345548  1
  Ni  Ni142  1  0.66666700  0.33333300  0.83346028  1
  Ni  Ni143  1  0.46681813  0.13337706  0.83366422  1
  Ni  Ni144  1  0.66655892  0.13337706  0.83366422  1
  Ni  Ni145  1  0.46681813  0.33344108  0.83366422  1
  Ni  Ni146  1  0.86662294  0.33344108  0.83366422  1
  Ni  Ni147  1  0.66655892  0.53318187  0.83366422  1
  Ni  Ni148  1  0.86662294  0.53318187  0.83366422  1
  Cu  Cu149  1  0.00000000  0.00000000  -0.00000000  1
