# generated using pymatgen
data_Cu9Ni2C
_symmetry_space_group_name_H-M   'P 1'
_cell_length_a   6.51158300
_cell_length_b   10.23362500
_cell_length_c   14.03883900
_cell_angle_alpha   90.00000000
_cell_angle_beta   90.00000000
_cell_angle_gamma   90.00000000
_symmetry_Int_Tables_number   1
_chemical_formula_structural   Cu9Ni2C
_chemical_formula_sum   'Cu36 Ni8 C4'
_cell_volume   935.50749837
_cell_formula_units_Z   4
loop_
 _symmetry_equiv_pos_site_id
 _symmetry_equiv_pos_as_xyz
  1  'x, y, z'
loop_
 _atom_site_type_symbol
 _atom_site_label
 _atom_site_symmetry_multiplicity
 _atom_site_fract_x
 _atom_site_fract_y
 _atom_site_fract_z
 _atom_site_occupancy
  C  C0  1  0.00000000  0.00000000  0.00000000  1
  C  C1  1  0.50000000  0.50000000  0.00000000  1
  C  C2  1  0.00000000  0.00000000  0.50000000  1
  C  C3  1  0.50000000  0.50000000  0.50000000  1
  Ni  Ni4  1  0.56363500  0.31278500  0.25000000  1
  Ni  Ni5  1  0.43636500  0.68721500  0.75000000  1
  Ni  Ni6  1  0.06363500  0.18721500  0.75000000  1
  Ni  Ni7  1  0.93636500  0.81278500  0.25000000  1
  Ni  Ni8  1  0.42003100  0.00195000  0.25000000  1
  Ni  Ni9  1  0.57996900  0.99805000  0.75000000  1
  Ni  Ni10  1  0.92003100  0.49805000  0.75000000  1
  Ni  Ni11  1  0.07996900  0.50195000  0.25000000  1
  Cu  Cu12  1  0.45267600  0.33156100  0.16139200  1
  Cu  Cu13  1  0.54732400  0.66843900  0.83860800  1
  Cu  Cu14  1  0.95267600  0.16843900  0.83860800  1
  Cu  Cu15  1  0.54732400  0.66843900  0.66139200  1
  Cu  Cu16  1  0.04732400  0.83156100  0.16139200  1
  Cu  Cu17  1  0.45267600  0.33156100  0.33860800  1
  Cu  Cu18  1  0.04732400  0.83156100  0.33860800  1
  Cu  Cu19  1  0.95267600  0.16843900  0.66139200  1
  Cu  Cu20  1  0.22976600  0.07212300  0.25000000  1
  Cu  Cu21  1  0.77023400  0.92787700  0.75000000  1
  Cu  Cu22  1  0.72976600  0.42787700  0.75000000  1
  Cu  Cu23  1  0.27023400  0.57212300  0.25000000  1
  Cu  Cu24  1  0.17214900  0.13602100  0.46744000  1
  Cu  Cu25  1  0.82785100  0.86397900  0.53256000  1
  Cu  Cu26  1  0.67214900  0.36397900  0.53256000  1
  Cu  Cu27  1  0.82785100  0.86397900  0.96744000  1
  Cu  Cu28  1  0.32785100  0.63602100  0.46744000  1
  Cu  Cu29  1  0.17214900  0.13602100  0.03256000  1
  Cu  Cu30  1  0.32785100  0.63602100  0.03256000  1
  Cu  Cu31  1  0.67214900  0.36397900  0.96744000  1
  Cu  Cu32  1  0.51209000  0.65027100  0.07259100  1
  Cu  Cu33  1  0.48791000  0.34972900  0.92740900  1
  Cu  Cu34  1  0.01209000  0.84972900  0.92740900  1
  Cu  Cu35  1  0.48791000  0.34972900  0.57259100  1
  Cu  Cu36  1  0.98791000  0.15027100  0.07259100  1
  Cu  Cu37  1  0.51209000  0.65027100  0.42740900  1
  Cu  Cu38  1  0.98791000  0.15027100  0.42740900  1
  Cu  Cu39  1  0.01209000  0.84972900  0.57259100  1
  Cu  Cu40  1  0.98157600  0.46949200  0.16148900  1
  Cu  Cu41  1  0.01842400  0.53050800  0.83851100  1
  Cu  Cu42  1  0.48157600  0.03050800  0.83851100  1
  Cu  Cu43  1  0.01842400  0.53050800  0.66148900  1
  Cu  Cu44  1  0.51842400  0.96949200  0.16148900  1
  Cu  Cu45  1  0.98157600  0.46949200  0.33851100  1
  Cu  Cu46  1  0.51842400  0.96949200  0.33851100  1
  Cu  Cu47  1  0.48157600  0.03050800  0.66148900  1
