# generated using pymatgen
data_CuNi14C
_symmetry_space_group_name_H-M   'P 1'
_cell_length_a   6.50483607
_cell_length_b   6.68645797
_cell_length_c   10.36812572
_cell_angle_alpha   90.00000000
_cell_angle_beta   90.00000000
_cell_angle_gamma   120.92800616
_symmetry_Int_Tables_number   1
_chemical_formula_structural   CuNi14C
_chemical_formula_sum   'Cu1 Ni14 C1'
_cell_volume   386.83499041
_cell_formula_units_Z   1
loop_
 _symmetry_equiv_pos_site_id
 _symmetry_equiv_pos_as_xyz
  1  'x, y, z'
loop_
 _atom_site_type_symbol
 _atom_site_label
 _atom_site_symmetry_multiplicity
 _atom_site_fract_x
 _atom_site_fract_y
 _atom_site_fract_z
 _atom_site_occupancy
  C  C0  1  0.16016009  0.33007954  0.12500000  1
  Ni  Ni1  1  0.17125790  0.33562845  0.62500000  1
  Ni  Ni2  1  0.16637362  0.83318631  0.62500000  1
  Ni  Ni3  1  0.66341828  0.33186759  0.12500000  1
  Ni  Ni4  1  0.66784680  0.33900983  0.62500000  1
  Ni  Ni5  1  0.66341828  0.83154968  0.12500000  1
  Ni  Ni6  1  0.66784680  0.82883598  0.62500000  1
  Ni  Ni7  1  0.33161586  0.14899488  0.38092050  1
  Ni  Ni8  1  0.33161586  0.14899488  0.86907950  1
  Ni  Ni9  1  0.33161586  0.68262198  0.38092050  1
  Ni  Ni10  1  0.33161586  0.68262198  0.86907950  1
  Ni  Ni11  1  0.81754538  0.15877319  0.39061083  1
  Ni  Ni12  1  0.81754538  0.15877319  0.85938917  1
  Ni  Ni13  1  0.84326823  0.67163461  0.36567741  1
  Ni  Ni14  1  0.84326823  0.67163461  0.88432259  1
  Cu  Cu15  1  0.19158758  0.84579329  0.12500000  1
