# generated using pymatgen
data_Cu44NiC58
_symmetry_space_group_name_H-M   'P 1'
_cell_length_a   10.35202600
_cell_length_b   10.71436951
_cell_length_c   11.13968634
_cell_angle_alpha   90.08191126
_cell_angle_beta   114.76486703
_cell_angle_gamma   105.29532995
_symmetry_Int_Tables_number   1
_chemical_formula_structural   Cu44NiC58
_chemical_formula_sum   'Cu44 Ni1 C58'
_cell_volume   1073.32051393
_cell_formula_units_Z   1
loop_
 _symmetry_equiv_pos_site_id
 _symmetry_equiv_pos_as_xyz
  1  'x, y, z'
loop_
 _atom_site_type_symbol
 _atom_site_label
 _atom_site_symmetry_multiplicity
 _atom_site_fract_x
 _atom_site_fract_y
 _atom_site_fract_z
 _atom_site_occupancy
  C  C0  1  0.56339500  0.23795800  0.84187000  1
  C  C1  1  0.43660500  0.76204200  0.15813000  1
  C  C2  1  0.39205400  0.84095900  0.43277500  1
  C  C3  1  0.60794600  0.15904100  0.56722500  1
  C  C4  1  0.79954000  0.41371200  0.44989200  1
  C  C5  1  0.20046000  0.58628800  0.55010800  1
  Ni  Ni6  1  0.00000000  0.00000000  0.00000000  1
  C  C7  1  0.79650500  0.75758700  0.09090500  1
  C  C8  1  0.20349500  0.24241300  0.90909500  1
  C  C9  1  0.05079300  0.94631900  0.72985100  1
  C  C10  1  0.94920700  0.05368100  0.27014900  1
  C  C11  1  0.84398400  0.70345100  0.81940900  1
  C  C12  1  0.15601600  0.29654900  0.18059100  1
  Cu  Cu13  1  0.66401300  0.00316300  0.94724200  1
  Cu  Cu14  1  0.33598700  0.99683700  0.05275800  1
  Cu  Cu15  1  0.49000500  0.95840600  0.89679600  1
  Cu  Cu16  1  0.50999500  0.04159400  0.10320400  1
  Cu  Cu17  1  0.18028700  0.71492000  0.89694600  1
  Cu  Cu18  1  0.81971300  0.28508000  0.10305400  1
  Cu  Cu19  1  0.21104600  0.57966500  0.92920200  1
  Cu  Cu20  1  0.78895400  0.42033500  0.07079800  1
  Cu  Cu21  1  0.41204700  0.40808000  0.70383500  1
  Cu  Cu22  1  0.58795300  0.59192000  0.29616500  1
  Cu  Cu23  1  0.55336500  0.50864300  0.81066200  1
  Cu  Cu24  1  0.44663500  0.49135700  0.18933800  1
  Cu  Cu25  1  0.81994200  0.36514500  0.81779000  1
  Cu  Cu26  1  0.18005800  0.63485500  0.18221000  1
  Cu  Cu27  1  0.85932900  0.23462800  0.85054200  1
  Cu  Cu28  1  0.14067100  0.76537200  0.14945800  1
  Cu  Cu29  1  0.69007500  0.84679400  0.46205200  1
  Cu  Cu30  1  0.30992500  0.15320600  0.53794800  1
  Cu  Cu31  1  0.33775800  0.06380900  0.64608100  1
  Cu  Cu32  1  0.66224200  0.93619100  0.35391900  1
  Cu  Cu33  1  0.69292000  0.93369600  0.69031500  1
  Cu  Cu34  1  0.30708000  0.06630400  0.30968500  1
  Cu  Cu35  1  0.57142900  0.95838100  0.72422300  1
  Cu  Cu36  1  0.42857100  0.04161900  0.27577700  1
  Cu  Cu37  1  0.90260400  0.17668500  0.59636100  1
  Cu  Cu38  1  0.09739600  0.82331500  0.40363900  1
  Cu  Cu39  1  0.81039800  0.14604600  0.44046100  1
  Cu  Cu40  1  0.18960200  0.85395400  0.55953900  1
  Cu  Cu41  1  0.49939900  0.36403500  0.44285800  1
  Cu  Cu42  1  0.50060100  0.63596500  0.55714200  1
  Cu  Cu43  1  0.58972000  0.42129200  0.59111000  1
  Cu  Cu44  1  0.41028000  0.57870800  0.40889000  1
  Cu  Cu45  1  0.04713100  0.47285700  0.71445900  1
  Cu  Cu46  1  0.95286900  0.52714300  0.28554100  1
  Cu  Cu47  1  0.01263100  0.60629500  0.68738300  1
  Cu  Cu48  1  0.98736900  0.39370500  0.31261700  1
  Cu  Cu49  1  0.50391100  0.28548800  0.19887600  1
  Cu  Cu50  1  0.49608900  0.71451100  0.80112400  1
  Cu  Cu51  1  0.64840000  0.31576700  0.17456800  1
  Cu  Cu52  1  0.35160000  0.68423300  0.82543200  1
  Cu  Cu53  1  0.84778600  0.70971900  0.39954000  1
  Cu  Cu54  1  0.15221400  0.29028100  0.60046000  1
  Cu  Cu55  1  0.77267900  0.66150500  0.49241300  1
  Cu  Cu56  1  0.22732100  0.33849500  0.50758700  1
  C  C57  1  0.06002800  0.13181000  0.73782800  1
  C  C58  1  0.93997200  0.86819000  0.26217200  1
  C  C59  1  0.70570600  0.71289000  0.89484400  1
  C  C60  1  0.29429400  0.28711000  0.10515600  1
  C  C61  1  0.83502900  0.61132500  0.14131800  1
  C  C62  1  0.16497100  0.38867500  0.85868200  1
  C  C63  1  0.63088900  0.75655500  0.09678300  1
  C  C64  1  0.36911100  0.24344500  0.90321700  1
  C  C65  1  0.83072000  0.97369500  0.04491100  1
  C  C66  1  0.16928000  0.02630500  0.95508900  1
  C  C67  1  0.01040100  0.18169900  0.96673800  1
  C  C68  1  0.98959900  0.81830100  0.03326200  1
  C  C69  1  0.87773600  0.92670100  0.81271800  1
  C  C70  1  0.12226400  0.07329900  0.18728200  1
  C  C71  1  0.02940300  0.77323500  0.79743100  1
  C  C72  1  0.97059700  0.22676500  0.20256900  1
  C  C73  1  0.90774100  0.89587200  0.56970200  1
  C  C74  1  0.09225900  0.10412800  0.43029800  1
  C  C75  1  0.21591400  0.95319300  0.71620600  1
  C  C76  1  0.78408600  0.04680700  0.28379400  1
  C  C77  1  0.87656700  0.55545700  0.86593800  1
  C  C78  1  0.12343300  0.44454300  0.13406200  1
  C  C79  1  0.71639400  0.67282500  0.65030100  1
  C  C80  1  0.28360600  0.32717500  0.34969900  1
  C  C81  1  0.42998400  0.98007400  0.11594000  1
  C  C82  1  0.57001600  0.01992600  0.88406000  1
  C  C83  1  0.73926200  0.32713000  0.06318600  1
  C  C84  1  0.26073800  0.67287000  0.93681400  1
  C  C85  1  0.52193200  0.43006500  0.74912000  1
  C  C86  1  0.47806800  0.56993500  0.25088000  1
  C  C87  1  0.77949900  0.27060700  0.79088200  1
  C  C88  1  0.22050100  0.72939300  0.20911800  1
  C  C89  1  0.39167900  0.13401500  0.61314500  1
  C  C90  1  0.60832100  0.86598500  0.38685500  1
  C  C91  1  0.59316500  0.94623100  0.64758100  1
  C  C92  1  0.40683500  0.05376900  0.35241900  1
  C  C93  1  0.17596500  0.80088600  0.48060500  1
  C  C94  1  0.82403500  0.19911400  0.51939500  1
  C  C95  1  0.40210200  0.62132000  0.48228600  1
  C  C96  1  0.59789800  0.37868000  0.51771400  1
  C  C97  1  0.98677400  0.47270700  0.35656200  1
  C  C98  1  0.01322600  0.52729300  0.64343800  1
  C  C99  1  0.61266300  0.30708500  0.24465100  1
  C  C100  1  0.38733700  0.69291500  0.75534900  1
  C  C101  1  0.77940000  0.63427400  0.41144000  1
  C  C102  1  0.22060000  0.36572600  0.58856000  1
