# generated using pymatgen
data_CuNiC2
_symmetry_space_group_name_H-M   'P 1'
_cell_length_a   3.64641522
_cell_length_b   3.64522100
_cell_length_c   6.63970523
_cell_angle_alpha   90.00000000
_cell_angle_beta   89.97035625
_cell_angle_gamma   60.01084231
_symmetry_Int_Tables_number   1
_chemical_formula_structural   CuNiC2
_chemical_formula_sum   'Cu1 Ni1 C2'
_cell_volume   76.43931326
_cell_formula_units_Z   1
loop_
 _symmetry_equiv_pos_site_id
 _symmetry_equiv_pos_as_xyz
  1  'x, y, z'
loop_
 _atom_site_type_symbol
 _atom_site_label
 _atom_site_symmetry_multiplicity
 _atom_site_fract_x
 _atom_site_fract_y
 _atom_site_fract_z
 _atom_site_occupancy
  C  C0  1  0.66661800  0.66669100  0.43674700  1
  Ni  Ni1  1  0.33329800  0.33335100  0.03689700  1
  Cu  Cu2  1  0.33328900  0.33335500  0.62754100  1
  C  C3  1  0.66679500  0.66660200  0.14281400  1
