# generated using pymatgen
data_Cu(Ni3C17)2
_symmetry_space_group_name_H-M   'P 1'
_cell_length_a   9.93135772
_cell_length_b   9.93135772
_cell_length_c   7.28635200
_cell_angle_alpha   90.00000000
_cell_angle_beta   90.00000000
_cell_angle_gamma   119.99999814
_symmetry_Int_Tables_number   1
_chemical_formula_structural   Cu(Ni3C17)2
_chemical_formula_sum   'Cu1 Ni6 C34'
_cell_volume   622.38345355
_cell_formula_units_Z   1
loop_
 _symmetry_equiv_pos_site_id
 _symmetry_equiv_pos_as_xyz
  1  'x, y, z'
loop_
 _atom_site_type_symbol
 _atom_site_label
 _atom_site_symmetry_multiplicity
 _atom_site_fract_x
 _atom_site_fract_y
 _atom_site_fract_z
 _atom_site_occupancy
  C  C0  1  0.98861600  0.74278000  0.74076400  1
  C  C1  1  0.25722000  0.24583500  0.74076400  1
  C  C2  1  0.75416500  0.01138400  0.74076400  1
  C  C3  1  0.74278000  0.75416500  0.25923600  1
  C  C4  1  0.01138400  0.25722000  0.25923600  1
  C  C5  1  0.24583500  0.98861600  0.25923600  1
  C  C6  1  0.66666700  0.33333300  0.48117700  1
  C  C7  1  0.33333300  0.66666700  0.51882300  1
  C  C8  1  0.66666700  0.33333300  0.97906300  1
  C  C9  1  0.33333300  0.66666700  0.02093700  1
  Ni  Ni10  1  0.36903800  0.97108300  0.75301600  1
  Ni  Ni11  1  0.60204500  0.63096200  0.75301600  1
  Ni  Ni12  1  0.97108300  0.60204500  0.24698400  1
  Ni  Ni13  1  0.02891700  0.39795500  0.75301600  1
  Ni  Ni14  1  0.39795500  0.36903800  0.24698400  1
  Ni  Ni15  1  0.63096200  0.02891700  0.24698400  1
  Cu  Cu16  1  0.00000000  0.00000000  0.50000000  1
  C  C17  1  0.47921200  0.15027900  0.73918200  1
  C  C18  1  0.09919400  0.38110200  0.56946800  1
  C  C19  1  0.28190900  0.90080600  0.56946800  1
  C  C20  1  0.61889800  0.71809100  0.56946800  1
  C  C21  1  0.90080600  0.61889800  0.43053200  1
  C  C22  1  0.71809100  0.09919400  0.43053200  1
  C  C23  1  0.38110200  0.28190900  0.43053200  1
  C  C24  1  0.06488000  0.30987600  0.90469000  1
  C  C25  1  0.24499600  0.93512000  0.90469000  1
  C  C26  1  0.69012400  0.75500400  0.90469000  1
  C  C27  1  0.30987600  0.24499600  0.09531000  1
  C  C28  1  0.11244800  0.57613500  0.79491900  1
  C  C29  1  0.46368700  0.88755200  0.79491900  1
  C  C30  1  0.42386500  0.53631300  0.79491900  1
  C  C31  1  0.88755200  0.42386500  0.20508100  1
  C  C32  1  0.53631300  0.11244800  0.20508100  1
  C  C33  1  0.32893300  0.47921200  0.26081800  1
  C  C34  1  0.52078800  0.84972100  0.26081800  1
  C  C35  1  0.15027900  0.67106700  0.26081800  1
  C  C36  1  0.67106700  0.52078800  0.73918200  1
  C  C37  1  0.75500400  0.06488000  0.09531000  1
  C  C38  1  0.84972100  0.32893300  0.73918200  1
  C  C39  1  0.57613500  0.46368700  0.20508100  1
  C  C40  1  0.93512000  0.69012400  0.09531000  1
