# generated using pymatgen
data_Cu9NiC6
_symmetry_space_group_name_H-M   'P 1'
_cell_length_a   11.54568294
_cell_length_b   11.54568294
_cell_length_c   12.51423300
_cell_angle_alpha   90.00000000
_cell_angle_beta   90.00000000
_cell_angle_gamma   120.00000538
_symmetry_Int_Tables_number   1
_chemical_formula_structural   Cu9NiC6
_chemical_formula_sum   'Cu54 Ni6 C36'
_cell_volume   1444.68811119
_cell_formula_units_Z   6
loop_
 _symmetry_equiv_pos_site_id
 _symmetry_equiv_pos_as_xyz
  1  'x, y, z'
loop_
 _atom_site_type_symbol
 _atom_site_label
 _atom_site_symmetry_multiplicity
 _atom_site_fract_x
 _atom_site_fract_y
 _atom_site_fract_z
 _atom_site_occupancy
  C  C0  1  0.66666700  0.33333300  0.56453500  1
  C  C1  1  0.33333300  0.66666700  0.06453500  1
  C  C2  1  0.33333300  0.66666700  0.43546500  1
  C  C3  1  0.66666700  0.33333300  0.93546500  1
  C  C4  1  0.00000000  0.00000000  0.50000000  1
  C  C5  1  0.00000000  0.00000000  0.00000000  1
  C  C6  1  0.36635000  0.03318600  0.75000000  1
  C  C7  1  0.96681400  0.33316400  0.75000000  1
  C  C8  1  0.66683600  0.63365000  0.75000000  1
  C  C9  1  0.63365000  0.96681400  0.25000000  1
  C  C10  1  0.03318600  0.66683600  0.25000000  1
  C  C11  1  0.33316400  0.36635000  0.25000000  1
  C  C12  1  0.55799400  0.06772300  0.75000000  1
  C  C13  1  0.93227700  0.49027100  0.75000000  1
  C  C14  1  0.50972900  0.44200600  0.75000000  1
  C  C15  1  0.44200600  0.93227700  0.25000000  1
  C  C16  1  0.06772300  0.50972900  0.25000000  1
  C  C17  1  0.49027100  0.55799400  0.25000000  1
  C  C18  1  0.31535000  0.93919000  0.64162400  1
  C  C19  1  0.06081000  0.37616000  0.64162400  1
  C  C20  1  0.62384000  0.68465000  0.64162400  1
  C  C21  1  0.68465000  0.06081000  0.14162400  1
  C  C22  1  0.93919000  0.62384000  0.14162400  1
  C  C23  1  0.37616000  0.31535000  0.14162400  1
  C  C24  1  0.68465000  0.06081000  0.35837600  1
  C  C25  1  0.93919000  0.62384000  0.35837600  1
  C  C26  1  0.37616000  0.31535000  0.35837600  1
  C  C27  1  0.31535000  0.93919000  0.85837600  1
  C  C28  1  0.06081000  0.37616000  0.85837600  1
  C  C29  1  0.62384000  0.68465000  0.85837600  1
  C  C30  1  0.30522000  0.13468300  0.75000000  1
  C  C31  1  0.86531700  0.17053700  0.75000000  1
  C  C32  1  0.82946300  0.69478000  0.75000000  1
  C  C33  1  0.69478000  0.86531700  0.25000000  1
  C  C34  1  0.13468300  0.82946300  0.25000000  1
  C  C35  1  0.17053700  0.30522000  0.25000000  1
  Ni  Ni36  1  0.51241500  0.11909600  0.75000000  1
  Ni  Ni37  1  0.88090400  0.39331900  0.75000000  1
  Ni  Ni38  1  0.60668100  0.48758500  0.75000000  1
  Ni  Ni39  1  0.48758500  0.88090400  0.25000000  1
  Ni  Ni40  1  0.11909600  0.60668100  0.25000000  1
  Ni  Ni41  1  0.39331900  0.51241500  0.25000000  1
  Cu  Cu42  1  0.17861600  0.85990000  0.62951600  1
  Cu  Cu43  1  0.14010000  0.31871600  0.62951600  1
  Cu  Cu44  1  0.68128400  0.82138400  0.62951600  1
  Cu  Cu45  1  0.82138400  0.14010000  0.12951600  1
  Cu  Cu46  1  0.85990000  0.68128400  0.12951600  1
  Cu  Cu47  1  0.31871600  0.17861600  0.12951600  1
  Cu  Cu48  1  0.82138400  0.14010000  0.37048400  1
  Cu  Cu49  1  0.85990000  0.68128400  0.37048400  1
  Cu  Cu50  1  0.31871600  0.17861600  0.37048400  1
  Cu  Cu51  1  0.17861600  0.85990000  0.87048400  1
  Cu  Cu52  1  0.14010000  0.31871600  0.87048400  1
  Cu  Cu53  1  0.68128400  0.82138400  0.87048400  1
  Cu  Cu54  1  0.36498600  0.85194800  0.63501400  1
  Cu  Cu55  1  0.14805200  0.51303800  0.63501400  1
  Cu  Cu56  1  0.48696200  0.63501400  0.63501400  1
  Cu  Cu57  1  0.63501400  0.14805200  0.13501400  1
  Cu  Cu58  1  0.85194800  0.48696200  0.13501400  1
  Cu  Cu59  1  0.51303800  0.36498600  0.13501400  1
  Cu  Cu60  1  0.63501400  0.14805200  0.36498600  1
  Cu  Cu61  1  0.85194800  0.48696200  0.36498600  1
  Cu  Cu62  1  0.51303800  0.36498600  0.36498600  1
  Cu  Cu63  1  0.36498600  0.85194800  0.86498600  1
  Cu  Cu64  1  0.14805200  0.51303800  0.86498600  1
  Cu  Cu65  1  0.48696200  0.63501400  0.86498600  1
  Cu  Cu66  1  0.35905000  0.01405800  0.54852900  1
  Cu  Cu67  1  0.98594200  0.34499300  0.54852900  1
  Cu  Cu68  1  0.65500700  0.64095000  0.54852900  1
  Cu  Cu69  1  0.64095000  0.98594200  0.04852900  1
  Cu  Cu70  1  0.01405800  0.65500700  0.04852900  1
  Cu  Cu71  1  0.34499300  0.35905000  0.04852900  1
  Cu  Cu72  1  0.64095000  0.98594200  0.45147100  1
  Cu  Cu73  1  0.01405800  0.65500700  0.45147100  1
  Cu  Cu74  1  0.34499300  0.35905000  0.45147100  1
  Cu  Cu75  1  0.35905000  0.01405800  0.95147100  1
  Cu  Cu76  1  0.98594200  0.34499300  0.95147100  1
  Cu  Cu77  1  0.65500700  0.64095000  0.95147100  1
  Cu  Cu78  1  0.16709700  0.07219400  0.75000000  1
  Cu  Cu79  1  0.92780600  0.09490400  0.75000000  1
  Cu  Cu80  1  0.90509600  0.83290300  0.75000000  1
  Cu  Cu81  1  0.83290300  0.92780600  0.25000000  1
  Cu  Cu82  1  0.07219400  0.90509600  0.25000000  1
  Cu  Cu83  1  0.09490400  0.16709700  0.25000000  1
  Cu  Cu84  1  0.34530600  0.21921800  0.66224200  1
  Cu  Cu85  1  0.78078200  0.12608800  0.66224200  1
  Cu  Cu86  1  0.87391200  0.65469400  0.66224200  1
  Cu  Cu87  1  0.65469400  0.78078200  0.16224200  1
  Cu  Cu88  1  0.21921800  0.87391200  0.16224200  1
  Cu  Cu89  1  0.12608800  0.34530600  0.16224200  1
  Cu  Cu90  1  0.65469400  0.78078200  0.33775800  1
  Cu  Cu91  1  0.21921800  0.87391200  0.33775800  1
  Cu  Cu92  1  0.12608800  0.34530600  0.33775800  1
  Cu  Cu93  1  0.34530600  0.21921800  0.83775800  1
  Cu  Cu94  1  0.78078200  0.12608800  0.83775800  1
  Cu  Cu95  1  0.87391200  0.65469400  0.83775800  1
