# generated using pymatgen
data_Cu3Ni3C8
_symmetry_space_group_name_H-M   'P 1'
_cell_length_a   7.24487100
_cell_length_b   7.24487183
_cell_length_c   8.39364400
_cell_angle_alpha   90.00000000
_cell_angle_beta   90.00000000
_cell_angle_gamma   120.00000079
_symmetry_Int_Tables_number   1
_chemical_formula_structural   Cu3Ni3C8
_chemical_formula_sum   'Cu6 Ni6 C16'
_cell_volume   381.54216287
_cell_formula_units_Z   2
loop_
 _symmetry_equiv_pos_site_id
 _symmetry_equiv_pos_as_xyz
  1  'x, y, z'
loop_
 _atom_site_type_symbol
 _atom_site_label
 _atom_site_symmetry_multiplicity
 _atom_site_fract_x
 _atom_site_fract_y
 _atom_site_fract_z
 _atom_site_occupancy
  C  C0  1  0.00000000  0.00000000  0.25000000  1
  C  C1  1  0.00000000  0.00000000  0.75000000  1
  C  C2  1  0.66666700  0.33333300  0.25000000  1
  C  C3  1  0.33333300  0.66666700  0.75000000  1
  Ni  Ni4  1  0.58716400  0.58716400  0.50000000  1
  Ni  Ni5  1  0.41283600  0.00000000  0.50000000  1
  Ni  Ni6  1  0.00000000  0.41283600  0.50000000  1
  Ni  Ni7  1  0.41283600  0.41283600  0.00000000  1
  Ni  Ni8  1  0.58716400  0.00000000  0.00000000  1
  Ni  Ni9  1  0.00000000  0.58716400  0.00000000  1
  Cu  Cu10  1  0.43511100  0.43511100  0.50000000  1
  Cu  Cu11  1  0.56488900  0.00000000  0.50000000  1
  Cu  Cu12  1  0.00000000  0.56488900  0.50000000  1
  Cu  Cu13  1  0.56488900  0.56488900  0.00000000  1
  Cu  Cu14  1  0.43511100  0.00000000  0.00000000  1
  Cu  Cu15  1  0.00000000  0.43511100  0.00000000  1
  C  C16  1  0.40660000  0.29975000  0.39234000  1
  C  C17  1  0.70025000  0.10685000  0.39234000  1
  C  C18  1  0.89315000  0.59340000  0.39234000  1
  C  C19  1  0.29975000  0.40660000  0.60766000  1
  C  C20  1  0.10685000  0.70025000  0.60766000  1
  C  C21  1  0.59340000  0.89315000  0.60766000  1
  C  C22  1  0.59340000  0.70025000  0.89234000  1
  C  C23  1  0.29975000  0.89315000  0.89234000  1
  C  C24  1  0.10685000  0.40660000  0.89234000  1
  C  C25  1  0.70025000  0.59340000  0.10766000  1
  C  C26  1  0.89315000  0.29975000  0.10766000  1
  C  C27  1  0.40660000  0.10685000  0.10766000  1
