# generated using pymatgen
data_Cu2NiC10
_symmetry_space_group_name_H-M   'P 1'
_cell_length_a   14.42393054
_cell_length_b   14.42393054
_cell_length_c   14.42393054
_cell_angle_alpha   157.93130620
_cell_angle_beta   111.82061577
_cell_angle_gamma   72.63631297
_symmetry_Int_Tables_number   1
_chemical_formula_structural   Cu2NiC10
_chemical_formula_sum   'Cu12 Ni6 C60'
_cell_volume   1037.55247131
_cell_formula_units_Z   6
loop_
 _symmetry_equiv_pos_site_id
 _symmetry_equiv_pos_as_xyz
  1  'x, y, z'
loop_
 _atom_site_type_symbol
 _atom_site_label
 _atom_site_symmetry_multiplicity
 _atom_site_fract_x
 _atom_site_fract_y
 _atom_site_fract_z
 _atom_site_occupancy
  C  C0  1  0.81710500  0.13640900  0.65094500  1
  C  C1  1  0.48419100  0.13642800  0.31804700  1
  C  C2  1  0.14967300  0.13561900  0.98486200  1
  C  C3  1  0.84924300  0.86438100  0.01405500  1
  C  C4  1  0.51453600  0.86359100  0.68069700  1
  C  C5  1  0.18162000  0.86357200  0.34776300  1
  C  C6  1  0.01453600  0.33383900  0.65094500  1
  C  C7  1  0.68162000  0.33385600  0.31804700  1
  C  C8  1  0.34924300  0.33518800  0.98486200  1
  C  C9  1  0.64967300  0.66481200  0.01405500  1
  C  C10  1  0.31710500  0.66616100  0.68069700  1
  C  C11  1  0.98419100  0.66614400  0.34776300  1
  C  C12  1  0.00002000  0.00000000  0.00002000  1
  C  C13  1  0.50002000  0.50000000  0.00002000  1
  C  C14  1  0.66496700  0.00000000  0.66496700  1
  C  C15  1  0.33504700  0.00000000  0.33504700  1
  C  C16  1  0.16496700  0.50000000  0.66496700  1
  C  C17  1  0.83504700  0.50000000  0.33504700  1
  Ni  Ni18  1  0.06872000  0.31819400  0.88691400  1
  Ni  Ni19  1  0.73545300  0.31844000  0.55389400  1
  Ni  Ni20  1  0.40188000  0.31802200  0.21990200  1
  Ni  Ni21  1  0.23545300  0.68156000  0.41701300  1
  Ni  Ni22  1  0.90188000  0.68197800  0.08385700  1
  Ni  Ni23  1  0.56872000  0.68180600  0.75052600  1
  Cu  Cu24  1  0.57393800  0.07417300  0.50038500  1
  Cu  Cu25  1  0.23994600  0.07408400  0.16637500  1
  Cu  Cu26  1  0.90782500  0.07412900  0.83429900  1
  Cu  Cu27  1  0.09229100  0.92591600  0.16586200  1
  Cu  Cu28  1  0.76017000  0.92587100  0.83369600  1
  Cu  Cu29  1  0.42621200  0.92582700  0.49976600  1
  Cu  Cu30  1  0.92621200  0.42644600  0.50038500  1
  Cu  Cu31  1  0.59229100  0.42642900  0.16637500  1
  Cu  Cu32  1  0.26017000  0.42647400  0.83429900  1
  Cu  Cu33  1  0.73994600  0.57357100  0.16586200  1
  Cu  Cu34  1  0.40782500  0.57352600  0.83369600  1
  Cu  Cu35  1  0.07393800  0.57355400  0.49976600  1
  C  C36  1  0.65208300  0.31053200  0.82885100  1
  C  C37  1  0.31504500  0.31530100  0.50023600  1
  C  C38  1  0.98168200  0.32381200  0.17170500  1
  C  C39  1  0.18493500  0.68469900  0.99974400  1
  C  C40  1  0.84789400  0.67618800  0.65787000  1
  C  C41  1  0.51831900  0.68946800  0.34155200  1
  C  C42  1  0.01831900  0.67676700  0.82885100  1
  C  C43  1  0.68493500  0.68519100  0.50023600  1
  C  C44  1  0.34789400  0.69002400  0.17170500  1
  C  C45  1  0.48168200  0.30997600  0.65787000  1
  C  C46  1  0.15208300  0.32323300  0.34155200  1
  C  C47  1  0.81504500  0.31480900  0.99974400  1
  C  C48  1  0.47779900  0.81951600  0.17159000  1
  C  C49  1  0.14759900  0.80753700  0.82950500  1
  C  C50  1  0.81107200  0.81189100  0.50055300  1
  C  C51  1  0.02196800  0.19246300  0.34006200  1
  C  C52  1  0.68866300  0.18810900  0.99918100  1
  C  C53  1  0.35207500  0.18048400  0.65828400  1
  C  C54  1  0.18866300  0.18948100  0.50055300  1
  C  C55  1  0.85207500  0.19379100  0.17159000  1
  C  C56  1  0.52196800  0.18190500  0.82950500  1
  C  C57  1  0.64759900  0.81809500  0.34006200  1
  C  C58  1  0.31107200  0.81051900  0.99918100  1
  C  C59  1  0.97779900  0.80620900  0.65828400  1
  C  C60  1  0.84828300  0.72002500  0.21608900  1
  C  C61  1  0.51477100  0.72003000  0.88260700  1
  C  C62  1  0.18167300  0.72076600  0.54992500  1
  C  C63  1  0.82915900  0.27923400  0.46090700  1
  C  C64  1  0.49606500  0.27997500  0.12825900  1
  C  C65  1  0.16257700  0.27997000  0.79474200  1
  C  C66  1  0.99606500  0.86780600  0.21608900  1
  C  C67  1  0.66257700  0.86783500  0.88260700  1
  C  C68  1  0.32915900  0.86825200  0.54992500  1
  C  C69  1  0.68167300  0.13174800  0.46090700  1
  C  C70  1  0.34828300  0.13219400  0.12825900  1
  C  C71  1  0.01477100  0.13216500  0.79474200  1
  C  C72  1  0.78407100  0.63363600  0.91770800  1
  C  C73  1  0.45086400  0.63279600  0.58365900  1
  C  C74  1  0.11756400  0.63284900  0.25041300  1
  C  C75  1  0.95086400  0.36720400  0.81806800  1
  C  C76  1  0.61756400  0.36715100  0.48471500  1
  C  C77  1  0.28407100  0.36636400  0.15043500  1
