# generated using pymatgen
data_CuNiC17
_symmetry_space_group_name_H-M   'P 1'
_cell_length_a   9.21778540
_cell_length_b   8.28696873
_cell_length_c   8.39638923
_cell_angle_alpha   61.23632459
_cell_angle_beta   61.58241343
_cell_angle_gamma   92.54891732
_symmetry_Int_Tables_number   1
_chemical_formula_structural   CuNiC17
_chemical_formula_sum   'Cu2 Ni2 C34'
_cell_volume   462.33925416
_cell_formula_units_Z   2
loop_
 _symmetry_equiv_pos_site_id
 _symmetry_equiv_pos_as_xyz
  1  'x, y, z'
loop_
 _atom_site_type_symbol
 _atom_site_label
 _atom_site_symmetry_multiplicity
 _atom_site_fract_x
 _atom_site_fract_y
 _atom_site_fract_z
 _atom_site_occupancy
  C  C0  1  0.13850600  0.07891900  0.58257800  1
  C  C1  1  0.61273900  0.78298700  0.66835300  1
  C  C2  1  0.96109000  0.98927400  0.19317700  1
  C  C3  1  0.85472700  0.24112000  0.83333600  1
  Ni  Ni4  1  0.55426100  0.85767800  0.29313200  1
  Ni  Ni5  1  0.42618900  0.14736600  0.72223500  1
  Cu  Cu6  1  0.04843600  0.36586300  0.29420800  1
  Cu  Cu7  1  0.95124900  0.64582100  0.70632200  1
  C  C8  1  0.24515700  0.04493600  0.21143700  1
  C  C9  1  0.24078700  0.46042600  0.49937500  1
  C  C10  1  0.24937500  0.75769800  0.78275200  1
  C  C11  1  0.75061100  0.25137900  0.22676900  1
  C  C12  1  0.75217900  0.53049700  0.51767600  1
  C  C13  1  0.74458500  0.95167100  0.79937200  1
  C  C14  1  0.08586500  0.83655300  0.39705500  1
  C  C15  1  0.24143700  0.11090000  0.00697100  1
  C  C16  1  0.18700500  0.18239700  0.28749200  1
  C  C17  1  0.19321900  0.48718200  0.33158600  1
  C  C18  1  0.08488300  0.46838500  0.68145600  1
  C  C19  1  0.12135600  0.79954300  0.70788700  1
  C  C20  1  0.41591500  0.02797200  0.18592300  1
  C  C21  1  0.24967300  0.25553400  0.60923400  1
  C  C22  1  0.41501400  0.62191300  0.37215800  1
  C  C23  1  0.18428000  0.54320200  0.97762100  1
  C  C24  1  0.26428900  0.89749800  0.84869000  1
  C  C25  1  0.43314300  0.79630400  0.59176200  1
  C  C26  1  0.57580400  0.21562700  0.41663600  1
  C  C27  1  0.73754300  0.10782000  0.15894400  1
  C  C28  1  0.82427900  0.46286000  0.01836000  1
  C  C29  1  0.56804200  0.38047200  0.64778800  1
  C  C30  1  0.74860000  0.74123400  0.41736200  1
  C  C31  1  0.58466200  0.96623500  0.79066400  1
  C  C32  1  0.89078500  0.20951800  0.28304400  1
  C  C33  1  0.89366700  0.51452700  0.33208500  1
  C  C34  1  0.80035000  0.48518800  0.68782400  1
  C  C35  1  0.79300700  0.79502300  0.75015700  1
  C  C36  1  0.72468500  0.89902500  0.01383500  1
  C  C37  1  0.90682800  0.15207100  0.62679500  1
