# generated using pymatgen
data_Cu3NiC10
_symmetry_space_group_name_H-M   'P 1'
_cell_length_a   6.69134993
_cell_length_b   6.69134993
_cell_length_c   10.00972100
_cell_angle_alpha   90.00000000
_cell_angle_beta   90.00000000
_cell_angle_gamma   119.99999927
_symmetry_Int_Tables_number   1
_chemical_formula_structural   Cu3NiC10
_chemical_formula_sum   'Cu6 Ni2 C20'
_cell_volume   388.13257322
_cell_formula_units_Z   2
loop_
 _symmetry_equiv_pos_site_id
 _symmetry_equiv_pos_as_xyz
  1  'x, y, z'
loop_
 _atom_site_type_symbol
 _atom_site_label
 _atom_site_symmetry_multiplicity
 _atom_site_fract_x
 _atom_site_fract_y
 _atom_site_fract_z
 _atom_site_occupancy
  C  C0  1  0.00000000  0.00000000  0.00000000  1
  C  C1  1  0.00000000  0.00000000  0.50000000  1
  Ni  Ni2  1  0.66666700  0.33333300  0.00000000  1
  Ni  Ni3  1  0.66666700  0.33333300  0.50000000  1
  Cu  Cu4  1  0.39095400  0.44068300  0.25000000  1
  Cu  Cu5  1  0.55931700  0.95027000  0.25000000  1
  Cu  Cu6  1  0.39095400  0.95027000  0.75000000  1
  Cu  Cu7  1  0.04973000  0.60904600  0.25000000  1
  Cu  Cu8  1  0.55931700  0.60904600  0.75000000  1
  Cu  Cu9  1  0.04973000  0.44068300  0.75000000  1
  C  C10  1  0.92839800  0.59271100  0.12119100  1
  C  C11  1  0.40728900  0.33568700  0.12119100  1
  C  C12  1  0.92839800  0.59271100  0.37880900  1
  C  C13  1  0.92839800  0.33568700  0.62119100  1
  C  C14  1  0.66431300  0.07160200  0.12119100  1
  C  C15  1  0.40728900  0.33568700  0.37880900  1
  C  C16  1  0.40728900  0.07160200  0.62119100  1
  C  C17  1  0.92839800  0.33568700  0.87880900  1
  C  C18  1  0.66431300  0.07160200  0.37880900  1
  C  C19  1  0.40728900  0.07160200  0.87880900  1
  C  C20  1  0.66431300  0.59271100  0.62119100  1
  C  C21  1  0.66431300  0.59271100  0.87880900  1
  C  C22  1  0.14282800  0.42839800  0.25000000  1
  C  C23  1  0.57160200  0.71443000  0.25000000  1
  C  C24  1  0.14282800  0.71443000  0.75000000  1
  C  C25  1  0.28557000  0.85717200  0.25000000  1
  C  C26  1  0.57160200  0.85717200  0.75000000  1
  C  C27  1  0.28557000  0.42839800  0.75000000  1
