# generated using pymatgen
data_Cu5(NiC3)2
_symmetry_space_group_name_H-M   'P 1'
_cell_length_a   6.40687641
_cell_length_b   7.49420918
_cell_length_c   12.94261924
_cell_angle_alpha   89.99999975
_cell_angle_beta   103.84546902
_cell_angle_gamma   125.79286834
_symmetry_Int_Tables_number   1
_chemical_formula_structural   Cu5(NiC3)2
_chemical_formula_sum   'Cu10 Ni4 C12'
_cell_volume   481.63112035
_cell_formula_units_Z   2
loop_
 _symmetry_equiv_pos_site_id
 _symmetry_equiv_pos_as_xyz
  1  'x, y, z'
loop_
 _atom_site_type_symbol
 _atom_site_label
 _atom_site_symmetry_multiplicity
 _atom_site_fract_x
 _atom_site_fract_y
 _atom_site_fract_z
 _atom_site_occupancy
  Ni  Ni0  1  0.64579000  0.98058100  0.57466600  1
  Ni  Ni1  1  0.35421000  0.33479000  0.92533400  1
  Ni  Ni2  1  0.35421000  0.01941900  0.42533400  1
  Ni  Ni3  1  0.64579000  0.66521000  0.07466600  1
  Cu  Cu4  1  0.00000000  0.41522400  0.75000000  1
  Cu  Cu5  1  0.00000000  0.58477600  0.25000000  1
  Cu  Cu6  1  0.23173000  0.77619700  0.01917800  1
  Cu  Cu7  1  0.76827000  0.54446700  0.48082200  1
  Cu  Cu8  1  0.76827000  0.22380300  0.98082200  1
  Cu  Cu9  1  0.23173000  0.45553300  0.51917800  1
  Cu  Cu10  1  0.22205700  0.01728200  0.68310400  1
  Cu  Cu11  1  0.77794300  0.79522600  0.81689600  1
  Cu  Cu12  1  0.77794300  0.98271800  0.31689600  1
  Cu  Cu13  1  0.22205700  0.20477400  0.18310400  1
  C  C14  1  0.51049400  0.76347400  0.64910500  1
  C  C15  1  0.48950600  0.25298100  0.85089500  1
  C  C16  1  0.48950600  0.23652600  0.35089500  1
  C  C17  1  0.51049400  0.74701900  0.14910500  1
  C  C18  1  0.49880900  0.12553100  0.56817100  1
  C  C19  1  0.50119100  0.62672100  0.93182900  1
  C  C20  1  0.50119100  0.87446900  0.43182900  1
  C  C21  1  0.49880900  0.37327900  0.06817100  1
  C  C22  1  0.99837700  0.18283300  0.62357000  1
  C  C23  1  0.00162300  0.18445600  0.87643000  1
  C  C24  1  0.00162300  0.81716700  0.37643000  1
  C  C25  1  0.99837700  0.81554400  0.12357000  1
