# generated using pymatgen
data_CuNiC12
_symmetry_space_group_name_H-M   'P 1'
_cell_length_a   9.00728200
_cell_length_b   9.19036200
_cell_length_c   18.73567300
_cell_angle_alpha   90.00000000
_cell_angle_beta   90.00000000
_cell_angle_gamma   90.00000000
_symmetry_Int_Tables_number   1
_chemical_formula_structural   CuNiC12
_chemical_formula_sum   'Cu8 Ni8 C96'
_cell_volume   1550.94242488
_cell_formula_units_Z   8
loop_
 _symmetry_equiv_pos_site_id
 _symmetry_equiv_pos_as_xyz
  1  'x, y, z'
loop_
 _atom_site_type_symbol
 _atom_site_label
 _atom_site_symmetry_multiplicity
 _atom_site_fract_x
 _atom_site_fract_y
 _atom_site_fract_z
 _atom_site_occupancy
  C  C0  1  0.65481800  0.50499600  0.09131000  1
  C  C1  1  0.15481800  0.99500400  0.90869000  1
  C  C2  1  0.34518200  0.00499600  0.40869000  1
  C  C3  1  0.84518200  0.49500400  0.59131000  1
  C  C4  1  0.34518200  0.49500400  0.90869000  1
  C  C5  1  0.84518200  0.00499600  0.09131000  1
  C  C6  1  0.65481800  0.99500400  0.59131000  1
  C  C7  1  0.15481800  0.50499600  0.40869000  1
  Ni  Ni8  1  0.49885500  0.65627800  0.28771500  1
  Ni  Ni9  1  0.99885500  0.84372200  0.71228500  1
  Ni  Ni10  1  0.50114500  0.15627800  0.21228500  1
  Ni  Ni11  1  0.00114500  0.34372200  0.78771500  1
  Ni  Ni12  1  0.50114500  0.34372200  0.71228500  1
  Ni  Ni13  1  0.00114500  0.15627800  0.28771500  1
  Ni  Ni14  1  0.49885500  0.84372200  0.78771500  1
  Ni  Ni15  1  0.99885500  0.65627800  0.21228500  1
  Cu  Cu16  1  0.68318600  0.40880200  0.41666500  1
  Cu  Cu17  1  0.18318600  0.09119800  0.58333500  1
  Cu  Cu18  1  0.31681400  0.90880200  0.08333500  1
  Cu  Cu19  1  0.81681400  0.59119800  0.91666500  1
  Cu  Cu20  1  0.31681400  0.59119800  0.58333500  1
  Cu  Cu21  1  0.81681400  0.90880200  0.41666500  1
  Cu  Cu22  1  0.68318600  0.09119800  0.91666500  1
  Cu  Cu23  1  0.18318600  0.40880200  0.08333500  1
  C  C24  1  0.95043200  0.29431200  0.97152900  1
  C  C25  1  0.45043200  0.20568800  0.02847100  1
  C  C26  1  0.04956800  0.79431200  0.52847100  1
  C  C27  1  0.54956800  0.70568800  0.47152900  1
  C  C28  1  0.04956800  0.70568800  0.02847100  1
  C  C29  1  0.54956800  0.79431200  0.97152900  1
  C  C30  1  0.95043200  0.20568800  0.47152900  1
  C  C31  1  0.45043200  0.29431200  0.52847100  1
  C  C32  1  0.75102400  0.90351700  0.26197300  1
  C  C33  1  0.25102400  0.59648300  0.73802700  1
  C  C34  1  0.24897600  0.40351700  0.23802700  1
  C  C35  1  0.74897600  0.09648300  0.76197300  1
  C  C36  1  0.24897600  0.09648300  0.73802700  1
  C  C37  1  0.74897600  0.40351700  0.26197300  1
  C  C38  1  0.75102400  0.59648300  0.76197300  1
  C  C39  1  0.25102400  0.90351700  0.23802700  1
  C  C40  1  0.65552000  0.80697100  0.31077600  1
  C  C41  1  0.15552000  0.69302900  0.68922400  1
  C  C42  1  0.34448000  0.30697100  0.18922400  1
  C  C43  1  0.84448000  0.19302900  0.81077600  1
  C  C44  1  0.34448000  0.19302900  0.68922400  1
  C  C45  1  0.84448000  0.30697100  0.31077600  1
  C  C46  1  0.65552000  0.69302900  0.81077600  1
  C  C47  1  0.15552000  0.80697100  0.18922400  1
  C  C48  1  0.66441500  0.00557800  0.21140000  1
  C  C49  1  0.16441500  0.49442200  0.78860000  1
  C  C50  1  0.33558500  0.50557800  0.28860000  1
  C  C51  1  0.83558500  0.99442200  0.71140000  1
  C  C52  1  0.33558500  0.99442200  0.78860000  1
  C  C53  1  0.83558500  0.50557800  0.21140000  1
  C  C54  1  0.66441500  0.49442200  0.71140000  1
  C  C55  1  0.16441500  0.00557800  0.28860000  1
  C  C56  1  0.02984800  0.27904700  0.04498400  1
  C  C57  1  0.52984800  0.22095300  0.95501600  1
  C  C58  1  0.97015200  0.77904700  0.45501600  1
  C  C59  1  0.47015200  0.72095300  0.54498400  1
  C  C60  1  0.97015200  0.72095300  0.95501600  1
  C  C61  1  0.47015200  0.77904700  0.04498400  1
  C  C62  1  0.02984800  0.22095300  0.54498400  1
  C  C63  1  0.52984800  0.27904700  0.45501600  1
  C  C64  1  0.84903900  0.99189500  0.31722100  1
  C  C65  1  0.34903900  0.50810500  0.68277900  1
  C  C66  1  0.15096100  0.49189500  0.18277900  1
  C  C67  1  0.53103700  0.64770900  0.20123500  1
  C  C68  1  0.65096100  0.00810500  0.81722100  1
  C  C69  1  0.65096100  0.49189500  0.31722100  1
  C  C70  1  0.84903900  0.50810500  0.81722100  1
  C  C71  1  0.34903900  0.99189500  0.18277900  1
  C  C72  1  0.88132200  0.13849400  0.95994800  1
  C  C73  1  0.38132200  0.36150600  0.04005200  1
  C  C74  1  0.11867800  0.63849400  0.54005200  1
  C  C75  1  0.61867800  0.86150600  0.45994800  1
  C  C76  1  0.11867800  0.86150600  0.04005200  1
  C  C77  1  0.61867800  0.63849400  0.95994800  1
  C  C78  1  0.88132200  0.36150600  0.45994800  1
  C  C79  1  0.38132200  0.13849400  0.54005200  1
  C  C80  1  0.05906400  0.17195500  0.40918400  1
  C  C81  1  0.55906400  0.32804500  0.59081600  1
  C  C82  1  0.94093600  0.67195500  0.09081600  1
  C  C83  1  0.44093600  0.82804500  0.90918400  1
  C  C84  1  0.94093600  0.82804500  0.59081600  1
  C  C85  1  0.44093600  0.67195500  0.40918400  1
  C  C86  1  0.05906400  0.32804500  0.90918400  1
  C  C87  1  0.55906400  0.17195500  0.09081600  1
  C  C88  1  0.14993500  0.31700700  0.29022100  1
  C  C89  1  0.64993500  0.18299300  0.70977900  1
  C  C90  1  0.85006500  0.81700700  0.20977900  1
  C  C91  1  0.35006500  0.68299300  0.79022100  1
  C  C92  1  0.85006500  0.68299300  0.70977900  1
  C  C93  1  0.35006500  0.81700700  0.29022100  1
  C  C94  1  0.14993500  0.18299300  0.79022100  1
  C  C95  1  0.64993500  0.31700700  0.20977900  1
  C  C96  1  0.32582100  0.40975500  0.52357900  1
  C  C97  1  0.82582100  0.09024500  0.47642100  1
  C  C98  1  0.67417900  0.90975500  0.97642100  1
  C  C99  1  0.17417900  0.59024500  0.02357900  1
  C  C100  1  0.67417900  0.59024500  0.47642100  1
  C  C101  1  0.17417900  0.90975500  0.52357900  1
  C  C102  1  0.32582100  0.09024500  0.02357900  1
  C  C103  1  0.82582100  0.40975500  0.97642100  1
  C  C104  1  0.03103700  0.64770900  0.29876500  1
  C  C105  1  0.53103700  0.85229100  0.70123500  1
  C  C106  1  0.96896300  0.14770900  0.20123500  1
  C  C107  1  0.46896300  0.35229100  0.79876500  1
  C  C108  1  0.96896300  0.35229100  0.70123500  1
  C  C109  1  0.46896300  0.14770900  0.29876500  1
  C  C110  1  0.03103700  0.85229100  0.79876500  1
  C  C111  1  0.15096100  0.00810500  0.68277900  1
