# generated using pymatgen
data_CuNi3C16
_symmetry_space_group_name_H-M   'P 1'
_cell_length_a   5.55632800
_cell_length_b   5.55632800
_cell_length_c   8.05767300
_cell_angle_alpha   90.00000000
_cell_angle_beta   90.00000000
_cell_angle_gamma   90.00000000
_symmetry_Int_Tables_number   1
_chemical_formula_structural   CuNi3C16
_chemical_formula_sum   'Cu1 Ni3 C16'
_cell_volume   248.76277264
_cell_formula_units_Z   1
loop_
 _symmetry_equiv_pos_site_id
 _symmetry_equiv_pos_as_xyz
  1  'x, y, z'
loop_
 _atom_site_type_symbol
 _atom_site_label
 _atom_site_symmetry_multiplicity
 _atom_site_fract_x
 _atom_site_fract_y
 _atom_site_fract_z
 _atom_site_occupancy
  C  C0  1  0.50000000  0.00000000  0.72020000  1
  C  C1  1  0.00000000  0.50000000  0.27980000  1
  C  C2  1  0.50000000  0.00000000  0.27980000  1
  C  C3  1  0.00000000  0.50000000  0.72020000  1
  Ni  Ni4  1  0.00000000  0.00000000  0.00000000  1
  Ni  Ni5  1  0.50000000  0.50000000  0.50000000  1
  Ni  Ni6  1  0.00000000  0.00000000  0.50000000  1
  Cu  Cu7  1  0.50000000  0.50000000  0.00000000  1
  C  C8  1  0.00000000  0.00000000  0.75266600  1
  C  C9  1  0.50000000  0.50000000  0.24397900  1
  C  C10  1  0.74829400  0.74829400  0.50000000  1
  C  C11  1  0.25738600  0.25738600  0.00000000  1
  C  C12  1  0.74829400  0.25170600  0.50000000  1
  C  C13  1  0.25738600  0.74261400  0.00000000  1
  C  C14  1  0.00000000  0.00000000  0.24733400  1
  C  C15  1  0.50000000  0.50000000  0.75602100  1
  C  C16  1  0.25170600  0.25170600  0.50000000  1
  C  C17  1  0.74261400  0.74261400  0.00000000  1
  C  C18  1  0.25170600  0.74829400  0.50000000  1
  C  C19  1  0.74261400  0.25738600  0.00000000  1
