# generated using pymatgen
data_Cu2Ni2C15
_symmetry_space_group_name_H-M   'P 1'
_cell_length_a   3.86049600
_cell_length_b   7.59108300
_cell_length_c   8.05539700
_cell_angle_alpha   90.00000000
_cell_angle_beta   90.00000000
_cell_angle_gamma   90.00000000
_symmetry_Int_Tables_number   1
_chemical_formula_structural   Cu2Ni2C15
_chemical_formula_sum   'Cu2 Ni2 C15'
_cell_volume   236.06619269
_cell_formula_units_Z   1
loop_
 _symmetry_equiv_pos_site_id
 _symmetry_equiv_pos_as_xyz
  1  'x, y, z'
loop_
 _atom_site_type_symbol
 _atom_site_label
 _atom_site_symmetry_multiplicity
 _atom_site_fract_x
 _atom_site_fract_y
 _atom_site_fract_z
 _atom_site_occupancy
  Ni  Ni0  1  0.50000000  0.00000000  0.24351700  1
  Ni  Ni1  1  0.50000000  0.00000000  0.75648300  1
  Cu  Cu2  1  0.50000000  0.50000000  0.27380600  1
  Cu  Cu3  1  0.50000000  0.50000000  0.72619400  1
  C  C4  1  0.00000000  0.75042700  0.50000000  1
  C  C5  1  0.00000000  0.24957300  0.50000000  1
  C  C6  1  0.00000000  0.72867000  0.00000000  1
  C  C7  1  0.00000000  0.27133000  0.00000000  1
  C  C8  1  0.00000000  0.00000000  0.00000000  1
  C  C9  1  0.00000000  0.00000000  0.50000000  1
  C  C10  1  0.00000000  0.50000000  0.50000000  1
  C  C11  1  0.50000000  0.68354900  0.00000000  1
  C  C12  1  0.50000000  0.31645100  0.00000000  1
  C  C13  1  0.50000000  0.72607000  0.50000000  1
  C  C14  1  0.50000000  0.27393000  0.50000000  1
  C  C15  1  0.00000000  0.70441900  0.23723800  1
  C  C16  1  0.00000000  0.70441900  0.76276200  1
  C  C17  1  0.00000000  0.29558100  0.76276200  1
  C  C18  1  0.00000000  0.29558100  0.23723800  1
