# generated using pymatgen
data_Cu8NiC3
_symmetry_space_group_name_H-M   'P 1'
_cell_length_a   3.51971000
_cell_length_b   10.61074000
_cell_length_c   10.62985821
_cell_angle_alpha   87.95739564
_cell_angle_beta   90.00000000
_cell_angle_gamma   90.00000000
_symmetry_Int_Tables_number   1
_chemical_formula_structural   Cu8NiC3
_chemical_formula_sum   'Cu16 Ni2 C6'
_cell_volume   396.73817226
_cell_formula_units_Z   2
loop_
 _symmetry_equiv_pos_site_id
 _symmetry_equiv_pos_as_xyz
  1  'x, y, z'
loop_
 _atom_site_type_symbol
 _atom_site_label
 _atom_site_symmetry_multiplicity
 _atom_site_fract_x
 _atom_site_fract_y
 _atom_site_fract_z
 _atom_site_occupancy
  C  C0  1  0.25000000  0.23638200  0.35015900  1
  C  C1  1  0.75000000  0.76361800  0.64984100  1
  C  C2  1  0.25000000  0.60142200  0.89089200  1
  C  C3  1  0.25000000  0.90719500  0.89101000  1
  C  C4  1  0.75000000  0.39857800  0.10910800  1
  C  C5  1  0.75000000  0.09280500  0.10899000  1
  Ni  Ni6  1  0.25000000  0.28443700  0.65007500  1
  Ni  Ni7  1  0.75000000  0.71556300  0.34992500  1
  Cu  Cu8  1  0.25000000  0.19714900  0.56887700  1
  Cu  Cu9  1  0.75000000  0.80285100  0.43112300  1
  Cu  Cu10  1  0.75000000  0.75577200  0.88269500  1
  Cu  Cu11  1  0.25000000  0.24422800  0.11730500  1
  Cu  Cu12  1  0.75000000  0.46867800  0.91068100  1
  Cu  Cu13  1  0.75000000  0.03787500  0.90976000  1
  Cu  Cu14  1  0.25000000  0.53132200  0.08931900  1
  Cu  Cu15  1  0.25000000  0.96212500  0.09024000  1
  Cu  Cu16  1  0.25000000  0.64313900  0.68592400  1
  Cu  Cu17  1  0.25000000  0.88358800  0.68492000  1
  Cu  Cu18  1  0.75000000  0.35686100  0.31407600  1
  Cu  Cu19  1  0.75000000  0.11641200  0.31508000  1
  Cu  Cu20  1  0.25000000  0.25048400  0.76352900  1
  Cu  Cu21  1  0.75000000  0.74951600  0.23647100  1
  Cu  Cu22  1  0.25000000  0.39729800  0.61405800  1
  Cu  Cu23  1  0.75000000  0.60270200  0.38594200  1
