# generated using pymatgen
data_Cu10NiC20
_symmetry_space_group_name_H-M   'P 1'
_cell_length_a   4.90682685
_cell_length_b   12.90064233
_cell_length_c   5.58900904
_cell_angle_alpha   103.86711355
_cell_angle_beta   88.83342641
_cell_angle_gamma   90.62096263
_symmetry_Int_Tables_number   1
_chemical_formula_structural   Cu10NiC20
_chemical_formula_sum   'Cu10 Ni1 C20'
_cell_volume   343.40189738
_cell_formula_units_Z   1
loop_
 _symmetry_equiv_pos_site_id
 _symmetry_equiv_pos_as_xyz
  1  'x, y, z'
loop_
 _atom_site_type_symbol
 _atom_site_label
 _atom_site_symmetry_multiplicity
 _atom_site_fract_x
 _atom_site_fract_y
 _atom_site_fract_z
 _atom_site_occupancy
  Ni  Ni0  1  0.98826830  0.29747025  0.10229510  1
  Cu  Cu1  1  0.51423715  0.98792681  0.49076585  1
  Cu  Cu2  1  0.46880088  0.41466574  0.28651421  1
  Cu  Cu3  1  0.48476516  0.19753520  0.88910687  1
  Cu  Cu4  1  0.50516616  0.61026445  0.68232707  1
  Cu  Cu5  1  0.52806601  0.80052829  0.08464464  1
  Cu  Cu6  1  0.94681493  0.40547524  0.74268755  1
  Cu  Cu7  1  0.00492751  0.80334919  0.60389569  1
  Cu  Cu8  1  0.03591147  0.18058571  0.45233183  1
  Cu  Cu9  1  0.97168503  0.59378996  0.20564602  1
  Cu  Cu10  1  0.03295836  0.99545053  0.01568646  1
  C  C11  1  0.83309890  0.25380617  0.75365893  1
  C  C12  1  0.83609489  0.86389392  0.92427572  1
  C  C13  1  0.81443414  0.66744714  0.51526752  1
  C  C14  1  0.83954845  0.04741167  0.32982012  1
  C  C15  1  0.82293067  0.44705479  0.10639333  1
  C  C16  1  0.65613934  0.46884405  0.60584504  1
  C  C17  1  0.67449156  0.65867303  0.00757243  1
  C  C18  1  0.68684543  0.85165354  0.41232425  1
  C  C19  1  0.32813445  0.33917418  0.96538869  1
  C  C20  1  0.32670680  0.74348751  0.77835416  1
  C  C21  1  0.35017963  0.12751197  0.57362814  1
  C  C22  1  0.33796845  0.93172849  0.17264754  1
  C  C23  1  0.29632597  0.55201112  0.38188193  1
  C  C24  1  0.16528463  0.14350854  0.08628976  1
  C  C25  1  0.19652450  0.94135732  0.68783834  1
  C  C26  1  0.14603232  0.33349980  0.44457419  1
  C  C27  1  0.69158009  0.05561836  0.83598279  1
  C  C28  1  0.65344466  0.25313070  0.23890183  1
  C  C29  1  0.16592391  0.54300133  0.86881618  1
  C  C30  1  0.18282627  0.74014601  0.26654281  1
