# generated using pymatgen
data_Cu12Ni3C5
_symmetry_space_group_name_H-M   'P 1'
_cell_length_a   6.72602839
_cell_length_b   6.72602839
_cell_length_c   6.72602866
_cell_angle_alpha   90.59809426
_cell_angle_beta   90.59809426
_cell_angle_gamma   90.59810016
_symmetry_Int_Tables_number   1
_chemical_formula_structural   Cu12Ni3C5
_chemical_formula_sum   'Cu12 Ni3 C5'
_cell_volume   304.23180634
_cell_formula_units_Z   1
loop_
 _symmetry_equiv_pos_site_id
 _symmetry_equiv_pos_as_xyz
  1  'x, y, z'
loop_
 _atom_site_type_symbol
 _atom_site_label
 _atom_site_symmetry_multiplicity
 _atom_site_fract_x
 _atom_site_fract_y
 _atom_site_fract_z
 _atom_site_occupancy
  C  C0  1  0.06846600  0.06846600  0.06846600  1
  C  C1  1  0.57278100  0.92823200  0.43056400  1
  C  C2  1  0.92823200  0.43056400  0.57278100  1
  C  C3  1  0.43056400  0.57278100  0.92823200  1
  C  C4  1  0.40983700  0.40983700  0.40983700  1
  Ni  Ni5  1  0.91974900  0.58123700  0.08155900  1
  Ni  Ni6  1  0.58123700  0.08155900  0.91974900  1
  Ni  Ni7  1  0.08155900  0.91974900  0.58123700  1
  Cu  Cu8  1  0.50762100  0.60727800  0.29067300  1
  Cu  Cu9  1  0.60727800  0.29067300  0.50762100  1
  Cu  Cu10  1  0.29067300  0.50762100  0.60727800  1
  Cu  Cu11  1  0.00522200  0.40687400  0.19366200  1
  Cu  Cu12  1  0.09427700  0.69574700  0.99938600  1
  Cu  Cu13  1  0.80427200  0.49581500  0.90674900  1
  Cu  Cu14  1  0.49581500  0.90674900  0.80427200  1
  Cu  Cu15  1  0.40687400  0.19366200  0.00522200  1
  Cu  Cu16  1  0.69574700  0.99938600  0.09427700  1
  Cu  Cu17  1  0.99938600  0.09427700  0.69574700  1
  Cu  Cu18  1  0.90674900  0.80427200  0.49581500  1
  Cu  Cu19  1  0.19366200  0.00522200  0.40687400  1
