# generated using pymatgen
data_CuNiC6
_symmetry_space_group_name_H-M   'P 1'
_cell_length_a   5.08351000
_cell_length_b   6.24082700
_cell_length_c   10.93183000
_cell_angle_alpha   90.00000000
_cell_angle_beta   90.00000000
_cell_angle_gamma   90.00000000
_symmetry_Int_Tables_number   1
_chemical_formula_structural   CuNiC6
_chemical_formula_sum   'Cu2 Ni2 C12'
_cell_volume   346.81565695
_cell_formula_units_Z   2
loop_
 _symmetry_equiv_pos_site_id
 _symmetry_equiv_pos_as_xyz
  1  'x, y, z'
loop_
 _atom_site_type_symbol
 _atom_site_label
 _atom_site_symmetry_multiplicity
 _atom_site_fract_x
 _atom_site_fract_y
 _atom_site_fract_z
 _atom_site_occupancy
  C  C0  1  0.00000000  0.74636400  0.08620100  1
  C  C1  1  0.00000000  0.25363600  0.08620100  1
  C  C2  1  0.00000000  0.00000000  0.33304100  1
  C  C3  1  0.50000000  0.25077900  0.41513400  1
  C  C4  1  0.50000000  0.74922100  0.41513400  1
  C  C5  1  0.50000000  0.00000000  0.16702900  1
  C  C6  1  0.00000000  0.24636400  0.58620100  1
  C  C7  1  0.00000000  0.75363600  0.58620100  1
  C  C8  1  0.00000000  0.50000000  0.83304100  1
  C  C9  1  0.50000000  0.75077900  0.91513400  1
  C  C10  1  0.50000000  0.24922100  0.91513400  1
  C  C11  1  0.50000000  0.50000000  0.66702900  1
  Ni  Ni12  1  0.00000000  0.50000000  0.33686100  1
  Ni  Ni13  1  0.00000000  0.00000000  0.83686100  1
  Cu  Cu14  1  0.50000000  0.50000000  0.16039900  1
  Cu  Cu15  1  0.50000000  0.00000000  0.66039900  1
