# generated using pymatgen
data_CuNiC3
_symmetry_space_group_name_H-M   'P 1'
_cell_length_a   5.44020600
_cell_length_b   5.76125100
_cell_length_c   7.76938900
_cell_angle_alpha   90.00000000
_cell_angle_beta   90.00000000
_cell_angle_gamma   90.00000000
_symmetry_Int_Tables_number   1
_chemical_formula_structural   CuNiC3
_chemical_formula_sum   'Cu4 Ni4 C12'
_cell_volume   243.51123764
_cell_formula_units_Z   4
loop_
 _symmetry_equiv_pos_site_id
 _symmetry_equiv_pos_as_xyz
  1  'x, y, z'
loop_
 _atom_site_type_symbol
 _atom_site_label
 _atom_site_symmetry_multiplicity
 _atom_site_fract_x
 _atom_site_fract_y
 _atom_site_fract_z
 _atom_site_occupancy
  Ni  Ni0  1  0.01845600  0.43258700  0.25000000  1
  Ni  Ni1  1  0.98154400  0.56741300  0.75000000  1
  Ni  Ni2  1  0.51845600  0.06741300  0.75000000  1
  Ni  Ni3  1  0.48154400  0.93258700  0.25000000  1
  Cu  Cu4  1  0.00000000  0.00000000  0.00000000  1
  Cu  Cu5  1  0.50000000  0.50000000  0.00000000  1
  Cu  Cu6  1  0.00000000  0.00000000  0.50000000  1
  Cu  Cu7  1  0.50000000  0.50000000  0.50000000  1
  C  C8  1  0.30895500  0.19510800  0.05694200  1
  C  C9  1  0.69104500  0.80489200  0.94305800  1
  C  C10  1  0.80895500  0.30489200  0.94305800  1
  C  C11  1  0.69104500  0.80489200  0.55694200  1
  C  C12  1  0.19104500  0.69510800  0.05694200  1
  C  C13  1  0.30895500  0.19510800  0.44305800  1
  C  C14  1  0.19104500  0.69510800  0.44305800  1
  C  C15  1  0.80895500  0.30489200  0.55694200  1
  C  C16  1  0.61493100  0.54172900  0.25000000  1
  C  C17  1  0.38506900  0.45827100  0.75000000  1
  C  C18  1  0.11493100  0.95827100  0.75000000  1
  C  C19  1  0.88506900  0.04172900  0.25000000  1
