# generated using pymatgen
data_CuNiC6
_symmetry_space_group_name_H-M   'P 1'
_cell_length_a   5.04672300
_cell_length_b   8.27041100
_cell_length_c   10.47051700
_cell_angle_alpha   90.00000000
_cell_angle_beta   90.00000000
_cell_angle_gamma   90.00000000
_symmetry_Int_Tables_number   1
_chemical_formula_structural   CuNiC6
_chemical_formula_sum   'Cu4 Ni4 C24'
_cell_volume   437.02339543
_cell_formula_units_Z   4
loop_
 _symmetry_equiv_pos_site_id
 _symmetry_equiv_pos_as_xyz
  1  'x, y, z'
loop_
 _atom_site_type_symbol
 _atom_site_label
 _atom_site_symmetry_multiplicity
 _atom_site_fract_x
 _atom_site_fract_y
 _atom_site_fract_z
 _atom_site_occupancy
  C  C0  1  0.74500600  0.18857200  0.68854900  1
  C  C1  1  0.24500600  0.81142800  0.31145100  1
  C  C2  1  0.24500600  0.68857200  0.81145100  1
  C  C3  1  0.74500600  0.31142800  0.18854900  1
  Ni  Ni4  1  0.74955500  0.58153100  0.65957200  1
  Ni  Ni5  1  0.24955400  0.41846900  0.34042800  1
  Ni  Ni6  1  0.24955400  0.08153100  0.84042800  1
  Ni  Ni7  1  0.74955500  0.91846900  0.15957200  1
  Cu  Cu8  1  0.75014100  0.87424100  0.85465700  1
  Cu  Cu9  1  0.25014100  0.12575900  0.14534300  1
  Cu  Cu10  1  0.25014100  0.37424100  0.64534300  1
  Cu  Cu11  1  0.75014100  0.62575900  0.35465700  1
  C  C12  1  0.80136900  0.65787500  0.50561000  1
  C  C13  1  0.30136900  0.34212500  0.49439000  1
  C  C14  1  0.30136900  0.15787500  0.99439000  1
  C  C15  1  0.80136900  0.84212500  0.00561000  1
  C  C16  1  0.86564300  0.71967500  0.77437200  1
  C  C17  1  0.36564300  0.28032500  0.22562800  1
  C  C18  1  0.36564300  0.21967500  0.72562800  1
  C  C19  1  0.86564300  0.78032500  0.27437200  1
  C  C20  1  0.41082700  0.53845600  0.69047600  1
  C  C21  1  0.91082700  0.46154400  0.30952400  1
  C  C22  1  0.91082700  0.03845600  0.80952400  1
  C  C23  1  0.41082700  0.96154400  0.19047600  1
  C  C24  1  0.93291300  0.39877300  0.67735600  1
  C  C25  1  0.43291300  0.60122700  0.32264400  1
  C  C26  1  0.43291300  0.89877300  0.82264400  1
  C  C27  1  0.93291300  0.10122700  0.17735600  1
  C  C28  1  0.23714400  0.58900100  0.99033400  1
  C  C29  1  0.73714400  0.41099900  0.00966600  1
  C  C30  1  0.73714400  0.08900100  0.50966600  1
  C  C31  1  0.23714400  0.91099900  0.49033400  1
