# generated using pymatgen
data_CuNiC
_symmetry_space_group_name_H-M   'P 1'
_cell_length_a   8.22791996
_cell_length_b   8.22791996
_cell_length_c   8.22791996
_cell_angle_alpha   60.00000000
_cell_angle_beta   60.00000000
_cell_angle_gamma   60.00000000
_symmetry_Int_Tables_number   1
_chemical_formula_structural   CuNiC
_chemical_formula_sum   'Cu8 Ni8 C8'
_cell_volume   393.87206258
_cell_formula_units_Z   8
loop_
 _symmetry_equiv_pos_site_id
 _symmetry_equiv_pos_as_xyz
  1  'x, y, z'
loop_
 _atom_site_type_symbol
 _atom_site_label
 _atom_site_symmetry_multiplicity
 _atom_site_fract_x
 _atom_site_fract_y
 _atom_site_fract_z
 _atom_site_occupancy
  Ni  Ni0  1  0.61783100  0.12739000  0.12739000  1
  Ni  Ni1  1  0.12739000  0.61783100  0.12739000  1
  Ni  Ni2  1  0.12739000  0.12739000  0.61783100  1
  Ni  Ni3  1  0.12739000  0.12739000  0.12739000  1
  Ni  Ni4  1  0.12441500  0.62519500  0.62519500  1
  Ni  Ni5  1  0.62519500  0.12441500  0.62519500  1
  Ni  Ni6  1  0.62519500  0.62519500  0.12441500  1
  Ni  Ni7  1  0.62519500  0.62519500  0.62519500  1
  Cu  Cu8  1  0.00000000  0.00000000  0.00000000  1
  Cu  Cu9  1  0.25000000  0.25000000  0.25000000  1
  Cu  Cu10  1  0.24261400  0.24261400  0.75738600  1
  Cu  Cu11  1  0.75738600  0.75738600  0.24261400  1
  Cu  Cu12  1  0.24261400  0.75738600  0.24261400  1
  Cu  Cu13  1  0.75738600  0.24261400  0.75738600  1
  Cu  Cu14  1  0.75738600  0.24261400  0.24261400  1
  Cu  Cu15  1  0.24261400  0.75738600  0.75738600  1
  C  C16  1  0.40194300  0.86601900  0.86601900  1
  C  C17  1  0.86601900  0.40194300  0.86601900  1
  C  C18  1  0.86601900  0.86601900  0.40194300  1
  C  C19  1  0.86601900  0.86601900  0.86601900  1
  C  C20  1  0.87063500  0.37645500  0.37645500  1
  C  C21  1  0.37645500  0.87063500  0.37645500  1
  C  C22  1  0.37645500  0.37645500  0.87063500  1
  C  C23  1  0.37645500  0.37645500  0.37645500  1
