# generated using pymatgen
data_Cu2NiC9
_symmetry_space_group_name_H-M   'P 1'
_cell_length_a   8.42452691
_cell_length_b   8.42452691
_cell_length_c   8.40263239
_cell_angle_alpha   64.58502062
_cell_angle_beta   64.58502062
_cell_angle_gamma   39.62064898
_symmetry_Int_Tables_number   1
_chemical_formula_structural   Cu2NiC9
_chemical_formula_sum   'Cu4 Ni2 C18'
_cell_volume   338.42482146
_cell_formula_units_Z   2
loop_
 _symmetry_equiv_pos_site_id
 _symmetry_equiv_pos_as_xyz
  1  'x, y, z'
loop_
 _atom_site_type_symbol
 _atom_site_label
 _atom_site_symmetry_multiplicity
 _atom_site_fract_x
 _atom_site_fract_y
 _atom_site_fract_z
 _atom_site_occupancy
  Ni  Ni0  1  0.00000000  0.00000000  0.50000000  1
  Ni  Ni1  1  0.00000000  0.00000000  0.00000000  1
  Cu  Cu2  1  0.37192900  0.09492400  0.70610600  1
  Cu  Cu3  1  0.62807100  0.90507600  0.29389400  1
  Cu  Cu4  1  0.90507600  0.62807100  0.79389400  1
  Cu  Cu5  1  0.09492400  0.37192900  0.20610600  1
  C  C6  1  0.56434000  0.23509800  0.84394000  1
  C  C7  1  0.43566000  0.76490200  0.15606000  1
  C  C8  1  0.76490200  0.43566000  0.65606000  1
  C  C9  1  0.23509800  0.56434000  0.34394000  1
  C  C10  1  0.52159100  0.47840900  0.75000000  1
  C  C11  1  0.47840900  0.52159100  0.25000000  1
  C  C12  1  0.70011700  0.10052400  0.00278200  1
  C  C13  1  0.29988300  0.89947600  0.99721800  1
  C  C14  1  0.89947600  0.29988300  0.49721800  1
  C  C15  1  0.10052400  0.70011700  0.50278200  1
  C  C16  1  0.72833000  0.06783800  0.69944200  1
  C  C17  1  0.27167000  0.93216200  0.30055800  1
  C  C18  1  0.93216200  0.27167000  0.80055800  1
  C  C19  1  0.06783800  0.72833000  0.19944200  1
  C  C20  1  0.66819300  0.69256500  0.59425500  1
  C  C21  1  0.33180700  0.30743500  0.40574500  1
  C  C22  1  0.30743500  0.33180700  0.90574500  1
  C  C23  1  0.69256500  0.66819300  0.09425500  1
