# generated using pymatgen
data_CuNiC8
_symmetry_space_group_name_H-M   'P 1'
_cell_length_a   8.45502196
_cell_length_b   8.45502196
_cell_length_c   8.44646105
_cell_angle_alpha   90.00000000
_cell_angle_beta   90.00000000
_cell_angle_gamma   90.00000000
_symmetry_Int_Tables_number   1
_chemical_formula_structural   CuNiC8
_chemical_formula_sum   'Cu4 Ni4 C32'
_cell_volume   603.81550879
_cell_formula_units_Z   4
loop_
 _symmetry_equiv_pos_site_id
 _symmetry_equiv_pos_as_xyz
  1  'x, y, z'
loop_
 _atom_site_type_symbol
 _atom_site_label
 _atom_site_symmetry_multiplicity
 _atom_site_fract_x
 _atom_site_fract_y
 _atom_site_fract_z
 _atom_site_occupancy
  Ni  Ni0  1  0.00000000  0.00000000  -0.00000000  1
  Ni  Ni1  1  0.50000000  0.00000000  0.50000000  1
  Ni  Ni2  1  0.50000000  0.50000000  0.50000000  1
  Ni  Ni3  1  0.00000000  0.50000000  0.50000000  1
  Cu  Cu4  1  0.50000000  0.00000000  -0.00000000  1
  Cu  Cu5  1  0.50000000  0.50000000  -0.00000000  1
  Cu  Cu6  1  0.00000000  0.50000000  -0.00000000  1
  Cu  Cu7  1  0.00000000  0.00000000  0.50000000  1
  C  C8  1  0.24974595  0.75025405  0.24845314  1
  C  C9  1  0.24974595  0.24974595  0.24845314  1
  C  C10  1  0.75025405  0.75025405  0.24845314  1
  C  C11  1  0.75025405  0.24974595  0.24845314  1
  C  C12  1  0.24974595  0.75025405  0.75154686  1
  C  C13  1  0.24974595  0.24974595  0.75154686  1
  C  C14  1  0.75025405  0.75025405  0.75154686  1
  C  C15  1  0.75025405  0.24974595  0.75154686  1
  C  C16  1  0.25043160  0.00000000  0.24840958  1
  C  C17  1  0.25058708  0.50000000  0.24639121  1
  C  C18  1  0.74956840  0.00000000  0.24840958  1
  C  C19  1  0.74941292  0.50000000  0.24639121  1
  C  C20  1  0.25043160  0.00000000  0.75159042  1
  C  C21  1  0.25058708  0.50000000  0.75360879  1
  C  C22  1  0.74956840  0.00000000  0.75159042  1
  C  C23  1  0.74941292  0.50000000  0.75360879  1
  C  C24  1  0.25248423  0.74751577  -0.00000000  1
  C  C25  1  0.25248423  0.25248423  -0.00000000  1
  C  C26  1  0.74751577  0.74751577  -0.00000000  1
  C  C27  1  0.74751577  0.25248423  -0.00000000  1
  C  C28  1  0.24828209  0.75171791  0.50000000  1
  C  C29  1  0.24828209  0.24828209  0.50000000  1
  C  C30  1  0.75171791  0.75171791  0.50000000  1
  C  C31  1  0.75171791  0.24828209  0.50000000  1
  C  C32  1  0.00000000  0.74956840  0.24840958  1
  C  C33  1  0.00000000  0.25043160  0.24840958  1
  C  C34  1  0.50000000  0.74941292  0.24639121  1
  C  C35  1  0.50000000  0.25058708  0.24639121  1
  C  C36  1  0.00000000  0.74956840  0.75159042  1
  C  C37  1  0.00000000  0.25043160  0.75159042  1
  C  C38  1  0.50000000  0.74941292  0.75360879  1
  C  C39  1  0.50000000  0.25058708  0.75360879  1
