# generated using pymatgen
data_CuNiC4
_symmetry_space_group_name_H-M   'P 1'
_cell_length_a   3.29015181
_cell_length_b   3.29015181
_cell_length_c   37.89818300
_cell_angle_alpha   90.00000000
_cell_angle_beta   90.00000000
_cell_angle_gamma   119.99999627
_symmetry_Int_Tables_number   1
_chemical_formula_structural   CuNiC4
_chemical_formula_sum   'Cu2 Ni2 C8'
_cell_volume   355.28830484
_cell_formula_units_Z   2
loop_
 _symmetry_equiv_pos_site_id
 _symmetry_equiv_pos_as_xyz
  1  'x, y, z'
loop_
 _atom_site_type_symbol
 _atom_site_label
 _atom_site_symmetry_multiplicity
 _atom_site_fract_x
 _atom_site_fract_y
 _atom_site_fract_z
 _atom_site_occupancy
  Ni  Ni0  1  0.00000000  0.00000000  0.09391500  1
  Ni  Ni1  1  0.33333300  0.66666700  0.28178200  1
  Cu  Cu2  1  0.00000000  0.00000000  0.46964600  1
  Cu  Cu3  1  0.33333300  0.66666700  0.65752600  1
  C  C4  1  0.00000000  0.00000000  0.32630500  1
  C  C5  1  0.33333300  0.66666700  0.04942400  1
  C  C6  1  0.33333300  0.66666700  0.42492400  1
  C  C7  1  0.33333300  0.66666700  0.13842300  1
  C  C8  1  0.33333300  0.66666700  0.51444000  1
  C  C9  1  0.00000000  0.00000000  0.23730900  1
  C  C10  1  0.00000000  0.00000000  0.69818100  1
  C  C11  1  0.00000000  0.00000000  0.61687300  1
