# generated using pymatgen
data_Cu7NiC2
_symmetry_space_group_name_H-M   'P 1'
_cell_length_a   7.32548500
_cell_length_b   8.11399500
_cell_length_c   11.52219000
_cell_angle_alpha   90.00000000
_cell_angle_beta   90.00000000
_cell_angle_gamma   90.00000000
_symmetry_Int_Tables_number   1
_chemical_formula_structural   Cu7NiC2
_chemical_formula_sum   'Cu28 Ni4 C8'
_cell_volume   684.86685989
_cell_formula_units_Z   4
loop_
 _symmetry_equiv_pos_site_id
 _symmetry_equiv_pos_as_xyz
  1  'x, y, z'
loop_
 _atom_site_type_symbol
 _atom_site_label
 _atom_site_symmetry_multiplicity
 _atom_site_fract_x
 _atom_site_fract_y
 _atom_site_fract_z
 _atom_site_occupancy
  C  C0  1  0.70036500  0.75000000  0.15034700  1
  C  C1  1  0.20036500  0.25000000  0.34965300  1
  C  C2  1  0.29963500  0.25000000  0.84965300  1
  C  C3  1  0.79963500  0.75000000  0.65034700  1
  C  C4  1  0.26539000  0.75000000  0.99781100  1
  C  C5  1  0.76539000  0.25000000  0.50218900  1
  C  C6  1  0.73461000  0.25000000  0.00218900  1
  C  C7  1  0.23461000  0.75000000  0.49781100  1
  Ni  Ni8  1  0.48842200  0.75000000  0.01688700  1
  Ni  Ni9  1  0.01157800  0.75000000  0.51688700  1
  Ni  Ni10  1  0.51157800  0.25000000  0.98311300  1
  Ni  Ni11  1  0.98842200  0.25000000  0.48311300  1
  Cu  Cu12  1  0.70007200  0.09301200  0.40511300  1
  Cu  Cu13  1  0.79992800  0.40698800  0.90511300  1
  Cu  Cu14  1  0.29992800  0.59301200  0.59488700  1
  Cu  Cu15  1  0.20007200  0.90698800  0.09488700  1
  Cu  Cu16  1  0.29992800  0.90698800  0.59488700  1
  Cu  Cu17  1  0.79992800  0.09301200  0.90511300  1
  Cu  Cu18  1  0.70007200  0.40698800  0.40511300  1
  Cu  Cu19  1  0.20007200  0.59301200  0.09488700  1
  Cu  Cu20  1  0.86090500  0.75000000  0.01816700  1
  Cu  Cu21  1  0.36090500  0.25000000  0.48183300  1
  Cu  Cu22  1  0.13909500  0.25000000  0.98183300  1
  Cu  Cu23  1  0.63909500  0.75000000  0.51816700  1
  Cu  Cu24  1  0.88429000  0.75000000  0.26319100  1
  Cu  Cu25  1  0.38429000  0.25000000  0.23680900  1
  Cu  Cu26  1  0.11571000  0.25000000  0.73680900  1
  Cu  Cu27  1  0.61571000  0.75000000  0.76319100  1
  Cu  Cu28  1  0.50080500  0.75000000  0.25695600  1
  Cu  Cu29  1  0.00080500  0.25000000  0.24304400  1
  Cu  Cu30  1  0.49919500  0.25000000  0.74304400  1
  Cu  Cu31  1  0.99919500  0.75000000  0.75695600  1
  Cu  Cu32  1  0.68867800  0.51207100  0.13705700  1
  Cu  Cu33  1  0.18867800  0.48792900  0.36294300  1
  Cu  Cu34  1  0.31132200  0.01207100  0.86294300  1
  Cu  Cu35  1  0.81132200  0.98792900  0.63705700  1
  Cu  Cu36  1  0.31132200  0.48792900  0.86294300  1
  Cu  Cu37  1  0.81132200  0.51207100  0.63705700  1
  Cu  Cu38  1  0.68867800  0.98792900  0.13705700  1
  Cu  Cu39  1  0.18867800  0.01207100  0.36294300  1
