# generated using pymatgen
data_CuNi3C16
_symmetry_space_group_name_H-M   'P 1'
_cell_length_a   7.86846871
_cell_length_b   7.86846871
_cell_length_c   7.92468100
_cell_angle_alpha   90.00000000
_cell_angle_beta   90.00000000
_cell_angle_gamma   90.01994697
_symmetry_Int_Tables_number   1
_chemical_formula_structural   CuNi3C16
_chemical_formula_sum   'Cu2 Ni6 C32'
_cell_volume   490.63915915
_cell_formula_units_Z   2
loop_
 _symmetry_equiv_pos_site_id
 _symmetry_equiv_pos_as_xyz
  1  'x, y, z'
loop_
 _atom_site_type_symbol
 _atom_site_label
 _atom_site_symmetry_multiplicity
 _atom_site_fract_x
 _atom_site_fract_y
 _atom_site_fract_z
 _atom_site_occupancy
  C  C0  1  0.24778400  0.24778400  0.50000000  1
  C  C1  1  0.75258000  0.24717200  0.50000000  1
  C  C2  1  0.75287000  0.24716600  0.00000000  1
  C  C3  1  0.24710100  0.24710100  0.00000000  1
  C  C4  1  0.75279600  0.75279600  0.50000000  1
  C  C5  1  0.75296900  0.75296900  0.00000000  1
  C  C6  1  0.24717200  0.75258000  0.50000000  1
  C  C7  1  0.24716600  0.75287000  0.00000000  1
  Ni  Ni8  1  0.50176700  0.99885200  0.75110200  1
  Ni  Ni9  1  0.50176700  0.99885200  0.24889800  1
  Ni  Ni10  1  0.99885200  0.50176700  0.75110200  1
  Ni  Ni11  1  0.99885200  0.50176700  0.24889800  1
  Ni  Ni12  1  0.50110300  0.50110300  0.75114800  1
  Ni  Ni13  1  0.50110300  0.50110300  0.24885200  1
  Cu  Cu14  1  0.99934800  0.99934800  0.75108700  1
  Cu  Cu15  1  0.99934800  0.99934800  0.24891300  1
  C  C16  1  0.99653600  0.24787300  0.75346600  1
  C  C17  1  0.99653600  0.24787300  0.24653400  1
  C  C18  1  0.50294400  0.24903500  0.75304200  1
  C  C19  1  0.50294400  0.24903500  0.24695800  1
  C  C20  1  0.99914200  0.75204500  0.75088400  1
  C  C21  1  0.99914200  0.75204500  0.24911600  1
  C  C22  1  0.50097800  0.75090600  0.75107300  1
  C  C23  1  0.50097800  0.75090600  0.24892700  1
  C  C24  1  0.75204500  0.99914200  0.75088400  1
  C  C25  1  0.75204500  0.99914200  0.24911600  1
  C  C26  1  0.24787300  0.99653600  0.75346600  1
  C  C27  1  0.24787300  0.99653600  0.24653400  1
  C  C28  1  0.75090600  0.50097800  0.75107300  1
  C  C29  1  0.75090600  0.50097800  0.24892700  1
  C  C30  1  0.24903500  0.50294400  0.75304200  1
  C  C31  1  0.24903500  0.50294400  0.24695800  1
  C  C32  1  0.99534000  0.99534000  0.50000000  1
  C  C33  1  0.99922000  0.99922000  0.00000000  1
  C  C34  1  0.50309400  0.99676300  0.50000000  1
  C  C35  1  0.50104500  0.99892900  0.00000000  1
  C  C36  1  0.99676300  0.50309400  0.50000000  1
  C  C37  1  0.99892900  0.50104500  0.00000000  1
  C  C38  1  0.50310300  0.50310300  0.50000000  1
  C  C39  1  0.50100700  0.50100700  0.00000000  1
