# generated using pymatgen
data_Cu5Ni3C28
_symmetry_space_group_name_H-M   'P 1'
_cell_length_a   10.71883551
_cell_length_b   11.19421988
_cell_length_c   17.15706492
_cell_angle_alpha   108.77988880
_cell_angle_beta   107.97537643
_cell_angle_gamma   90.43221701
_symmetry_Int_Tables_number   1
_chemical_formula_structural   Cu5Ni3C28
_chemical_formula_sum   'Cu20 Ni12 C112'
_cell_volume   1840.81886039
_cell_formula_units_Z   4
loop_
 _symmetry_equiv_pos_site_id
 _symmetry_equiv_pos_as_xyz
  1  'x, y, z'
loop_
 _atom_site_type_symbol
 _atom_site_label
 _atom_site_symmetry_multiplicity
 _atom_site_fract_x
 _atom_site_fract_y
 _atom_site_fract_z
 _atom_site_occupancy
  C  C0  1  0.30698000  0.56274900  0.60888800  1
  C  C1  1  0.80656900  0.06346200  0.60863300  1
  C  C2  1  0.19964900  0.43841400  0.89565400  1
  C  C3  1  0.05629100  0.29251500  0.60790200  1
  C  C4  1  0.05546900  0.79597300  0.60947800  1
  C  C5  1  0.55759800  0.29701900  0.60927100  1
  C  C6  1  0.45038500  0.20555800  0.89376800  1
  C  C7  1  0.94454600  0.20193300  0.38529700  1
  C  C8  1  0.30230000  0.06708400  0.10719000  1
  C  C9  1  0.30696900  0.06642800  0.60494000  1
  C  C10  1  0.30588300  0.56767100  0.10891100  1
  C  C11  1  0.80661400  0.06915200  0.10579700  1
  C  C12  1  0.80633200  0.56493300  0.10802900  1
  C  C13  1  0.80291000  0.56652900  0.60690200  1
  C  C14  1  0.19232100  0.43180000  0.38857100  1
  C  C15  1  0.19582700  0.93076600  0.38854000  1
  C  C16  1  0.19663300  0.93240600  0.89786100  1
  C  C17  1  0.69523400  0.43381300  0.38907900  1
  C  C18  1  0.70122800  0.43479300  0.89792000  1
  C  C19  1  0.69539900  0.93059900  0.39037100  1
  C  C20  1  0.70003500  0.93577400  0.89598600  1
  C  C21  1  0.05408900  0.29346900  0.10827500  1
  C  C22  1  0.05099900  0.79107000  0.10674600  1
  C  C23  1  0.55563500  0.29476200  0.11070200  1
  C  C24  1  0.55414200  0.78801500  0.10677500  1
  C  C25  1  0.55687300  0.78997900  0.60670100  1
  C  C26  1  0.44707600  0.20886700  0.39003700  1
  C  C27  1  0.44754700  0.70947200  0.38897700  1
  C  C28  1  0.44982600  0.71232200  0.89709900  1
  C  C29  1  0.95017700  0.21119300  0.89742100  1
  C  C30  1  0.94256200  0.70330900  0.38735400  1
  C  C31  1  0.94882400  0.71186100  0.89744800  1
  Ni  Ni32  1  0.10799500  0.08870600  0.75444900  1
  Ni  Ni33  1  0.10497800  0.59623900  0.75219500  1
  Ni  Ni34  1  0.60362000  0.09022300  0.25019400  1
  Ni  Ni35  1  0.60602600  0.08907200  0.74976000  1
  Ni  Ni36  1  0.61178700  0.59826800  0.75449900  1
  Ni  Ni37  1  0.35449000  0.41037700  0.24929400  1
  Ni  Ni38  1  0.36155300  0.41219000  0.75361400  1
  Ni  Ni39  1  0.35241400  0.90846600  0.24832600  1
  Ni  Ni40  1  0.36004200  0.90803100  0.75156400  1
  Ni  Ni41  1  0.85495400  0.41242400  0.75250800  1
  Ni  Ni42  1  0.85599800  0.90441200  0.24712900  1
  Ni  Ni43  1  0.85448400  0.90602600  0.75367900  1
  Cu  Cu44  1  0.00641000  0.00035600  0.00101100  1
  Cu  Cu45  1  0.00225600  0.99662100  0.49474600  1
  Cu  Cu46  1  0.00640500  0.50122300  0.00277200  1
  Cu  Cu47  1  0.99954300  0.49799300  0.49572700  1
  Cu  Cu48  1  0.50921300  0.00143700  0.00433300  1
  Cu  Cu49  1  0.50425700  0.99932900  0.49511800  1
  Cu  Cu50  1  0.50875600  0.50135000  0.00297200  1
  Cu  Cu51  1  0.50494900  0.49484200  0.49268300  1
  Cu  Cu52  1  0.25723200  0.25185300  0.00465800  1
  Cu  Cu53  1  0.25323900  0.24646100  0.49515200  1
  Cu  Cu54  1  0.25792000  0.75270800  0.00462500  1
  Cu  Cu55  1  0.25525900  0.74835800  0.49649700  1
  Cu  Cu56  1  0.75780700  0.25173100  0.00213800  1
  Cu  Cu57  1  0.75196000  0.24907000  0.49475700  1
  Cu  Cu58  1  0.75716900  0.75081300  0.00178300  1
  Cu  Cu59  1  0.75202400  0.74626200  0.49565600  1
  Cu  Cu60  1  0.10855600  0.09272600  0.24604200  1
  Cu  Cu61  1  0.10626200  0.59466000  0.24895000  1
  Cu  Cu62  1  0.60841100  0.59377400  0.24826700  1
  Cu  Cu63  1  0.85576100  0.40812800  0.24773500  1
  C  C64  1  0.12481800  0.11101200  0.48914200  1
  C  C65  1  0.12476800  0.12028700  0.98916900  1
  C  C66  1  0.11537700  0.61230700  0.48369500  1
  C  C67  1  0.12358700  0.62790800  0.99299000  1
  C  C68  1  0.61867500  0.11699300  0.48270800  1
  C  C69  1  0.62953900  0.12190700  0.99232800  1
  C  C70  1  0.61790400  0.61670500  0.48670000  1
  C  C71  1  0.62427300  0.62349900  0.98852500  1
  C  C72  1  0.13637200  0.38327200  0.01918400  1
  C  C73  1  0.13543500  0.37111700  0.50369700  1
  C  C74  1  0.13861500  0.88386100  0.01657400  1
  C  C75  1  0.14177600  0.87057100  0.50563700  1
  C  C76  1  0.64036500  0.38450300  0.01749900  1
  C  C77  1  0.64099500  0.37961800  0.51069000  1
  C  C78  1  0.63398300  0.88582500  0.01394100  1
  C  C79  1  0.63522600  0.86962100  0.50667400  1
  C  C80  1  0.36666900  0.11916400  0.48250700  1
  C  C81  1  0.37894700  0.10912000  0.99379800  1
  C  C82  1  0.36792800  0.62465300  0.48411400  1
  C  C83  1  0.37960300  0.62176600  0.99310100  1
  C  C84  1  0.86426900  0.11510700  0.48241000  1
  C  C85  1  0.87407800  0.11654900  0.98796700  1
  C  C86  1  0.86478600  0.61926800  0.48404600  1
  C  C87  1  0.87376400  0.61579100  0.98740800  1
  C  C88  1  0.38955400  0.38424800  0.01913300  1
  C  C89  1  0.38349700  0.38326800  0.50206500  1
  C  C90  1  0.38871300  0.88086400  0.01622400  1
  C  C91  1  0.39053900  0.88777900  0.50912700  1
  C  C92  1  0.88691500  0.38211900  0.01453700  1
  C  C93  1  0.88116600  0.38489300  0.50659200  1
  C  C94  1  0.88724000  0.88419000  0.01576600  1
  C  C95  1  0.88591100  0.87920200  0.50242100  1
  C  C96  1  0.08807300  0.10357100  0.14039000  1
  C  C97  1  0.08440400  0.08774200  0.63999200  1
  C  C98  1  0.08559600  0.60337700  0.14242000  1
  C  C99  1  0.07835700  0.59367300  0.63804100  1
  C  C100  1  0.59154100  0.10569000  0.14307500  1
  C  C101  1  0.58397900  0.09483200  0.63805700  1
  C  C102  1  0.58879800  0.60206300  0.14164100  1
  C  C103  1  0.58563300  0.59989300  0.64033100  1
  C  C104  1  0.44933900  0.39690200  0.35870500  1
  C  C105  1  0.45007900  0.40491800  0.86378200  1
  C  C106  1  0.44607400  0.89671800  0.35790100  1
  C  C107  1  0.45541700  0.89972500  0.86127900  1
  C  C108  1  0.94155300  0.40532200  0.35670900  1
  C  C109  1  0.94440900  0.39528900  0.85994000  1
  C  C110  1  0.95063300  0.89652700  0.35815700  1
  C  C111  1  0.94918200  0.89565300  0.86255100  1
  C  C112  1  0.33781800  0.28547500  0.14208300  1
  C  C113  1  0.33492100  0.29051600  0.64264900  1
  C  C114  1  0.34028700  0.78700000  0.14100200  1
  C  C115  1  0.33659200  0.79233700  0.63912900  1
  C  C116  1  0.83976400  0.29101100  0.14289100  1
  C  C117  1  0.82743100  0.29714400  0.63759300  1
  C  C118  1  0.83568700  0.78246200  0.13935100  1
  C  C119  1  0.83181600  0.78876300  0.64225100  1
  C  C120  1  0.19161700  0.20868300  0.35230600  1
  C  C121  1  0.19483100  0.20853200  0.86301300  1
  C  C122  1  0.19673600  0.71014900  0.35565200  1
  C  C123  1  0.19842200  0.71361700  0.86229100  1
  C  C124  1  0.68953900  0.21277900  0.36237600  1
  C  C125  1  0.69398800  0.21161500  0.85920100  1
  C  C126  1  0.69404700  0.70947500  0.35440000  1
  C  C127  1  0.70295800  0.71898300  0.86253300  1
  C  C128  1  0.42195600  0.06927800  0.24899500  1
  C  C129  1  0.42211500  0.06571200  0.74422900  1
  C  C130  1  0.42514700  0.56962600  0.24951100  1
  C  C131  1  0.43303100  0.57434200  0.75804300  1
  C  C132  1  0.92427800  0.05902600  0.24065700  1
  C  C133  1  0.92795400  0.06750900  0.75758600  1
  C  C134  1  0.92421800  0.56972500  0.24837800  1
  C  C135  1  0.92387300  0.57304400  0.75274200  1
  C  C136  1  0.17373700  0.43226600  0.24969300  1
  C  C137  1  0.18105900  0.44000700  0.75139900  1
  C  C138  1  0.17235200  0.92949900  0.24809800  1
  C  C139  1  0.18280500  0.93302300  0.75957300  1
  C  C140  1  0.67391300  0.43229700  0.24907500  1
  C  C141  1  0.67857500  0.43906100  0.75884900  1
  C  C142  1  0.67538700  0.93212900  0.25041800  1
  C  C143  1  0.67214400  0.92821300  0.75133600  1
