# generated using pymatgen
data_Cu5Ni5C2
_symmetry_space_group_name_H-M   'P 1'
_cell_length_a   6.76558341
_cell_length_b   6.76558341
_cell_length_c   11.00756800
_cell_angle_alpha   90.00000000
_cell_angle_beta   90.00000000
_cell_angle_gamma   111.23867710
_symmetry_Int_Tables_number   1
_chemical_formula_structural   Cu5Ni5C2
_chemical_formula_sum   'Cu10 Ni10 C4'
_cell_volume   469.62891486
_cell_formula_units_Z   2
loop_
 _symmetry_equiv_pos_site_id
 _symmetry_equiv_pos_as_xyz
  1  'x, y, z'
loop_
 _atom_site_type_symbol
 _atom_site_label
 _atom_site_symmetry_multiplicity
 _atom_site_fract_x
 _atom_site_fract_y
 _atom_site_fract_z
 _atom_site_occupancy
  C  C0  1  0.14475400  0.85524600  0.25000000  1
  C  C1  1  0.85524600  0.14475400  0.75000000  1
  Ni  Ni2  1  0.30959100  0.69040900  0.25000000  1
  Ni  Ni3  1  0.69040900  0.30959100  0.75000000  1
  Ni  Ni4  1  0.30949800  0.04214400  0.36911000  1
  Ni  Ni5  1  0.04214400  0.30949800  0.63089000  1
  Ni  Ni6  1  0.30949800  0.04214400  0.13089000  1
  Ni  Ni7  1  0.04214400  0.30949800  0.86911000  1
  Ni  Ni8  1  0.69050200  0.95785600  0.63089000  1
  Ni  Ni9  1  0.95785600  0.69050200  0.36911000  1
  Ni  Ni10  1  0.69050200  0.95785600  0.86911000  1
  Ni  Ni11  1  0.95785600  0.69050200  0.13089000  1
  C  C12  1  0.89791000  0.10209000  0.25000000  1
  C  C13  1  0.10209000  0.89791000  0.75000000  1
  Cu  Cu14  1  0.41300900  0.58699100  0.25000000  1
  Cu  Cu15  1  0.58699100  0.41300900  0.75000000  1
  Cu  Cu16  1  0.41126500  0.16024900  0.44034500  1
  Cu  Cu17  1  0.16024900  0.41126500  0.55965500  1
  Cu  Cu18  1  0.41126500  0.16024900  0.05965500  1
  Cu  Cu19  1  0.16024900  0.41126500  0.94034500  1
  Cu  Cu20  1  0.58873500  0.83975100  0.55965500  1
  Cu  Cu21  1  0.83975100  0.58873500  0.44034500  1
  Cu  Cu22  1  0.58873500  0.83975100  0.94034500  1
  Cu  Cu23  1  0.83975100  0.58873500  0.05965500  1
