# generated using pymatgen
data_Cu15NiC5
_symmetry_space_group_name_H-M   'P 1'
_cell_length_a   14.05252094
_cell_length_b   14.05252094
_cell_length_c   14.05252174
_cell_angle_alpha   29.35717679
_cell_angle_beta   29.35717679
_cell_angle_gamma   29.35717676
_symmetry_Int_Tables_number   1
_chemical_formula_structural   Cu15NiC5
_chemical_formula_sum   'Cu30 Ni2 C10'
_cell_volume   590.22752787
_cell_formula_units_Z   2
loop_
 _symmetry_equiv_pos_site_id
 _symmetry_equiv_pos_as_xyz
  1  'x, y, z'
loop_
 _atom_site_type_symbol
 _atom_site_label
 _atom_site_symmetry_multiplicity
 _atom_site_fract_x
 _atom_site_fract_y
 _atom_site_fract_z
 _atom_site_occupancy
  C  C0  1  0.19460600  0.19460600  0.19460600  1
  C  C1  1  0.69460600  0.69460600  0.69460600  1
  C  C2  1  0.80539400  0.80539400  0.80539400  1
  C  C3  1  0.30539400  0.30539400  0.30539400  1
  C  C4  1  0.25000000  0.93152900  0.56847100  1
  C  C5  1  0.56847100  0.25000000  0.93152900  1
  C  C6  1  0.93152900  0.56847100  0.25000000  1
  C  C7  1  0.06847100  0.43152900  0.75000000  1
  C  C8  1  0.75000000  0.06847100  0.43152900  1
  C  C9  1  0.43152900  0.75000000  0.06847100  1
  Ni  Ni10  1  0.00000000  0.00000000  0.00000000  1
  Ni  Ni11  1  0.50000000  0.50000000  0.50000000  1
  Cu  Cu12  1  0.75000000  0.24783000  0.25217000  1
  Cu  Cu13  1  0.25217000  0.75000000  0.24783000  1
  Cu  Cu14  1  0.24783000  0.25217000  0.75000000  1
  Cu  Cu15  1  0.75217000  0.74783000  0.25000000  1
  Cu  Cu16  1  0.25000000  0.75217000  0.74783000  1
  Cu  Cu17  1  0.74783000  0.25000000  0.75217000  1
  Cu  Cu18  1  0.68218400  0.97567900  0.51112300  1
  Cu  Cu19  1  0.51112300  0.68218400  0.97567900  1
  Cu  Cu20  1  0.97567900  0.51112300  0.68218400  1
  Cu  Cu21  1  0.01112300  0.47567900  0.18218400  1
  Cu  Cu22  1  0.18218400  0.01112300  0.47567900  1
  Cu  Cu23  1  0.47567900  0.18218400  0.01112300  1
  Cu  Cu24  1  0.31781600  0.02432100  0.48887700  1
  Cu  Cu25  1  0.48887700  0.31781600  0.02432100  1
  Cu  Cu26  1  0.02432100  0.48887700  0.31781600  1
  Cu  Cu27  1  0.98887700  0.52432100  0.81781600  1
  Cu  Cu28  1  0.81781600  0.98887700  0.52432100  1
  Cu  Cu29  1  0.52432100  0.81781600  0.98887700  1
  Cu  Cu30  1  0.12472100  0.27924500  0.60608200  1
  Cu  Cu31  1  0.60608200  0.12472100  0.27924500  1
  Cu  Cu32  1  0.27924500  0.60608200  0.12472100  1
  Cu  Cu33  1  0.10608200  0.77924500  0.62472100  1
  Cu  Cu34  1  0.62472100  0.10608200  0.77924500  1
  Cu  Cu35  1  0.77924500  0.62472100  0.10608200  1
  Cu  Cu36  1  0.87527900  0.72075500  0.39391800  1
  Cu  Cu37  1  0.39391800  0.87527900  0.72075500  1
  Cu  Cu38  1  0.72075500  0.39391800  0.87527900  1
  Cu  Cu39  1  0.89391800  0.22075500  0.37527900  1
  Cu  Cu40  1  0.37527900  0.89391800  0.22075500  1
  Cu  Cu41  1  0.22075500  0.37527900  0.89391800  1
