# generated using pymatgen
data_CuNiC5
_symmetry_space_group_name_H-M   'P 1'
_cell_length_a   9.39692387
_cell_length_b   9.39692387
_cell_length_c   3.25717600
_cell_angle_alpha   90.00000000
_cell_angle_beta   90.00000000
_cell_angle_gamma   118.38521788
_symmetry_Int_Tables_number   1
_chemical_formula_structural   CuNiC5
_chemical_formula_sum   'Cu3 Ni3 C15'
_cell_volume   253.03605616
_cell_formula_units_Z   3
loop_
 _symmetry_equiv_pos_site_id
 _symmetry_equiv_pos_as_xyz
  1  'x, y, z'
loop_
 _atom_site_type_symbol
 _atom_site_label
 _atom_site_symmetry_multiplicity
 _atom_site_fract_x
 _atom_site_fract_y
 _atom_site_fract_z
 _atom_site_occupancy
  Ni  Ni0  1  0.98152400  0.98152400  0.00000000  1
  Ni  Ni1  1  0.69821300  0.00012100  0.50000000  1
  Ni  Ni2  1  0.00012100  0.69821300  0.50000000  1
  Cu  Cu3  1  0.68546000  0.34177900  0.50000000  1
  Cu  Cu4  1  0.34177900  0.68546000  0.50000000  1
  Cu  Cu5  1  0.29855400  0.29855400  0.50000000  1
  C  C6  1  0.66797700  0.66797700  0.00000000  1
  C  C7  1  0.32630400  0.00248100  0.00000000  1
  C  C8  1  0.00248100  0.32630400  0.00000000  1
  C  C9  1  0.53562000  0.78490200  0.00000000  1
  C  C10  1  0.21569600  0.75850900  0.00000000  1
  C  C11  1  0.25612100  0.45074300  0.00000000  1
  C  C12  1  0.78490200  0.53562000  0.00000000  1
  C  C13  1  0.75850900  0.21569600  0.00000000  1
  C  C14  1  0.45074300  0.25612100  0.00000000  1
  C  C15  1  0.53893400  0.53893400  0.50000000  1
  C  C16  1  0.45305100  0.99895800  0.50000000  1
  C  C17  1  0.99895800  0.45305100  0.50000000  1
  C  C18  1  0.79834600  0.79834600  0.50000000  1
  C  C19  1  0.19336400  0.01344300  0.50000000  1
  C  C20  1  0.01344300  0.19336400  0.50000000  1
