# generated using pymatgen
data_Cu2(NiC5)3
_symmetry_space_group_name_H-M   'P 1'
_cell_length_a   5.06787000
_cell_length_b   5.18634902
_cell_length_c   7.91874959
_cell_angle_alpha   107.83241005
_cell_angle_beta   100.98262989
_cell_angle_gamma   101.44069854
_symmetry_Int_Tables_number   1
_chemical_formula_structural   Cu2(NiC5)3
_chemical_formula_sum   'Cu2 Ni3 C15'
_cell_volume   187.02443458
_cell_formula_units_Z   1
loop_
 _symmetry_equiv_pos_site_id
 _symmetry_equiv_pos_as_xyz
  1  'x, y, z'
loop_
 _atom_site_type_symbol
 _atom_site_label
 _atom_site_symmetry_multiplicity
 _atom_site_fract_x
 _atom_site_fract_y
 _atom_site_fract_z
 _atom_site_occupancy
  C  C0  1  0.80032100  0.49957000  0.41311500  1
  C  C1  1  0.60579100  0.51330500  0.77244500  1
  C  C2  1  0.00000000  0.00000000  0.50000000  1
  C  C3  1  0.39420900  0.48669500  0.22755500  1
  C  C4  1  0.19967900  0.50043000  0.58688500  1
  Ni  Ni5  1  0.00000000  0.50000000  0.00000000  1
  Ni  Ni6  1  0.79891300  0.00095800  0.89256100  1
  Ni  Ni7  1  0.20108700  0.99904200  0.10743900  1
  Cu  Cu8  1  0.41653500  0.00893700  0.68267800  1
  Cu  Cu9  1  0.58346500  0.99106300  0.31732200  1
  C  C10  1  0.18464600  0.24855100  0.86372000  1
  C  C11  1  0.39267900  0.76590500  0.94877300  1
  C  C12  1  0.58914600  0.76803300  0.54581900  1
  C  C13  1  0.99227400  0.23886400  0.23495900  1
  C  C14  1  0.77927100  0.23366600  0.66382600  1
  C  C15  1  0.22072900  0.76633400  0.33617400  1
  C  C16  1  0.00772600  0.76113600  0.76504100  1
  C  C17  1  0.41085400  0.23196700  0.45418100  1
  C  C18  1  0.60732100  0.23409500  0.05122700  1
  C  C19  1  0.81535400  0.75144900  0.13628000  1
