# generated using pymatgen
data_Cu3NiC
_symmetry_space_group_name_H-M   'P 1'
_cell_length_a   14.57263500
_cell_length_b   14.57263500
_cell_length_c   13.17206200
_cell_angle_alpha   90.00000000
_cell_angle_beta   90.00000000
_cell_angle_gamma   90.00000000
_symmetry_Int_Tables_number   1
_chemical_formula_structural   Cu3NiC
_chemical_formula_sum   'Cu60 Ni20 C20'
_cell_volume   2797.24135821
_cell_formula_units_Z   20
loop_
 _symmetry_equiv_pos_site_id
 _symmetry_equiv_pos_as_xyz
  1  'x, y, z'
loop_
 _atom_site_type_symbol
 _atom_site_label
 _atom_site_symmetry_multiplicity
 _atom_site_fract_x
 _atom_site_fract_y
 _atom_site_fract_z
 _atom_site_occupancy
  C  C0  1  0.26719900  0.75378700  0.44604600  1
  C  C1  1  0.73280100  0.24621300  0.94604600  1
  C  C2  1  0.24621300  0.26719900  0.19604600  1
  C  C3  1  0.75378700  0.73280100  0.69604600  1
  C  C4  1  0.28719200  0.26974800  0.70854000  1
  C  C5  1  0.71280800  0.73025200  0.20854000  1
  C  C6  1  0.73025200  0.28719200  0.45854000  1
  C  C7  1  0.26974800  0.71280800  0.95854000  1
  C  C8  1  0.55640300  0.83689100  0.48859900  1
  C  C9  1  0.44359700  0.16310900  0.98859900  1
  C  C10  1  0.16310900  0.55640300  0.23859900  1
  C  C11  1  0.83689100  0.44359700  0.73859900  1
  C  C12  1  0.34068800  0.96616400  0.69479900  1
  C  C13  1  0.65931200  0.03383600  0.19479900  1
  C  C14  1  0.03383600  0.34068800  0.44479900  1
  C  C15  1  0.96616400  0.65931200  0.94479900  1
  C  C16  1  0.12285100  0.53794200  0.70297100  1
  C  C17  1  0.87714900  0.46205800  0.20297100  1
  C  C18  1  0.46205800  0.12285100  0.45297100  1
  C  C19  1  0.53794200  0.87714900  0.95297100  1
  Ni  Ni20  1  0.43621300  0.73001800  0.75575700  1
  Ni  Ni21  1  0.56378700  0.26998200  0.25575700  1
  Ni  Ni22  1  0.26998200  0.43621300  0.50575700  1
  Ni  Ni23  1  0.73001800  0.56378700  0.00575700  1
  Ni  Ni24  1  0.09286900  0.80457400  0.22630200  1
  Ni  Ni25  1  0.90713100  0.19542600  0.72630200  1
  Ni  Ni26  1  0.19542600  0.09286900  0.97630200  1
  Ni  Ni27  1  0.80457400  0.90713100  0.47630200  1
  Ni  Ni28  1  0.93687400  0.62931200  0.45157600  1
  Ni  Ni29  1  0.06312600  0.37068800  0.95157600  1
  Ni  Ni30  1  0.37068800  0.93687400  0.20157600  1
  Ni  Ni31  1  0.62931200  0.06312600  0.70157600  1
  Ni  Ni32  1  0.07306600  0.87534600  0.81208800  1
  Ni  Ni33  1  0.92693400  0.12465400  0.31208800  1
  Ni  Ni34  1  0.12465400  0.07306600  0.56208800  1
  Ni  Ni35  1  0.87534600  0.92693400  0.06208800  1
  Ni  Ni36  1  0.43863900  0.64264000  0.19386300  1
  Ni  Ni37  1  0.56136100  0.35736000  0.69386300  1
  Ni  Ni38  1  0.35736000  0.43863900  0.94386300  1
  Ni  Ni39  1  0.64264000  0.56136100  0.44386300  1
  Cu  Cu40  1  0.00432900  0.50679900  0.34886200  1
  Cu  Cu41  1  0.99567100  0.49320100  0.84886200  1
  Cu  Cu42  1  0.49320100  0.00432900  0.09886200  1
  Cu  Cu43  1  0.50679900  0.99567100  0.59886200  1
  Cu  Cu44  1  0.94335600  0.56928100  0.62096000  1
  Cu  Cu45  1  0.05664400  0.43071900  0.12096000  1
  Cu  Cu46  1  0.43071900  0.94335600  0.37096000  1
  Cu  Cu47  1  0.56928100  0.05664400  0.87096000  1
  Cu  Cu48  1  0.11458800  0.69832000  0.09142100  1
  Cu  Cu49  1  0.88541200  0.30168000  0.59142100  1
  Cu  Cu50  1  0.30168000  0.11458800  0.84142100  1
  Cu  Cu51  1  0.69832000  0.88541200  0.34142100  1
  Cu  Cu52  1  0.08373800  0.71971700  0.38553600  1
  Cu  Cu53  1  0.91626200  0.28028300  0.88553600  1
  Cu  Cu54  1  0.28028300  0.08373800  0.13553600  1
  Cu  Cu55  1  0.71971700  0.91626200  0.63553600  1
  Cu  Cu56  1  0.94140600  0.87561100  0.22424000  1
  Cu  Cu57  1  0.05859400  0.12438900  0.72424000  1
  Cu  Cu58  1  0.12438900  0.94140600  0.97424000  1
  Cu  Cu59  1  0.87561100  0.05859400  0.47424000  1
  Cu  Cu60  1  0.24369100  0.59111200  0.55591400  1
  Cu  Cu61  1  0.75630900  0.40888800  0.05591400  1
  Cu  Cu62  1  0.40888800  0.24369100  0.30591400  1
  Cu  Cu63  1  0.59111200  0.75630900  0.80591400  1
  Cu  Cu64  1  0.36207400  0.85129000  0.85975200  1
  Cu  Cu65  1  0.63792600  0.14871000  0.35975200  1
  Cu  Cu66  1  0.14871000  0.36207400  0.60975200  1
  Cu  Cu67  1  0.85129000  0.63792600  0.10975200  1
  Cu  Cu68  1  0.38897200  0.79736200  0.59505700  1
  Cu  Cu69  1  0.61102800  0.20263800  0.09505700  1
  Cu  Cu70  1  0.20263800  0.38897200  0.34505700  1
  Cu  Cu71  1  0.79736200  0.61102800  0.84505700  1
  Cu  Cu72  1  0.35446200  0.59018700  0.80961200  1
  Cu  Cu73  1  0.64553800  0.40981300  0.30961200  1
  Cu  Cu74  1  0.40981300  0.35446200  0.55961200  1
  Cu  Cu75  1  0.59018700  0.64553800  0.05961200  1
  Cu  Cu76  1  0.11679600  0.71682500  0.81561400  1
  Cu  Cu77  1  0.88320400  0.28317500  0.31561400  1
  Cu  Cu78  1  0.28317500  0.11679600  0.56561400  1
  Cu  Cu79  1  0.71682500  0.88320400  0.06561400  1
  Cu  Cu80  1  0.89317100  0.78091800  0.54456800  1
  Cu  Cu81  1  0.10682900  0.21908200  0.04456800  1
  Cu  Cu82  1  0.21908200  0.89317100  0.29456800  1
  Cu  Cu83  1  0.78091800  0.10682900  0.79456800  1
  Cu  Cu84  1  0.14091200  0.91161500  0.63638400  1
  Cu  Cu85  1  0.85908800  0.08838500  0.13638400  1
  Cu  Cu86  1  0.08838500  0.14091200  0.38638400  1
  Cu  Cu87  1  0.91161500  0.85908800  0.88638400  1
  Cu  Cu88  1  0.40391400  0.78894700  0.10463400  1
  Cu  Cu89  1  0.59608600  0.21105300  0.60463400  1
  Cu  Cu90  1  0.21105300  0.40391400  0.85463400  1
  Cu  Cu91  1  0.78894700  0.59608600  0.35463400  1
  Cu  Cu92  1  0.55776700  0.67596400  0.32776700  1
  Cu  Cu93  1  0.44223300  0.32403600  0.82776700  1
  Cu  Cu94  1  0.32403600  0.55776700  0.07776700  1
  Cu  Cu95  1  0.67596400  0.44223300  0.57776700  1
  Cu  Cu96  1  0.32604000  0.61596300  0.32471800  1
  Cu  Cu97  1  0.67396000  0.38403700  0.82471800  1
  Cu  Cu98  1  0.38403700  0.32604000  0.07471800  1
  Cu  Cu99  1  0.61596300  0.67396000  0.57471800  1
