# generated using pymatgen
data_Cu3Ni5C22
_symmetry_space_group_name_H-M   'P 1'
_cell_length_a   9.14802022
_cell_length_b   9.14802022
_cell_length_c   10.51432853
_cell_angle_alpha   86.85997864
_cell_angle_beta   86.85997864
_cell_angle_gamma   58.46607737
_symmetry_Int_Tables_number   1
_chemical_formula_structural   Cu3Ni5C22
_chemical_formula_sum   'Cu6 Ni10 C44'
_cell_volume   748.49103361
_cell_formula_units_Z   2
loop_
 _symmetry_equiv_pos_site_id
 _symmetry_equiv_pos_as_xyz
  1  'x, y, z'
loop_
 _atom_site_type_symbol
 _atom_site_label
 _atom_site_symmetry_multiplicity
 _atom_site_fract_x
 _atom_site_fract_y
 _atom_site_fract_z
 _atom_site_occupancy
  C  C0  1  0.32271400  0.03924500  0.09230000  1
  C  C1  1  0.34452900  0.66196400  0.91750400  1
  C  C2  1  0.96075500  0.67728600  0.40770000  1
  C  C3  1  0.33803600  0.65547100  0.58249600  1
  C  C4  1  0.66196400  0.34452900  0.41750400  1
  C  C5  1  0.03924500  0.32271400  0.59230000  1
  C  C6  1  0.67728600  0.96075500  0.90770000  1
  C  C7  1  0.65547100  0.33803600  0.08249600  1
  Ni  Ni8  1  0.31877000  0.99537800  0.73179800  1
  Ni  Ni9  1  0.99537800  0.31877000  0.23179800  1
  Ni  Ni10  1  0.13673100  0.52162200  0.06054200  1
  Ni  Ni11  1  0.52162200  0.13673100  0.56054200  1
  Ni  Ni12  1  0.47837800  0.86326900  0.43945800  1
  Ni  Ni13  1  0.82886800  0.17113200  0.75000000  1
  Ni  Ni14  1  0.17113200  0.82886800  0.25000000  1
  Ni  Ni15  1  0.86326900  0.47837800  0.93945800  1
  Ni  Ni16  1  0.68123000  0.00462200  0.26820200  1
  Ni  Ni17  1  0.00462200  0.68123000  0.76820200  1
  Cu  Cu18  1  0.68188300  0.66102900  0.68360200  1
  Cu  Cu19  1  0.00000000  0.00000000  0.00000000  1
  Cu  Cu20  1  0.00000000  0.00000000  0.50000000  1
  Cu  Cu21  1  0.66102900  0.68188300  0.18360200  1
  Cu  Cu22  1  0.31811700  0.33897100  0.31639800  1
  Cu  Cu23  1  0.33897100  0.31811700  0.81639800  1
  C  C24  1  0.90266400  0.61118200  0.60840400  1
  C  C25  1  0.22339600  0.96371600  0.55995400  1
  C  C26  1  0.43061300  0.78968700  0.26844500  1
  C  C27  1  0.91592700  0.95392300  0.16379700  1
  C  C28  1  0.03628400  0.77660400  0.94004600  1
  C  C29  1  0.04607700  0.08407300  0.33620300  1
  C  C30  1  0.60239400  0.60852100  0.03267700  1
  C  C31  1  0.86607000  0.22609000  0.56812900  1
  C  C32  1  0.13393000  0.77391000  0.43187100  1
  C  C33  1  0.23117000  0.28807300  0.16890200  1
  C  C34  1  0.45534000  0.73540900  0.75902300  1
  C  C35  1  0.76883000  0.71192700  0.83109800  1
  C  C36  1  0.77660400  0.03628400  0.44004600  1
  C  C37  1  0.55702900  0.90065300  0.61442100  1
  C  C38  1  0.26459100  0.54466000  0.74097700  1
  C  C39  1  0.39760600  0.39147900  0.96732300  1
  C  C40  1  0.54466000  0.26459100  0.24097700  1
  C  C41  1  0.09934700  0.44297100  0.88557900  1
  C  C42  1  0.21031300  0.56938700  0.23155500  1
  C  C43  1  0.73540900  0.45534000  0.25902300  1
  C  C44  1  0.61118200  0.90266400  0.10840400  1
  C  C45  1  0.44297100  0.09934700  0.38557900  1
  C  C46  1  0.77391000  0.13393000  0.93187100  1
  C  C47  1  0.60852100  0.60239400  0.53267700  1
  C  C48  1  0.56938700  0.21031300  0.73155500  1
  C  C49  1  0.95392300  0.91592700  0.66379700  1
  C  C50  1  0.28807300  0.23117000  0.66890200  1
  C  C51  1  0.39147900  0.39760600  0.46732300  1
  C  C52  1  0.96371600  0.22339600  0.05995400  1
  C  C53  1  0.90065300  0.55702900  0.11442100  1
  C  C54  1  0.09733600  0.38881800  0.39159600  1
  C  C55  1  0.08407300  0.04607700  0.83620300  1
  C  C56  1  0.22609000  0.86607000  0.06812900  1
  C  C57  1  0.71192700  0.76883000  0.33109800  1
  C  C58  1  0.78968700  0.43061300  0.76844500  1
  C  C59  1  0.38881800  0.09733600  0.89159600  1
