# generated using pymatgen
data_Cu7NiC6
_symmetry_space_group_name_H-M   'P 1'
_cell_length_a   12.76112400
_cell_length_b   7.32386400
_cell_length_c   12.78775900
_cell_angle_alpha   90.00000000
_cell_angle_beta   90.00000000
_cell_angle_gamma   90.00000000
_symmetry_Int_Tables_number   1
_chemical_formula_structural   Cu7NiC6
_chemical_formula_sum   'Cu28 Ni4 C24'
_cell_volume   1195.15337641
_cell_formula_units_Z   4
loop_
 _symmetry_equiv_pos_site_id
 _symmetry_equiv_pos_as_xyz
  1  'x, y, z'
loop_
 _atom_site_type_symbol
 _atom_site_label
 _atom_site_symmetry_multiplicity
 _atom_site_fract_x
 _atom_site_fract_y
 _atom_site_fract_z
 _atom_site_occupancy
  Ni  Ni0  1  0.00000000  0.84623600  0.75000000  1
  Ni  Ni1  1  0.50000000  0.65376400  0.25000000  1
  Ni  Ni2  1  0.00000000  0.15376400  0.25000000  1
  Ni  Ni3  1  0.50000000  0.34623600  0.75000000  1
  Cu  Cu4  1  0.00476200  0.76312800  0.02160800  1
  Cu  Cu5  1  0.49523800  0.73687200  0.52160800  1
  Cu  Cu6  1  0.50476200  0.73687200  0.97839200  1
  Cu  Cu7  1  0.99523800  0.76312800  0.47839200  1
  Cu  Cu8  1  0.99523800  0.23687200  0.97839200  1
  Cu  Cu9  1  0.50476200  0.26312800  0.47839200  1
  Cu  Cu10  1  0.49523800  0.26312800  0.02160800  1
  Cu  Cu11  1  0.00476200  0.23687200  0.52160800  1
  Cu  Cu12  1  0.21551500  0.81863200  0.62823000  1
  Cu  Cu13  1  0.28448500  0.68136800  0.12823000  1
  Cu  Cu14  1  0.71551500  0.68136800  0.37177000  1
  Cu  Cu15  1  0.78448500  0.81863200  0.87177000  1
  Cu  Cu16  1  0.78448500  0.18136800  0.37177000  1
  Cu  Cu17  1  0.71551500  0.31863200  0.87177000  1
  Cu  Cu18  1  0.28448500  0.31863200  0.62823000  1
  Cu  Cu19  1  0.21551500  0.18136800  0.12823000  1
  Cu  Cu20  1  0.25773000  0.53910800  0.86401100  1
  Cu  Cu21  1  0.24226900  0.96089200  0.36401100  1
  Cu  Cu22  1  0.75773000  0.96089200  0.13598900  1
  Cu  Cu23  1  0.74227000  0.53910800  0.63598900  1
  Cu  Cu24  1  0.74227000  0.46089200  0.13598900  1
  Cu  Cu25  1  0.75773000  0.03910800  0.63598900  1
  Cu  Cu26  1  0.24226900  0.03910800  0.86401100  1
  Cu  Cu27  1  0.25773000  0.46089200  0.36401100  1
  Cu  Cu28  1  0.00000000  0.43215300  0.75000000  1
  Cu  Cu29  1  0.50000000  0.06784700  0.25000000  1
  Cu  Cu30  1  0.00000000  0.56784700  0.25000000  1
  Cu  Cu31  1  0.50000000  0.93215300  0.75000000  1
  C  C32  1  0.11259800  0.67209200  0.76382700  1
  C  C33  1  0.38740200  0.82790800  0.26382700  1
  C  C34  1  0.61259800  0.82790800  0.23617300  1
  C  C35  1  0.88740200  0.67209200  0.73617300  1
  C  C36  1  0.88740200  0.32790800  0.23617300  1
  C  C37  1  0.61259800  0.17209200  0.73617300  1
  C  C38  1  0.38740200  0.17209200  0.76382700  1
  C  C39  1  0.11259800  0.32790800  0.26382700  1
  C  C40  1  0.17636400  0.70759800  0.46427100  1
  C  C41  1  0.32363600  0.79240200  0.96427100  1
  C  C42  1  0.67636400  0.79240200  0.53572900  1
  C  C43  1  0.82363600  0.70759800  0.03572900  1
  C  C44  1  0.82363600  0.29240200  0.53572900  1
  C  C45  1  0.67636400  0.20759800  0.03572900  1
  C  C46  1  0.32363600  0.20759800  0.46427100  1
  C  C47  1  0.17636400  0.29240200  0.96427100  1
  C  C48  1  0.46308600  0.45845300  0.62200000  1
  C  C49  1  0.03691400  0.04154700  0.12200000  1
  C  C50  1  0.96308600  0.04154700  0.37800000  1
  C  C51  1  0.53691400  0.45845300  0.87800000  1
  C  C52  1  0.53691400  0.54154700  0.37800000  1
  C  C53  1  0.96308600  0.95845300  0.87800000  1
  C  C54  1  0.03691400  0.95845300  0.62200000  1
  C  C55  1  0.46308600  0.54154700  0.12200000  1
