# generated using pymatgen
data_Cu49(Ni8C3)3
_symmetry_space_group_name_H-M   'P 1'
_cell_length_a   10.31969910
_cell_length_b   10.31969910
_cell_length_c   17.02784014
_cell_angle_alpha   89.87673308
_cell_angle_beta   89.87673308
_cell_angle_gamma   70.57144670
_symmetry_Int_Tables_number   1
_chemical_formula_structural   Cu49(Ni8C3)3
_chemical_formula_sum   'Cu49 Ni24 C9'
_cell_volume   1710.13372556
_cell_formula_units_Z   1
loop_
 _symmetry_equiv_pos_site_id
 _symmetry_equiv_pos_as_xyz
  1  'x, y, z'
loop_
 _atom_site_type_symbol
 _atom_site_label
 _atom_site_symmetry_multiplicity
 _atom_site_fract_x
 _atom_site_fract_y
 _atom_site_fract_z
 _atom_site_occupancy
  C  C0  1  0.75044800  0.24983100  0.75001300  1
  C  C1  1  0.24955200  0.75016900  0.24998700  1
  C  C2  1  0.00000000  0.50000000  0.00000000  1
  C  C3  1  0.50000000  0.00000000  0.50000000  1
  C  C4  1  0.50000000  0.00000000  0.00000000  1
  C  C5  1  0.00000000  0.50000000  0.50000000  1
  C  C6  1  0.24983100  0.75044800  0.75001300  1
  C  C7  1  0.75016900  0.24955200  0.24998700  1
  C  C8  1  0.00000000  0.00000000  0.00000000  1
  Ni  Ni9  1  0.74181400  0.09724100  0.57992300  1
  Ni  Ni10  1  0.24235400  0.59877600  0.07924900  1
  Ni  Ni11  1  0.75764600  0.40122400  0.92075100  1
  Ni  Ni12  1  0.25818600  0.90275900  0.42007700  1
  Ni  Ni13  1  0.09724100  0.74181400  0.57992300  1
  Ni  Ni14  1  0.59877600  0.24235400  0.07924900  1
  Ni  Ni15  1  0.40122400  0.75764600  0.92075100  1
  Ni  Ni16  1  0.90275900  0.25818600  0.42007700  1
  Ni  Ni17  1  0.67986000  0.99901100  0.83951900  1
  Ni  Ni18  1  0.17893000  0.50060000  0.33901400  1
  Ni  Ni19  1  0.82107000  0.49940000  0.66098600  1
  Ni  Ni20  1  0.32014000  0.00098900  0.16048100  1
  Ni  Ni21  1  0.49940000  0.82107000  0.66098600  1
  Ni  Ni22  1  0.00098900  0.32014000  0.16048100  1
  Ni  Ni23  1  0.99901100  0.67986000  0.83951900  1
  Ni  Ni24  1  0.50060000  0.17893000  0.33901400  1
  Ni  Ni25  1  0.24002100  0.24002100  0.91979700  1
  Ni  Ni26  1  0.74075500  0.74075500  0.42013100  1
  Ni  Ni27  1  0.25924500  0.25924500  0.57986900  1
  Ni  Ni28  1  0.75997900  0.75997900  0.08020300  1
  Ni  Ni29  1  0.41930000  0.41930000  0.74097400  1
  Ni  Ni30  1  0.91887500  0.91887500  0.23961500  1
  Ni  Ni31  1  0.08112500  0.08112500  0.76038500  1
  Ni  Ni32  1  0.58070000  0.58070000  0.25902600  1
  Cu  Cu33  1  0.50441100  0.25066700  0.62290800  1
  Cu  Cu34  1  0.00403200  0.74169300  0.12733200  1
  Cu  Cu35  1  0.99596800  0.25830700  0.87266800  1
  Cu  Cu36  1  0.49558900  0.74933300  0.37709200  1
  Cu  Cu37  1  0.25066700  0.50441100  0.62290800  1
  Cu  Cu38  1  0.74169300  0.00403200  0.12733200  1
  Cu  Cu39  1  0.25830700  0.99596800  0.87266800  1
  Cu  Cu40  1  0.74933300  0.49558900  0.37709200  1
  Cu  Cu41  1  0.68195500  0.18698200  0.93509600  1
  Cu  Cu42  1  0.19061000  0.68265800  0.43647800  1
  Cu  Cu43  1  0.80939000  0.31734200  0.56352200  1
  Cu  Cu44  1  0.31804500  0.81301800  0.06490400  1
  Cu  Cu45  1  0.31734200  0.80939000  0.56352200  1
  Cu  Cu46  1  0.81301800  0.31804500  0.06490400  1
  Cu  Cu47  1  0.18698200  0.68195500  0.93509600  1
  Cu  Cu48  1  0.68265800  0.19061000  0.43647800  1
  Cu  Cu49  1  0.68509100  0.68509100  0.55874500  1
  Cu  Cu50  1  0.19222600  0.19222600  0.06091900  1
  Cu  Cu51  1  0.80777400  0.80777400  0.93908100  1
  Cu  Cu52  1  0.31490900  0.31490900  0.44125500  1
  Cu  Cu53  1  0.55942100  0.55942100  0.68676600  1
  Cu  Cu54  1  0.06125800  0.06125800  0.19221100  1
  Cu  Cu55  1  0.93874200  0.93874200  0.80778900  1
  Cu  Cu56  1  0.44057900  0.44057900  0.31323400  1
  Cu  Cu57  1  0.81187900  0.55611600  0.81504700  1
  Cu  Cu58  1  0.31223500  0.05758600  0.31575200  1
  Cu  Cu59  1  0.68776500  0.94241400  0.68424800  1
  Cu  Cu60  1  0.18812100  0.44388400  0.18495300  1
  Cu  Cu61  1  0.55611600  0.81187900  0.81504700  1
  Cu  Cu62  1  0.05758600  0.31223500  0.31575200  1
  Cu  Cu63  1  0.94241400  0.68776500  0.68424800  1
  Cu  Cu64  1  0.44388400  0.18812100  0.18495300  1
  Cu  Cu65  1  0.05585300  0.31702300  0.68593900  1
  Cu  Cu66  1  0.55520600  0.81801300  0.18753600  1
  Cu  Cu67  1  0.44479400  0.18198700  0.81246400  1
  Cu  Cu68  1  0.94414700  0.68297700  0.31406100  1
  Cu  Cu69  1  0.18198700  0.44479400  0.81246400  1
  Cu  Cu70  1  0.68297700  0.94414700  0.31406100  1
  Cu  Cu71  1  0.31702300  0.05585300  0.68593900  1
  Cu  Cu72  1  0.81801300  0.55520600  0.18753600  1
  Cu  Cu73  1  0.12949000  0.12949000  0.50210300  1
  Cu  Cu74  1  0.62858200  0.62858200  0.00248800  1
  Cu  Cu75  1  0.37141800  0.37141800  0.99751200  1
  Cu  Cu76  1  0.87051000  0.87051000  0.49789700  1
  Cu  Cu77  1  0.00188800  0.00188800  0.63010600  1
  Cu  Cu78  1  0.50148900  0.50148900  0.13049000  1
  Cu  Cu79  1  0.49851100  0.49851100  0.86951000  1
  Cu  Cu80  1  0.99811200  0.99811200  0.36989400  1
  Cu  Cu81  1  0.50000000  0.50000000  0.50000000  1
