# generated using pymatgen
data_Cu(Ni2C7)3
_symmetry_space_group_name_H-M   'P 1'
_cell_length_a   10.22819230
_cell_length_b   10.22819230
_cell_length_c   10.10972700
_cell_angle_alpha   80.29700322
_cell_angle_beta   80.29700322
_cell_angle_gamma   119.99282195
_symmetry_Int_Tables_number   1
_chemical_formula_structural   Cu(Ni2C7)3
_chemical_formula_sum   'Cu2 Ni12 C42'
_cell_volume   862.41087562
_cell_formula_units_Z   2
loop_
 _symmetry_equiv_pos_site_id
 _symmetry_equiv_pos_as_xyz
  1  'x, y, z'
loop_
 _atom_site_type_symbol
 _atom_site_label
 _atom_site_symmetry_multiplicity
 _atom_site_fract_x
 _atom_site_fract_y
 _atom_site_fract_z
 _atom_site_occupancy
  Ni  Ni0  1  0.28022300  0.28022300  0.12468600  1
  Ni  Ni1  1  0.95859600  0.63694000  0.12428800  1
  Ni  Ni2  1  0.63694000  0.95859600  0.12428800  1
  Ni  Ni3  1  0.04140400  0.36306000  0.87571200  1
  Ni  Ni4  1  0.71977700  0.71977700  0.87531400  1
  Ni  Ni5  1  0.36306000  0.04140400  0.87571200  1
  Ni  Ni6  1  0.12928700  0.12928700  0.61409300  1
  Ni  Ni7  1  0.79783600  0.46380500  0.60618700  1
  Ni  Ni8  1  0.46380500  0.79783600  0.60618700  1
  Ni  Ni9  1  0.20216400  0.53619500  0.39381300  1
  Ni  Ni10  1  0.87071300  0.87071300  0.38590700  1
  Ni  Ni11  1  0.53619500  0.20216400  0.39381300  1
  Cu  Cu12  1  0.66677300  0.33322700  0.00000000  1
  Cu  Cu13  1  0.33322700  0.66677300  0.00000000  1
  C  C14  1  0.08919300  0.75925500  0.73145300  1
  C  C15  1  0.75925500  0.08919300  0.73145300  1
  C  C16  1  0.41978900  0.41978900  0.73163400  1
  C  C17  1  0.24074500  0.91080700  0.26854700  1
  C  C18  1  0.91080700  0.24074500  0.26854700  1
  C  C19  1  0.58021100  0.58021100  0.26836600  1
  C  C20  1  0.12091800  0.63071700  0.63801600  1
  C  C21  1  0.78884400  0.96701900  0.63032800  1
  C  C22  1  0.45702900  0.30074600  0.63132500  1
  C  C23  1  0.27936800  0.94456300  0.63136300  1
  C  C24  1  0.94456300  0.27936800  0.63136300  1
  C  C25  1  0.61072000  0.61072000  0.63715400  1
  C  C26  1  0.96701900  0.78884400  0.63032800  1
  C  C27  1  0.63071700  0.12091800  0.63801600  1
  C  C28  1  0.30074600  0.45702900  0.63132500  1
  C  C29  1  0.21115600  0.03298100  0.36967200  1
  C  C30  1  0.87908200  0.36928300  0.36198400  1
  C  C31  1  0.54297100  0.69925400  0.36867500  1
  C  C32  1  0.05543700  0.72063200  0.36863700  1
  C  C33  1  0.72063200  0.05543700  0.36863700  1
  C  C34  1  0.38928000  0.38928000  0.36284600  1
  C  C35  1  0.36928300  0.87908200  0.36198400  1
  C  C36  1  0.03298100  0.21115600  0.36967200  1
  C  C37  1  0.69925400  0.54297100  0.36867500  1
  C  C38  1  0.28764200  0.79981800  0.13881500  1
  C  C39  1  0.95320700  0.14270200  0.14095200  1
  C  C40  1  0.61954200  0.46575500  0.13897400  1
  C  C41  1  0.44131300  0.10759100  0.13908100  1
  C  C42  1  0.10759100  0.44131300  0.13908100  1
  C  C43  1  0.76343400  0.76343400  0.14079500  1
  C  C44  1  0.14270200  0.95320700  0.14095200  1
  C  C45  1  0.79981800  0.28764200  0.13881500  1
  C  C46  1  0.46575500  0.61954200  0.13897400  1
  C  C47  1  0.04679300  0.85729800  0.85904800  1
  C  C48  1  0.71235800  0.20018200  0.86118400  1
  C  C49  1  0.38045800  0.53424500  0.86102600  1
  C  C50  1  0.89240900  0.55868700  0.86091900  1
  C  C51  1  0.55868700  0.89240900  0.86091900  1
  C  C52  1  0.23656600  0.23656600  0.85920500  1
  C  C53  1  0.20018200  0.71235800  0.86118400  1
  C  C54  1  0.85729800  0.04679300  0.85904800  1
  C  C55  1  0.53424500  0.38045800  0.86102600  1
