# generated using pymatgen
data_Cu5NiC11
_symmetry_space_group_name_H-M   'P 1'
_cell_length_a   7.69381800
_cell_length_b   8.78238400
_cell_length_c   12.64667219
_cell_angle_alpha   48.83035032
_cell_angle_beta   90.00000000
_cell_angle_gamma   90.00000000
_symmetry_Int_Tables_number   1
_chemical_formula_structural   Cu5NiC11
_chemical_formula_sum   'Cu20 Ni4 C44'
_cell_volume   643.26403717
_cell_formula_units_Z   4
loop_
 _symmetry_equiv_pos_site_id
 _symmetry_equiv_pos_as_xyz
  1  'x, y, z'
loop_
 _atom_site_type_symbol
 _atom_site_label
 _atom_site_symmetry_multiplicity
 _atom_site_fract_x
 _atom_site_fract_y
 _atom_site_fract_z
 _atom_site_occupancy
  C  C0  1  0.18397000  0.94675600  0.23670900  1
  C  C1  1  0.68397000  0.05324400  0.26329100  1
  C  C2  1  0.81603000  0.05324400  0.76329100  1
  C  C3  1  0.31603000  0.94675600  0.73670900  1
  Ni  Ni4  1  0.41127500  0.48622100  0.12343400  1
  Ni  Ni5  1  0.91127500  0.51377900  0.37656600  1
  Ni  Ni6  1  0.58872500  0.51377900  0.87656600  1
  Ni  Ni7  1  0.08872500  0.48622100  0.62343400  1
  Cu  Cu8  1  0.57868100  0.65250500  0.26178800  1
  Cu  Cu9  1  0.18557100  0.51585000  0.91430500  1
  Cu  Cu10  1  0.68557100  0.48415000  0.58569500  1
  Cu  Cu11  1  0.81442900  0.48415000  0.08569500  1
  Cu  Cu12  1  0.31442900  0.51585000  0.41430500  1
  Cu  Cu13  1  0.90160000  0.84661300  0.50017900  1
  Cu  Cu14  1  0.40160000  0.15338700  0.99982100  1
  Cu  Cu15  1  0.09840000  0.15338700  0.49982100  1
  Cu  Cu16  1  0.59840000  0.84661300  0.00017900  1
  Cu  Cu17  1  0.07868100  0.34749500  0.23821200  1
  Cu  Cu18  1  0.42131900  0.34749500  0.73821200  1
  Cu  Cu19  1  0.92131900  0.65250500  0.76178800  1
  Cu  Cu20  1  0.32610600  0.09178800  0.39257200  1
  Cu  Cu21  1  0.82610600  0.90821200  0.10742800  1
  Cu  Cu22  1  0.67389400  0.90821200  0.60742800  1
  Cu  Cu23  1  0.17389400  0.09178800  0.89257200  1
  Cu  Cu24  1  0.53213400  0.27322700  0.44574000  1
  Cu  Cu25  1  0.03213400  0.72677300  0.05426000  1
  Cu  Cu26  1  0.46786600  0.72677300  0.55426000  1
  Cu  Cu27  1  0.96786600  0.27322700  0.94574000  1
  C  C28  1  0.21214600  0.20301700  0.26633000  1
  C  C29  1  0.65381300  0.43134900  0.06866200  1
  C  C30  1  0.15381300  0.56865100  0.43133800  1
  C  C31  1  0.34618700  0.56865100  0.93133800  1
  C  C32  1  0.84618700  0.43134900  0.56866200  1
  C  C33  1  0.45353300  0.11681100  0.11664000  1
  C  C34  1  0.95353300  0.88318900  0.38336000  1
  C  C35  1  0.54646700  0.88318900  0.88336000  1
  C  C36  1  0.71214600  0.79698300  0.23367000  1
  C  C37  1  0.04646700  0.11681100  0.61664000  1
  C  C38  1  0.28785400  0.20301700  0.76633000  1
  C  C39  1  0.78785400  0.79698300  0.73367000  1
  C  C40  1  0.53495900  0.68675300  0.13159800  1
  C  C41  1  0.03495900  0.31324700  0.36840200  1
  C  C42  1  0.46504100  0.31324700  0.86840200  1
  C  C43  1  0.96504100  0.68675300  0.63159800  1
  C  C44  1  0.41437000  0.67909900  0.30842500  1
  C  C45  1  0.91437000  0.32090100  0.19157500  1
  C  C46  1  0.58563000  0.32090100  0.69157500  1
  C  C47  1  0.08563000  0.67909900  0.80842500  1
  C  C48  1  0.65025400  0.44732100  0.36757400  1
  C  C49  1  0.15025400  0.55267900  0.13242600  1
  C  C50  1  0.34974600  0.55267900  0.63242600  1
  C  C51  1  0.84974600  0.44732100  0.86757400  1
  C  C52  1  0.47300800  0.23253600  0.35325900  1
  C  C53  1  0.97300800  0.76746400  0.14674100  1
  C  C54  1  0.52699200  0.76746400  0.64674100  1
  C  C55  1  0.02699200  0.23253600  0.85325900  1
  C  C56  1  0.39363600  0.91161900  0.41731700  1
  C  C57  1  0.89363600  0.08838100  0.08268300  1
  C  C58  1  0.60636400  0.08838100  0.58268300  1
  C  C59  1  0.12543000  0.32198700  0.99066600  1
  C  C60  1  0.22607600  0.02772200  0.51466100  1
  C  C61  1  0.72607600  0.97227800  0.98533900  1
  C  C62  1  0.77392400  0.97227800  0.48533900  1
  C  C63  1  0.27392400  0.02772200  0.01466100  1
  C  C64  1  0.37457000  0.32198700  0.49066600  1
  C  C65  1  0.87457000  0.67801300  0.00933400  1
  C  C66  1  0.62543000  0.67801300  0.50933400  1
  C  C67  1  0.10636400  0.91161900  0.91731700  1
