# generated using pymatgen
data_Cu10(Ni4C3)3
_symmetry_space_group_name_H-M   'P 1'
_cell_length_a   7.44975157
_cell_length_b   7.44975157
_cell_length_c   30.63134275
_cell_angle_alpha   87.98491163
_cell_angle_beta   87.98491163
_cell_angle_gamma   38.47324162
_symmetry_Int_Tables_number   1
_chemical_formula_structural   Cu10(Ni4C3)3
_chemical_formula_sum   'Cu20 Ni24 C18'
_cell_volume   1056.92139377
_cell_formula_units_Z   2
loop_
 _symmetry_equiv_pos_site_id
 _symmetry_equiv_pos_as_xyz
  1  'x, y, z'
loop_
 _atom_site_type_symbol
 _atom_site_label
 _atom_site_symmetry_multiplicity
 _atom_site_fract_x
 _atom_site_fract_y
 _atom_site_fract_z
 _atom_site_occupancy
  C  C0  1  0.58330000  0.41670000  0.25000000  1
  C  C1  1  0.41670000  0.58330000  0.75000000  1
  C  C2  1  0.70724800  0.51867700  0.39247300  1
  C  C3  1  0.48132300  0.29275200  0.10752700  1
  C  C4  1  0.29275200  0.48132300  0.60752700  1
  C  C5  1  0.51867700  0.70724800  0.89247300  1
  C  C6  1  0.54460100  0.13010500  0.37667400  1
  C  C7  1  0.86989500  0.45539900  0.12332600  1
  C  C8  1  0.45539900  0.86989500  0.62332600  1
  C  C9  1  0.13010500  0.54460100  0.87667400  1
  C  C10  1  0.08467900  0.69251600  0.44728000  1
  C  C11  1  0.30748400  0.91532100  0.05272000  1
  C  C12  1  0.91532100  0.30748400  0.55272000  1
  C  C13  1  0.69251600  0.08467900  0.94728000  1
  C  C14  1  0.01407800  0.61286800  0.30757600  1
  C  C15  1  0.38713200  0.98592200  0.19242400  1
  C  C16  1  0.98592200  0.38713200  0.69242400  1
  C  C17  1  0.61286800  0.01407800  0.80757600  1
  Ni  Ni18  1  0.97003900  0.79512000  0.27420300  1
  Ni  Ni19  1  0.20488000  0.02996100  0.22579700  1
  Ni  Ni20  1  0.02996100  0.20488000  0.72579700  1
  Ni  Ni21  1  0.79512000  0.97003900  0.77420300  1
  Ni  Ni22  1  0.80102700  0.76049700  0.34697700  1
  Ni  Ni23  1  0.23950300  0.19897300  0.15302300  1
  Ni  Ni24  1  0.19897300  0.23950300  0.65302300  1
  Ni  Ni25  1  0.76049700  0.80102700  0.84697700  1
  Ni  Ni26  1  0.32839500  0.35695000  0.32398700  1
  Ni  Ni27  1  0.64305000  0.67160500  0.17601300  1
  Ni  Ni28  1  0.67160500  0.64305000  0.67601300  1
  Ni  Ni29  1  0.35695000  0.32839500  0.82398700  1
  Ni  Ni30  1  0.43470800  0.68988200  0.32408100  1
  Ni  Ni31  1  0.31011800  0.56529200  0.17591900  1
  Ni  Ni32  1  0.56529200  0.31011800  0.67591900  1
  Ni  Ni33  1  0.68988200  0.43470800  0.82408100  1
  Ni  Ni34  1  0.79592400  0.84632700  0.43636500  1
  Ni  Ni35  1  0.15367300  0.20407600  0.06363500  1
  Ni  Ni36  1  0.20407600  0.15367300  0.56363500  1
  Ni  Ni37  1  0.84632700  0.79592400  0.93636500  1
  Ni  Ni38  1  0.34680900  0.46782100  0.41875200  1
  Ni  Ni39  1  0.53217900  0.65319100  0.08124800  1
  Ni  Ni40  1  0.65319100  0.53217900  0.58124800  1
  Ni  Ni41  1  0.46782100  0.34680900  0.91875200  1
  Cu  Cu42  1  0.29369100  0.13032500  0.39891400  1
  Cu  Cu43  1  0.86967500  0.70630900  0.10108600  1
  Cu  Cu44  1  0.70630900  0.86967500  0.60108600  1
  Cu  Cu45  1  0.13032500  0.29369100  0.89891400  1
  Cu  Cu46  1  0.06823500  0.91322100  0.45674200  1
  Cu  Cu47  1  0.08677900  0.93176500  0.04325800  1
  Cu  Cu48  1  0.93176500  0.08677900  0.54325800  1
  Cu  Cu49  1  0.91322100  0.06823500  0.95674200  1
  Cu  Cu50  1  0.96540400  0.46168500  0.28605500  1
  Cu  Cu51  1  0.53831500  0.03459600  0.21394500  1
  Cu  Cu52  1  0.03459600  0.53831500  0.71394500  1
  Cu  Cu53  1  0.46168500  0.96540400  0.78605500  1
  Cu  Cu54  1  0.16269500  0.56139400  0.49504500  1
  Cu  Cu55  1  0.43860600  0.83730500  0.00495500  1
  Cu  Cu56  1  0.83730500  0.43860600  0.50495500  1
  Cu  Cu57  1  0.56139400  0.16269500  0.99504500  1
  Cu  Cu58  1  0.82168400  0.10226400  0.37103700  1
  Cu  Cu59  1  0.89773600  0.17831600  0.12896300  1
  Cu  Cu60  1  0.17831600  0.89773600  0.62896300  1
  Cu  Cu61  1  0.10226400  0.82168400  0.87103700  1
