# generated using pymatgen
data_Cu3NiC12
_symmetry_space_group_name_H-M   'P 1'
_cell_length_a   9.52373500
_cell_length_b   9.57381900
_cell_length_c   10.49261900
_cell_angle_alpha   90.00000000
_cell_angle_beta   90.00000000
_cell_angle_gamma   90.00000000
_symmetry_Int_Tables_number   1
_chemical_formula_structural   Cu3NiC12
_chemical_formula_sum   'Cu12 Ni4 C48'
_cell_volume   956.70141987
_cell_formula_units_Z   4
loop_
 _symmetry_equiv_pos_site_id
 _symmetry_equiv_pos_as_xyz
  1  'x, y, z'
loop_
 _atom_site_type_symbol
 _atom_site_label
 _atom_site_symmetry_multiplicity
 _atom_site_fract_x
 _atom_site_fract_y
 _atom_site_fract_z
 _atom_site_occupancy
  C  C0  1  0.55954300  0.39788500  0.11811300  1
  C  C1  1  0.44045700  0.89788500  0.88188700  1
  C  C2  1  0.55954300  0.89788500  0.38188700  1
  C  C3  1  0.44045700  0.39788500  0.61811300  1
  Ni  Ni4  1  0.46341100  0.25198700  0.88643700  1
  Ni  Ni5  1  0.53658900  0.75198700  0.11356300  1
  Ni  Ni6  1  0.46341100  0.75198700  0.61356300  1
  Ni  Ni7  1  0.53658900  0.25198700  0.38643700  1
  Cu  Cu8  1  0.24351000  0.55559400  0.91722100  1
  Cu  Cu9  1  0.75649000  0.05559400  0.08277900  1
  Cu  Cu10  1  0.24351000  0.05559400  0.58277900  1
  Cu  Cu11  1  0.75649000  0.55559400  0.41722100  1
  Cu  Cu12  1  0.28576100  0.58719100  0.30240700  1
  Cu  Cu13  1  0.71423900  0.08719100  0.69759300  1
  Cu  Cu14  1  0.28576100  0.08719100  0.19759300  1
  Cu  Cu15  1  0.71423900  0.58719100  0.80240700  1
  Cu  Cu16  1  0.96810900  0.44432300  0.13031000  1
  Cu  Cu17  1  0.03189100  0.94432300  0.86969000  1
  Cu  Cu18  1  0.96810900  0.94432300  0.36969000  1
  Cu  Cu19  1  0.03189100  0.44432300  0.63031000  1
  C  C20  1  0.97382300  0.28537800  0.87308100  1
  C  C21  1  0.02617700  0.78537800  0.12691900  1
  C  C22  1  0.97382300  0.78537800  0.62691900  1
  C  C23  1  0.02617700  0.28537800  0.37308100  1
  C  C24  1  0.97770100  0.42316600  0.87099000  1
  C  C25  1  0.02229900  0.92316600  0.12901000  1
  C  C26  1  0.97770100  0.92316600  0.62901000  1
  C  C27  1  0.02229900  0.42316600  0.37099000  1
  C  C28  1  0.97645100  0.21860600  0.76519700  1
  C  C29  1  0.02354900  0.71860600  0.23480300  1
  C  C30  1  0.97645100  0.71860600  0.73480300  1
  C  C31  1  0.02354900  0.21860600  0.26519700  1
  C  C32  1  0.97064900  0.22239500  0.98183300  1
  C  C33  1  0.02935100  0.72239500  0.01816700  1
  C  C34  1  0.97064900  0.72239500  0.51816700  1
  C  C35  1  0.02935100  0.22239500  0.48183300  1
  C  C36  1  0.33492800  0.33728900  0.76020000  1
  C  C37  1  0.66507200  0.83728900  0.23980000  1
  C  C38  1  0.33492800  0.83728900  0.73980000  1
  C  C39  1  0.66507200  0.33728900  0.26020000  1
  C  C40  1  0.62330600  0.29781100  0.77953200  1
  C  C41  1  0.37669400  0.79781100  0.22046800  1
  C  C42  1  0.62330600  0.79781100  0.72046800  1
  C  C43  1  0.37669400  0.29781100  0.27953200  1
  C  C44  1  0.51276600  0.56644400  0.19558200  1
  C  C45  1  0.48723400  0.06644400  0.80441800  1
  C  C46  1  0.51276600  0.06644400  0.30441800  1
  C  C47  1  0.48723400  0.56644400  0.69558200  1
  C  C48  1  0.59192900  0.22987400  0.03608300  1
  C  C49  1  0.40807100  0.72987400  0.96391700  1
  C  C50  1  0.59192900  0.72987400  0.46391700  1
  C  C51  1  0.40807100  0.22987400  0.53608300  1
  C  C52  1  0.46997500  0.44157000  0.96574800  1
  C  C53  1  0.53002500  0.94157000  0.03425200  1
  C  C54  1  0.46997500  0.94157000  0.53425200  1
  C  C55  1  0.53002500  0.44157000  0.46574800  1
  C  C56  1  0.30253900  0.18467400  0.97789600  1
  C  C57  1  0.69746100  0.68467400  0.02210400  1
  C  C58  1  0.30253900  0.68467400  0.52210400  1
  C  C59  1  0.69746100  0.18467400  0.47789600  1
  C  C60  1  0.20074200  0.49048300  0.11983700  1
  C  C61  1  0.79925800  0.99048300  0.88016300  1
  C  C62  1  0.20074200  0.99048300  0.38016300  1
  C  C63  1  0.79925800  0.49048300  0.61983700  1
