# generated using pymatgen
data_CuNiC8
_symmetry_space_group_name_H-M   'P 1'
_cell_length_a   8.31232772
_cell_length_b   8.73775139
_cell_length_c   9.23506599
_cell_angle_alpha   90.00000000
_cell_angle_beta   90.00000000
_cell_angle_gamma   90.00000000
_symmetry_Int_Tables_number   1
_chemical_formula_structural   CuNiC8
_chemical_formula_sum   'Cu4 Ni4 C32'
_cell_volume   670.75256821
_cell_formula_units_Z   4
loop_
 _symmetry_equiv_pos_site_id
 _symmetry_equiv_pos_as_xyz
  1  'x, y, z'
loop_
 _atom_site_type_symbol
 _atom_site_label
 _atom_site_symmetry_multiplicity
 _atom_site_fract_x
 _atom_site_fract_y
 _atom_site_fract_z
 _atom_site_occupancy
  Ni  Ni0  1  0.50000000  0.00000000  0.50000000  1
  Ni  Ni1  1  0.50000000  0.50000000  0.00000000  1
  Ni  Ni2  1  0.50000000  0.00000000  0.00000000  1
  Ni  Ni3  1  0.00000000  0.00000000  0.50000000  1
  Cu  Cu4  1  0.00000000  0.50000000  0.50000000  1
  Cu  Cu5  1  0.00000000  0.50000000  0.00000000  1
  Cu  Cu6  1  0.00000000  0.00000000  0.00000000  1
  Cu  Cu7  1  0.50000000  0.50000000  0.50000000  1
  C  C8  1  0.25552566  0.24116873  0.25858095  1
  C  C9  1  0.74447434  0.75883127  0.25858095  1
  C  C10  1  0.74447434  0.24116873  0.74141905  1
  C  C11  1  0.25552566  0.75883127  0.74141905  1
  C  C12  1  0.75137138  0.75113150  0.74554770  1
  C  C13  1  0.24862862  0.24886850  0.74554770  1
  C  C14  1  0.24862862  0.75113150  0.25445230  1
  C  C15  1  0.75137138  0.24886850  0.25445230  1
  C  C16  1  0.00463673  0.20359230  0.28664998  1
  C  C17  1  -0.00463673  0.79640770  0.28664998  1
  C  C18  1  -0.00463673  0.20359230  0.71335002  1
  C  C19  1  0.00463673  0.79640770  0.71335002  1
  C  C20  1  0.28302608  0.99102189  0.19918141  1
  C  C21  1  0.28302608  0.00897811  0.80081859  1
  C  C22  1  0.71697392  0.00897811  0.19918141  1
  C  C23  1  0.71697392  0.99102189  0.80081859  1
  C  C24  1  0.19418458  0.29297649  0.97975822  1
  C  C25  1  0.80581542  0.29297649  0.02024178  1
  C  C26  1  0.19418458  0.70702351  0.02024178  1
  C  C27  1  0.80581542  0.70702351  0.97975822  1
  C  C28  1  0.49226223  0.30046769  0.21511359  1
  C  C29  1  0.50773777  0.69953231  0.21511359  1
  C  C30  1  0.50773777  0.30046769  0.78488641  1
  C  C31  1  0.49226223  0.69953231  0.78488641  1
  C  C32  1  0.20575858  0.51632414  0.30415053  1
  C  C33  1  0.20575858  0.48367586  0.69584947  1
  C  C34  1  0.79424142  0.48367586  0.30415053  1
  C  C35  1  0.79424142  0.51632414  0.69584947  1
  C  C36  1  0.29635008  0.21881592  0.51294040  1
  C  C37  1  0.70364992  0.21881592  0.48705960  1
  C  C38  1  0.29635008  0.78118408  0.48705960  1
  C  C39  1  0.70364992  0.78118408  0.51294040  1
