# generated using pymatgen
data_Cu9NiC3
_symmetry_space_group_name_H-M   'P 1'
_cell_length_a   7.52196185
_cell_length_b   7.52196185
_cell_length_c   7.70948300
_cell_angle_alpha   90.00000000
_cell_angle_beta   90.00000000
_cell_angle_gamma   119.99999864
_symmetry_Int_Tables_number   1
_chemical_formula_structural   Cu9NiC3
_chemical_formula_sum   'Cu18 Ni2 C6'
_cell_volume   377.76189220
_cell_formula_units_Z   2
loop_
 _symmetry_equiv_pos_site_id
 _symmetry_equiv_pos_as_xyz
  1  'x, y, z'
loop_
 _atom_site_type_symbol
 _atom_site_label
 _atom_site_symmetry_multiplicity
 _atom_site_fract_x
 _atom_site_fract_y
 _atom_site_fract_z
 _atom_site_occupancy
  C  C0  1  0.48215800  0.00000000  0.75000000  1
  C  C1  1  0.51784200  0.00000000  0.25000000  1
  C  C2  1  0.00000000  0.48215800  0.75000000  1
  C  C3  1  0.00000000  0.51784200  0.25000000  1
  C  C4  1  0.51784200  0.51784200  0.75000000  1
  C  C5  1  0.48215800  0.48215800  0.25000000  1
  Ni  Ni6  1  0.00000000  0.00000000  0.50000000  1
  Ni  Ni7  1  0.00000000  0.00000000  0.00000000  1
  Cu  Cu8  1  0.21589100  0.42606900  0.75000000  1
  Cu  Cu9  1  0.78410900  0.57393100  0.25000000  1
  Cu  Cu10  1  0.57393100  0.78982200  0.75000000  1
  Cu  Cu11  1  0.42606900  0.21589100  0.75000000  1
  Cu  Cu12  1  0.42606900  0.21017800  0.25000000  1
  Cu  Cu13  1  0.57393100  0.78410900  0.25000000  1
  Cu  Cu14  1  0.21017800  0.78410900  0.75000000  1
  Cu  Cu15  1  0.78982200  0.57393100  0.75000000  1
  Cu  Cu16  1  0.78982200  0.21589100  0.25000000  1
  Cu  Cu17  1  0.21017800  0.42606900  0.25000000  1
  Cu  Cu18  1  0.78410900  0.21017800  0.75000000  1
  Cu  Cu19  1  0.21589100  0.78982200  0.25000000  1
  Cu  Cu20  1  0.50000000  0.00000000  0.50000000  1
  Cu  Cu21  1  0.00000000  0.50000000  0.50000000  1
  Cu  Cu22  1  0.50000000  0.00000000  0.00000000  1
  Cu  Cu23  1  0.00000000  0.50000000  0.00000000  1
  Cu  Cu24  1  0.50000000  0.50000000  0.50000000  1
  Cu  Cu25  1  0.50000000  0.50000000  0.00000000  1
