# generated using pymatgen
data_CuNiC61
_symmetry_space_group_name_H-M   'P 1'
_cell_length_a   8.51077400
_cell_length_b   8.54747600
_cell_length_c   8.56887400
_cell_angle_alpha   90.00000000
_cell_angle_beta   90.00000000
_cell_angle_gamma   90.00000000
_symmetry_Int_Tables_number   1
_chemical_formula_structural   CuNiC61
_chemical_formula_sum   'Cu1 Ni1 C61'
_cell_volume   623.34819327
_cell_formula_units_Z   1
loop_
 _symmetry_equiv_pos_site_id
 _symmetry_equiv_pos_as_xyz
  1  'x, y, z'
loop_
 _atom_site_type_symbol
 _atom_site_label
 _atom_site_symmetry_multiplicity
 _atom_site_fract_x
 _atom_site_fract_y
 _atom_site_fract_z
 _atom_site_occupancy
  Ni  Ni0  1  0.00087700  0.50000000  0.00000000  1
  Cu  Cu1  1  0.00354600  0.00000000  0.00000000  1
  C  C2  1  0.00173200  0.00000000  0.50000000  1
  C  C3  1  0.00430100  0.50000000  0.50000000  1
  C  C4  1  0.49786900  0.00000000  0.00000000  1
  C  C5  1  0.48255300  0.50000000  0.00000000  1
  C  C6  1  0.49836700  0.00000000  0.50000000  1
  C  C7  1  0.49695900  0.50000000  0.50000000  1
  C  C8  1  0.00007700  0.75231000  0.75445600  1
  C  C9  1  0.00007700  0.24769000  0.75445600  1
  C  C10  1  0.00007700  0.75231000  0.24554400  1
  C  C11  1  0.00007700  0.24769000  0.24554400  1
  C  C12  1  0.50011400  0.74995800  0.75171100  1
  C  C13  1  0.50011400  0.25004200  0.75171100  1
  C  C14  1  0.50011400  0.74995800  0.24828900  1
  C  C15  1  0.50011400  0.25004200  0.24828900  1
  C  C16  1  0.75691100  0.77494900  0.00000000  1
  C  C17  1  0.75691100  0.22505100  0.00000000  1
  C  C18  1  0.75147800  0.75347100  0.50000000  1
  C  C19  1  0.75147800  0.24652900  0.50000000  1
  C  C20  1  0.24120300  0.75243400  0.00000000  1
  C  C21  1  0.24120300  0.24756600  0.00000000  1
  C  C22  1  0.24875800  0.75132200  0.50000000  1
  C  C23  1  0.24875800  0.24867800  0.50000000  1
  C  C24  1  0.75365400  0.00000000  0.75034100  1
  C  C25  1  0.75334500  0.50000000  0.72791400  1
  C  C26  1  0.75365400  0.00000000  0.24965900  1
  C  C27  1  0.75334500  0.50000000  0.27208600  1
  C  C28  1  0.24581100  0.00000000  0.75336200  1
  C  C29  1  0.24452100  0.50000000  0.75251700  1
  C  C30  1  0.24581100  0.00000000  0.24663800  1
  C  C31  1  0.24452100  0.50000000  0.24748300  1
  C  C32  1  0.73873600  0.00000000  0.00000000  1
  C  C33  1  0.74742000  0.00000000  0.50000000  1
  C  C34  1  0.74574900  0.50000000  0.50000000  1
  C  C35  1  0.25933800  0.00000000  0.00000000  1
  C  C36  1  0.25599100  0.50000000  0.00000000  1
  C  C37  1  0.25226000  0.00000000  0.50000000  1
  C  C38  1  0.25355400  0.50000000  0.50000000  1
  C  C39  1  0.74994800  0.74421100  0.75502700  1
  C  C40  1  0.74994800  0.25578900  0.75502700  1
  C  C41  1  0.74994800  0.74421100  0.24497300  1
  C  C42  1  0.74994800  0.25578900  0.24497300  1
  C  C43  1  0.25087000  0.74865000  0.75107200  1
  C  C44  1  0.25087000  0.25135000  0.75107200  1
  C  C45  1  0.25087000  0.74865000  0.24892800  1
  C  C46  1  0.25087000  0.25135000  0.24892800  1
  C  C47  1  0.99427900  0.75719300  0.00000000  1
  C  C48  1  0.99427900  0.24280700  0.00000000  1
  C  C49  1  0.99861300  0.74991200  0.50000000  1
  C  C50  1  0.99861300  0.25008800  0.50000000  1
  C  C51  1  0.50964600  0.74228200  0.00000000  1
  C  C52  1  0.50964600  0.25771800  0.00000000  1
  C  C53  1  0.50172000  0.74850900  0.50000000  1
  C  C54  1  0.50172000  0.25149100  0.50000000  1
  C  C55  1  0.99830000  0.00000000  0.74147200  1
  C  C56  1  0.99515300  0.50000000  0.73854800  1
  C  C57  1  0.99830000  0.00000000  0.25852800  1
  C  C58  1  0.99515300  0.50000000  0.26145200  1
  C  C59  1  0.50189400  0.00000000  0.74954300  1
  C  C60  1  0.50807100  0.50000000  0.75512500  1
  C  C61  1  0.50189400  0.00000000  0.25045700  1
  C  C62  1  0.50807100  0.50000000  0.24487500  1
