# generated using pymatgen
data_Cu9(Ni3C4)2
_symmetry_space_group_name_H-M   'P 1'
_cell_length_a   10.20678380
_cell_length_b   10.20678380
_cell_length_c   7.51120300
_cell_angle_alpha   90.00000000
_cell_angle_beta   90.00000000
_cell_angle_gamma   119.99999868
_symmetry_Int_Tables_number   1
_chemical_formula_structural   Cu9(Ni3C4)2
_chemical_formula_sum   'Cu18 Ni12 C16'
_cell_volume   677.66954411
_cell_formula_units_Z   2
loop_
 _symmetry_equiv_pos_site_id
 _symmetry_equiv_pos_as_xyz
  1  'x, y, z'
loop_
 _atom_site_type_symbol
 _atom_site_label
 _atom_site_symmetry_multiplicity
 _atom_site_fract_x
 _atom_site_fract_y
 _atom_site_fract_z
 _atom_site_occupancy
  C  C0  1  0.00000000  0.00000000  0.50000000  1
  C  C1  1  0.33333300  0.66666700  0.07911600  1
  C  C2  1  0.66666700  0.33333300  0.92088400  1
  C  C3  1  0.00000000  0.00000000  0.00000000  1
  C  C4  1  0.40195200  0.05259400  0.31121200  1
  C  C5  1  0.59804800  0.94740600  0.68878800  1
  C  C6  1  0.94740600  0.34935800  0.31121200  1
  C  C7  1  0.05259400  0.65064200  0.68878800  1
  C  C8  1  0.65064200  0.59804800  0.31121200  1
  C  C9  1  0.34935800  0.40195200  0.68878800  1
  C  C10  1  0.31504400  0.07496600  0.15289400  1
  C  C11  1  0.68495600  0.92503400  0.84710600  1
  C  C12  1  0.92503400  0.24007800  0.15289400  1
  C  C13  1  0.07496600  0.75992200  0.84710600  1
  C  C14  1  0.75992200  0.68495600  0.15289400  1
  C  C15  1  0.24007800  0.31504400  0.84710600  1
  Ni  Ni16  1  0.17882700  0.03855000  0.19358600  1
  Ni  Ni17  1  0.82117300  0.96145000  0.80641400  1
  Ni  Ni18  1  0.96145000  0.14027800  0.19358600  1
  Ni  Ni19  1  0.03855000  0.85972200  0.80641400  1
  Ni  Ni20  1  0.85972200  0.82117300  0.19358600  1
  Ni  Ni21  1  0.14027800  0.17882700  0.80641400  1
  Ni  Ni22  1  0.38265300  0.11947800  0.00956900  1
  Ni  Ni23  1  0.61734700  0.88052200  0.99043100  1
  Ni  Ni24  1  0.88052200  0.26317500  0.00956900  1
  Ni  Ni25  1  0.11947800  0.73682500  0.99043100  1
  Ni  Ni26  1  0.73682500  0.61734700  0.00956900  1
  Ni  Ni27  1  0.26317500  0.38265300  0.99043100  1
  Cu  Cu28  1  0.36103700  0.08013700  0.47309200  1
  Cu  Cu29  1  0.63896300  0.91986300  0.52690800  1
  Cu  Cu30  1  0.91986300  0.28090100  0.47309200  1
  Cu  Cu31  1  0.08013700  0.71909900  0.52690800  1
  Cu  Cu32  1  0.71909900  0.63896300  0.47309200  1
  Cu  Cu33  1  0.28090100  0.36103700  0.52690800  1
  Cu  Cu34  1  0.55420300  0.14244700  0.29516600  1
  Cu  Cu35  1  0.44579700  0.85755300  0.70483400  1
  Cu  Cu36  1  0.85755300  0.41175700  0.29516600  1
  Cu  Cu37  1  0.14244700  0.58824300  0.70483400  1
  Cu  Cu38  1  0.58824300  0.44579700  0.29516600  1
  Cu  Cu39  1  0.41175700  0.55420300  0.70483400  1
  Cu  Cu40  1  0.09439100  0.46713600  0.31272800  1
  Cu  Cu41  1  0.90560900  0.53286400  0.68727200  1
  Cu  Cu42  1  0.53286400  0.62725500  0.31272800  1
  Cu  Cu43  1  0.46713600  0.37274500  0.68727200  1
  Cu  Cu44  1  0.37274500  0.90560900  0.31272800  1
  Cu  Cu45  1  0.62725500  0.09439100  0.68727200  1
