# generated using pymatgen
data_Cu(Ni4C3)2
_symmetry_space_group_name_H-M   'P 1'
_cell_length_a   6.89228400
_cell_length_b   7.00637300
_cell_length_c   9.67039300
_cell_angle_alpha   90.00000000
_cell_angle_beta   90.00000000
_cell_angle_gamma   90.00000000
_symmetry_Int_Tables_number   1
_chemical_formula_structural   Cu(Ni4C3)2
_chemical_formula_sum   'Cu2 Ni16 C12'
_cell_volume   466.98243206
_cell_formula_units_Z   2
loop_
 _symmetry_equiv_pos_site_id
 _symmetry_equiv_pos_as_xyz
  1  'x, y, z'
loop_
 _atom_site_type_symbol
 _atom_site_label
 _atom_site_symmetry_multiplicity
 _atom_site_fract_x
 _atom_site_fract_y
 _atom_site_fract_z
 _atom_site_occupancy
  Ni  Ni0  1  0.27334500  0.00000000  0.47725100  1
  Ni  Ni1  1  0.72665500  0.50000000  0.97725100  1
  Ni  Ni2  1  0.60416100  0.50000000  0.53174000  1
  Ni  Ni3  1  0.39583900  0.00000000  0.03174000  1
  Ni  Ni4  1  0.84566700  0.20914200  0.15256100  1
  Ni  Ni5  1  0.15433300  0.29085800  0.65256100  1
  Ni  Ni6  1  0.15433300  0.70914200  0.65256100  1
  Ni  Ni7  1  0.84566700  0.79085800  0.15256100  1
  Ni  Ni8  1  0.88845600  0.20736500  0.85426800  1
  Ni  Ni9  1  0.11154400  0.29263500  0.35426800  1
  Ni  Ni10  1  0.11154400  0.70736500  0.35426800  1
  Ni  Ni11  1  0.88845600  0.79263500  0.85426800  1
  Ni  Ni12  1  0.47522500  0.20266500  0.25975700  1
  Ni  Ni13  1  0.52477500  0.29733500  0.75975700  1
  Ni  Ni14  1  0.52477500  0.70266500  0.75975700  1
  Ni  Ni15  1  0.47522500  0.79733500  0.25975700  1
  Cu  Cu16  1  0.74886700  0.00000000  0.51074200  1
  Cu  Cu17  1  0.25113300  0.50000000  0.01074200  1
  C  C18  1  0.78715700  0.50000000  0.74468400  1
  C  C19  1  0.21284300  0.00000000  0.24468400  1
  C  C20  1  0.49438000  0.50000000  0.14382800  1
  C  C21  1  0.50562000  0.00000000  0.64382800  1
  C  C22  1  0.00438600  0.50000000  0.14565800  1
  C  C23  1  0.99561400  0.00000000  0.64565800  1
  C  C24  1  0.24564900  0.24538500  0.89186900  1
  C  C25  1  0.75435100  0.25461500  0.39186900  1
  C  C26  1  0.75435100  0.74538500  0.39186900  1
  C  C27  1  0.24564900  0.75461500  0.89186900  1
  C  C28  1  0.72892300  0.00000000  0.00028800  1
  C  C29  1  0.27107700  0.50000000  0.50028800  1
