# generated using pymatgen
data_CuNiC62
_symmetry_space_group_name_H-M   'P 1'
_cell_length_a   8.68369559
_cell_length_b   8.69851797
_cell_length_c   8.69851797
_cell_angle_alpha   90.00000000
_cell_angle_beta   90.00000000
_cell_angle_gamma   90.00000000
_symmetry_Int_Tables_number   1
_chemical_formula_structural   CuNiC62
_chemical_formula_sum   'Cu1 Ni1 C62'
_cell_volume   657.04500903
_cell_formula_units_Z   1
loop_
 _symmetry_equiv_pos_site_id
 _symmetry_equiv_pos_as_xyz
  1  'x, y, z'
loop_
 _atom_site_type_symbol
 _atom_site_label
 _atom_site_symmetry_multiplicity
 _atom_site_fract_x
 _atom_site_fract_y
 _atom_site_fract_z
 _atom_site_occupancy
  Ni  Ni0  1  -0.00000000  0.50000000  0.50000000  1
  Cu  Cu1  1  -0.00000000  0.00000000  0.00000000  1
  C  C2  1  -0.00000000  0.00000000  0.50000000  1
  C  C3  1  -0.00000000  0.50000000  0.00000000  1
  C  C4  1  0.50000000  0.00000000  0.00000000  1
  C  C5  1  0.50000000  0.00000000  0.50000000  1
  C  C6  1  0.50000000  0.50000000  0.00000000  1
  C  C7  1  0.50000000  0.50000000  0.50000000  1
  C  C8  1  -0.00000000  0.24569274  0.24569274  1
  C  C9  1  -0.00000000  0.24569274  0.75430726  1
  C  C10  1  -0.00000000  0.75430726  0.24569274  1
  C  C11  1  -0.00000000  0.75430726  0.75430726  1
  C  C12  1  0.50000000  0.24971181  0.24971181  1
  C  C13  1  0.50000000  0.24971181  0.75028819  1
  C  C14  1  0.50000000  0.75028819  0.24971181  1
  C  C15  1  0.50000000  0.75028819  0.75028819  1
  C  C16  1  0.25338436  0.00000000  0.25263941  1
  C  C17  1  0.25338436  0.00000000  0.74736059  1
  C  C18  1  0.25742987  0.50000000  0.24272885  1
  C  C19  1  0.25742987  0.50000000  0.75727115  1
  C  C20  1  0.74661564  0.00000000  0.25263941  1
  C  C21  1  0.74661564  0.00000000  0.74736059  1
  C  C22  1  0.74257013  0.50000000  0.24272885  1
  C  C23  1  0.74257013  0.50000000  0.75727115  1
  C  C24  1  0.25338436  0.25263941  0.00000000  1
  C  C25  1  0.25742987  0.24272885  0.50000000  1
  C  C26  1  0.25338436  0.74736059  0.00000000  1
  C  C27  1  0.25742987  0.75727115  0.50000000  1
  C  C28  1  0.74661564  0.25263941  0.00000000  1
  C  C29  1  0.74257013  0.24272885  0.50000000  1
  C  C30  1  0.74661564  0.74736059  0.00000000  1
  C  C31  1  0.74257013  0.75727115  0.50000000  1
  C  C32  1  0.26259531  0.00000000  0.00000000  1
  C  C33  1  0.25809259  0.00000000  0.50000000  1
  C  C34  1  0.25809259  0.50000000  0.00000000  1
  C  C35  1  0.27904173  0.50000000  0.50000000  1
  C  C36  1  0.73740469  0.00000000  0.00000000  1
  C  C37  1  0.74190741  0.00000000  0.50000000  1
  C  C38  1  0.74190741  0.50000000  0.00000000  1
  C  C39  1  0.72095827  0.50000000  0.50000000  1
  C  C40  1  0.24966292  0.25034470  0.25034470  1
  C  C41  1  0.24966292  0.25034470  0.74965530  1
  C  C42  1  0.24966292  0.74965530  0.25034470  1
  C  C43  1  0.24966292  0.74965530  0.74965530  1
  C  C44  1  0.75033708  0.25034470  0.25034470  1
  C  C45  1  0.75033708  0.25034470  0.74965530  1
  C  C46  1  0.75033708  0.74965530  0.25034470  1
  C  C47  1  0.75033708  0.74965530  0.74965530  1
  C  C48  1  -0.00000000  0.00000000  0.25762139  1
  C  C49  1  -0.00000000  0.00000000  0.74237861  1
  C  C50  1  -0.00000000  0.50000000  0.22220266  1
  C  C51  1  -0.00000000  0.50000000  0.77779734  1
  C  C52  1  0.50000000  0.00000000  0.25094040  1
  C  C53  1  0.50000000  0.00000000  0.74905960  1
  C  C54  1  0.50000000  0.50000000  0.24435666  1
  C  C55  1  0.50000000  0.50000000  0.75564334  1
  C  C56  1  -0.00000000  0.25762139  0.00000000  1
  C  C57  1  -0.00000000  0.22220266  0.50000000  1
  C  C58  1  -0.00000000  0.74237861  0.00000000  1
  C  C59  1  -0.00000000  0.77779734  0.50000000  1
  C  C60  1  0.50000000  0.25094040  0.00000000  1
  C  C61  1  0.50000000  0.24435666  0.50000000  1
  C  C62  1  0.50000000  0.74905960  0.00000000  1
  C  C63  1  0.50000000  0.75564334  0.50000000  1
