# generated using pymatgen
data_CuNiC8
_symmetry_space_group_name_H-M   'P 1'
_cell_length_a   5.93157725
_cell_length_b   5.98810257
_cell_length_c   5.98810257
_cell_angle_alpha   60.42597339
_cell_angle_beta   59.83602147
_cell_angle_gamma   59.83602147
_symmetry_Int_Tables_number   1
_chemical_formula_structural   CuNiC8
_chemical_formula_sum   'Cu1 Ni1 C8'
_cell_volume   150.49580261
_cell_formula_units_Z   1
loop_
 _symmetry_equiv_pos_site_id
 _symmetry_equiv_pos_as_xyz
  1  'x, y, z'
loop_
 _atom_site_type_symbol
 _atom_site_label
 _atom_site_symmetry_multiplicity
 _atom_site_fract_x
 _atom_site_fract_y
 _atom_site_fract_z
 _atom_site_occupancy
  Ni  Ni0  1  0.73090955  0.74906745  0.74906745  1
  Cu  Cu1  1  0.28341619  0.25013762  0.25013762  1
  C  C2  1  0.50055560  0.50024988  0.50024988  1
  C  C3  1  0.00020792  0.00024661  0.00024661  1
  C  C4  1  0.13643288  0.75788097  0.75788097  1
  C  C5  1  0.88959087  0.24011555  0.24011555  1
  C  C6  1  0.29852376  0.67831455  0.18918094  1
  C  C7  1  0.68091973  0.30447133  0.83033510  1
  C  C8  1  0.68091973  0.83033510  0.30447133  1
  C  C9  1  0.29852376  0.18918094  0.67831455  1
