# generated using pymatgen
data_Cu7Ni4
_symmetry_space_group_name_H-M   'P 1'
_cell_length_a   3.95051500
_cell_length_b   6.85905300
_cell_length_c   14.93747589
_cell_angle_alpha   77.51700546
_cell_angle_beta   90.00000000
_cell_angle_gamma   90.00000000
_symmetry_Int_Tables_number   1
_chemical_formula_structural   Cu7Ni4
_chemical_formula_sum   'Cu14 Ni8'
_cell_volume   395.18928462
_cell_formula_units_Z   2
loop_
 _symmetry_equiv_pos_site_id
 _symmetry_equiv_pos_as_xyz
  1  'x, y, z'
loop_
 _atom_site_type_symbol
 _atom_site_label
 _atom_site_symmetry_multiplicity
 _atom_site_fract_x
 _atom_site_fract_y
 _atom_site_fract_z
 _atom_site_occupancy
  Ni  Ni0  1  0.50000000  0.21580800  0.07282300  1
  Ni  Ni1  1  0.50000000  0.38284000  0.49796900  1
  Ni  Ni2  1  0.00000000  0.15063700  0.64883500  1
  Ni  Ni3  1  0.00000000  0.62235300  0.34451100  1
  Ni  Ni4  1  0.50000000  0.71096900  0.15500700  1
  Ni  Ni5  1  0.00000000  0.28083300  0.90226600  1
  Ni  Ni6  1  0.00000000  0.66157500  0.58086600  1
  Ni  Ni7  1  0.00000000  0.10256500  0.42275500  1
  Cu  Cu8  1  0.00000000  0.58023400  0.04007000  1
  Cu  Cu9  1  0.00000000  0.93891400  0.04258800  1
  Cu  Cu10  1  0.50000000  0.57909800  0.93424100  1
  Cu  Cu11  1  0.00000000  0.89070200  0.87307500  1
  Cu  Cu12  1  0.50000000  0.77597100  0.44597700  1
  Cu  Cu13  1  0.50000000  0.98343900  0.55658900  1
  Cu  Cu14  1  0.50000000  0.08992400  0.79838200  1
  Cu  Cu15  1  0.00000000  0.99232600  0.20126800  1
  Cu  Cu16  1  0.50000000  0.34723500  0.30288400  1
  Cu  Cu17  1  0.00000000  0.62278300  0.77722800  1
  Cu  Cu18  1  0.50000000  0.40934700  0.69014000  1
  Cu  Cu19  1  0.00000000  0.36841000  0.19632800  1
  Cu  Cu20  1  0.50000000  0.98488600  0.29831400  1
  Cu  Cu21  1  0.50000000  0.81276900  0.71429500  1
