# generated using pymatgen
data_Cu5NiC
_symmetry_space_group_name_H-M   'P 1'
_cell_length_a   11.87342200
_cell_length_b   7.27414000
_cell_length_c   13.22254825
_cell_angle_alpha   58.30705997
_cell_angle_beta   90.00000000
_cell_angle_gamma   90.00000000
_symmetry_Int_Tables_number   1
_chemical_formula_structural   Cu5NiC
_chemical_formula_sum   'Cu40 Ni8 C8'
_cell_volume   971.71502405
_cell_formula_units_Z   8
loop_
 _symmetry_equiv_pos_site_id
 _symmetry_equiv_pos_as_xyz
  1  'x, y, z'
loop_
 _atom_site_type_symbol
 _atom_site_label
 _atom_site_symmetry_multiplicity
 _atom_site_fract_x
 _atom_site_fract_y
 _atom_site_fract_z
 _atom_site_occupancy
  C  C0  1  0.92047700  0.58611200  0.16409500  1
  C  C1  1  0.57952300  0.58611200  0.66409500  1
  C  C2  1  0.07952300  0.41388800  0.83590500  1
  C  C3  1  0.42047700  0.41388800  0.33590500  1
  C  C4  1  0.63178500  0.07174300  0.17929500  1
  C  C5  1  0.86821500  0.07174300  0.67929500  1
  C  C6  1  0.36821500  0.92825700  0.82070500  1
  C  C7  1  0.13178500  0.92825700  0.32070500  1
  Ni  Ni8  1  0.55679600  0.17681100  0.57017200  1
  Ni  Ni9  1  0.94320400  0.17681100  0.07017200  1
  Ni  Ni10  1  0.44320400  0.82318900  0.42982800  1
  Ni  Ni11  1  0.05679600  0.82318900  0.92982800  1
  Ni  Ni12  1  0.90665300  0.63285400  0.61925900  1
  Ni  Ni13  1  0.59334700  0.63285400  0.11925900  1
  Ni  Ni14  1  0.09334700  0.36714600  0.38074100  1
  Ni  Ni15  1  0.40665300  0.36714600  0.88074100  1
  Cu  Cu16  1  0.43076600  0.19106500  0.56554900  1
  Cu  Cu17  1  0.06923400  0.19106500  0.06554900  1
  Cu  Cu18  1  0.56923400  0.80893500  0.43445100  1
  Cu  Cu19  1  0.93076600  0.80893500  0.93445100  1
  Cu  Cu20  1  0.59583400  0.94906800  0.63561300  1
  Cu  Cu21  1  0.90416600  0.94906800  0.13561300  1
  Cu  Cu22  1  0.40416600  0.05093200  0.36438700  1
  Cu  Cu23  1  0.09583400  0.05093200  0.86438700  1
  Cu  Cu24  1  0.60462600  0.28685200  0.62846800  1
  Cu  Cu25  1  0.89537400  0.28685200  0.12846800  1
  Cu  Cu26  1  0.39537400  0.71314800  0.37153200  1
  Cu  Cu27  1  0.10462600  0.71314800  0.87153200  1
  Cu  Cu28  1  0.95837000  0.72195100  0.69029600  1
  Cu  Cu29  1  0.54163000  0.72195100  0.19029600  1
  Cu  Cu30  1  0.04163000  0.27804900  0.30970400  1
  Cu  Cu31  1  0.45837000  0.27804900  0.80970400  1
  Cu  Cu32  1  0.96195800  0.41215900  0.67694400  1
  Cu  Cu33  1  0.53804200  0.41215900  0.17694400  1
  Cu  Cu34  1  0.03804200  0.58784100  0.32305600  1
  Cu  Cu35  1  0.46195800  0.58784100  0.82305600  1
  Cu  Cu36  1  0.92947000  0.76737400  0.49326000  1
  Cu  Cu37  1  0.57053000  0.76737400  0.99326000  1
  Cu  Cu38  1  0.07053000  0.23262600  0.50674000  1
  Cu  Cu39  1  0.42947000  0.23262600  0.00674000  1
  Cu  Cu40  1  0.59381200  0.28848900  0.44322000  1
  Cu  Cu41  1  0.90618800  0.28848900  0.94322000  1
  Cu  Cu42  1  0.40618800  0.71151100  0.55678000  1
  Cu  Cu43  1  0.09381200  0.71151100  0.05678000  1
  Cu  Cu44  1  0.78233200  0.60405100  0.64302500  1
  Cu  Cu45  1  0.71766800  0.60405100  0.14302500  1
  Cu  Cu46  1  0.21766800  0.39594900  0.35697500  1
  Cu  Cu47  1  0.28233200  0.39594900  0.85697500  1
  Cu  Cu48  1  0.81606200  0.33334100  0.40526100  1
  Cu  Cu49  1  0.68393800  0.33334100  0.90526100  1
  Cu  Cu50  1  0.18393800  0.66665900  0.59473900  1
  Cu  Cu51  1  0.31606200  0.66665900  0.09473900  1
  Cu  Cu52  1  0.79556400  0.51993100  0.38009200  1
  Cu  Cu53  1  0.70443600  0.51993100  0.88009200  1
  Cu  Cu54  1  0.20443600  0.48006900  0.61990800  1
  Cu  Cu55  1  0.29556400  0.48006900  0.11990800  1
