# generated using pymatgen
data_CuNiC4
_symmetry_space_group_name_H-M   'P 1'
_cell_length_a   3.30428770
_cell_length_b   3.30428770
_cell_length_c   37.59602700
_cell_angle_alpha   90.00000000
_cell_angle_beta   90.00000000
_cell_angle_gamma   119.99999394
_symmetry_Int_Tables_number   1
_chemical_formula_structural   CuNiC4
_chemical_formula_sum   'Cu2 Ni2 C8'
_cell_volume   355.49076075
_cell_formula_units_Z   2
loop_
 _symmetry_equiv_pos_site_id
 _symmetry_equiv_pos_as_xyz
  1  'x, y, z'
loop_
 _atom_site_type_symbol
 _atom_site_label
 _atom_site_symmetry_multiplicity
 _atom_site_fract_x
 _atom_site_fract_y
 _atom_site_fract_z
 _atom_site_occupancy
  C  C0  1  0.33333300  0.66666700  0.04309400  1
  C  C1  1  0.33333300  0.66666700  0.14472100  1
  Ni  Ni2  1  0.00000000  0.00000000  0.09389000  1
  Ni  Ni3  1  0.00000000  0.00000000  0.46963200  1
  Cu  Cu4  1  0.33333300  0.66666700  0.28179300  1
  Cu  Cu5  1  0.33333300  0.66666700  0.65755500  1
  C  C6  1  0.33333300  0.66666700  0.42501700  1
  C  C7  1  0.33333300  0.66666700  0.51432400  1
  C  C8  1  0.00000000  0.00000000  0.32260300  1
  C  C9  1  0.00000000  0.00000000  0.69834000  1
  C  C10  1  0.00000000  0.00000000  0.24102300  1
  C  C11  1  0.00000000  0.00000000  0.61675500  1
