# generated using pymatgen
data_Cu6NiC5
_symmetry_space_group_name_H-M   'P 1'
_cell_length_a   11.39338700
_cell_length_b   11.39338700
_cell_length_c   5.50696600
_cell_angle_alpha   90.00000000
_cell_angle_beta   90.00000000
_cell_angle_gamma   90.00000000
_symmetry_Int_Tables_number   1
_chemical_formula_structural   Cu6NiC5
_chemical_formula_sum   'Cu24 Ni4 C20'
_cell_volume   714.85522168
_cell_formula_units_Z   4
loop_
 _symmetry_equiv_pos_site_id
 _symmetry_equiv_pos_as_xyz
  1  'x, y, z'
loop_
 _atom_site_type_symbol
 _atom_site_label
 _atom_site_symmetry_multiplicity
 _atom_site_fract_x
 _atom_site_fract_y
 _atom_site_fract_z
 _atom_site_occupancy
  C  C0  1  0.50993400  0.23301700  0.74289500  1
  C  C1  1  0.49006600  0.76698300  0.74289500  1
  C  C2  1  0.23301700  0.49006600  0.25710500  1
  C  C3  1  0.76698300  0.50993400  0.25710500  1
  C  C4  1  0.80289900  0.27208700  0.78186200  1
  C  C5  1  0.19710100  0.72791300  0.78186200  1
  C  C6  1  0.27208700  0.19710100  0.21813800  1
  C  C7  1  0.72791300  0.80289900  0.21813800  1
  C  C8  1  0.00000000  0.50000000  0.78967400  1
  C  C9  1  0.50000000  0.00000000  0.21032600  1
  C  C10  1  0.00000000  0.00000000  0.50000000  1
  C  C11  1  0.00000000  0.00000000  0.00000000  1
  C  C12  1  0.86217300  0.90566400  0.75053600  1
  C  C13  1  0.13782700  0.09433600  0.75053600  1
  C  C14  1  0.90566400  0.13782700  0.24946400  1
  C  C15  1  0.09433600  0.86217300  0.24946400  1
  C  C16  1  0.69387200  0.97609000  0.72281300  1
  C  C17  1  0.30612800  0.02391000  0.72281300  1
  C  C18  1  0.97609000  0.30612800  0.27718700  1
  C  C19  1  0.02391000  0.69387200  0.27718700  1
  Ni  Ni20  1  0.29970500  0.39327300  0.74425000  1
  Ni  Ni21  1  0.70029500  0.60672700  0.74425000  1
  Ni  Ni22  1  0.39327300  0.70029500  0.25575000  1
  Ni  Ni23  1  0.60672700  0.29970500  0.25575000  1
  Cu  Cu24  1  0.69139900  0.10391100  0.76443300  1
  Cu  Cu25  1  0.30860100  0.89608900  0.76443300  1
  Cu  Cu26  1  0.10391100  0.30860100  0.23556700  1
  Cu  Cu27  1  0.89608900  0.69139900  0.23556700  1
  Cu  Cu28  1  0.64973200  0.94480400  0.47820800  1
  Cu  Cu29  1  0.35026800  0.05519600  0.47820800  1
  Cu  Cu30  1  0.94480400  0.35026800  0.52179200  1
  Cu  Cu31  1  0.05519600  0.64973200  0.52179200  1
  Cu  Cu32  1  0.62261500  0.91376000  0.91061700  1
  Cu  Cu33  1  0.37738500  0.08624000  0.91061700  1
  Cu  Cu34  1  0.91376000  0.37738500  0.08938300  1
  Cu  Cu35  1  0.08624000  0.62261500  0.08938300  1
  Cu  Cu36  1  0.34615400  0.35235400  0.55244800  1
  Cu  Cu37  1  0.65384600  0.64764600  0.55244800  1
  Cu  Cu38  1  0.35235400  0.65384600  0.44755200  1
  Cu  Cu39  1  0.64764600  0.34615400  0.44755200  1
  Cu  Cu40  1  0.34068800  0.36389600  0.94986900  1
  Cu  Cu41  1  0.65931200  0.63610400  0.94986900  1
  Cu  Cu42  1  0.36389600  0.65931200  0.05013100  1
  Cu  Cu43  1  0.63610400  0.34068800  0.05013100  1
  Cu  Cu44  1  0.21503600  0.46414800  0.72934400  1
  Cu  Cu45  1  0.78496400  0.53585200  0.72934400  1
  Cu  Cu46  1  0.46414800  0.78496400  0.27065600  1
  Cu  Cu47  1  0.53585200  0.21503600  0.27065600  1
