# generated using pymatgen
data_Cu3NiC8
_symmetry_space_group_name_H-M   'P 1'
_cell_length_a   3.49796564
_cell_length_b   3.49796564
_cell_length_c   39.67822300
_cell_angle_alpha   90.00000000
_cell_angle_beta   90.00000000
_cell_angle_gamma   119.99999316
_symmetry_Int_Tables_number   1
_chemical_formula_structural   Cu3NiC8
_chemical_formula_sum   'Cu3 Ni1 C8'
_cell_volume   420.44960949
_cell_formula_units_Z   1
loop_
 _symmetry_equiv_pos_site_id
 _symmetry_equiv_pos_as_xyz
  1  'x, y, z'
loop_
 _atom_site_type_symbol
 _atom_site_label
 _atom_site_symmetry_multiplicity
 _atom_site_fract_x
 _atom_site_fract_y
 _atom_site_fract_z
 _atom_site_occupancy
  C  C0  1  0.33333300  0.66666700  0.32796300  1
  C  C1  1  0.33333300  0.66666700  0.70398500  1
  C  C2  1  0.66666700  0.33333300  0.42320900  1
  C  C3  1  0.66666700  0.33333300  0.51611200  1
  C  C4  1  0.33333300  0.66666700  0.23561600  1
  C  C5  1  0.33333300  0.66666700  0.61108000  1
  Ni  Ni6  1  0.66666700  0.33333300  0.28177600  1
  Cu  Cu7  1  0.33333300  0.66666700  0.09391500  1
  Cu  Cu8  1  0.33333300  0.66666700  0.46965900  1
  Cu  Cu9  1  0.66666700  0.33333300  0.65755000  1
  C  C10  1  0.66666700  0.33333300  0.05302900  1
  C  C11  1  0.66666700  0.33333300  0.13485300  1
