# generated using pymatgen
data_Cu2NiC7
_symmetry_space_group_name_H-M   'P 1'
_cell_length_a   7.00410610
_cell_length_b   7.00410610
_cell_length_c   5.69946717
_cell_angle_alpha   76.93192512
_cell_angle_beta   76.93192512
_cell_angle_gamma   83.58568861
_symmetry_Int_Tables_number   1
_chemical_formula_structural   Cu2NiC7
_chemical_formula_sum   'Cu4 Ni2 C14'
_cell_volume   264.76549421
_cell_formula_units_Z   2
loop_
 _symmetry_equiv_pos_site_id
 _symmetry_equiv_pos_as_xyz
  1  'x, y, z'
loop_
 _atom_site_type_symbol
 _atom_site_label
 _atom_site_symmetry_multiplicity
 _atom_site_fract_x
 _atom_site_fract_y
 _atom_site_fract_z
 _atom_site_occupancy
  C  C0  1  0.30354000  0.69646000  0.75000000  1
  C  C1  1  0.69646000  0.30354000  0.25000000  1
  Ni  Ni2  1  0.89801300  0.10198700  0.75000000  1
  Ni  Ni3  1  0.10198700  0.89801300  0.25000000  1
  Cu  Cu4  1  0.79996400  0.61990100  0.74161900  1
  Cu  Cu5  1  0.38009900  0.20003600  0.75838100  1
  Cu  Cu6  1  0.20003600  0.38009900  0.25838100  1
  Cu  Cu7  1  0.61990100  0.79996400  0.24161900  1
  C  C8  1  0.90005900  0.38325100  0.82899800  1
  C  C9  1  0.61674900  0.09994100  0.67100200  1
  C  C10  1  0.09994100  0.61674900  0.17100200  1
  C  C11  1  0.38325100  0.90005900  0.32899800  1
  C  C12  1  0.96921000  0.80771300  0.64103200  1
  C  C13  1  0.19228700  0.03079000  0.85896800  1
  C  C14  1  0.03079000  0.19228700  0.35896800  1
  C  C15  1  0.80771300  0.96921000  0.14103200  1
  C  C16  1  0.65860300  0.62492500  0.51459500  1
  C  C17  1  0.37507500  0.34139700  0.98540500  1
  C  C18  1  0.34139700  0.37507500  0.48540500  1
  C  C19  1  0.62492500  0.65860300  0.01459500  1
