# generated using pymatgen
data_CuNiC8
_symmetry_space_group_name_H-M   'P 1'
_cell_length_a   8.57291220
_cell_length_b   8.64432004
_cell_length_c   8.63188323
_cell_angle_alpha   90.00000000
_cell_angle_beta   90.00000000
_cell_angle_gamma   90.00000000
_symmetry_Int_Tables_number   1
_chemical_formula_structural   CuNiC8
_chemical_formula_sum   'Cu4 Ni4 C32'
_cell_volume   639.68294231
_cell_formula_units_Z   4
loop_
 _symmetry_equiv_pos_site_id
 _symmetry_equiv_pos_as_xyz
  1  'x, y, z'
loop_
 _atom_site_type_symbol
 _atom_site_label
 _atom_site_symmetry_multiplicity
 _atom_site_fract_x
 _atom_site_fract_y
 _atom_site_fract_z
 _atom_site_occupancy
  Ni  Ni0  1  -0.00000000  0.00000000  0.00000000  1
  Ni  Ni1  1  0.50000000  0.50000000  0.50000000  1
  Ni  Ni2  1  0.50000000  0.50000000  0.00000000  1
  Ni  Ni3  1  0.00000000  0.00000000  0.50000000  1
  Cu  Cu4  1  0.75000000  0.75000000  0.75000000  1
  Cu  Cu5  1  0.25000000  0.25000000  0.75000000  1
  Cu  Cu6  1  0.25000000  0.75000000  0.25000000  1
  Cu  Cu7  1  0.75000000  0.25000000  0.25000000  1
  C  C8  1  0.00000000  0.50000000  0.50000000  1
  C  C9  1  0.50000000  0.00000000  0.50000000  1
  C  C10  1  0.50000000  0.00000000  -0.00000000  1
  C  C11  1  0.00000000  0.50000000  -0.00000000  1
  C  C12  1  0.25000000  0.25000000  0.25000000  1
  C  C13  1  0.75000000  0.75000000  0.25000000  1
  C  C14  1  0.75000000  0.25000000  0.75000000  1
  C  C15  1  0.25000000  0.75000000  0.75000000  1
  C  C16  1  0.02766326  0.20996352  0.28169208  1
  C  C17  1  0.97233674  0.79003648  0.28169208  1
  C  C18  1  0.97233674  0.20996352  0.71830792  1
  C  C19  1  0.02766326  0.79003648  0.71830792  1
  C  C20  1  0.28882335  0.02973470  0.20002046  1
  C  C21  1  0.28882335  0.97026530  0.79997954  1
  C  C22  1  0.71117665  0.97026530  0.20002046  1
  C  C23  1  0.71117665  0.02973470  0.79997954  1
  C  C24  1  0.20353821  0.29274328  0.02969639  1
  C  C25  1  0.79646179  0.29274328  0.97030361  1
  C  C26  1  0.20353821  0.70725672  0.97030361  1
  C  C27  1  0.79646179  0.70725672  0.02969639  1
  C  C28  1  0.47233674  0.29003648  0.21830792  1
  C  C29  1  0.52766326  0.70996352  0.21830792  1
  C  C30  1  0.52766326  0.29003648  0.78169208  1
  C  C31  1  0.47233674  0.70996352  0.78169208  1
  C  C32  1  0.21117665  0.47026530  0.29997954  1
  C  C33  1  0.21117665  0.52973470  0.70002046  1
  C  C34  1  0.78882335  0.52973470  0.29997954  1
  C  C35  1  0.78882335  0.47026530  0.70002046  1
  C  C36  1  0.29646179  0.20725672  0.47030361  1
  C  C37  1  0.70353821  0.20725672  0.52969639  1
  C  C38  1  0.29646179  0.79274328  0.52969639  1
  C  C39  1  0.70353821  0.79274328  0.47030361  1
