# generated using pymatgen
data_CuNiC10
_symmetry_space_group_name_H-M   'P 1'
_cell_length_a   5.04120337
_cell_length_b   5.04120337
_cell_length_c   8.66155400
_cell_angle_alpha   90.00000000
_cell_angle_beta   90.00000000
_cell_angle_gamma   119.99999171
_symmetry_Int_Tables_number   1
_chemical_formula_structural   CuNiC10
_chemical_formula_sum   'Cu1 Ni1 C10'
_cell_volume   190.63161220
_cell_formula_units_Z   1
loop_
 _symmetry_equiv_pos_site_id
 _symmetry_equiv_pos_as_xyz
  1  'x, y, z'
loop_
 _atom_site_type_symbol
 _atom_site_label
 _atom_site_symmetry_multiplicity
 _atom_site_fract_x
 _atom_site_fract_y
 _atom_site_fract_z
 _atom_site_occupancy
  Ni  Ni0  1  0.00000000  0.00000000  0.50000000  1
  Cu  Cu1  1  0.00000000  0.00000000  0.00000000  1
  C  C2  1  0.66666700  0.33333300  0.78707000  1
  C  C3  1  0.33333300  0.66666700  0.21293000  1
  C  C4  1  0.90144600  0.26185400  0.84722800  1
  C  C5  1  0.36040900  0.09855400  0.84722800  1
  C  C6  1  0.63959100  0.73814600  0.15277200  1
  C  C7  1  0.73814600  0.63959100  0.84722800  1
  C  C8  1  0.26185400  0.90144600  0.15277200  1
  C  C9  1  0.09855400  0.36040900  0.15277200  1
  C  C10  1  0.66666700  0.33333300  0.61833200  1
  C  C11  1  0.33333300  0.66666700  0.38166800  1
