# generated using pymatgen
data_Cu2Ni2C45
_symmetry_space_group_name_H-M   'P 1'
_cell_length_a   11.62761389
_cell_length_b   11.62761389
_cell_length_c   8.79156088
_cell_angle_alpha   87.50770190
_cell_angle_beta   87.50770190
_cell_angle_gamma   152.95714213
_symmetry_Int_Tables_number   1
_chemical_formula_structural   Cu2Ni2C45
_chemical_formula_sum   'Cu2 Ni2 C45'
_cell_volume   530.99043112
_cell_formula_units_Z   1
loop_
 _symmetry_equiv_pos_site_id
 _symmetry_equiv_pos_as_xyz
  1  'x, y, z'
loop_
 _atom_site_type_symbol
 _atom_site_label
 _atom_site_symmetry_multiplicity
 _atom_site_fract_x
 _atom_site_fract_y
 _atom_site_fract_z
 _atom_site_occupancy
  C  C0  1  0.50958400  0.93898600  0.32768100  1
  C  C1  1  0.06101400  0.49041600  0.67231900  1
  C  C2  1  0.49041600  0.06101400  0.67231900  1
  C  C3  1  0.93898600  0.50958400  0.32768100  1
  Ni  Ni4  1  0.76316400  0.76316400  0.68988600  1
  Ni  Ni5  1  0.23683600  0.23683600  0.31011400  1
  C  C6  1  0.36000900  0.07234600  0.35913700  1
  C  C7  1  0.20743400  0.34606400  0.64766500  1
  C  C8  1  0.92765400  0.63999100  0.64086300  1
  C  C9  1  0.63999100  0.92765400  0.64086300  1
  C  C10  1  0.79256600  0.65393600  0.35233500  1
  C  C11  1  0.28725300  0.71274700  0.00000000  1
  C  C12  1  0.65393600  0.79256600  0.35233500  1
  C  C13  1  0.00000000  0.00000000  0.00000000  1
  C  C14  1  0.42797900  0.57202100  0.00000000  1
  C  C15  1  0.34606400  0.20743400  0.64766500  1
  C  C16  1  0.07234600  0.36000900  0.35913700  1
  C  C17  1  0.57202100  0.42797900  0.00000000  1
  C  C18  1  0.71274700  0.28725300  0.00000000  1
  Cu  Cu19  1  0.85976200  0.14023800  0.00000000  1
  Cu  Cu20  1  0.14023800  0.85976200  0.00000000  1
  C  C21  1  0.01718500  0.31500400  0.60042200  1
  C  C22  1  0.38220700  0.82735900  0.63460800  1
  C  C23  1  0.06605900  0.06605900  0.64458200  1
  C  C24  1  0.68959800  0.68959800  0.87967900  1
  C  C25  1  0.61779300  0.17264100  0.36539200  1
  C  C26  1  0.98281500  0.68499600  0.39957800  1
  C  C27  1  0.40659300  0.98680600  0.88243500  1
  C  C28  1  0.59340700  0.01319400  0.11756500  1
  C  C29  1  0.31040200  0.31040200  0.12032100  1
  C  C30  1  0.72587300  0.87468300  0.11858300  1
  C  C31  1  0.59206500  0.71232700  0.61650400  1
  C  C32  1  0.68499600  0.98281500  0.39957800  1
  C  C33  1  0.01319400  0.59340700  0.11756500  1
  C  C34  1  0.12531700  0.27412700  0.88141700  1
  C  C35  1  0.28767300  0.40793500  0.38349600  1
  C  C36  1  0.93394100  0.93394100  0.35541800  1
  C  C37  1  0.87468300  0.72587300  0.11858300  1
  C  C38  1  0.27412700  0.12531700  0.88141700  1
  C  C39  1  0.98680600  0.40659300  0.88243500  1
  C  C40  1  0.57703200  0.86411100  0.87765200  1
  C  C41  1  0.42296800  0.13588900  0.12234800  1
  C  C42  1  0.71232700  0.59206500  0.61650400  1
  C  C43  1  0.86411100  0.57703200  0.87765200  1
  C  C44  1  0.82735900  0.38220700  0.63460800  1
  C  C45  1  0.40793500  0.28767300  0.38349600  1
  C  C46  1  0.13588900  0.42296800  0.12234800  1
  C  C47  1  0.31500400  0.01718500  0.60042200  1
  C  C48  1  0.17264100  0.61779300  0.36539200  1
