# generated using pymatgen
data_CuNiC5
_symmetry_space_group_name_H-M   'P 1'
_cell_length_a   3.86390400
_cell_length_b   3.86390400
_cell_length_c   12.58814900
_cell_angle_alpha   90.00000000
_cell_angle_beta   90.00000000
_cell_angle_gamma   90.00000000
_symmetry_Int_Tables_number   1
_chemical_formula_structural   CuNiC5
_chemical_formula_sum   'Cu2 Ni2 C10'
_cell_volume   187.93796941
_cell_formula_units_Z   2
loop_
 _symmetry_equiv_pos_site_id
 _symmetry_equiv_pos_as_xyz
  1  'x, y, z'
loop_
 _atom_site_type_symbol
 _atom_site_label
 _atom_site_symmetry_multiplicity
 _atom_site_fract_x
 _atom_site_fract_y
 _atom_site_fract_z
 _atom_site_occupancy
  Ni  Ni0  1  0.00000000  0.00000000  0.64156600  1
  Ni  Ni1  1  0.00000000  0.00000000  0.35843400  1
  Cu  Cu2  1  0.50000000  0.50000000  0.13946200  1
  Cu  Cu3  1  0.50000000  0.50000000  0.86053800  1
  C  C4  1  0.50000000  0.50000000  0.50000000  1
  C  C5  1  0.00000000  0.00000000  0.00000000  1
  C  C6  1  0.50000000  0.50000000  0.32034700  1
  C  C7  1  0.00000000  0.00000000  0.83884100  1
  C  C8  1  0.00000000  0.00000000  0.16115900  1
  C  C9  1  0.50000000  0.50000000  0.67965300  1
  C  C10  1  0.00000000  0.50000000  0.50000000  1
  C  C11  1  0.50000000  0.00000000  0.00000000  1
  C  C12  1  0.00000000  0.50000000  0.00000000  1
  C  C13  1  0.50000000  0.00000000  0.50000000  1
