# generated using pymatgen
data_Cu(Ni4C3)2
_symmetry_space_group_name_H-M   'P 1'
_cell_length_a   5.11099500
_cell_length_b   10.94879400
_cell_length_c   13.13909300
_cell_angle_alpha   90.00000000
_cell_angle_beta   90.00000000
_cell_angle_gamma   90.00000000
_symmetry_Int_Tables_number   1
_chemical_formula_structural   Cu(Ni4C3)2
_chemical_formula_sum   'Cu4 Ni32 C24'
_cell_volume   735.25354544
_cell_formula_units_Z   4
loop_
 _symmetry_equiv_pos_site_id
 _symmetry_equiv_pos_as_xyz
  1  'x, y, z'
loop_
 _atom_site_type_symbol
 _atom_site_label
 _atom_site_symmetry_multiplicity
 _atom_site_fract_x
 _atom_site_fract_y
 _atom_site_fract_z
 _atom_site_occupancy
  C  C0  1  0.28260500  0.33128500  0.75080200  1
  C  C1  1  0.21739500  0.83128500  0.74919800  1
  C  C2  1  0.78260500  0.66871500  0.74919800  1
  C  C3  1  0.71739500  0.16871500  0.75080200  1
  C  C4  1  0.71739500  0.66871500  0.24919800  1
  C  C5  1  0.78260500  0.16871500  0.25080200  1
  C  C6  1  0.21739500  0.33128500  0.25080200  1
  C  C7  1  0.28260500  0.83128500  0.24919800  1
  C  C8  1  0.18504200  0.33764500  0.98902700  1
  C  C9  1  0.31495800  0.83764500  0.51097300  1
  C  C10  1  0.68504200  0.66235500  0.51097300  1
  C  C11  1  0.81495800  0.16235500  0.98902700  1
  C  C12  1  0.81495800  0.66235500  0.01097300  1
  C  C13  1  0.68504200  0.16235500  0.48902700  1
  C  C14  1  0.31495800  0.33764500  0.48902700  1
  C  C15  1  0.18504200  0.83764500  0.01097300  1
  C  C16  1  0.18370200  0.09183800  0.62559400  1
  C  C17  1  0.31629800  0.59183800  0.87440600  1
  C  C18  1  0.68370200  0.90816200  0.87440600  1
  C  C19  1  0.81629800  0.40816200  0.62559400  1
  C  C20  1  0.81629800  0.90816200  0.37440600  1
  C  C21  1  0.68370200  0.40816200  0.12559400  1
  C  C22  1  0.31629800  0.09183800  0.12559400  1
  C  C23  1  0.18370200  0.59183800  0.37440600  1
  Ni  Ni24  1  0.22373200  0.95138200  0.62013300  1
  Ni  Ni25  1  0.27626800  0.45138200  0.87986700  1
  Ni  Ni26  1  0.72373200  0.04861800  0.87986700  1
  Ni  Ni27  1  0.77626800  0.54861800  0.62013300  1
  Ni  Ni28  1  0.77626800  0.04861800  0.37986700  1
  Ni  Ni29  1  0.72373200  0.54861800  0.12013300  1
  Ni  Ni30  1  0.27626800  0.95138200  0.12013300  1
  Ni  Ni31  1  0.22373200  0.45138200  0.37986700  1
  Ni  Ni32  1  0.31349200  0.14714300  0.71808200  1
  Ni  Ni33  1  0.18650800  0.64714300  0.78191800  1
  Ni  Ni34  1  0.81349200  0.85285700  0.78191800  1
  Ni  Ni35  1  0.68650800  0.35285700  0.71808200  1
  Ni  Ni36  1  0.68650800  0.85285700  0.28191800  1
  Ni  Ni37  1  0.81349200  0.35285700  0.21808200  1
  Ni  Ni38  1  0.18650800  0.14714300  0.21808200  1
  Ni  Ni39  1  0.31349200  0.64714300  0.28191800  1
  Ni  Ni40  1  0.88421300  0.12001900  0.61596400  1
  Ni  Ni41  1  0.61578700  0.62001900  0.88403600  1
  Ni  Ni42  1  0.38421300  0.87998100  0.88403600  1
  Ni  Ni43  1  0.11578700  0.37998100  0.61596400  1
  Ni  Ni44  1  0.11578700  0.87998100  0.38403600  1
  Ni  Ni45  1  0.38421300  0.37998100  0.11596400  1
  Ni  Ni46  1  0.61578700  0.12001900  0.11596400  1
  Ni  Ni47  1  0.88421300  0.62001900  0.38403600  1
  Ni  Ni48  1  0.30455600  0.14956900  0.52452400  1
  Ni  Ni49  1  0.19544400  0.64956900  0.97547600  1
  Ni  Ni50  1  0.80455600  0.85043100  0.97547600  1
  Ni  Ni51  1  0.69544400  0.35043100  0.52452400  1
  Ni  Ni52  1  0.69544400  0.85043100  0.47547600  1
  Ni  Ni53  1  0.80455600  0.35043100  0.02452400  1
  Ni  Ni54  1  0.19544400  0.14956900  0.02452400  1
  Ni  Ni55  1  0.30455600  0.64956900  0.47547600  1
  Cu  Cu56  1  0.00000000  0.25000000  0.86788700  1
  Cu  Cu57  1  0.50000000  0.75000000  0.63211300  1
  Cu  Cu58  1  0.00000000  0.75000000  0.13211300  1
  Cu  Cu59  1  0.50000000  0.25000000  0.36788700  1
