# generated using pymatgen
data_Cu28Ni8C31
_symmetry_space_group_name_H-M   'P 1'
_cell_length_a   11.61635790
_cell_length_b   13.14280049
_cell_length_c   16.73806517
_cell_angle_alpha   90.00000000
_cell_angle_beta   90.00000000
_cell_angle_gamma   90.00000000
_symmetry_Int_Tables_number   1
_chemical_formula_structural   Cu28Ni8C31
_chemical_formula_sum   'Cu112 Ni32 C124'
_cell_volume   2555.42508644
_cell_formula_units_Z   4
loop_
 _symmetry_equiv_pos_site_id
 _symmetry_equiv_pos_as_xyz
  1  'x, y, z'
loop_
 _atom_site_type_symbol
 _atom_site_label
 _atom_site_symmetry_multiplicity
 _atom_site_fract_x
 _atom_site_fract_y
 _atom_site_fract_z
 _atom_site_occupancy
  C  C0  1  0.72677306  0.69799543  0.25412516  1
  C  C1  1  0.22677306  0.30200457  0.74587484  1
  C  C2  1  0.22677306  0.19799543  0.24587484  1
  C  C3  1  0.72677306  0.80200457  0.75412516  1
  C  C4  1  0.04387429  0.75160841  0.17870627  1
  C  C5  1  0.54387429  0.24839159  0.82129373  1
  C  C6  1  0.54387429  0.25160841  0.32129373  1
  C  C7  1  0.04387429  0.74839159  0.67870627  1
  C  C8  1  0.37085287  0.70562380  0.30340843  1
  C  C9  1  0.87085287  0.29437620  0.69659157  1
  C  C10  1  0.87085287  0.20562380  0.19659157  1
  C  C11  1  0.37085287  0.79437620  0.80340843  1
  Ni  Ni12  1  0.94049175  0.97245812  0.05242195  1
  Ni  Ni13  1  0.44049175  0.02754188  0.94757805  1
  Ni  Ni14  1  0.44049175  0.47245812  0.44757805  1
  Ni  Ni15  1  0.94049175  0.52754188  0.55242195  1
  Ni  Ni16  1  0.92990423  0.85093329  0.93646362  1
  Ni  Ni17  1  0.42990423  0.14906671  0.06353638  1
  Ni  Ni18  1  0.42990423  0.35093329  0.56353638  1
  Ni  Ni19  1  0.92990423  0.64906671  0.43646362  1
  Ni  Ni20  1  0.04801937  0.00885957  0.93057673  1
  Ni  Ni21  1  0.54801937  0.99114043  0.06942327  1
  Ni  Ni22  1  0.54801937  0.50885957  0.56942327  1
  Ni  Ni23  1  0.04801937  0.49114043  0.43057673  1
  Ni  Ni24  1  0.15336324  0.96264279  0.05601297  1
  Ni  Ni25  1  0.65336324  0.03735721  0.94398703  1
  Ni  Ni26  1  0.65336324  0.46264279  0.44398703  1
  Ni  Ni27  1  0.15336324  0.53735721  0.55601297  1
  Ni  Ni28  1  0.59981583  0.51602191  0.06926563  1
  Ni  Ni29  1  0.09981583  0.48397809  0.93073437  1
  Ni  Ni30  1  0.09981583  0.01602191  0.43073437  1
  Ni  Ni31  1  0.59981583  0.98397809  0.56926563  1
  Ni  Ni32  1  0.48799814  0.53940430  0.94363899  1
  Ni  Ni33  1  0.98799814  0.46059570  0.05636101  1
  Ni  Ni34  1  0.98799814  0.03940430  0.55636101  1
  Ni  Ni35  1  0.48799814  0.96059570  0.44363899  1
  Ni  Ni36  1  0.70136164  0.55109647  0.94558176  1
  Ni  Ni37  1  0.20136164  0.44890353  0.05441824  1
  Ni  Ni38  1  0.20136164  0.05109647  0.55441824  1
  Ni  Ni39  1  0.70136164  0.94890353  0.44558176  1
  Ni  Ni40  1  0.69945129  0.68067283  0.05462789  1
  Ni  Ni41  1  0.19945129  0.31932717  0.94537211  1
  Ni  Ni42  1  0.19945129  0.18067283  0.44537211  1
  Ni  Ni43  1  0.69945129  0.81932717  0.55462789  1
  Cu  Cu44  1  0.78001187  0.01212749  0.08213434  1
  Cu  Cu45  1  0.28001187  0.98787251  0.91786566  1
  Cu  Cu46  1  0.28001187  0.51212749  0.41786566  1
  Cu  Cu47  1  0.78001187  0.48787251  0.58213434  1
  Cu  Cu48  1  0.83126155  0.72513595  0.92998760  1
  Cu  Cu49  1  0.33126155  0.27486405  0.07001240  1
  Cu  Cu50  1  0.33126155  0.22513595  0.57001240  1
  Cu  Cu51  1  0.83126155  0.77486405  0.42998760  1
  Cu  Cu52  1  0.13500992  0.12863577  0.88364274  1
  Cu  Cu53  1  0.63500992  0.87136423  0.11635726  1
  Cu  Cu54  1  0.63500992  0.62863577  0.61635726  1
  Cu  Cu55  1  0.13500992  0.37136423  0.38364274  1
  Cu  Cu56  1  0.32658163  0.94665519  0.06696996  1
  Cu  Cu57  1  0.82658163  0.05334481  0.93303004  1
  Cu  Cu58  1  0.82658163  0.44665519  0.43303004  1
  Cu  Cu59  1  0.32658163  0.55334481  0.56696996  1
  Cu  Cu60  1  0.55341472  0.38527539  0.12675422  1
  Cu  Cu61  1  0.05341472  0.61472461  0.87324578  1
  Cu  Cu62  1  0.05341472  0.88527539  0.37324578  1
  Cu  Cu63  1  0.55341472  0.11472461  0.62675422  1
  Cu  Cu64  1  0.31563869  0.53430552  0.93143965  1
  Cu  Cu65  1  0.81563869  0.46569448  0.06856035  1
  Cu  Cu66  1  0.81563869  0.03430552  0.56856035  1
  Cu  Cu67  1  0.31563869  0.96569448  0.43143965  1
  Cu  Cu68  1  0.86511837  0.51241541  0.91967560  1
  Cu  Cu69  1  0.36511837  0.48758459  0.08032440  1
  Cu  Cu70  1  0.36511837  0.01241541  0.58032440  1
  Cu  Cu71  1  0.86511837  0.98758459  0.41967560  1
  Cu  Cu72  1  0.79789404  0.80860052  0.05878761  1
  Cu  Cu73  1  0.29789404  0.19139948  0.94121239  1
  Cu  Cu74  1  0.29789404  0.30860052  0.44121239  1
  Cu  Cu75  1  0.79789404  0.69139948  0.55878761  1
  Cu  Cu76  1  0.54283944  0.52871665  0.22048132  1
  Cu  Cu77  1  0.04283944  0.47128335  0.77951868  1
  Cu  Cu78  1  0.04283944  0.02871665  0.27951868  1
  Cu  Cu79  1  0.54283944  0.97128335  0.72048132  1
  Cu  Cu80  1  0.53828308  0.52532605  0.31461835  1
  Cu  Cu81  1  0.03828308  0.47467395  0.68538165  1
  Cu  Cu82  1  0.03828308  0.02532605  0.18538165  1
  Cu  Cu83  1  0.53828308  0.97467395  0.81461835  1
  Cu  Cu84  1  0.54342339  0.86990390  0.22209981  1
  Cu  Cu85  1  0.04342339  0.13009610  0.77790019  1
  Cu  Cu86  1  0.04342339  0.36990390  0.27790019  1
  Cu  Cu87  1  0.54342339  0.63009610  0.72209981  1
  Cu  Cu88  1  0.55995700  0.87511023  0.31708599  1
  Cu  Cu89  1  0.05995700  0.12488977  0.68291401  1
  Cu  Cu90  1  0.05995700  0.37511023  0.18291401  1
  Cu  Cu91  1  0.55995700  0.62488977  0.81708599  1
  Cu  Cu92  1  0.19468616  0.74140061  0.44857847  1
  Cu  Cu93  1  0.69468616  0.25859939  0.55142153  1
  Cu  Cu94  1  0.69468616  0.24140061  0.05142153  1
  Cu  Cu95  1  0.19468616  0.75859939  0.94857847  1
  Cu  Cu96  1  0.13151807  0.67168189  0.38644370  1
  Cu  Cu97  1  0.63151807  0.32831811  0.61355630  1
  Cu  Cu98  1  0.63151807  0.17168189  0.11355630  1
  Cu  Cu99  1  0.13151807  0.82831811  0.88644370  1
  Cu  Cu100  1  0.37399344  0.62910867  0.12417688  1
  Cu  Cu101  1  0.87399344  0.37089133  0.87582312  1
  Cu  Cu102  1  0.87399344  0.12910867  0.37582312  1
  Cu  Cu103  1  0.37399344  0.87089133  0.62417688  1
  Cu  Cu104  1  0.46080022  0.71666005  0.11757603  1
  Cu  Cu105  1  0.96080022  0.28333995  0.88242397  1
  Cu  Cu106  1  0.96080022  0.21666005  0.38242397  1
  Cu  Cu107  1  0.46080022  0.78333995  0.61757603  1
  Cu  Cu108  1  0.85341019  0.92373497  0.19791771  1
  Cu  Cu109  1  0.35341019  0.07626503  0.80208229  1
  Cu  Cu110  1  0.35341019  0.42373497  0.30208229  1
  Cu  Cu111  1  0.85341019  0.57626503  0.69791771  1
  Cu  Cu112  1  0.84895645  0.90509386  0.29122971  1
  Cu  Cu113  1  0.34895645  0.09490614  0.70877029  1
  Cu  Cu114  1  0.34895645  0.40509386  0.20877029  1
  Cu  Cu115  1  0.84895645  0.59490614  0.79122971  1
  Cu  Cu116  1  0.91362626  0.52463814  0.20344497  1
  Cu  Cu117  1  0.41362626  0.47536186  0.79655503  1
  Cu  Cu118  1  0.41362626  0.02463814  0.29655503  1
  Cu  Cu119  1  0.91362626  0.97536186  0.70344497  1
  Cu  Cu120  1  0.95137513  0.57078295  0.28869717  1
  Cu  Cu121  1  0.45137513  0.42921705  0.71130283  1
  Cu  Cu122  1  0.45137513  0.07078295  0.21130283  1
  Cu  Cu123  1  0.95137513  0.92921705  0.78869717  1
  Cu  Cu124  1  0.19871778  0.89543793  0.28709753  1
  Cu  Cu125  1  0.69871778  0.10456207  0.71290247  1
  Cu  Cu126  1  0.69871778  0.39543793  0.21290247  1
  Cu  Cu127  1  0.19871778  0.60456207  0.78709753  1
  Cu  Cu128  1  0.25002075  0.89437906  0.19819021  1
  Cu  Cu129  1  0.75002075  0.10562094  0.80180979  1
  Cu  Cu130  1  0.75002075  0.39437906  0.30180979  1
  Cu  Cu131  1  0.25002075  0.60562094  0.69819021  1
  Cu  Cu132  1  0.23278784  0.54867220  0.19184391  1
  Cu  Cu133  1  0.73278784  0.45132780  0.80815609  1
  Cu  Cu134  1  0.73278784  0.04867220  0.30815609  1
  Cu  Cu135  1  0.23278784  0.95132780  0.69184391  1
  Cu  Cu136  1  0.16859296  0.54259627  0.27428284  1
  Cu  Cu137  1  0.66859296  0.45740373  0.72571716  1
  Cu  Cu138  1  0.66859296  0.04259627  0.22571716  1
  Cu  Cu139  1  0.16859296  0.95740373  0.77428284  1
  Cu  Cu140  1  0.48792813  0.65470161  0.46725825  1
  Cu  Cu141  1  0.98792813  0.34529839  0.53274175  1
  Cu  Cu142  1  0.98792813  0.15470161  0.03274175  1
  Cu  Cu143  1  0.48792813  0.84529839  0.96725825  1
  Cu  Cu144  1  0.57054443  0.74610460  0.43898907  1
  Cu  Cu145  1  0.07054443  0.25389540  0.56101093  1
  Cu  Cu146  1  0.07054443  0.24610460  0.06101093  1
  Cu  Cu147  1  0.57054443  0.75389540  0.93898907  1
  Cu  Cu148  1  0.25560259  0.72491012  0.07088684  1
  Cu  Cu149  1  0.75560259  0.27508988  0.92911316  1
  Cu  Cu150  1  0.75560259  0.22491012  0.42911316  1
  Cu  Cu151  1  0.25560259  0.77508988  0.57088684  1
  Cu  Cu152  1  0.18498450  0.63990871  0.02497465  1
  Cu  Cu153  1  0.68498450  0.36009129  0.97502535  1
  Cu  Cu154  1  0.68498450  0.13990871  0.47502535  1
  Cu  Cu155  1  0.18498450  0.86009129  0.52497465  1
  C  C156  1  0.95886175  0.04633581  0.98634344  1
  C  C157  1  0.45886175  0.95366419  0.01365656  1
  C  C158  1  0.45886175  0.54633581  0.51365656  1
  C  C159  1  0.95886175  0.45366419  0.48634344  1
  C  C160  1  0.90243444  0.87260517  0.01489471  1
  C  C161  1  0.40243444  0.12739483  0.98510529  1
  C  C162  1  0.40243444  0.37260517  0.48510529  1
  C  C163  1  0.90243444  0.62739483  0.51489471  1
  C  C164  1  0.00472449  0.91218833  0.89291737  1
  C  C165  1  0.50472449  0.08781167  0.10708263  1
  C  C166  1  0.50472449  0.41218833  0.60708263  1
  C  C167  1  0.00472449  0.58781167  0.39291737  1
  C  C168  1  0.15620880  0.98664391  0.97630133  1
  C  C169  1  0.65620880  0.01335609  0.02369867  1
  C  C170  1  0.65620880  0.48664391  0.52369867  1
  C  C171  1  0.15620880  0.51335609  0.47630133  1
  C  C172  1  0.05049406  0.95509462  0.09713814  1
  C  C173  1  0.55049406  0.04490538  0.90286186  1
  C  C174  1  0.55049406  0.45509462  0.40286186  1
  C  C175  1  0.05049406  0.54490538  0.59713814  1
  C  C176  1  0.85561776  0.00771879  0.10985581  1
  C  C177  1  0.35561776  0.99228121  0.89014419  1
  C  C178  1  0.35561776  0.50771879  0.39014419  1
  C  C179  1  0.85561776  0.49228121  0.60985581  1
  C  C180  1  0.88529034  0.76758694  0.89748105  1
  C  C181  1  0.38529034  0.23241306  0.10251895  1
  C  C182  1  0.38529034  0.26758694  0.60251895  1
  C  C183  1  0.88529034  0.73241306  0.39748105  1
  C  C184  1  0.07649348  0.07892773  0.86613607  1
  C  C185  1  0.57649348  0.92107227  0.13386393  1
  C  C186  1  0.57649348  0.57892773  0.63386393  1
  C  C187  1  0.07649348  0.42107227  0.36613607  1
  C  C188  1  0.25366171  0.94613085  0.09889275  1
  C  C189  1  0.75366171  0.05386915  0.90110725  1
  C  C190  1  0.75366171  0.44613085  0.40110725  1
  C  C191  1  0.25366171  0.55386915  0.59889275  1
  C  C192  1  0.69137845  0.48104618  0.01420752  1
  C  C193  1  0.19137845  0.51895382  0.98579248  1
  C  C194  1  0.19137845  0.98104618  0.48579248  1
  C  C195  1  0.69137845  0.01895382  0.51420752  1
  C  C196  1  0.48728325  0.51915626  0.02468606  1
  C  C197  1  0.98728325  0.48084374  0.97531394  1
  C  C198  1  0.98728325  0.01915626  0.47531394  1
  C  C199  1  0.48728325  0.98084374  0.52468606  1
  C  C200  1  0.58973736  0.55620343  0.90262202  1
  C  C201  1  0.08973736  0.44379657  0.09737798  1
  C  C202  1  0.08973736  0.05620343  0.59737798  1
  C  C203  1  0.58973736  0.94379657  0.40262202  1
  C  C204  1  0.73057005  0.65651156  0.97724504  1
  C  C205  1  0.23057005  0.34348844  0.02275496  1
  C  C206  1  0.23057005  0.15651156  0.52275496  1
  C  C207  1  0.73057005  0.84348844  0.47724504  1
  C  C208  1  0.62911713  0.61963505  0.09954644  1
  C  C209  1  0.12911713  0.38036495  0.90045356  1
  C  C210  1  0.12911713  0.11963505  0.40045356  1
  C  C211  1  0.62911713  0.88036495  0.59954644  1
  C  C212  1  0.58775481  0.45082874  0.13990911  1
  C  C213  1  0.08775481  0.54917126  0.86009089  1
  C  C214  1  0.08775481  0.95082874  0.36009089  1
  C  C215  1  0.58775481  0.04917126  0.63990911  1
  C  C216  1  0.38795947  0.54355539  0.89949503  1
  C  C217  1  0.88795947  0.45644461  0.10050497  1
  C  C218  1  0.88795947  0.04355539  0.60050497  1
  C  C219  1  0.38795947  0.95644461  0.39949503  1
  C  C220  1  0.79137852  0.51916090  0.88951616  1
  C  C221  1  0.29137852  0.48083910  0.11048384  1
  C  C222  1  0.29137852  0.01916090  0.61048384  1
  C  C223  1  0.79137852  0.98083910  0.38951616  1
  C  C224  1  0.73732844  0.77017973  0.08970199  1
  C  C225  1  0.23732844  0.22982027  0.91029801  1
  C  C226  1  0.23732844  0.27017973  0.41029801  1
  C  C227  1  0.73732844  0.72982027  0.58970199  1
  C  C228  1  0.53241692  0.57246666  0.26830193  1
  C  C229  1  0.03241692  0.42753334  0.73169807  1
  C  C230  1  0.03241692  0.07246666  0.23169807  1
  C  C231  1  0.53241692  0.92753334  0.76830193  1
  C  C232  1  0.53856188  0.82888435  0.27232271  1
  C  C233  1  0.03856188  0.17111565  0.72767729  1
  C  C234  1  0.03856188  0.32888435  0.22767729  1
  C  C235  1  0.53856188  0.67111565  0.77232271  1
  C  C236  1  0.19367929  0.72258026  0.39070520  1
  C  C237  1  0.69367929  0.27741974  0.60929480  1
  C  C238  1  0.69367929  0.22258026  0.10929480  1
  C  C239  1  0.19367929  0.77741974  0.89070520  1
  C  C240  1  0.38434345  0.70089169  0.13865367  1
  C  C241  1  0.88434345  0.29910831  0.86134633  1
  C  C242  1  0.88434345  0.20089169  0.36134633  1
  C  C243  1  0.38434345  0.79910831  0.63865367  1
  C  C244  1  0.86235614  0.87088855  0.23993420  1
  C  C245  1  0.36235614  0.12911145  0.76006580  1
  C  C246  1  0.36235614  0.37088855  0.26006580  1
  C  C247  1  0.86235614  0.62911145  0.73993420  1
  C  C248  1  0.91963557  0.58708367  0.23552826  1
  C  C249  1  0.41963557  0.41291633  0.76447174  1
  C  C250  1  0.41963557  0.08708367  0.26447174  1
  C  C251  1  0.91963557  0.91291633  0.73552826  1
  C  C252  1  0.23681796  0.85242135  0.24661280  1
  C  C253  1  0.73681796  0.14757865  0.75338720  1
  C  C254  1  0.73681796  0.35242135  0.25338720  1
  C  C255  1  0.23681796  0.64757865  0.74661280  1
  C  C256  1  0.20944376  0.58980050  0.23906987  1
  C  C257  1  0.70944376  0.41019950  0.76093013  1
  C  C258  1  0.70944376  0.08980050  0.26093013  1
  C  C259  1  0.20944376  0.91019950  0.73906987  1
  C  C260  1  0.49469825  0.71634617  0.43146486  1
  C  C261  1  0.99469825  0.28365383  0.56853514  1
  C  C262  1  0.99469825  0.21634617  0.06853514  1
  C  C263  1  0.49469825  0.78365383  0.93146486  1
  C  C264  1  0.18206814  0.71271519  0.04287257  1
  C  C265  1  0.68206814  0.28728481  0.95712743  1
  C  C266  1  0.68206814  0.21271519  0.45712743  1
  C  C267  1  0.18206814  0.78728481  0.54287257  1
