# generated using pymatgen
data_Cu6NiC2
_symmetry_space_group_name_H-M   'P 1'
_cell_length_a   6.66243200
_cell_length_b   10.74227000
_cell_length_c   17.97035600
_cell_angle_alpha   90.00000000
_cell_angle_beta   90.00000000
_cell_angle_gamma   90.00000000
_symmetry_Int_Tables_number   1
_chemical_formula_structural   Cu6NiC2
_chemical_formula_sum   'Cu48 Ni8 C16'
_cell_volume   1286.13197070
_cell_formula_units_Z   8
loop_
 _symmetry_equiv_pos_site_id
 _symmetry_equiv_pos_as_xyz
  1  'x, y, z'
loop_
 _atom_site_type_symbol
 _atom_site_label
 _atom_site_symmetry_multiplicity
 _atom_site_fract_x
 _atom_site_fract_y
 _atom_site_fract_z
 _atom_site_occupancy
  C  C0  1  0.74941500  0.47661400  0.41161700  1
  C  C1  1  0.24941500  0.02338600  0.58838300  1
  C  C2  1  0.25058500  0.97661400  0.08838300  1
  C  C3  1  0.75058500  0.52338600  0.91161700  1
  C  C4  1  0.25058500  0.52338600  0.58838300  1
  C  C5  1  0.75058500  0.97661400  0.41161700  1
  C  C6  1  0.74941500  0.02338600  0.91161700  1
  C  C7  1  0.24941500  0.47661400  0.08838300  1
  C  C8  1  0.50608400  0.22399300  0.24774600  1
  C  C9  1  0.00608400  0.27600700  0.75225400  1
  C  C10  1  0.49391600  0.72399300  0.25225400  1
  C  C11  1  0.99391600  0.77600700  0.74774600  1
  C  C12  1  0.49391600  0.77600700  0.75225400  1
  C  C13  1  0.99391600  0.72399300  0.24774600  1
  C  C14  1  0.50608400  0.27600700  0.74774600  1
  C  C15  1  0.00608400  0.22399300  0.25225400  1
  Ni  Ni16  1  0.76234000  0.27960600  0.59752400  1
  Ni  Ni17  1  0.26234000  0.22039400  0.40247600  1
  Ni  Ni18  1  0.23766000  0.77960600  0.90247600  1
  Ni  Ni19  1  0.73766000  0.72039400  0.09752400  1
  Ni  Ni20  1  0.23766000  0.72039400  0.40247600  1
  Ni  Ni21  1  0.73766000  0.77960600  0.59752400  1
  Ni  Ni22  1  0.76234000  0.22039400  0.09752400  1
  Ni  Ni23  1  0.26234000  0.27960600  0.90247600  1
  Cu  Cu24  1  0.76963300  0.20645800  0.52968800  1
  Cu  Cu25  1  0.26963300  0.29354200  0.47031200  1
  Cu  Cu26  1  0.23036700  0.70645800  0.97031200  1
  Cu  Cu27  1  0.73036700  0.79354200  0.02968800  1
  Cu  Cu28  1  0.23036700  0.79354200  0.47031200  1
  Cu  Cu29  1  0.73036700  0.70645800  0.52968800  1
  Cu  Cu30  1  0.76963300  0.29354200  0.02968800  1
  Cu  Cu31  1  0.26963300  0.20645800  0.97031200  1
  Cu  Cu32  1  0.75714000  0.41425200  0.58708100  1
  Cu  Cu33  1  0.25714000  0.08574800  0.41291900  1
  Cu  Cu34  1  0.24286000  0.91425200  0.91291900  1
  Cu  Cu35  1  0.74286000  0.58574800  0.08708100  1
  Cu  Cu36  1  0.24286000  0.58574800  0.41291900  1
  Cu  Cu37  1  0.74286000  0.91425200  0.58708100  1
  Cu  Cu38  1  0.75714000  0.08574800  0.08708100  1
  Cu  Cu39  1  0.25714000  0.41425200  0.91291900  1
  Cu  Cu40  1  0.25812300  0.28304100  0.22754900  1
  Cu  Cu41  1  0.75812300  0.21695900  0.77245100  1
  Cu  Cu42  1  0.74187700  0.78304100  0.27245100  1
  Cu  Cu43  1  0.24187700  0.71695900  0.72754900  1
  Cu  Cu44  1  0.74187700  0.71695900  0.77245100  1
  Cu  Cu45  1  0.24187700  0.78304100  0.22754900  1
  Cu  Cu46  1  0.25812300  0.21695900  0.72754900  1
  Cu  Cu47  1  0.75812300  0.28304100  0.27245100  1
  Cu  Cu48  1  0.57680900  0.23842700  0.64277500  1
  Cu  Cu49  1  0.07680900  0.26157300  0.35722500  1
  Cu  Cu50  1  0.42319100  0.73842700  0.85722500  1
  Cu  Cu51  1  0.92319100  0.76157300  0.14277500  1
  Cu  Cu52  1  0.42319100  0.76157300  0.35722500  1
  Cu  Cu53  1  0.92319100  0.73842700  0.64277500  1
  Cu  Cu54  1  0.57680900  0.26157300  0.14277500  1
  Cu  Cu55  1  0.07680900  0.23842700  0.85722500  1
  Cu  Cu56  1  0.94643600  0.24461300  0.64509800  1
  Cu  Cu57  1  0.44643600  0.25538700  0.35490200  1
  Cu  Cu58  1  0.05356400  0.74461300  0.85490200  1
  Cu  Cu59  1  0.55356400  0.75538700  0.14509800  1
  Cu  Cu60  1  0.05356400  0.75538700  0.35490200  1
  Cu  Cu61  1  0.55356400  0.74461300  0.64509800  1
  Cu  Cu62  1  0.94643600  0.25538700  0.14509800  1
  Cu  Cu63  1  0.44643600  0.24461300  0.85490200  1
  Cu  Cu64  1  0.50268500  0.07328700  0.24573400  1
  Cu  Cu65  1  0.00268500  0.42671300  0.75426600  1
  Cu  Cu66  1  0.49731500  0.57328700  0.25426600  1
  Cu  Cu67  1  0.99731500  0.92671300  0.74573400  1
  Cu  Cu68  1  0.49731500  0.92671300  0.75426600  1
  Cu  Cu69  1  0.99731500  0.57328700  0.24573400  1
  Cu  Cu70  1  0.50268500  0.42671300  0.74573400  1
  Cu  Cu71  1  0.00268500  0.07328700  0.25426600  1
