# generated using pymatgen
data_Cu3Ni2C15
_symmetry_space_group_name_H-M   'P 1'
_cell_length_a   14.63996800
_cell_length_b   7.01679500
_cell_length_c   10.70513800
_cell_angle_alpha   90.00000000
_cell_angle_beta   90.00000000
_cell_angle_gamma   90.00000000
_symmetry_Int_Tables_number   1
_chemical_formula_structural   Cu3Ni2C15
_chemical_formula_sum   'Cu12 Ni8 C60'
_cell_volume   1099.69230502
_cell_formula_units_Z   4
loop_
 _symmetry_equiv_pos_site_id
 _symmetry_equiv_pos_as_xyz
  1  'x, y, z'
loop_
 _atom_site_type_symbol
 _atom_site_label
 _atom_site_symmetry_multiplicity
 _atom_site_fract_x
 _atom_site_fract_y
 _atom_site_fract_z
 _atom_site_occupancy
  C  C0  1  0.00000000  0.00000000  0.00000000  1
  C  C1  1  0.50000000  0.50000000  0.50000000  1
  C  C2  1  0.00000000  0.50000000  0.00000000  1
  C  C3  1  0.50000000  0.00000000  0.50000000  1
  Ni  Ni4  1  0.14659600  0.25000000  0.74950700  1
  Ni  Ni5  1  0.64659600  0.25000000  0.75049300  1
  Ni  Ni6  1  0.85340400  0.75000000  0.25049300  1
  Ni  Ni7  1  0.35340400  0.75000000  0.24950700  1
  Ni  Ni8  1  0.90166100  0.75000000  0.73818700  1
  Ni  Ni9  1  0.40166100  0.75000000  0.76181300  1
  Ni  Ni10  1  0.09833900  0.25000000  0.26181300  1
  Ni  Ni11  1  0.59833900  0.25000000  0.23818700  1
  Cu  Cu12  1  0.15413100  0.62892900  0.58263600  1
  Cu  Cu13  1  0.65413100  0.87107100  0.91736400  1
  Cu  Cu14  1  0.84586900  0.12892900  0.41736400  1
  Cu  Cu15  1  0.34586900  0.37107100  0.08263600  1
  Cu  Cu16  1  0.84586900  0.37107100  0.41736400  1
  Cu  Cu17  1  0.34586900  0.12892900  0.08263600  1
  Cu  Cu18  1  0.15413100  0.87107100  0.58263600  1
  Cu  Cu19  1  0.65413100  0.62892900  0.91736400  1
  Cu  Cu20  1  0.08503400  0.75000000  0.49225700  1
  Cu  Cu21  1  0.58503400  0.75000000  0.00774300  1
  Cu  Cu22  1  0.91496600  0.25000000  0.50774300  1
  Cu  Cu23  1  0.41496600  0.25000000  0.99225700  1
  C  C24  1  0.14511300  0.75000000  0.53217900  1
  C  C25  1  0.64511300  0.75000000  0.96782100  1
  C  C26  1  0.85488700  0.25000000  0.46782100  1
  C  C27  1  0.35488700  0.25000000  0.03217900  1
  C  C28  1  0.90840900  0.93060100  0.86256900  1
  C  C29  1  0.40840900  0.56939900  0.63743100  1
  C  C30  1  0.09159100  0.43060100  0.13743100  1
  C  C31  1  0.59159100  0.06939900  0.36256900  1
  C  C32  1  0.09159100  0.06939900  0.13743100  1
  C  C33  1  0.59159100  0.43060100  0.36256900  1
  C  C34  1  0.90840900  0.56939900  0.86256900  1
  C  C35  1  0.40840900  0.93060100  0.63743100  1
  C  C36  1  0.12277600  0.06957200  0.86213500  1
  C  C37  1  0.62277600  0.43042800  0.63786500  1
  C  C38  1  0.87722400  0.56957200  0.13786500  1
  C  C39  1  0.37722400  0.93042800  0.36213500  1
  C  C40  1  0.87722400  0.93042800  0.13786500  1
  C  C41  1  0.37722400  0.56957200  0.36213500  1
  C  C42  1  0.12277600  0.43042800  0.86213500  1
  C  C43  1  0.62277600  0.06957200  0.63786500  1
  C  C44  1  0.04522800  0.75000000  0.01130100  1
  C  C45  1  0.54522800  0.75000000  0.48869900  1
  C  C46  1  0.95477200  0.25000000  0.98869900  1
  C  C47  1  0.45477200  0.25000000  0.51130100  1
  C  C48  1  0.26132000  0.25000000  0.79019000  1
  C  C49  1  0.76132000  0.25000000  0.70981000  1
  C  C50  1  0.73868000  0.75000000  0.20981000  1
  C  C51  1  0.23868000  0.75000000  0.29019000  1
  C  C52  1  0.17012600  0.42793100  0.63278600  1
  C  C53  1  0.67012600  0.07206900  0.86721400  1
  C  C54  1  0.82987400  0.92793100  0.36721400  1
  C  C55  1  0.32987400  0.57206900  0.13278600  1
  C  C56  1  0.82987400  0.57206900  0.36721400  1
  C  C57  1  0.32987400  0.92793100  0.13278600  1
  C  C58  1  0.17012600  0.07206900  0.63278600  1
  C  C59  1  0.67012600  0.42793100  0.86721400  1
  C  C60  1  0.03142200  0.25000000  0.70279000  1
  C  C61  1  0.53142200  0.25000000  0.79721000  1
  C  C62  1  0.96857800  0.75000000  0.29721000  1
  C  C63  1  0.46857800  0.75000000  0.20279000  1
  C  C64  1  0.89711500  0.56905700  0.62614400  1
  C  C65  1  0.39711500  0.93094300  0.87385600  1
  C  C66  1  0.10288500  0.06905700  0.37385600  1
  C  C67  1  0.60288500  0.43094300  0.12614400  1
  C  C68  1  0.10288500  0.43094300  0.37385600  1
  C  C69  1  0.60288500  0.06905700  0.12614400  1
  C  C70  1  0.89711500  0.93094300  0.62614400  1
  C  C71  1  0.39711500  0.56905700  0.87385600  1
  C  C72  1  0.02177400  0.75000000  0.73324800  1
  C  C73  1  0.52177400  0.75000000  0.76675200  1
  C  C74  1  0.97822600  0.25000000  0.26675200  1
  C  C75  1  0.47822600  0.25000000  0.23324800  1
  C  C76  1  0.78348400  0.75000000  0.75909100  1
  C  C77  1  0.28348400  0.75000000  0.74090900  1
  C  C78  1  0.21651600  0.25000000  0.24090900  1
  C  C79  1  0.71651600  0.25000000  0.25909100  1
