# generated using pymatgen
data_CuNiC11
_symmetry_space_group_name_H-M   'P 1'
_cell_length_a   8.23418600
_cell_length_b   9.76557896
_cell_length_c   10.73865124
_cell_angle_alpha   105.36891344
_cell_angle_beta   90.00000000
_cell_angle_gamma   90.00000000
_symmetry_Int_Tables_number   1
_chemical_formula_structural   CuNiC11
_chemical_formula_sum   'Cu4 Ni4 C44'
_cell_volume   832.63230059
_cell_formula_units_Z   4
loop_
 _symmetry_equiv_pos_site_id
 _symmetry_equiv_pos_as_xyz
  1  'x, y, z'
loop_
 _atom_site_type_symbol
 _atom_site_label
 _atom_site_symmetry_multiplicity
 _atom_site_fract_x
 _atom_site_fract_y
 _atom_site_fract_z
 _atom_site_occupancy
  Ni  Ni0  1  0.51721200  0.99570300  0.67876800  1
  Ni  Ni1  1  0.01721200  0.00429700  0.82123200  1
  Ni  Ni2  1  0.48278800  0.00429700  0.32123200  1
  Ni  Ni3  1  0.98278800  0.99570300  0.17876800  1
  Cu  Cu4  1  0.35984200  0.91086300  0.93966300  1
  Cu  Cu5  1  0.85984200  0.08913700  0.56033700  1
  Cu  Cu6  1  0.64015800  0.08913700  0.06033700  1
  Cu  Cu7  1  0.14015800  0.91086300  0.43966300  1
  C  C8  1  0.53753400  0.56692000  0.90042600  1
  C  C9  1  0.03753400  0.43308000  0.59957400  1
  C  C10  1  0.46246600  0.43308000  0.09957400  1
  C  C11  1  0.96246600  0.56692000  0.40042600  1
  C  C12  1  0.28996900  0.93387300  0.78338600  1
  C  C13  1  0.78996900  0.06612700  0.71661400  1
  C  C14  1  0.71003100  0.06612700  0.21661400  1
  C  C15  1  0.21003100  0.93387300  0.28338600  1
  C  C16  1  0.95903700  0.81865800  0.76789100  1
  C  C17  1  0.45903700  0.18134200  0.73210900  1
  C  C18  1  0.04096300  0.18134200  0.23210900  1
  C  C19  1  0.54096300  0.81865800  0.26789100  1
  C  C20  1  0.57691800  0.81026100  0.62968100  1
  C  C21  1  0.07691800  0.18973900  0.87031900  1
  C  C22  1  0.42308200  0.18973900  0.37031900  1
  C  C23  1  0.92308200  0.81026100  0.12968100  1
  C  C24  1  0.05821800  0.01206400  0.60495800  1
  C  C25  1  0.55821800  0.98793600  0.89504200  1
  C  C26  1  0.94178200  0.98793600  0.39504200  1
  C  C27  1  0.44178200  0.01206400  0.10495800  1
  C  C28  1  0.65426400  0.04349000  0.49953900  1
  C  C29  1  0.15426400  0.95651000  0.00046100  1
  C  C30  1  0.34573600  0.95651000  0.50046100  1
  C  C31  1  0.84573600  0.04349000  0.99953900  1
  C  C32  1  0.89531800  0.26200300  0.57497300  1
  C  C33  1  0.39531800  0.73799700  0.92502700  1
  C  C34  1  0.10468200  0.73799700  0.42502700  1
  C  C35  1  0.60468200  0.26200300  0.07497300  1
  C  C36  1  0.42405600  0.41515900  0.92856500  1
  C  C37  1  0.92405600  0.58484100  0.57143500  1
  C  C38  1  0.57594400  0.58484100  0.07143500  1
  C  C39  1  0.07594400  0.41515900  0.42856500  1
  C  C40  1  0.52976600  0.51427900  0.71590500  1
  C  C41  1  0.02976600  0.48572100  0.78409500  1
  C  C42  1  0.47023400  0.48572100  0.28409500  1
  C  C43  1  0.97023400  0.51427900  0.21590500  1
  C  C44  1  0.80635800  0.59318900  0.88201400  1
  C  C45  1  0.30635800  0.40681100  0.61798600  1
  C  C46  1  0.19364200  0.40681100  0.11798600  1
  C  C47  1  0.69364200  0.59318900  0.38201400  1
  C  C48  1  0.88074500  0.47051600  0.83633300  1
  C  C49  1  0.38074500  0.52948400  0.66366700  1
  C  C50  1  0.11925500  0.52948400  0.16366700  1
  C  C51  1  0.61925500  0.47051600  0.33633300  1
