# generated using pymatgen
data_CuNi9C16
_symmetry_space_group_name_H-M   'P 1'
_cell_length_a   17.71495090
_cell_length_b   17.71495090
_cell_length_c   17.71495090
_cell_angle_alpha   90.00000000
_cell_angle_beta   90.00000000
_cell_angle_gamma   90.00000000
_symmetry_Int_Tables_number   1
_chemical_formula_structural   CuNi9C16
_chemical_formula_sum   'Cu8 Ni72 C128'
_cell_volume   5559.29677514
_cell_formula_units_Z   8
loop_
 _symmetry_equiv_pos_site_id
 _symmetry_equiv_pos_as_xyz
  1  'x, y, z'
loop_
 _atom_site_type_symbol
 _atom_site_label
 _atom_site_symmetry_multiplicity
 _atom_site_fract_x
 _atom_site_fract_y
 _atom_site_fract_z
 _atom_site_occupancy
  C  C0  1  0.14997471  0.51207489  0.15934379  1
  C  C1  1  0.85002529  0.01207489  0.34065621  1
  C  C2  1  0.35002529  0.48792511  0.65934379  1
  C  C3  1  0.64997471  0.98792511  0.84065621  1
  C  C4  1  0.15934379  0.14997471  0.51207489  1
  C  C5  1  0.34065621  0.85002529  0.01207489  1
  C  C6  1  0.65934379  0.35002529  0.48792511  1
  C  C7  1  0.84065621  0.64997471  0.98792511  1
  C  C8  1  0.51207489  0.15934379  0.14997471  1
  C  C9  1  0.01207489  0.34065621  0.85002529  1
  C  C10  1  0.48792511  0.65934379  0.35002529  1
  C  C11  1  0.98792511  0.84065621  0.64997471  1
  C  C12  1  0.85002529  0.48792511  0.84065621  1
  C  C13  1  0.14997471  0.98792511  0.65934379  1
  C  C14  1  0.64997471  0.51207489  0.34065621  1
  C  C15  1  0.35002529  0.01207489  0.15934379  1
  C  C16  1  0.84065621  0.85002529  0.48792511  1
  C  C17  1  0.65934379  0.14997471  0.98792511  1
  C  C18  1  0.34065621  0.64997471  0.51207489  1
  C  C19  1  0.15934379  0.35002529  0.01207489  1
  C  C20  1  0.48792511  0.84065621  0.85002529  1
  C  C21  1  0.98792511  0.65934379  0.14997471  1
  C  C22  1  0.51207489  0.34065621  0.64997471  1
  C  C23  1  0.01207489  0.15934379  0.35002529  1
  C  C24  1  -0.00000000  0.00000000  0.50000000  1
  C  C25  1  -0.00000000  0.50000000  -0.00000000  1
  C  C26  1  0.50000000  0.00000000  -0.00000000  1
  C  C27  1  0.50000000  0.50000000  0.50000000  1
  Ni  Ni28  1  0.17627523  0.81538098  0.48495340  1
  Ni  Ni29  1  0.82372477  0.31538098  0.01504660  1
  Ni  Ni30  1  0.32372477  0.18461902  0.98495340  1
  Ni  Ni31  1  0.67627523  0.68461902  0.51504660  1
  Ni  Ni32  1  0.48495340  0.17627523  0.81538098  1
  Ni  Ni33  1  0.01504660  0.82372477  0.31538098  1
  Ni  Ni34  1  0.98495340  0.32372477  0.18461902  1
  Ni  Ni35  1  0.51504660  0.67627523  0.68461902  1
  Ni  Ni36  1  0.81538098  0.48495340  0.17627523  1
  Ni  Ni37  1  0.31538098  0.01504660  0.82372477  1
  Ni  Ni38  1  0.18461902  0.98495340  0.32372477  1
  Ni  Ni39  1  0.68461902  0.51504660  0.67627523  1
  Ni  Ni40  1  0.82372477  0.18461902  0.51504660  1
  Ni  Ni41  1  0.17627523  0.68461902  0.98495340  1
  Ni  Ni42  1  0.67627523  0.81538098  0.01504660  1
  Ni  Ni43  1  0.32372477  0.31538098  0.48495340  1
  Ni  Ni44  1  0.51504660  0.82372477  0.18461902  1
  Ni  Ni45  1  0.98495340  0.17627523  0.68461902  1
  Ni  Ni46  1  0.01504660  0.67627523  0.81538098  1
  Ni  Ni47  1  0.48495340  0.32372477  0.31538098  1
  Ni  Ni48  1  0.18461902  0.51504660  0.82372477  1
  Ni  Ni49  1  0.68461902  0.98495340  0.17627523  1
  Ni  Ni50  1  0.81538098  0.01504660  0.67627523  1
  Ni  Ni51  1  0.31538098  0.48495340  0.32372477  1
  Ni  Ni52  1  0.15547979  0.66744564  0.32367282  1
  Ni  Ni53  1  0.84452021  0.16744564  0.17632718  1
  Ni  Ni54  1  0.34452021  0.33255436  0.82367282  1
  Ni  Ni55  1  0.65547979  0.83255436  0.67632718  1
  Ni  Ni56  1  0.32367282  0.15547979  0.66744564  1
  Ni  Ni57  1  0.17632718  0.84452021  0.16744564  1
  Ni  Ni58  1  0.82367282  0.34452021  0.33255436  1
  Ni  Ni59  1  0.67632718  0.65547979  0.83255436  1
  Ni  Ni60  1  0.66744564  0.32367282  0.15547979  1
  Ni  Ni61  1  0.16744564  0.17632718  0.84452021  1
  Ni  Ni62  1  0.33255436  0.82367282  0.34452021  1
  Ni  Ni63  1  0.83255436  0.67632718  0.65547979  1
  Ni  Ni64  1  0.84452021  0.33255436  0.67632718  1
  Ni  Ni65  1  0.15547979  0.83255436  0.82367282  1
  Ni  Ni66  1  0.65547979  0.66744564  0.17632718  1
  Ni  Ni67  1  0.34452021  0.16744564  0.32367282  1
  Ni  Ni68  1  0.67632718  0.84452021  0.33255436  1
  Ni  Ni69  1  0.82367282  0.15547979  0.83255436  1
  Ni  Ni70  1  0.17632718  0.65547979  0.66744564  1
  Ni  Ni71  1  0.32367282  0.34452021  0.16744564  1
  Ni  Ni72  1  0.33255436  0.67632718  0.84452021  1
  Ni  Ni73  1  0.83255436  0.82367282  0.15547979  1
  Ni  Ni74  1  0.66744564  0.17632718  0.65547979  1
  Ni  Ni75  1  0.16744564  0.32367282  0.34452021  1
  Ni  Ni76  1  0.01372077  0.66617198  0.48079135  1
  Ni  Ni77  1  0.98627923  0.16617198  0.01920865  1
  Ni  Ni78  1  0.48627923  0.33382802  0.98079135  1
  Ni  Ni79  1  0.51372077  0.83382802  0.51920865  1
  Ni  Ni80  1  0.48079135  0.01372077  0.66617198  1
  Ni  Ni81  1  0.01920865  0.98627923  0.16617198  1
  Ni  Ni82  1  0.98079135  0.48627923  0.33382802  1
  Ni  Ni83  1  0.51920865  0.51372077  0.83382802  1
  Ni  Ni84  1  0.66617198  0.48079135  0.01372077  1
  Ni  Ni85  1  0.16617198  0.01920865  0.98627923  1
  Ni  Ni86  1  0.33382802  0.98079135  0.48627923  1
  Ni  Ni87  1  0.83382802  0.51920865  0.51372077  1
  Ni  Ni88  1  0.98627923  0.33382802  0.51920865  1
  Ni  Ni89  1  0.01372077  0.83382802  0.98079135  1
  Ni  Ni90  1  0.51372077  0.66617198  0.01920865  1
  Ni  Ni91  1  0.48627923  0.16617198  0.48079135  1
  Ni  Ni92  1  0.51920865  0.98627923  0.33382802  1
  Ni  Ni93  1  0.98079135  0.01372077  0.83382802  1
  Ni  Ni94  1  0.01920865  0.51372077  0.66617198  1
  Ni  Ni95  1  0.48079135  0.48627923  0.16617198  1
  Ni  Ni96  1  0.33382802  0.51920865  0.98627923  1
  Ni  Ni97  1  0.83382802  0.98079135  0.01372077  1
  Ni  Ni98  1  0.66617198  0.01920865  0.51372077  1
  Ni  Ni99  1  0.16617198  0.48079135  0.48627923  1
  Cu  Cu100  1  0.32336438  0.67663562  0.17663562  1
  Cu  Cu101  1  0.67663562  0.17663562  0.32336438  1
  Cu  Cu102  1  0.17663562  0.32336438  0.67663562  1
  Cu  Cu103  1  0.82336438  0.82336438  0.82336438  1
  Cu  Cu104  1  0.67663562  0.32336438  0.82336438  1
  Cu  Cu105  1  0.32336438  0.82336438  0.67663562  1
  Cu  Cu106  1  0.82336438  0.67663562  0.32336438  1
  Cu  Cu107  1  0.17663562  0.17663562  0.17663562  1
  C  C108  1  0.14596628  0.50911783  0.29839992  1
  C  C109  1  0.85403372  0.00911783  0.20160008  1
  C  C110  1  0.35403372  0.49088217  0.79839992  1
  C  C111  1  0.64596628  0.99088217  0.70160008  1
  C  C112  1  0.29839992  0.14596628  0.50911783  1
  C  C113  1  0.20160008  0.85403372  0.00911783  1
  C  C114  1  0.79839992  0.35403372  0.49088217  1
  C  C115  1  0.70160008  0.64596628  0.99088217  1
  C  C116  1  0.50911783  0.29839992  0.14596628  1
  C  C117  1  0.00911783  0.20160008  0.85403372  1
  C  C118  1  0.49088217  0.79839992  0.35403372  1
  C  C119  1  0.99088217  0.70160008  0.64596628  1
  C  C120  1  0.85403372  0.49088217  0.70160008  1
  C  C121  1  0.14596628  0.99088217  0.79839992  1
  C  C122  1  0.64596628  0.50911783  0.20160008  1
  C  C123  1  0.35403372  0.00911783  0.29839992  1
  C  C124  1  0.70160008  0.85403372  0.49088217  1
  C  C125  1  0.79839992  0.14596628  0.99088217  1
  C  C126  1  0.20160008  0.64596628  0.50911783  1
  C  C127  1  0.29839992  0.35403372  0.00911783  1
  C  C128  1  0.49088217  0.70160008  0.85403372  1
  C  C129  1  0.99088217  0.79839992  0.14596628  1
  C  C130  1  0.50911783  0.20160008  0.64596628  1
  C  C131  1  0.00911783  0.29839992  0.35403372  1
  C  C132  1  0.00175609  0.50951425  0.14425316  1
  C  C133  1  0.99824391  0.00951425  0.35574684  1
  C  C134  1  0.49824391  0.49048575  0.64425316  1
  C  C135  1  0.50175609  0.99048575  0.85574684  1
  C  C136  1  0.14425316  0.00175609  0.50951425  1
  C  C137  1  0.35574684  0.99824391  0.00951425  1
  C  C138  1  0.64425316  0.49824391  0.49048575  1
  C  C139  1  0.85574684  0.50175609  0.99048575  1
  C  C140  1  0.50951425  0.14425316  0.00175609  1
  C  C141  1  0.00951425  0.35574684  0.99824391  1
  C  C142  1  0.49048575  0.64425316  0.49824391  1
  C  C143  1  0.99048575  0.85574684  0.50175609  1
  C  C144  1  0.99824391  0.49048575  0.85574684  1
  C  C145  1  0.00175609  0.99048575  0.64425316  1
  C  C146  1  0.50175609  0.50951425  0.35574684  1
  C  C147  1  0.49824391  0.00951425  0.14425316  1
  C  C148  1  0.85574684  0.99824391  0.49048575  1
  C  C149  1  0.64425316  0.00175609  0.99048575  1
  C  C150  1  0.35574684  0.50175609  0.50951425  1
  C  C151  1  0.14425316  0.49824391  0.00951425  1
  C  C152  1  0.49048575  0.85574684  0.99824391  1
  C  C153  1  0.99048575  0.64425316  0.00175609  1
  C  C154  1  0.50951425  0.35574684  0.50175609  1
  C  C155  1  0.00951425  0.14425316  0.49824391  1
  C  C156  1  0.29126577  0.52520602  0.15596260  1
  C  C157  1  0.70873423  0.02520602  0.34403740  1
  C  C158  1  0.20873423  0.47479398  0.65596260  1
  C  C159  1  0.79126577  0.97479398  0.84403740  1
  C  C160  1  0.15596260  0.29126577  0.52520602  1
  C  C161  1  0.34403740  0.70873423  0.02520602  1
  C  C162  1  0.65596260  0.20873423  0.47479398  1
  C  C163  1  0.84403740  0.79126577  0.97479398  1
  C  C164  1  0.52520602  0.15596260  0.29126577  1
  C  C165  1  0.02520602  0.34403740  0.70873423  1
  C  C166  1  0.47479398  0.65596260  0.20873423  1
  C  C167  1  0.97479398  0.84403740  0.79126577  1
  C  C168  1  0.70873423  0.47479398  0.84403740  1
  C  C169  1  0.29126577  0.97479398  0.65596260  1
  C  C170  1  0.79126577  0.52520602  0.34403740  1
  C  C171  1  0.20873423  0.02520602  0.15596260  1
  C  C172  1  0.84403740  0.70873423  0.47479398  1
  C  C173  1  0.65596260  0.29126577  0.97479398  1
  C  C174  1  0.34403740  0.79126577  0.52520602  1
  C  C175  1  0.15596260  0.20873423  0.02520602  1
  C  C176  1  0.47479398  0.84403740  0.70873423  1
  C  C177  1  0.97479398  0.65596260  0.29126577  1
  C  C178  1  0.52520602  0.34403740  0.79126577  1
  C  C179  1  0.02520602  0.15596260  0.20873423  1
  C  C180  1  0.34479366  0.64863038  0.36508776  1
  C  C181  1  0.65520634  0.14863038  0.13491224  1
  C  C182  1  0.15520634  0.35136962  0.86508776  1
  C  C183  1  0.84479366  0.85136962  0.63491224  1
  C  C184  1  0.36508776  0.34479366  0.64863038  1
  C  C185  1  0.13491224  0.65520634  0.14863038  1
  C  C186  1  0.86508776  0.15520634  0.35136962  1
  C  C187  1  0.63491224  0.84479366  0.85136962  1
  C  C188  1  0.64863038  0.36508776  0.34479366  1
  C  C189  1  0.14863038  0.13491224  0.65520634  1
  C  C190  1  0.35136962  0.86508776  0.15520634  1
  C  C191  1  0.85136962  0.63491224  0.84479366  1
  C  C192  1  0.65520634  0.35136962  0.63491224  1
  C  C193  1  0.34479366  0.85136962  0.86508776  1
  C  C194  1  0.84479366  0.64863038  0.13491224  1
  C  C195  1  0.15520634  0.14863038  0.36508776  1
  C  C196  1  0.63491224  0.65520634  0.35136962  1
  C  C197  1  0.86508776  0.34479366  0.85136962  1
  C  C198  1  0.13491224  0.84479366  0.64863038  1
  C  C199  1  0.36508776  0.15520634  0.14863038  1
  C  C200  1  0.35136962  0.63491224  0.65520634  1
  C  C201  1  0.85136962  0.86508776  0.34479366  1
  C  C202  1  0.64863038  0.13491224  0.84479366  1
  C  C203  1  0.14863038  0.36508776  0.15520634  1
  C  C204  1  0.50000000  0.50000000  -0.00000000  1
  C  C205  1  0.50000000  -0.00000000  0.50000000  1
  C  C206  1  -0.00000000  0.50000000  0.50000000  1
  C  C207  1  -0.00000000  0.00000000  -0.00000000  1
