# generated using pymatgen
data_CuNiC8
_symmetry_space_group_name_H-M   'P 1'
_cell_length_a   7.75294000
_cell_length_b   5.49263600
_cell_length_c   5.67608865
_cell_angle_alpha   89.86543361
_cell_angle_beta   90.00000000
_cell_angle_gamma   90.00000000
_symmetry_Int_Tables_number   1
_chemical_formula_structural   CuNiC8
_chemical_formula_sum   'Cu2 Ni2 C16'
_cell_volume   241.71033168
_cell_formula_units_Z   2
loop_
 _symmetry_equiv_pos_site_id
 _symmetry_equiv_pos_as_xyz
  1  'x, y, z'
loop_
 _atom_site_type_symbol
 _atom_site_label
 _atom_site_symmetry_multiplicity
 _atom_site_fract_x
 _atom_site_fract_y
 _atom_site_fract_z
 _atom_site_occupancy
  C  C0  1  0.75000000  0.98692300  0.04347700  1
  C  C1  1  0.75000000  0.51375400  0.56232800  1
  C  C2  1  0.25000000  0.48624600  0.43767200  1
  C  C3  1  0.25000000  0.01307700  0.95652300  1
  Ni  Ni4  1  0.00000000  0.00000000  0.50000000  1
  Ni  Ni5  1  0.50000000  0.00000000  0.50000000  1
  Cu  Cu6  1  0.00000000  0.50000000  0.00000000  1
  Cu  Cu7  1  0.50000000  0.50000000  0.00000000  1
  C  C8  1  0.45209100  0.19631500  0.21286700  1
  C  C9  1  0.54527600  0.71025000  0.30178600  1
  C  C10  1  0.54790900  0.80368500  0.78713300  1
  C  C11  1  0.04527600  0.28975000  0.69821400  1
  C  C12  1  0.25000000  0.90610200  0.52841200  1
  C  C13  1  0.45472400  0.28975000  0.69821400  1
  C  C14  1  0.95472400  0.71025000  0.30178600  1
  C  C15  1  0.04790900  0.19631500  0.21286700  1
  C  C16  1  0.75000000  0.42139300  0.97953100  1
  C  C17  1  0.95209100  0.80368500  0.78713300  1
  C  C18  1  0.25000000  0.57860700  0.02046900  1
  C  C19  1  0.75000000  0.09389800  0.47158800  1
