# generated using pymatgen
data_CuNiC8
_symmetry_space_group_name_H-M   'P 1'
_cell_length_a   5.85079397
_cell_length_b   5.85079397
_cell_length_c   14.39394404
_cell_angle_alpha   88.61778043
_cell_angle_beta   88.61778043
_cell_angle_gamma   59.97105449
_symmetry_Int_Tables_number   1
_chemical_formula_structural   CuNiC8
_chemical_formula_sum   'Cu3 Ni3 C24'
_cell_volume   426.42712455
_cell_formula_units_Z   3
loop_
 _symmetry_equiv_pos_site_id
 _symmetry_equiv_pos_as_xyz
  1  'x, y, z'
loop_
 _atom_site_type_symbol
 _atom_site_label
 _atom_site_symmetry_multiplicity
 _atom_site_fract_x
 _atom_site_fract_y
 _atom_site_fract_z
 _atom_site_occupancy
  C  C0  1  0.33301800  0.33301800  0.40724100  1
  C  C1  1  0.66698200  0.66698200  0.59275900  1
  C  C2  1  0.66672900  0.66672900  0.90805500  1
  C  C3  1  0.33327100  0.33327100  0.09194500  1
  C  C4  1  0.00048300  0.00048300  0.24846700  1
  C  C5  1  0.99951700  0.99951700  0.75153300  1
  Ni  Ni6  1  0.33435500  0.33435500  0.84706300  1
  Ni  Ni7  1  0.66564500  0.66564500  0.15293700  1
  Ni  Ni8  1  0.00000000  0.00000000  0.50000000  1
  Cu  Cu9  1  0.66763200  0.66763200  0.34309800  1
  Cu  Cu10  1  0.33236800  0.33236800  0.65690200  1
  Cu  Cu11  1  0.00000000  0.00000000  0.00000000  1
  C  C12  1  0.81827400  0.81827400  0.41987900  1
  C  C13  1  0.82260000  0.32887100  0.41244000  1
  C  C14  1  0.32887100  0.82260000  0.41244000  1
  C  C15  1  0.18172600  0.18172600  0.58012100  1
  C  C16  1  0.17740000  0.67112900  0.58756000  1
  C  C17  1  0.67112900  0.17740000  0.58756000  1
  C  C18  1  0.16670500  0.16670500  0.91874600  1
  C  C19  1  0.16081200  0.68060500  0.92130400  1
  C  C20  1  0.68060500  0.16081200  0.92130400  1
  C  C21  1  0.83329500  0.83329500  0.08125400  1
  C  C22  1  0.83918800  0.31939500  0.07869600  1
  C  C23  1  0.31939500  0.83918800  0.07869600  1
  C  C24  1  0.52132300  0.52132300  0.24506300  1
  C  C25  1  0.51532200  0.97324000  0.25468100  1
  C  C26  1  0.97324000  0.51532200  0.25468100  1
  C  C27  1  0.47867700  0.47867700  0.75493700  1
  C  C28  1  0.48467800  0.02676000  0.74531900  1
  C  C29  1  0.02676000  0.48467800  0.74531900  1
