# generated using pymatgen
data_CuNiC8
_symmetry_space_group_name_H-M   'P 1'
_cell_length_a   5.69932500
_cell_length_b   5.50500200
_cell_length_c   9.58780426
_cell_angle_alpha   55.43811073
_cell_angle_beta   90.00000000
_cell_angle_gamma   90.00000000
_symmetry_Int_Tables_number   1
_chemical_formula_structural   CuNiC8
_chemical_formula_sum   'Cu2 Ni2 C16'
_cell_volume   247.72565927
_cell_formula_units_Z   2
loop_
 _symmetry_equiv_pos_site_id
 _symmetry_equiv_pos_as_xyz
  1  'x, y, z'
loop_
 _atom_site_type_symbol
 _atom_site_label
 _atom_site_symmetry_multiplicity
 _atom_site_fract_x
 _atom_site_fract_y
 _atom_site_fract_z
 _atom_site_occupancy
  C  C0  1  0.55781600  0.73490400  0.74988400  1
  C  C1  1  0.05781600  0.26509600  0.75011600  1
  C  C2  1  0.94218400  0.73490400  0.24988400  1
  C  C3  1  0.44218400  0.26509600  0.25011600  1
  Ni  Ni4  1  0.00000000  0.00000000  0.50000000  1
  Ni  Ni5  1  0.50000000  0.00000000  0.00000000  1
  Cu  Cu6  1  0.00000000  0.50000000  0.00000000  1
  Cu  Cu7  1  0.50000000  0.50000000  0.50000000  1
  C  C8  1  0.03774000  0.14904000  0.24551000  1
  C  C9  1  0.30398900  0.74650500  0.55440300  1
  C  C10  1  0.29895300  0.36493600  0.94482400  1
  C  C11  1  0.79895300  0.63506400  0.55517600  1
  C  C12  1  0.80398900  0.25349500  0.94559700  1
  C  C13  1  0.53774000  0.85096000  0.25449000  1
  C  C14  1  0.46226000  0.14904000  0.74551000  1
  C  C15  1  0.19601100  0.74650500  0.05440300  1
  C  C16  1  0.20104700  0.36493600  0.44482400  1
  C  C17  1  0.69601100  0.25349500  0.44559700  1
  C  C18  1  0.70104700  0.63506400  0.05517600  1
  C  C19  1  0.96226000  0.85096000  0.75449000  1
