# generated using pymatgen
data_CuNiC8
_symmetry_space_group_name_H-M   'P 1'
_cell_length_a   5.87902029
_cell_length_b   5.87902029
_cell_length_c   14.38339100
_cell_angle_alpha   90.00000000
_cell_angle_beta   90.00000000
_cell_angle_gamma   120.00000322
_symmetry_Int_Tables_number   1
_chemical_formula_structural   CuNiC8
_chemical_formula_sum   'Cu3 Ni3 C24'
_cell_volume   430.52841638
_cell_formula_units_Z   3
loop_
 _symmetry_equiv_pos_site_id
 _symmetry_equiv_pos_as_xyz
  1  'x, y, z'
loop_
 _atom_site_type_symbol
 _atom_site_label
 _atom_site_symmetry_multiplicity
 _atom_site_fract_x
 _atom_site_fract_y
 _atom_site_fract_z
 _atom_site_occupancy
  C  C0  1  0.00000000  0.00000000  0.75037100  1
  C  C1  1  0.00000000  0.00000000  0.24962900  1
  C  C2  1  0.66666700  0.33333300  0.90464600  1
  C  C3  1  0.33333300  0.66666700  0.09535400  1
  C  C4  1  0.66666700  0.33333300  0.60176600  1
  C  C5  1  0.33333300  0.66666700  0.39823400  1
  Ni  Ni6  1  0.00000000  0.00000000  0.50000000  1
  Ni  Ni7  1  0.66666700  0.33333300  0.15561500  1
  Ni  Ni8  1  0.33333300  0.66666700  0.84438500  1
  Cu  Cu9  1  0.00000000  0.00000000  0.00000000  1
  Cu  Cu10  1  0.66666700  0.33333300  0.34932300  1
  Cu  Cu11  1  0.33333300  0.66666700  0.65067700  1
  C  C12  1  0.02885500  0.51442800  0.75141600  1
  C  C13  1  0.48557200  0.97114500  0.75141600  1
  C  C14  1  0.48557200  0.51442800  0.75141600  1
  C  C15  1  0.97114500  0.48557200  0.24858400  1
  C  C16  1  0.51442800  0.02885500  0.24858400  1
  C  C17  1  0.51442800  0.48557200  0.24858400  1
  C  C18  1  0.66648400  0.83324200  0.91845500  1
  C  C19  1  0.16675800  0.33351600  0.91845500  1
  C  C20  1  0.16675800  0.83324200  0.91845500  1
  C  C21  1  0.33351600  0.16675800  0.08154500  1
  C  C22  1  0.83324200  0.66648400  0.08154500  1
  C  C23  1  0.83324200  0.16675800  0.08154500  1
  C  C24  1  0.67380400  0.83690200  0.58072700  1
  C  C25  1  0.16309800  0.32619600  0.58072700  1
  C  C26  1  0.16309800  0.83690200  0.58072700  1
  C  C27  1  0.32619600  0.16309800  0.41927300  1
  C  C28  1  0.83690200  0.67380400  0.41927300  1
  C  C29  1  0.83690200  0.16309800  0.41927300  1
