# generated using pymatgen
data_Cu4Ni5C31
_symmetry_space_group_name_H-M   'P 1'
_cell_length_a   7.66752057
_cell_length_b   15.10360077
_cell_length_c   9.13049949
_cell_angle_alpha   110.74044808
_cell_angle_beta   111.68173207
_cell_angle_gamma   78.36439458
_symmetry_Int_Tables_number   1
_chemical_formula_structural   Cu4Ni5C31
_chemical_formula_sum   'Cu8 Ni10 C62'
_cell_volume   915.83320287
_cell_formula_units_Z   2
loop_
 _symmetry_equiv_pos_site_id
 _symmetry_equiv_pos_as_xyz
  1  'x, y, z'
loop_
 _atom_site_type_symbol
 _atom_site_label
 _atom_site_symmetry_multiplicity
 _atom_site_fract_x
 _atom_site_fract_y
 _atom_site_fract_z
 _atom_site_occupancy
  Ni  Ni0  1  0.00881100  0.98137200  0.95582400  1
  Ni  Ni1  1  0.99685400  0.29266200  0.12445900  1
  Ni  Ni2  1  0.00759200  0.79549600  0.10116900  1
  Ni  Ni3  1  0.34305400  0.14529800  0.59580800  1
  Ni  Ni4  1  0.34205500  0.62098600  0.61183200  1
  Ni  Ni5  1  0.60674100  0.51528100  0.05796600  1
  Ni  Ni6  1  0.72986500  0.42812000  0.51418500  1
  Ni  Ni7  1  0.77536400  0.92502700  0.52920500  1
  Ni  Ni8  1  0.71986800  0.12300500  0.46669600  1
  Ni  Ni9  1  0.69006200  0.62015300  0.45659700  1
  Cu  Cu10  1  0.11108700  0.07012400  0.70992200  1
  Cu  Cu11  1  0.09468400  0.56780200  0.72605500  1
  Cu  Cu12  1  0.42534300  0.42032800  0.21640000  1
  Cu  Cu13  1  0.45278000  0.92748300  0.20789200  1
  Cu  Cu14  1  0.60471100  0.34757700  0.73058600  1
  Cu  Cu15  1  0.60360600  0.84176200  0.69950100  1
  Cu  Cu16  1  0.77246700  0.17480300  0.21691600  1
  Cu  Cu17  1  0.89410600  0.67349300  0.22298200  1
  C  C18  1  0.98534200  0.46307600  0.95884900  1
  C  C19  1  0.61582300  0.98828600  0.99494300  1
  C  C20  1  0.95794000  0.27663100  0.64008500  1
  C  C21  1  0.97222400  0.76838500  0.62434600  1
  C  C22  1  0.29446900  0.39763700  0.49161000  1
  C  C23  1  0.31394300  0.91250600  0.47449000  1
  C  C24  1  0.32836500  0.11432900  0.10982600  1
  C  C25  1  0.28221500  0.60536000  0.12819200  1
  C  C26  1  0.70068500  0.08244200  0.78817800  1
  C  C27  1  0.70383500  0.57863000  0.80059800  1
  C  C28  1  0.55389000  0.28377600  0.98111700  1
  C  C29  1  0.56471700  0.77210000  0.97901200  1
  C  C30  1  0.90392200  0.47247500  0.31592300  1
  C  C31  1  0.91567100  0.97709200  0.29034400  1
  C  C32  1  0.11001600  0.18453000  0.66667900  1
  C  C33  1  0.11549100  0.67840200  0.67466700  1
  C  C34  1  0.03740600  0.37905000  0.74981800  1
  C  C35  1  0.02163000  0.87425900  0.74498600  1
  C  C36  1  0.08223900  0.38232400  0.35746500  1
  C  C37  1  0.10946000  0.89424300  0.32440100  1
  C  C38  1  0.28648400  0.01927100  0.59777100  1
  C  C39  1  0.27978400  0.50264300  0.62637800  1
  C  C40  1  0.17553100  0.19396200  0.16320200  1
  C  C41  1  0.11533200  0.68253500  0.18464500  1
  C  C42  1  0.31167200  0.07272900  0.91152300  1
  C  C43  1  0.27765500  0.57534600  0.93522300  1
  C  C44  1  0.37661300  0.82786100  0.55800300  1
  C  C45  1  0.38640100  0.31195900  0.57512800  1
  C  C46  1  0.55958500  0.37220800  0.91663300  1
  C  C47  1  0.57684700  0.84394400  0.88319700  1
  C  C48  1  0.43996200  0.40056600  0.39784400  1
  C  C49  1  0.47662700  0.90758300  0.39194500  1
  C  C50  1  0.60002900  0.08071500  0.58315200  1
  C  C51  1  0.59066300  0.57465300  0.58922400  1
  C  C52  1  0.28733400  0.01651300  0.14086000  1
  C  C53  1  0.24785100  0.50621000  0.15464100  1
  C  C54  1  0.38349900  0.31243200  0.05683900  1
  C  C55  1  0.39684500  0.81666200  0.05715800  1
  C  C56  1  0.53833100  0.18688300  0.82226200  1
  C  C57  1  0.52671200  0.66750100  0.83954500  1
  C  C58  1  0.68101000  0.45539300  0.74095100  1
  C  C59  1  0.67096800  0.95772300  0.73527600  1
  C  C60  1  0.55189300  0.14212100  0.22426600  1
  C  C61  1  0.49875100  0.62861200  0.23797900  1
  C  C62  1  0.66012100  0.45567900  0.26729000  1
  C  C63  1  0.67867800  0.95917800  0.23709700  1
  C  C64  1  0.78049600  0.25654600  0.68787800  1
  C  C65  1  0.76262500  0.75029700  0.62730100  1
  C  C66  1  0.92693200  0.00839600  0.50497900  1
  C  C67  1  0.91404700  0.51047400  0.52368500  1
  C  C68  1  0.90097700  0.42264800  0.11247900  1
  C  C69  1  0.91003400  0.92627600  0.08070600  1
  C  C70  1  0.93204500  0.07917400  0.81181400  1
  C  C71  1  0.91497100  0.60223400  0.82448400  1
  C  C72  1  0.75298200  0.26621800  0.12470900  1
  C  C73  1  0.77234100  0.76296700  0.11510100  1
  C  C74  1  0.75375800  0.08768700  0.99622900  1
  C  C75  1  0.77565400  0.57928500  0.01219300  1
  C  C76  1  0.92335300  0.09072700  0.31448500  1
  C  C77  1  0.89652500  0.58628100  0.32205800  1
  C  C78  1  0.84273800  0.27385400  0.44285200  1
  C  C79  1  0.91700900  0.76975300  0.43148800  1
