# generated using pymatgen
data_CuNi2C7
_symmetry_space_group_name_H-M   'P 1'
_cell_length_a   5.83494300
_cell_length_b   5.90342121
_cell_length_c   5.90342121
_cell_angle_alpha   59.23402779
_cell_angle_beta   60.38298610
_cell_angle_gamma   60.38298610
_symmetry_Int_Tables_number   1
_chemical_formula_structural   CuNi2C7
_chemical_formula_sum   'Cu1 Ni2 C7'
_cell_volume   143.75190495
_cell_formula_units_Z   1
loop_
 _symmetry_equiv_pos_site_id
 _symmetry_equiv_pos_as_xyz
  1  'x, y, z'
loop_
 _atom_site_type_symbol
 _atom_site_label
 _atom_site_symmetry_multiplicity
 _atom_site_fract_x
 _atom_site_fract_y
 _atom_site_fract_z
 _atom_site_occupancy
  Ni  Ni0  1  0.75000000  0.75000000  0.75000000  1
  Ni  Ni1  1  0.25000000  0.25000000  0.25000000  1
  Cu  Cu2  1  0.00000000  0.00000000  0.00000000  1
  C  C3  1  0.50000000  0.50000000  0.50000000  1
  C  C4  1  0.26555600  0.73444400  0.73444400  1
  C  C5  1  0.73444400  0.26555600  0.26555600  1
  C  C6  1  0.32671700  0.79184000  0.20816000  1
  C  C7  1  0.67328300  0.20816000  0.79184000  1
  C  C8  1  0.79184000  0.67328300  0.32671700  1
  C  C9  1  0.20816000  0.32671700  0.67328300  1
