# generated using pymatgen
data_CuNiC8
_symmetry_space_group_name_H-M   'P 1'
_cell_length_a   5.60455242
_cell_length_b   5.72447826
_cell_length_c   7.99414574
_cell_angle_alpha   90.00000000
_cell_angle_beta   90.00000000
_cell_angle_gamma   90.00000000
_symmetry_Int_Tables_number   1
_chemical_formula_structural   CuNiC8
_chemical_formula_sum   'Cu2 Ni2 C16'
_cell_volume   256.47728485
_cell_formula_units_Z   2
loop_
 _symmetry_equiv_pos_site_id
 _symmetry_equiv_pos_as_xyz
  1  'x, y, z'
loop_
 _atom_site_type_symbol
 _atom_site_label
 _atom_site_symmetry_multiplicity
 _atom_site_fract_x
 _atom_site_fract_y
 _atom_site_fract_z
 _atom_site_occupancy
  Ni  Ni0  1  0.48870960  0.79176777  -0.00000000  1
  Ni  Ni1  1  0.98870960  0.20823223  0.50000000  1
  Cu  Cu2  1  0.51224065  0.70533021  0.50000000  1
  Cu  Cu3  1  0.01224065  0.29466979  -0.00000000  1
  C  C4  1  -0.00064502  0.75391560  0.24977413  1
  C  C5  1  0.49935498  0.24608440  0.25022587  1
  C  C6  1  -0.00064502  0.75391560  0.75022587  1
  C  C7  1  0.49935498  0.24608440  0.74977413  1
  C  C8  1  0.41379894  0.26925815  0.50000000  1
  C  C9  1  0.91379894  0.73074185  -0.00000000  1
  C  C10  1  0.58879049  0.22937916  -0.00000000  1
  C  C11  1  0.08879049  0.77062084  0.50000000  1
  C  C12  1  0.20080911  0.03596935  0.20486508  1
  C  C13  1  0.70080911  0.96403065  0.29513492  1
  C  C14  1  0.79806607  0.46588950  0.70883435  1
  C  C15  1  0.29806607  0.53411050  0.79116565  1
  C  C16  1  0.79806607  0.46588950  0.29116565  1
  C  C17  1  0.29806607  0.53411050  0.20883435  1
  C  C18  1  0.20080911  0.03596935  0.79513492  1
  C  C19  1  0.70080911  0.96403065  0.70486508  1
