# generated using pymatgen
data_Cu7NiC30
_symmetry_space_group_name_H-M   'P 1'
_cell_length_a   7.69951200
_cell_length_b   7.69951200
_cell_length_c   7.65153100
_cell_angle_alpha   90.00000000
_cell_angle_beta   90.00000000
_cell_angle_gamma   90.00000000
_symmetry_Int_Tables_number   1
_chemical_formula_structural   Cu7NiC30
_chemical_formula_sum   'Cu7 Ni1 C30'
_cell_volume   453.60177203
_cell_formula_units_Z   1
loop_
 _symmetry_equiv_pos_site_id
 _symmetry_equiv_pos_as_xyz
  1  'x, y, z'
loop_
 _atom_site_type_symbol
 _atom_site_label
 _atom_site_symmetry_multiplicity
 _atom_site_fract_x
 _atom_site_fract_y
 _atom_site_fract_z
 _atom_site_occupancy
  C  C0  1  0.25179300  0.25179300  0.25219400  1
  C  C1  1  0.25491400  0.25491400  0.74031800  1
  C  C2  1  0.25179300  0.74820700  0.25219400  1
  C  C3  1  0.25491400  0.74508600  0.74031800  1
  C  C4  1  0.74820700  0.25179300  0.25219400  1
  C  C5  1  0.74508600  0.25491400  0.74031800  1
  C  C6  1  0.74820700  0.74820700  0.25219400  1
  C  C7  1  0.74508600  0.74508600  0.74031800  1
  Ni  Ni8  1  0.00000000  0.00000000  0.98523800  1
  Cu  Cu9  1  0.00000000  0.00000000  0.49526000  1
  Cu  Cu10  1  0.00000000  0.50000000  0.00937000  1
  Cu  Cu11  1  0.00000000  0.50000000  0.49337900  1
  Cu  Cu12  1  0.50000000  0.00000000  0.00937000  1
  Cu  Cu13  1  0.50000000  0.00000000  0.49337900  1
  Cu  Cu14  1  0.50000000  0.50000000  0.99532500  1
  Cu  Cu15  1  0.50000000  0.50000000  0.50273200  1
  C  C16  1  0.00000000  0.00000000  0.75406200  1
  C  C17  1  0.00000000  0.50000000  0.25098900  1
  C  C18  1  0.00000000  0.50000000  0.75189800  1
  C  C19  1  0.50000000  0.00000000  0.25098900  1
  C  C20  1  0.50000000  0.00000000  0.75189800  1
  C  C21  1  0.50000000  0.50000000  0.74984700  1
  C  C22  1  0.24652900  0.00000000  0.02452400  1
  C  C23  1  0.24751400  0.00000000  0.48172900  1
  C  C24  1  0.25424000  0.50000000  0.02318400  1
  C  C25  1  0.25446000  0.50000000  0.47961800  1
  C  C26  1  0.75347100  0.00000000  0.02452400  1
  C  C27  1  0.75248600  0.00000000  0.48172900  1
  C  C28  1  0.74576000  0.50000000  0.02318400  1
  C  C29  1  0.74554000  0.50000000  0.47961800  1
  C  C30  1  0.00000000  0.24652900  0.02452400  1
  C  C31  1  0.00000000  0.24751400  0.48172900  1
  C  C32  1  0.00000000  0.75347100  0.02452400  1
  C  C33  1  0.00000000  0.75248600  0.48172900  1
  C  C34  1  0.50000000  0.25424000  0.02318400  1
  C  C35  1  0.50000000  0.25446000  0.47961800  1
  C  C36  1  0.50000000  0.74576000  0.02318400  1
  C  C37  1  0.50000000  0.74554000  0.47961800  1
