# generated using pymatgen
data_Cu11(NiC2)3
_symmetry_space_group_name_H-M   'P 1'
_cell_length_a   8.12447100
_cell_length_b   8.12447100
_cell_length_c   13.06281681
_cell_angle_alpha   71.88188378
_cell_angle_beta   71.88188378
_cell_angle_gamma   90.00000000
_symmetry_Int_Tables_number   1
_chemical_formula_structural   Cu11(NiC2)3
_chemical_formula_sum   'Cu22 Ni6 C12'
_cell_volume   774.37717074
_cell_formula_units_Z   2
loop_
 _symmetry_equiv_pos_site_id
 _symmetry_equiv_pos_as_xyz
  1  'x, y, z'
loop_
 _atom_site_type_symbol
 _atom_site_label
 _atom_site_symmetry_multiplicity
 _atom_site_fract_x
 _atom_site_fract_y
 _atom_site_fract_z
 _atom_site_occupancy
  C  C0  1  0.35342000  0.85342000  0.62839800  1
  C  C1  1  0.01818100  0.51818100  0.62839800  1
  C  C2  1  0.51818100  0.35342000  0.62839800  1
  C  C3  1  0.85342000  0.01818100  0.62839800  1
  C  C4  1  0.64144300  0.14144300  0.37781900  1
  C  C5  1  0.98073800  0.48073800  0.37781900  1
  C  C6  1  0.48073800  0.64144300  0.37781900  1
  C  C7  1  0.14144300  0.98073800  0.37781900  1
  C  C8  1  0.39471300  0.39471300  0.21057400  1
  C  C9  1  0.89471300  0.89471300  0.21057400  1
  C  C10  1  0.60533400  0.60533400  0.78933200  1
  C  C11  1  0.10533400  0.10533400  0.78933200  1
  Ni  Ni12  1  0.75036300  0.75036300  0.49927500  1
  Ni  Ni13  1  0.25036200  0.25036200  0.49927500  1
  Ni  Ni14  1  0.52553700  0.02553700  0.19074700  1
  Ni  Ni15  1  0.28371600  0.78371600  0.19074700  1
  Ni  Ni16  1  0.78371600  0.52553700  0.19074700  1
  Ni  Ni17  1  0.02553700  0.28371600  0.19074700  1
  Cu  Cu18  1  0.23737900  0.73737900  0.88210900  1
  Cu  Cu19  1  0.88051200  0.38051200  0.88210900  1
  Cu  Cu20  1  0.38051200  0.23737900  0.88210900  1
  Cu  Cu21  1  0.73737900  0.88051200  0.88210900  1
  Cu  Cu22  1  0.76903000  0.26903000  0.11201200  1
  Cu  Cu23  1  0.11895700  0.61895700  0.11201200  1
  Cu  Cu24  1  0.61895700  0.76903000  0.11201200  1
  Cu  Cu25  1  0.26903000  0.11895700  0.11201200  1
  Cu  Cu26  1  0.71109700  0.56886700  0.99868500  1
  Cu  Cu27  1  0.29021700  0.43244800  0.99868500  1
  Cu  Cu28  1  0.79021700  0.06886700  0.99868500  1
  Cu  Cu29  1  0.21109700  0.93244800  0.99868500  1
  Cu  Cu30  1  0.56886700  0.29021700  0.99868500  1
  Cu  Cu31  1  0.43244800  0.71109700  0.99868500  1
  Cu  Cu32  1  0.06886700  0.21109700  0.99868500  1
  Cu  Cu33  1  0.93244800  0.79021700  0.99868500  1
  Cu  Cu34  1  0.00050700  0.50050700  0.99898500  1
  Cu  Cu35  1  0.50050700  0.00050700  0.99898500  1
  Cu  Cu36  1  0.47975400  0.97975400  0.81246000  1
  Cu  Cu37  1  0.70778600  0.20778600  0.81246000  1
  Cu  Cu38  1  0.20778600  0.47975400  0.81246000  1
  Cu  Cu39  1  0.97975400  0.70778600  0.81246000  1
