# generated using pymatgen
data_Cu(NiC3)2
_symmetry_space_group_name_H-M   'P 1'
_cell_length_a   8.74695100
_cell_length_b   11.15174800
_cell_length_c   15.93047893
_cell_angle_alpha   63.50906160
_cell_angle_beta   90.00000000
_cell_angle_gamma   90.00000000
_symmetry_Int_Tables_number   1
_chemical_formula_structural   Cu(NiC3)2
_chemical_formula_sum   'Cu8 Ni16 C48'
_cell_volume   1390.76545640
_cell_formula_units_Z   8
loop_
 _symmetry_equiv_pos_site_id
 _symmetry_equiv_pos_as_xyz
  1  'x, y, z'
loop_
 _atom_site_type_symbol
 _atom_site_label
 _atom_site_symmetry_multiplicity
 _atom_site_fract_x
 _atom_site_fract_y
 _atom_site_fract_z
 _atom_site_occupancy
  C  C0  1  0.54679400  0.64254900  0.68096500  1
  C  C1  1  0.04679400  0.35745100  0.81903500  1
  C  C2  1  0.45320600  0.35745100  0.31903500  1
  C  C3  1  0.95320600  0.64254900  0.18096500  1
  Ni  Ni4  1  0.51942000  0.42977100  0.90002400  1
  Ni  Ni5  1  0.01942000  0.57022900  0.59997600  1
  Ni  Ni6  1  0.48058000  0.57022900  0.09997600  1
  Ni  Ni7  1  0.98058000  0.42977100  0.40002400  1
  Ni  Ni8  1  0.81672900  0.62595100  0.85968500  1
  Ni  Ni9  1  0.31672900  0.37404900  0.64031500  1
  Ni  Ni10  1  0.18327100  0.37404900  0.14031500  1
  Ni  Ni11  1  0.68327100  0.62595100  0.35968500  1
  Ni  Ni12  1  0.69729400  0.94712700  0.56296700  1
  Ni  Ni13  1  0.19729400  0.05287300  0.93703300  1
  Ni  Ni14  1  0.30270600  0.05287300  0.43703300  1
  Ni  Ni15  1  0.80270600  0.94712700  0.06296700  1
  Ni  Ni16  1  0.44676000  0.90153900  0.72807200  1
  Ni  Ni17  1  0.94676000  0.09846100  0.77192800  1
  Ni  Ni18  1  0.55324000  0.09846100  0.27192800  1
  Ni  Ni19  1  0.05324000  0.90153900  0.22807200  1
  Cu  Cu20  1  0.65353400  0.26530000  0.62730700  1
  Cu  Cu21  1  0.15353400  0.73470000  0.87269300  1
  Cu  Cu22  1  0.34646600  0.73470000  0.37269300  1
  Cu  Cu23  1  0.84646600  0.26530000  0.12730700  1
  Cu  Cu24  1  0.59055200  0.91984100  0.91560900  1
  Cu  Cu25  1  0.09055200  0.08015900  0.58439100  1
  Cu  Cu26  1  0.40944800  0.08015900  0.08439100  1
  Cu  Cu27  1  0.90944800  0.91984100  0.41560900  1
  C  C28  1  0.37777900  0.65261400  0.63275700  1
  C  C29  1  0.87777900  0.34738600  0.86724300  1
  C  C30  1  0.62222100  0.34738600  0.36724300  1
  C  C31  1  0.12222100  0.65261400  0.13275700  1
  C  C32  1  0.66828300  0.56014200  0.64756300  1
  C  C33  1  0.16828300  0.43985800  0.85243700  1
  C  C34  1  0.33171700  0.43985800  0.35243700  1
  C  C35  1  0.83171700  0.56014200  0.14756300  1
  C  C36  1  0.50046900  0.49644100  0.81882400  1
  C  C37  1  0.00046900  0.50355900  0.68117600  1
  C  C38  1  0.49953100  0.50355900  0.18117600  1
  C  C39  1  0.99953100  0.49644100  0.31882400  1
  C  C40  1  0.53679800  0.36789600  0.98050100  1
  C  C41  1  0.03679800  0.63210400  0.51949900  1
  C  C42  1  0.46320200  0.63210400  0.01949900  1
  C  C43  1  0.96320200  0.36789600  0.48050100  1
  C  C44  1  0.85352900  0.57943800  0.93839900  1
  C  C45  1  0.35352900  0.42056200  0.56160100  1
  C  C46  1  0.14647100  0.42056200  0.06160100  1
  C  C47  1  0.64647100  0.57943800  0.43839900  1
  C  C48  1  0.77558500  0.67429200  0.78055000  1
  C  C49  1  0.27558500  0.32570800  0.71945000  1
  C  C50  1  0.22441500  0.32570800  0.21945000  1
  C  C51  1  0.72441500  0.67429200  0.28055000  1
  C  C52  1  0.64455400  0.84406900  0.57177700  1
  C  C53  1  0.14455400  0.15593100  0.92822300  1
  C  C54  1  0.35544600  0.15593100  0.42822300  1
  C  C55  1  0.85544600  0.84406900  0.07177700  1
  C  C56  1  0.74127400  0.05020200  0.55513900  1
  C  C57  1  0.24127400  0.94979800  0.94486100  1
  C  C58  1  0.25872600  0.94979800  0.44486100  1
  C  C59  1  0.75872600  0.05020200  0.05513900  1
  C  C60  1  0.41768200  0.01385600  0.70538600  1
  C  C61  1  0.91768200  0.98614400  0.79461400  1
  C  C62  1  0.58231800  0.98614400  0.29461400  1
  C  C63  1  0.08231800  0.01385600  0.20538600  1
  C  C64  1  0.47826400  0.78844200  0.74935500  1
  C  C65  1  0.97826400  0.21155800  0.75064500  1
  C  C66  1  0.52173600  0.21155800  0.25064500  1
  C  C67  1  0.02173600  0.78844200  0.24935500  1
  C  C68  1  0.55583000  0.16331000  0.87153800  1
  C  C69  1  0.05583000  0.83669000  0.62846200  1
  C  C70  1  0.44417000  0.83669000  0.12846200  1
  C  C71  1  0.94417000  0.16331000  0.37153800  1
