# generated using pymatgen
data_Cu8Ni6C5
_symmetry_space_group_name_H-M   'P 1'
_cell_length_a   6.19916758
_cell_length_b   8.15403089
_cell_length_c   11.64707500
_cell_angle_alpha   90.00000000
_cell_angle_beta   90.00000000
_cell_angle_gamma   104.42970728
_symmetry_Int_Tables_number   1
_chemical_formula_structural   Cu8Ni6C5
_chemical_formula_sum   'Cu16 Ni12 C10'
_cell_volume   570.16642220
_cell_formula_units_Z   2
loop_
 _symmetry_equiv_pos_site_id
 _symmetry_equiv_pos_as_xyz
  1  'x, y, z'
loop_
 _atom_site_type_symbol
 _atom_site_label
 _atom_site_symmetry_multiplicity
 _atom_site_fract_x
 _atom_site_fract_y
 _atom_site_fract_z
 _atom_site_occupancy
  C  C0  1  0.84981000  0.61677300  0.14809700  1
  C  C1  1  0.15019000  0.38322700  0.85190300  1
  C  C2  1  0.15019000  0.88322700  0.64809700  1
  C  C3  1  0.84981000  0.11677300  0.35190300  1
  C  C4  1  0.74201400  0.60281500  0.84745300  1
  C  C5  1  0.25798600  0.39718500  0.15254700  1
  C  C6  1  0.25798600  0.89718500  0.34745300  1
  C  C7  1  0.74201400  0.10281500  0.65254700  1
  C  C8  1  0.50000000  0.00000000  0.00000000  1
  C  C9  1  0.50000000  0.50000000  0.50000000  1
  Ni  Ni10  1  0.76750200  0.99128400  0.93666400  1
  Ni  Ni11  1  0.23249800  0.00871600  0.06333600  1
  Ni  Ni12  1  0.23249800  0.50871600  0.43666400  1
  Ni  Ni13  1  0.76750200  0.49128400  0.56333600  1
  Ni  Ni14  1  0.45756300  0.64784700  0.60626300  1
  Ni  Ni15  1  0.54243700  0.35215300  0.39373700  1
  Ni  Ni16  1  0.54243700  0.85215300  0.10626300  1
  Ni  Ni17  1  0.45756300  0.14784700  0.89373700  1
  Ni  Ni18  1  0.34680100  0.85276700  0.90014200  1
  Ni  Ni19  1  0.65319900  0.14723300  0.09985800  1
  Ni  Ni20  1  0.65319900  0.64723300  0.40014200  1
  Ni  Ni21  1  0.34680100  0.35276700  0.59985800  1
  Cu  Cu22  1  0.89739200  0.58531700  0.74554600  1
  Cu  Cu23  1  0.10260800  0.41468300  0.25445400  1
  Cu  Cu24  1  0.10260800  0.91468300  0.24554600  1
  Cu  Cu25  1  0.89739200  0.08531700  0.75445400  1
  Cu  Cu26  1  0.87061200  0.75913700  0.92550500  1
  Cu  Cu27  1  0.12938800  0.24086300  0.07449500  1
  Cu  Cu28  1  0.12938800  0.74086300  0.42550500  1
  Cu  Cu29  1  0.87061200  0.25913700  0.57449500  1
  Cu  Cu30  1  0.70621000  0.94656300  0.57289100  1
  Cu  Cu31  1  0.29379000  0.05343700  0.42710900  1
  Cu  Cu32  1  0.29379000  0.55343700  0.07289100  1
  Cu  Cu33  1  0.70621000  0.44656300  0.92710900  1
  Cu  Cu34  1  0.52357000  0.64043500  0.80114600  1
  Cu  Cu35  1  0.47643000  0.35956500  0.19885400  1
  Cu  Cu36  1  0.47643000  0.85956500  0.30114600  1
  Cu  Cu37  1  0.52357000  0.14043500  0.69885400  1
