# generated using pymatgen
data_Cu9NiC6
_symmetry_space_group_name_H-M   'P 1'
_cell_length_a   8.33011900
_cell_length_b   13.69555800
_cell_length_c   20.22363211
_cell_angle_alpha   78.36303807
_cell_angle_beta   90.00000000
_cell_angle_gamma   90.00000000
_symmetry_Int_Tables_number   1
_chemical_formula_structural   Cu9NiC6
_chemical_formula_sum   'Cu36 Ni4 C24'
_cell_volume   2259.80150070
_cell_formula_units_Z   4
loop_
 _symmetry_equiv_pos_site_id
 _symmetry_equiv_pos_as_xyz
  1  'x, y, z'
loop_
 _atom_site_type_symbol
 _atom_site_label
 _atom_site_symmetry_multiplicity
 _atom_site_fract_x
 _atom_site_fract_y
 _atom_site_fract_z
 _atom_site_occupancy
  C  C0  1  0.03199900  0.30198300  0.07953000  1
  C  C1  1  0.53199900  0.19801700  0.92047000  1
  C  C2  1  0.96800100  0.69801700  0.92047000  1
  C  C3  1  0.46800100  0.80198300  0.07953000  1
  C  C4  1  0.52720400  0.08294000  0.26260800  1
  C  C5  1  0.02720400  0.41706000  0.73739200  1
  C  C6  1  0.47279600  0.91706000  0.73739200  1
  C  C7  1  0.97279600  0.58294000  0.26260800  1
  C  C8  1  0.52214800  0.31151200  0.56670600  1
  C  C9  1  0.02214800  0.18848800  0.43329400  1
  C  C10  1  0.47785200  0.68848800  0.43329400  1
  C  C11  1  0.97785200  0.81151200  0.56670600  1
  Ni  Ni12  1  0.50020800  0.43924500  0.17668000  1
  Ni  Ni13  1  0.00020800  0.06075500  0.82332000  1
  Ni  Ni14  1  0.49979200  0.56075500  0.82332000  1
  Ni  Ni15  1  0.99979200  0.93924500  0.17668000  1
  C  C16  1  0.60879900  0.34640800  0.35796200  1
  C  C17  1  0.10879900  0.15359200  0.64203800  1
  C  C18  1  0.39120100  0.65359200  0.64203800  1
  C  C19  1  0.89120100  0.84640800  0.35796200  1
  C  C20  1  0.87754500  0.06832200  0.67572900  1
  C  C21  1  0.37754500  0.43167800  0.32427100  1
  C  C22  1  0.12245500  0.93167800  0.32427100  1
  C  C23  1  0.62245500  0.56832200  0.67572900  1
  C  C24  1  0.61173300  0.45575000  0.02013700  1
  C  C25  1  0.11173300  0.04425000  0.97986300  1
  C  C26  1  0.38826700  0.54425000  0.97986300  1
  C  C27  1  0.88826700  0.95575000  0.02013700  1
  Cu  Cu28  1  0.75399800  0.43676400  0.41040400  1
  Cu  Cu29  1  0.25399800  0.06323600  0.58959600  1
  Cu  Cu30  1  0.24600200  0.56323600  0.58959600  1
  Cu  Cu31  1  0.74600200  0.93676400  0.41040400  1
  Cu  Cu32  1  0.54311700  0.19902200  0.41078000  1
  Cu  Cu33  1  0.04311700  0.30097800  0.58922000  1
  Cu  Cu34  1  0.45688300  0.80097800  0.58922000  1
  Cu  Cu35  1  0.95688300  0.69902200  0.41078000  1
  Cu  Cu36  1  0.71495100  0.34434100  0.25175600  1
  Cu  Cu37  1  0.21495100  0.15565900  0.74824400  1
  Cu  Cu38  1  0.28504900  0.65565900  0.74824400  1
  Cu  Cu39  1  0.78504900  0.84434100  0.25175600  1
  Cu  Cu40  1  0.74090100  0.04560000  0.59068400  1
  Cu  Cu41  1  0.24090100  0.45440000  0.40931600  1
  Cu  Cu42  1  0.25909900  0.95440000  0.40931600  1
  Cu  Cu43  1  0.75909900  0.54560000  0.59068400  1
  Cu  Cu44  1  0.03185900  0.07048900  0.25366100  1
  Cu  Cu45  1  0.53185900  0.42951100  0.74633900  1
  Cu  Cu46  1  0.96814100  0.92951100  0.74633900  1
  Cu  Cu47  1  0.46814100  0.57048900  0.25366100  1
  Cu  Cu48  1  0.26259400  0.34263400  0.25562700  1
  Cu  Cu49  1  0.76259400  0.15736600  0.74437300  1
  Cu  Cu50  1  0.73740600  0.65736600  0.74437300  1
  Cu  Cu51  1  0.23740600  0.84263400  0.25562700  1
  Cu  Cu52  1  0.77919500  0.04449500  0.08993400  1
  Cu  Cu53  1  0.27919500  0.45550500  0.91006600  1
  Cu  Cu54  1  0.22080500  0.95550500  0.91006600  1
  Cu  Cu55  1  0.72080500  0.54449500  0.08993400  1
  Cu  Cu56  1  0.52464300  0.31230700  0.08014500  1
  Cu  Cu57  1  0.02464300  0.18769300  0.91985500  1
  Cu  Cu58  1  0.47535700  0.68769300  0.91985500  1
  Cu  Cu59  1  0.97535700  0.81230700  0.08014500  1
  Cu  Cu60  1  0.25949500  0.05584700  0.06630900  1
  Cu  Cu61  1  0.75949500  0.44415300  0.93369100  1
  Cu  Cu62  1  0.74050500  0.94415300  0.93369100  1
  Cu  Cu63  1  0.24050500  0.55584700  0.06630900  1
