# generated using pymatgen
data_Cu8Ni13C9
_symmetry_space_group_name_H-M   'P 1'
_cell_length_a   8.48061904
_cell_length_b   8.48061904
_cell_length_c   8.48061928
_cell_angle_alpha   59.75745062
_cell_angle_beta   59.75745062
_cell_angle_gamma   59.75745847
_symmetry_Int_Tables_number   1
_chemical_formula_structural   Cu8Ni13C9
_chemical_formula_sum   'Cu8 Ni13 C9'
_cell_volume   428.91299348
_cell_formula_units_Z   1
loop_
 _symmetry_equiv_pos_site_id
 _symmetry_equiv_pos_as_xyz
  1  'x, y, z'
loop_
 _atom_site_type_symbol
 _atom_site_label
 _atom_site_symmetry_multiplicity
 _atom_site_fract_x
 _atom_site_fract_y
 _atom_site_fract_z
 _atom_site_occupancy
  Ni  Ni0  1  0.20515800  0.20515800  0.79443800  1
  Ni  Ni1  1  0.79443800  0.20515800  0.20515800  1
  Ni  Ni2  1  0.20515800  0.79443800  0.20515800  1
  Ni  Ni3  1  0.80043100  0.80043100  0.18819400  1
  Ni  Ni4  1  0.18819400  0.80043100  0.80043100  1
  Ni  Ni5  1  0.80043100  0.18819400  0.80043100  1
  Ni  Ni6  1  0.38026300  0.38026300  0.38026300  1
  Ni  Ni7  1  0.38054900  0.86055100  0.38054900  1
  Ni  Ni8  1  0.86055100  0.38054900  0.38054900  1
  Ni  Ni9  1  0.38054900  0.38054900  0.86055100  1
  Ni  Ni10  1  0.84204700  0.47674700  0.84204700  1
  Ni  Ni11  1  0.47674700  0.84204700  0.84204700  1
  Ni  Ni12  1  0.84204700  0.84204700  0.47674700  1
  C  C13  1  0.15893800  0.15893800  0.15893800  1
  C  C14  1  0.16180500  0.51763600  0.16180500  1
  C  C15  1  0.51763600  0.16180500  0.16180500  1
  C  C16  1  0.16180500  0.16180500  0.51763600  1
  C  C17  1  0.61885800  0.61885800  0.61885800  1
  C  C18  1  0.61897900  0.14585100  0.61897900  1
  C  C19  1  0.14585100  0.61897900  0.61897900  1
  C  C20  1  0.61897900  0.61897900  0.14585100  1
  C  C21  1  0.83083000  0.83083000  0.83083000  1
  Cu  Cu22  1  0.00334300  0.00334300  0.49663400  1
  Cu  Cu23  1  0.49663400  0.00334300  0.00334300  1
  Cu  Cu24  1  0.00334300  0.49663400  0.00334300  1
  Cu  Cu25  1  0.49966700  0.49966700  0.00243900  1
  Cu  Cu26  1  0.00243900  0.49966700  0.49966700  1
  Cu  Cu27  1  0.49966700  0.00243900  0.49966700  1
  Cu  Cu28  1  0.50115500  0.50115500  0.50115500  1
  Cu  Cu29  1  0.00350600  0.00350600  0.00350600  1
