# generated using pymatgen
data_CuNi3C4
_symmetry_space_group_name_H-M   'P 1'
_cell_length_a   5.13773746
_cell_length_b   5.13773746
_cell_length_c   7.42904862
_cell_angle_alpha   69.77015299
_cell_angle_beta   69.77015299
_cell_angle_gamma   90.00000000
_symmetry_Int_Tables_number   1
_chemical_formula_structural   CuNi3C4
_chemical_formula_sum   'Cu1 Ni3 C4'
_cell_volume   171.05278461
_cell_formula_units_Z   1
loop_
 _symmetry_equiv_pos_site_id
 _symmetry_equiv_pos_as_xyz
  1  'x, y, z'
loop_
 _atom_site_type_symbol
 _atom_site_label
 _atom_site_symmetry_multiplicity
 _atom_site_fract_x
 _atom_site_fract_y
 _atom_site_fract_z
 _atom_site_occupancy
  C  C0  1  0.49548600  0.99548600  0.00479900  1
  C  C1  1  0.99971500  0.49971500  0.00479900  1
  C  C2  1  0.49548600  0.49971500  0.00479900  1
  C  C3  1  0.99971500  0.99548600  0.00479900  1
  Ni  Ni4  1  0.60657100  0.10657100  0.28685700  1
  Ni  Ni5  1  0.39029300  0.39029300  0.71941500  1
  Ni  Ni6  1  0.89029300  0.89029300  0.71941500  1
  Cu  Cu7  1  0.12244100  0.62244100  0.25511800  1
