# generated using pymatgen
data_Cu3NiC3
_symmetry_space_group_name_H-M   'P 1'
_cell_length_a   7.96717158
_cell_length_b   8.95527019
_cell_length_c   8.49361227
_cell_angle_alpha   92.12117302
_cell_angle_beta   78.53832814
_cell_angle_gamma   74.66799117
_symmetry_Int_Tables_number   1
_chemical_formula_structural   Cu3NiC3
_chemical_formula_sum   'Cu12 Ni4 C12'
_cell_volume   570.20420930
_cell_formula_units_Z   4
loop_
 _symmetry_equiv_pos_site_id
 _symmetry_equiv_pos_as_xyz
  1  'x, y, z'
loop_
 _atom_site_type_symbol
 _atom_site_label
 _atom_site_symmetry_multiplicity
 _atom_site_fract_x
 _atom_site_fract_y
 _atom_site_fract_z
 _atom_site_occupancy
  C  C0  1  0.00000000  0.00000000  0.00000000  1
  C  C1  1  0.50000000  0.50000000  0.50000000  1
  C  C2  1  0.51287900  0.98891600  0.24971100  1
  C  C3  1  0.48712100  0.01108400  0.75028900  1
  C  C4  1  0.41621400  0.59000000  0.21421700  1
  C  C5  1  0.58378600  0.41000000  0.78578300  1
  C  C6  1  0.18441300  0.43054000  0.52839400  1
  C  C7  1  0.81558700  0.56946000  0.47160600  1
  C  C8  1  0.73184100  0.28711300  0.08457600  1
  C  C9  1  0.26815900  0.71288700  0.91542400  1
  C  C10  1  0.00394600  0.76725000  0.23623900  1
  C  C11  1  0.99605400  0.23275000  0.76376100  1
  Ni  Ni12  1  0.34054600  0.24505400  0.05137000  1
  Ni  Ni13  1  0.65945400  0.75494600  0.94863000  1
  Ni  Ni14  1  0.73879800  0.08439000  0.46276400  1
  Ni  Ni15  1  0.26120200  0.91561000  0.53723600  1
  Cu  Cu16  1  0.72526200  0.00226800  0.61817000  1
  Cu  Cu17  1  0.27473800  0.99773200  0.38183000  1
  Cu  Cu18  1  0.25180700  0.05165500  0.67816000  1
  Cu  Cu19  1  0.74819300  0.94834500  0.32184000  1
  Cu  Cu20  1  0.27113700  0.10658200  0.05394500  1
  Cu  Cu21  1  0.72886300  0.89341800  0.94605500  1
  Cu  Cu22  1  0.55223400  0.76704600  0.13241000  1
  Cu  Cu23  1  0.44776600  0.23295400  0.86759000  1
  Cu  Cu24  1  0.55616700  0.19080000  0.46509700  1
  Cu  Cu25  1  0.44383300  0.80920000  0.53490300  1
  Cu  Cu26  1  0.50162000  0.19332500  0.14577300  1
  Cu  Cu27  1  0.49838000  0.80667500  0.85422700  1
