# generated using pymatgen
data_CuNiC3
_symmetry_space_group_name_H-M   'P 1'
_cell_length_a   7.04103879
_cell_length_b   7.76457390
_cell_length_c   7.76457305
_cell_angle_alpha   46.24086938
_cell_angle_beta   49.59322891
_cell_angle_gamma   49.59323605
_symmetry_Int_Tables_number   1
_chemical_formula_structural   CuNiC3
_chemical_formula_sum   'Cu4 Ni4 C12'
_cell_volume   217.49262407
_cell_formula_units_Z   4
loop_
 _symmetry_equiv_pos_site_id
 _symmetry_equiv_pos_as_xyz
  1  'x, y, z'
loop_
 _atom_site_type_symbol
 _atom_site_label
 _atom_site_symmetry_multiplicity
 _atom_site_fract_x
 _atom_site_fract_y
 _atom_site_fract_z
 _atom_site_occupancy
  Ni  Ni0  1  0.75000000  0.77049600  0.22950400  1
  Ni  Ni1  1  0.75000000  0.25071000  0.74929000  1
  Ni  Ni2  1  0.25000000  0.22950400  0.77049600  1
  Ni  Ni3  1  0.25000000  0.74929000  0.25071000  1
  Cu  Cu4  1  0.69217900  0.79044700  0.68538100  1
  Cu  Cu5  1  0.80782100  0.31461900  0.20955300  1
  Cu  Cu6  1  0.19217900  0.68538100  0.79044700  1
  Cu  Cu7  1  0.30782100  0.20955300  0.31461900  1
  C  C8  1  0.64069500  0.11605900  0.50630500  1
  C  C9  1  0.37299200  0.44377800  0.73436300  1
  C  C10  1  0.87299200  0.73436300  0.44377800  1
  C  C11  1  0.12700800  0.26563700  0.55622200  1
  C  C12  1  0.38686300  0.83174200  0.89524300  1
  C  C13  1  0.61313700  0.16825800  0.10475700  1
  C  C14  1  0.35930500  0.88394100  0.49369500  1
  C  C15  1  0.88686300  0.89524300  0.83174200  1
  C  C16  1  0.11313700  0.10475700  0.16825800  1
  C  C17  1  0.62700800  0.55622200  0.26563700  1
  C  C18  1  0.14069500  0.50630500  0.11605900  1
  C  C19  1  0.85930500  0.49369500  0.88394100  1
