# generated using pymatgen
data_Cu(NiC2)2
_symmetry_space_group_name_H-M   'P 1'
_cell_length_a   24.06810447
_cell_length_b   24.06810447
_cell_length_c   24.06810466
_cell_angle_alpha   8.78408752
_cell_angle_beta   8.78408752
_cell_angle_gamma   8.78408629
_symmetry_Int_Tables_number   1
_chemical_formula_structural   Cu(NiC2)2
_chemical_formula_sum   'Cu2 Ni4 C8'
_cell_volume   282.12972176
_cell_formula_units_Z   2
loop_
 _symmetry_equiv_pos_site_id
 _symmetry_equiv_pos_as_xyz
  1  'x, y, z'
loop_
 _atom_site_type_symbol
 _atom_site_label
 _atom_site_symmetry_multiplicity
 _atom_site_fract_x
 _atom_site_fract_y
 _atom_site_fract_z
 _atom_site_occupancy
  Ni  Ni0  1  0.60545900  0.60545900  0.60545900  1
  Ni  Ni1  1  0.88802100  0.88802100  0.88802100  1
  Ni  Ni2  1  0.77202000  0.77202000  0.77202000  1
  Ni  Ni3  1  0.05451400  0.05451400  0.05451400  1
  Cu  Cu4  1  0.32407700  0.32407700  0.32407700  1
  Cu  Cu5  1  0.49155100  0.49155100  0.49155100  1
  C  C6  1  0.00085100  0.00085100  0.00085100  1
  C  C7  1  0.28791800  0.28791800  0.28791800  1
  C  C8  1  0.91931000  0.91931000  0.91931000  1
  C  C9  1  0.54240700  0.54240700  0.54240700  1
  C  C10  1  0.83493700  0.83493700  0.83493700  1
  C  C11  1  0.45455800  0.45455800  0.45455800  1
  C  C12  1  0.08582100  0.08582100  0.08582100  1
  C  C13  1  0.37550900  0.37550900  0.37550900  1
