# generated using pymatgen
data_CuNiC10
_symmetry_space_group_name_H-M   'P 1'
_cell_length_a   9.58398347
_cell_length_b   9.58398347
_cell_length_c   6.01622800
_cell_angle_alpha   90.00000000
_cell_angle_beta   90.00000000
_cell_angle_gamma   119.99999633
_symmetry_Int_Tables_number   1
_chemical_formula_structural   CuNiC10
_chemical_formula_sum   'Cu2 Ni2 C20'
_cell_volume   478.57173620
_cell_formula_units_Z   2
loop_
 _symmetry_equiv_pos_site_id
 _symmetry_equiv_pos_as_xyz
  1  'x, y, z'
loop_
 _atom_site_type_symbol
 _atom_site_label
 _atom_site_symmetry_multiplicity
 _atom_site_fract_x
 _atom_site_fract_y
 _atom_site_fract_z
 _atom_site_occupancy
  C  C0  1  0.75609900  0.14884600  0.23387100  1
  C  C1  1  0.39274600  0.24390100  0.23387100  1
  C  C2  1  0.85115400  0.60725400  0.23387100  1
  C  C3  1  0.24390100  0.85115400  0.73387100  1
  C  C4  1  0.60725400  0.75609900  0.73387100  1
  C  C5  1  0.14884600  0.39274600  0.73387100  1
  Ni  Ni6  1  0.66666700  0.33333300  0.64984800  1
  Ni  Ni7  1  0.33333300  0.66666700  0.14984800  1
  Cu  Cu8  1  0.00000000  0.00000000  0.04067300  1
  Cu  Cu9  1  0.00000000  0.00000000  0.54067300  1
  C  C10  1  0.86201000  0.08945100  0.79966400  1
  C  C11  1  0.22744000  0.13799000  0.79966400  1
  C  C12  1  0.91054900  0.77256000  0.79966400  1
  C  C13  1  0.13799000  0.91054900  0.29966400  1
  C  C14  1  0.77256000  0.86201000  0.29966400  1
  C  C15  1  0.08945100  0.22744000  0.29966400  1
  C  C16  1  0.89789500  0.41851900  0.51366500  1
  C  C17  1  0.52062400  0.10210500  0.51366500  1
  C  C18  1  0.58148100  0.47937600  0.51366500  1
  C  C19  1  0.10210500  0.58148100  0.01366500  1
  C  C20  1  0.47937600  0.89789500  0.01366500  1
  C  C21  1  0.41851900  0.52062400  0.01366500  1
  C  C22  1  0.66666700  0.33333300  0.99995800  1
  C  C23  1  0.33333300  0.66666700  0.49995800  1
