# generated using pymatgen
data_Cu8Ni4C9
_symmetry_space_group_name_H-M   'P 1'
_cell_length_a   9.36736468
_cell_length_b   9.36736468
_cell_length_c   9.36736428
_cell_angle_alpha   41.14291153
_cell_angle_beta   41.14291153
_cell_angle_gamma   41.14290789
_symmetry_Int_Tables_number   1
_chemical_formula_structural   Cu8Ni4C9
_chemical_formula_sum   'Cu8 Ni4 C9'
_cell_volume   321.31235843
_cell_formula_units_Z   1
loop_
 _symmetry_equiv_pos_site_id
 _symmetry_equiv_pos_as_xyz
  1  'x, y, z'
loop_
 _atom_site_type_symbol
 _atom_site_label
 _atom_site_symmetry_multiplicity
 _atom_site_fract_x
 _atom_site_fract_y
 _atom_site_fract_z
 _atom_site_occupancy
  C  C0  1  0.88066500  0.37795500  0.37795500  1
  C  C1  1  0.87843900  0.87843900  0.87843900  1
  C  C2  1  0.37795500  0.88066500  0.37795500  1
  C  C3  1  0.37795500  0.37795500  0.88066500  1
  C  C4  1  0.11933500  0.62204500  0.62204500  1
  C  C5  1  0.12156100  0.12156100  0.12156100  1
  C  C6  1  0.62204500  0.11933500  0.62204500  1
  C  C7  1  0.62204500  0.62204500  0.11933500  1
  C  C8  1  0.00000000  0.00000000  0.00000000  1
  Ni  Ni9  1  0.00000000  0.00000000  0.50000000  1
  Ni  Ni10  1  0.00000000  0.50000000  0.00000000  1
  Ni  Ni11  1  0.50000000  0.50000000  0.50000000  1
  Ni  Ni12  1  0.50000000  0.00000000  0.00000000  1
  Cu  Cu13  1  0.72234000  0.22425700  0.22425700  1
  Cu  Cu14  1  0.72469700  0.72469700  0.72469700  1
  Cu  Cu15  1  0.22425700  0.72234000  0.22425700  1
  Cu  Cu16  1  0.22425700  0.22425700  0.72234000  1
  Cu  Cu17  1  0.27766000  0.77574300  0.77574300  1
  Cu  Cu18  1  0.27530300  0.27530300  0.27530300  1
  Cu  Cu19  1  0.77574300  0.27766000  0.77574300  1
  Cu  Cu20  1  0.77574300  0.77574300  0.27766000  1
