# generated using pymatgen
data_Cu(NiC5)4
_symmetry_space_group_name_H-M   'P 1'
_cell_length_a   12.52515227
_cell_length_b   12.52515227
_cell_length_c   12.52515255
_cell_angle_alpha   27.27175396
_cell_angle_beta   27.27175396
_cell_angle_gamma   27.27175226
_symmetry_Int_Tables_number   1
_chemical_formula_structural   Cu(NiC5)4
_chemical_formula_sum   'Cu1 Ni4 C20'
_cell_volume   364.02109837
_cell_formula_units_Z   1
loop_
 _symmetry_equiv_pos_site_id
 _symmetry_equiv_pos_as_xyz
  1  'x, y, z'
loop_
 _atom_site_type_symbol
 _atom_site_label
 _atom_site_symmetry_multiplicity
 _atom_site_fract_x
 _atom_site_fract_y
 _atom_site_fract_z
 _atom_site_occupancy
  Ni  Ni0  1  0.39986100  0.39986100  0.39986100  1
  Ni  Ni1  1  0.80000600  0.80000600  0.80000600  1
  Ni  Ni2  1  0.19999400  0.19999400  0.19999400  1
  Ni  Ni3  1  0.60013900  0.60013900  0.60013900  1
  Cu  Cu4  1  0.00000000  0.00000000  0.00000000  1
  C  C5  1  0.30014300  0.30014300  0.30014300  1
  C  C6  1  0.50000000  0.50000000  0.50000000  1
  C  C7  1  0.90017300  0.90017300  0.90017300  1
  C  C8  1  0.69985700  0.69985700  0.69985700  1
  C  C9  1  0.09982700  0.09982700  0.09982700  1
  C  C10  1  0.50000000  0.50000000  0.00000000  1
  C  C11  1  0.70010000  0.70010000  0.19982700  1
  C  C12  1  0.09958000  0.09958000  0.60213000  1
  C  C13  1  0.90042000  0.90042000  0.39787000  1
  C  C14  1  0.29990000  0.29990000  0.80017300  1
  C  C15  1  0.60213000  0.09958000  0.09958000  1
  C  C16  1  0.80017300  0.29990000  0.29990000  1
  C  C17  1  0.19982700  0.70010000  0.70010000  1
  C  C18  1  0.00000000  0.50000000  0.50000000  1
  C  C19  1  0.39787000  0.90042000  0.90042000  1
  C  C20  1  0.09958000  0.60213000  0.09958000  1
  C  C21  1  0.29990000  0.80017300  0.29990000  1
  C  C22  1  0.70010000  0.19982700  0.70010000  1
  C  C23  1  0.50000000  0.00000000  0.50000000  1
  C  C24  1  0.90042000  0.39787000  0.90042000  1
