# generated using pymatgen
data_Cu40Ni13C31
_symmetry_space_group_name_H-M   'P 1'
_cell_length_a   17.15330398
_cell_length_b   17.15330398
_cell_length_c   7.87363400
_cell_angle_alpha   90.00000000
_cell_angle_beta   90.00000000
_cell_angle_gamma   119.99999992
_symmetry_Int_Tables_number   1
_chemical_formula_structural   Cu40Ni13C31
_chemical_formula_sum   'Cu80 Ni26 C62'
_cell_volume   2006.32563894
_cell_formula_units_Z   2
loop_
 _symmetry_equiv_pos_site_id
 _symmetry_equiv_pos_as_xyz
  1  'x, y, z'
loop_
 _atom_site_type_symbol
 _atom_site_label
 _atom_site_symmetry_multiplicity
 _atom_site_fract_x
 _atom_site_fract_y
 _atom_site_fract_z
 _atom_site_occupancy
  Ni  Ni0  1  0.72732600  0.72732600  0.70209700  1
  Ni  Ni1  1  0.27267400  0.00000000  0.70209700  1
  Ni  Ni2  1  0.00000000  0.27267400  0.70209700  1
  Ni  Ni3  1  0.27267400  0.27267400  0.70209700  1
  Ni  Ni4  1  0.72732600  0.00000000  0.70209700  1
  Ni  Ni5  1  0.00000000  0.72732600  0.70209700  1
  Ni  Ni6  1  0.27267400  0.27267400  0.29790300  1
  Ni  Ni7  1  0.72732600  0.00000000  0.29790300  1
  Ni  Ni8  1  0.00000000  0.72732600  0.29790300  1
  Ni  Ni9  1  0.72732600  0.72732600  0.29790300  1
  Ni  Ni10  1  0.27267400  0.00000000  0.29790300  1
  Ni  Ni11  1  0.00000000  0.27267400  0.29790300  1
  Ni  Ni12  1  0.42301900  0.57698100  0.50000000  1
  Ni  Ni13  1  0.42301900  0.84603800  0.50000000  1
  Ni  Ni14  1  0.15396200  0.57698100  0.50000000  1
  Ni  Ni15  1  0.57698100  0.42301900  0.50000000  1
  Ni  Ni16  1  0.84603800  0.42301900  0.50000000  1
  Ni  Ni17  1  0.57698100  0.15396200  0.50000000  1
  Ni  Ni18  1  0.75608800  0.24391200  0.00000000  1
  Ni  Ni19  1  0.75608800  0.51217600  0.00000000  1
  Ni  Ni20  1  0.48782400  0.24391200  0.00000000  1
  Ni  Ni21  1  0.24391200  0.75608800  0.00000000  1
  Ni  Ni22  1  0.51217600  0.75608800  0.00000000  1
  Ni  Ni23  1  0.24391200  0.48782400  0.00000000  1
  Ni  Ni24  1  0.00000000  0.00000000  0.80040300  1
  Ni  Ni25  1  0.00000000  0.00000000  0.19959700  1
  Cu  Cu26  1  0.89712100  0.34225100  0.77120600  1
  Cu  Cu27  1  0.65774900  0.55487000  0.77120600  1
  Cu  Cu28  1  0.44513000  0.10287900  0.77120600  1
  Cu  Cu29  1  0.34225100  0.89712100  0.77120600  1
  Cu  Cu30  1  0.55487000  0.65774900  0.77120600  1
  Cu  Cu31  1  0.10287900  0.44513000  0.77120600  1
  Cu  Cu32  1  0.10287900  0.65774900  0.77120600  1
  Cu  Cu33  1  0.34225100  0.44513000  0.77120600  1
  Cu  Cu34  1  0.55487000  0.89712100  0.77120600  1
  Cu  Cu35  1  0.65774900  0.10287900  0.77120600  1
  Cu  Cu36  1  0.44513000  0.34225100  0.77120600  1
  Cu  Cu37  1  0.89712100  0.55487000  0.77120600  1
  Cu  Cu38  1  0.10287900  0.65774900  0.22879400  1
  Cu  Cu39  1  0.34225100  0.44513000  0.22879400  1
  Cu  Cu40  1  0.55487000  0.89712100  0.22879400  1
  Cu  Cu41  1  0.65774900  0.10287900  0.22879400  1
  Cu  Cu42  1  0.44513000  0.34225100  0.22879400  1
  Cu  Cu43  1  0.89712100  0.55487000  0.22879400  1
  Cu  Cu44  1  0.89712100  0.34225100  0.22879400  1
  Cu  Cu45  1  0.65774900  0.55487000  0.22879400  1
  Cu  Cu46  1  0.44513000  0.10287900  0.22879400  1
  Cu  Cu47  1  0.34225100  0.89712100  0.22879400  1
  Cu  Cu48  1  0.55487000  0.65774900  0.22879400  1
  Cu  Cu49  1  0.10287900  0.44513000  0.22879400  1
  Cu  Cu50  1  0.91452800  0.23555100  0.00000000  1
  Cu  Cu51  1  0.76444900  0.67897700  0.00000000  1
  Cu  Cu52  1  0.32102300  0.08547200  0.00000000  1
  Cu  Cu53  1  0.23555100  0.91452800  0.00000000  1
  Cu  Cu54  1  0.67897700  0.76444900  0.00000000  1
  Cu  Cu55  1  0.08547200  0.32102300  0.00000000  1
  Cu  Cu56  1  0.08547200  0.76444900  0.00000000  1
  Cu  Cu57  1  0.23555100  0.32102300  0.00000000  1
  Cu  Cu58  1  0.67897700  0.91452800  0.00000000  1
  Cu  Cu59  1  0.76444900  0.08547200  0.00000000  1
  Cu  Cu60  1  0.32102300  0.23555100  0.00000000  1
  Cu  Cu61  1  0.91452800  0.67897700  0.00000000  1
  Cu  Cu62  1  0.91123200  0.08876800  0.75665500  1
  Cu  Cu63  1  0.91123200  0.82246400  0.75665500  1
  Cu  Cu64  1  0.17753600  0.08876800  0.75665500  1
  Cu  Cu65  1  0.08876800  0.91123200  0.75665500  1
  Cu  Cu66  1  0.82246400  0.91123200  0.75665500  1
  Cu  Cu67  1  0.08876800  0.17753600  0.75665500  1
  Cu  Cu68  1  0.08876800  0.91123200  0.24334500  1
  Cu  Cu69  1  0.08876800  0.17753600  0.24334500  1
  Cu  Cu70  1  0.82246400  0.91123200  0.24334500  1
  Cu  Cu71  1  0.91123200  0.08876800  0.24334500  1
  Cu  Cu72  1  0.17753600  0.08876800  0.24334500  1
  Cu  Cu73  1  0.91123200  0.82246400  0.24334500  1
  Cu  Cu74  1  0.73835200  0.26164800  0.65736200  1
  Cu  Cu75  1  0.73835200  0.47670400  0.65736200  1
  Cu  Cu76  1  0.52329600  0.26164800  0.65736200  1
  Cu  Cu77  1  0.26164800  0.73835200  0.65736200  1
  Cu  Cu78  1  0.47670400  0.73835200  0.65736200  1
  Cu  Cu79  1  0.26164800  0.52329600  0.65736200  1
  Cu  Cu80  1  0.26164800  0.73835200  0.34263800  1
  Cu  Cu81  1  0.26164800  0.52329600  0.34263800  1
  Cu  Cu82  1  0.47670400  0.73835200  0.34263800  1
  Cu  Cu83  1  0.73835200  0.26164800  0.34263800  1
  Cu  Cu84  1  0.52329600  0.26164800  0.34263800  1
  Cu  Cu85  1  0.73835200  0.47670400  0.34263800  1
  Cu  Cu86  1  0.85824000  0.14176000  0.50000000  1
  Cu  Cu87  1  0.85824000  0.71648000  0.50000000  1
  Cu  Cu88  1  0.28352000  0.14176000  0.50000000  1
  Cu  Cu89  1  0.14176000  0.85824000  0.50000000  1
  Cu  Cu90  1  0.71648000  0.85824000  0.50000000  1
  Cu  Cu91  1  0.14176000  0.28352000  0.50000000  1
  Cu  Cu92  1  0.45549900  0.54450100  0.00000000  1
  Cu  Cu93  1  0.45549900  0.91099800  0.00000000  1
  Cu  Cu94  1  0.08900200  0.54450100  0.00000000  1
  Cu  Cu95  1  0.54450100  0.45549900  0.00000000  1
  Cu  Cu96  1  0.91099800  0.45549900  0.00000000  1
  Cu  Cu97  1  0.54450100  0.08900200  0.00000000  1
  Cu  Cu98  1  0.58152000  0.58152000  0.50000000  1
  Cu  Cu99  1  0.41848000  0.00000000  0.50000000  1
  Cu  Cu100  1  0.00000000  0.41848000  0.50000000  1
  Cu  Cu101  1  0.41848000  0.41848000  0.50000000  1
  Cu  Cu102  1  0.58152000  0.00000000  0.50000000  1
  Cu  Cu103  1  0.00000000  0.58152000  0.50000000  1
  Cu  Cu104  1  0.66666700  0.33333300  0.00000000  1
  Cu  Cu105  1  0.33333300  0.66666700  0.00000000  1
  C  C106  1  0.87153100  0.28223300  0.50000000  1
  C  C107  1  0.71776700  0.58929800  0.50000000  1
  C  C108  1  0.41070200  0.12846900  0.50000000  1
  C  C109  1  0.28223300  0.87153100  0.50000000  1
  C  C110  1  0.58929800  0.71776700  0.50000000  1
  C  C111  1  0.12846900  0.41070200  0.50000000  1
  C  C112  1  0.12846900  0.71776700  0.50000000  1
  C  C113  1  0.28223300  0.41070200  0.50000000  1
  C  C114  1  0.58929800  0.87153100  0.50000000  1
  C  C115  1  0.71776700  0.12846900  0.50000000  1
  C  C116  1  0.41070200  0.28223300  0.50000000  1
  C  C117  1  0.87153100  0.58929800  0.50000000  1
  C  C118  1  0.82122600  0.17877400  0.76469300  1
  C  C119  1  0.82122600  0.64245300  0.76469300  1
  C  C120  1  0.35754700  0.17877400  0.76469300  1
  C  C121  1  0.17877400  0.82122600  0.76469300  1
  C  C122  1  0.64245300  0.82122600  0.76469300  1
  C  C123  1  0.17877400  0.35754700  0.76469300  1
  C  C124  1  0.17877400  0.82122600  0.23530700  1
  C  C125  1  0.17877400  0.35754700  0.23530700  1
  C  C126  1  0.64245300  0.82122600  0.23530700  1
  C  C127  1  0.82122600  0.17877400  0.23530700  1
  C  C128  1  0.35754700  0.17877400  0.23530700  1
  C  C129  1  0.82122600  0.64245300  0.23530700  1
  C  C130  1  0.39507000  0.60493000  0.81849300  1
  C  C131  1  0.39507000  0.79014000  0.81849300  1
  C  C132  1  0.20986000  0.60493000  0.81849300  1
  C  C133  1  0.60493000  0.39507000  0.81849300  1
  C  C134  1  0.79014000  0.39507000  0.81849300  1
  C  C135  1  0.60493000  0.20986000  0.81849300  1
  C  C136  1  0.60493000  0.39507000  0.18150700  1
  C  C137  1  0.60493000  0.20986000  0.18150700  1
  C  C138  1  0.79014000  0.39507000  0.18150700  1
  C  C139  1  0.39507000  0.60493000  0.18150700  1
  C  C140  1  0.20986000  0.60493000  0.18150700  1
  C  C141  1  0.39507000  0.79014000  0.18150700  1
  C  C142  1  0.85468500  0.85468500  0.50000000  1
  C  C143  1  0.14531500  0.00000000  0.50000000  1
  C  C144  1  0.00000000  0.14531500  0.50000000  1
  C  C145  1  0.14531500  0.14531500  0.50000000  1
  C  C146  1  0.85468500  0.00000000  0.50000000  1
  C  C147  1  0.00000000  0.85468500  0.50000000  1
  C  C148  1  0.83875300  0.83875300  0.00000000  1
  C  C149  1  0.16124700  0.00000000  0.00000000  1
  C  C150  1  0.00000000  0.16124700  0.00000000  1
  C  C151  1  0.16124700  0.16124700  0.00000000  1
  C  C152  1  0.83875300  0.00000000  0.00000000  1
  C  C153  1  0.00000000  0.83875300  0.00000000  1
  C  C154  1  0.61232800  0.61232800  0.00000000  1
  C  C155  1  0.38767200  0.00000000  0.00000000  1
  C  C156  1  0.00000000  0.38767200  0.00000000  1
  C  C157  1  0.38767200  0.38767200  0.00000000  1
  C  C158  1  0.61232800  0.00000000  0.00000000  1
  C  C159  1  0.00000000  0.61232800  0.00000000  1
  C  C160  1  0.50000000  0.50000000  0.73907200  1
  C  C161  1  0.50000000  0.00000000  0.73907200  1
  C  C162  1  0.00000000  0.50000000  0.73907200  1
  C  C163  1  0.50000000  0.50000000  0.26092800  1
  C  C164  1  0.50000000  0.00000000  0.26092800  1
  C  C165  1  0.00000000  0.50000000  0.26092800  1
  C  C166  1  0.66666700  0.33333300  0.50000000  1
  C  C167  1  0.33333300  0.66666700  0.50000000  1
