# generated using pymatgen
data_Cu3NiC12
_symmetry_space_group_name_H-M   'P 1'
_cell_length_a   13.35129414
_cell_length_b   13.35129414
_cell_length_c   13.35129372
_cell_angle_alpha   17.32035725
_cell_angle_beta   17.32035725
_cell_angle_gamma   17.32036031
_symmetry_Int_Tables_number   1
_chemical_formula_structural   Cu3NiC12
_chemical_formula_sum   'Cu3 Ni1 C12'
_cell_volume   184.07455727
_cell_formula_units_Z   1
loop_
 _symmetry_equiv_pos_site_id
 _symmetry_equiv_pos_as_xyz
  1  'x, y, z'
loop_
 _atom_site_type_symbol
 _atom_site_label
 _atom_site_symmetry_multiplicity
 _atom_site_fract_x
 _atom_site_fract_y
 _atom_site_fract_z
 _atom_site_occupancy
  C  C0  1  0.62436900  0.62436900  0.62436900  1
  C  C1  1  0.37563100  0.37563100  0.37563100  1
  C  C2  1  0.87468600  0.87468600  0.87468600  1
  C  C3  1  0.12531400  0.12531400  0.12531400  1
  C  C4  1  0.93728400  0.93728400  0.93728400  1
  C  C5  1  0.68713700  0.68713700  0.68713700  1
  C  C6  1  0.18610300  0.18610300  0.18610300  1
  C  C7  1  0.43916600  0.43916600  0.43916600  1
  C  C8  1  0.56083400  0.56083400  0.56083400  1
  C  C9  1  0.31286300  0.31286300  0.31286300  1
  C  C10  1  0.81389700  0.81389700  0.81389700  1
  C  C11  1  0.06271600  0.06271600  0.06271600  1
  Ni  Ni12  1  0.50000000  0.50000000  0.50000000  1
  Cu  Cu13  1  0.75039100  0.75039100  0.75039100  1
  Cu  Cu14  1  0.00000000  0.00000000  0.00000000  1
  Cu  Cu15  1  0.24960900  0.24960900  0.24960900  1
