# generated using pymatgen
data_Cu2NiC3
_symmetry_space_group_name_H-M   'P 1'
_cell_length_a   4.14885850
_cell_length_b   4.14885850
_cell_length_c   6.35544000
_cell_angle_alpha   90.00000000
_cell_angle_beta   90.00000000
_cell_angle_gamma   120.00000794
_symmetry_Int_Tables_number   1
_chemical_formula_structural   Cu2NiC3
_chemical_formula_sum   'Cu2 Ni1 C3'
_cell_volume   94.74001864
_cell_formula_units_Z   1
loop_
 _symmetry_equiv_pos_site_id
 _symmetry_equiv_pos_as_xyz
  1  'x, y, z'
loop_
 _atom_site_type_symbol
 _atom_site_label
 _atom_site_symmetry_multiplicity
 _atom_site_fract_x
 _atom_site_fract_y
 _atom_site_fract_z
 _atom_site_occupancy
  Ni  Ni0  1  0.00000000  0.00000000  0.00000000  1
  C  C1  1  0.00000000  0.00000000  0.50000000  1
  C  C2  1  0.33333300  0.66666700  0.89169600  1
  C  C3  1  0.66666700  0.33333300  0.10830400  1
  Cu  Cu4  1  0.33333300  0.66666700  0.30209700  1
  Cu  Cu5  1  0.66666700  0.33333300  0.69790300  1
