# generated using pymatgen
data_Cu4Ni14C13
_symmetry_space_group_name_H-M   'P 1'
_cell_length_a   5.09981100
_cell_length_b   8.74149100
_cell_length_c   14.10028600
_cell_angle_alpha   90.00000000
_cell_angle_beta   90.00000000
_cell_angle_gamma   90.00000000
_symmetry_Int_Tables_number   1
_chemical_formula_structural   Cu4Ni14C13
_chemical_formula_sum   'Cu8 Ni28 C26'
_cell_volume   628.59007248
_cell_formula_units_Z   2
loop_
 _symmetry_equiv_pos_site_id
 _symmetry_equiv_pos_as_xyz
  1  'x, y, z'
loop_
 _atom_site_type_symbol
 _atom_site_label
 _atom_site_symmetry_multiplicity
 _atom_site_fract_x
 _atom_site_fract_y
 _atom_site_fract_z
 _atom_site_occupancy
  C  C0  1  0.66613700  0.50000000  0.32883500  1
  C  C1  1  0.33386300  0.50000000  0.67116500  1
  C  C2  1  0.16613700  0.00000000  0.17116500  1
  C  C3  1  0.83386300  0.00000000  0.82883500  1
  C  C4  1  0.65250500  0.82029800  0.17564200  1
  C  C5  1  0.34749500  0.82029800  0.82435800  1
  C  C6  1  0.15250500  0.67970200  0.32435800  1
  C  C7  1  0.84749500  0.67970200  0.67564200  1
  C  C8  1  0.34749500  0.17970200  0.82435800  1
  C  C9  1  0.65250500  0.17970200  0.17564200  1
  C  C10  1  0.84749500  0.32029800  0.67564200  1
  C  C11  1  0.15250500  0.32029800  0.32435800  1
  C  C12  1  0.00000000  0.81700500  0.00000000  1
  C  C13  1  0.50000000  0.68299500  0.50000000  1
  C  C14  1  0.00000000  0.18299500  0.00000000  1
  C  C15  1  0.50000000  0.31700500  0.50000000  1
  C  C16  1  0.00000000  0.84655000  0.50000000  1
  C  C17  1  0.50000000  0.65345000  0.00000000  1
  C  C18  1  0.00000000  0.15345000  0.50000000  1
  C  C19  1  0.50000000  0.34655000  0.00000000  1
  C  C20  1  0.00000000  0.50000000  0.50000000  1
  C  C21  1  0.50000000  0.00000000  0.00000000  1
  C  C22  1  0.99116700  0.50000000  0.12392800  1
  C  C23  1  0.00883300  0.50000000  0.87607200  1
  C  C24  1  0.49116700  0.00000000  0.37607200  1
  C  C25  1  0.50883300  0.00000000  0.62392800  1
  Ni  Ni26  1  0.82908000  0.65837000  0.09019300  1
  Ni  Ni27  1  0.17092000  0.65837000  0.90980700  1
  Ni  Ni28  1  0.32908000  0.84163000  0.40980700  1
  Ni  Ni29  1  0.67092000  0.84163000  0.59019300  1
  Ni  Ni30  1  0.17092000  0.34163000  0.90980700  1
  Ni  Ni31  1  0.82908000  0.34163000  0.09019300  1
  Ni  Ni32  1  0.67092000  0.15837000  0.59019300  1
  Ni  Ni33  1  0.32908000  0.15837000  0.40980700  1
  Ni  Ni34  1  0.99189300  0.50000000  0.24328700  1
  Ni  Ni35  1  0.00810700  0.50000000  0.75671300  1
  Ni  Ni36  1  0.49189300  0.00000000  0.25671300  1
  Ni  Ni37  1  0.50810700  0.00000000  0.74328700  1
  Ni  Ni38  1  0.28643600  0.50000000  0.07951400  1
  Ni  Ni39  1  0.71356400  0.50000000  0.92048600  1
  Ni  Ni40  1  0.78643600  0.00000000  0.42048600  1
  Ni  Ni41  1  0.21356400  0.00000000  0.57951400  1
  Ni  Ni42  1  0.85480000  0.64549000  0.42673600  1
  Ni  Ni43  1  0.14520000  0.64549000  0.57326400  1
  Ni  Ni44  1  0.35480000  0.85451000  0.07326400  1
  Ni  Ni45  1  0.64520000  0.85451000  0.92673600  1
  Ni  Ni46  1  0.14520000  0.35451000  0.57326400  1
  Ni  Ni47  1  0.85480000  0.35451000  0.42673600  1
  Ni  Ni48  1  0.64520000  0.14549000  0.92673600  1
  Ni  Ni49  1  0.35480000  0.14549000  0.07326400  1
  Ni  Ni50  1  0.69183400  0.50000000  0.58070900  1
  Ni  Ni51  1  0.30816600  0.50000000  0.41929100  1
  Ni  Ni52  1  0.19183400  0.00000000  0.91929100  1
  Ni  Ni53  1  0.80816600  0.00000000  0.08070900  1
  Cu  Cu54  1  0.49147400  0.66402700  0.25683900  1
  Cu  Cu55  1  0.50852600  0.66402700  0.74316100  1
  Cu  Cu56  1  0.99147400  0.83597300  0.24316100  1
  Cu  Cu57  1  0.00852600  0.83597300  0.75683900  1
  Cu  Cu58  1  0.50852600  0.33597300  0.74316100  1
  Cu  Cu59  1  0.49147400  0.33597300  0.25683900  1
  Cu  Cu60  1  0.00852600  0.16402700  0.75683900  1
  Cu  Cu61  1  0.99147400  0.16402700  0.24316100  1
