# generated using pymatgen
data_Cu2Ni11C7
_symmetry_space_group_name_H-M   'P 1'
_cell_length_a   6.56269400
_cell_length_b   6.68647389
_cell_length_c   13.42845001
_cell_angle_alpha   87.58115586
_cell_angle_beta   85.78703885
_cell_angle_gamma   60.84962804
_symmetry_Int_Tables_number   1
_chemical_formula_structural   Cu2Ni11C7
_chemical_formula_sum   'Cu4 Ni22 C14'
_cell_volume   513.22026387
_cell_formula_units_Z   2
loop_
 _symmetry_equiv_pos_site_id
 _symmetry_equiv_pos_as_xyz
  1  'x, y, z'
loop_
 _atom_site_type_symbol
 _atom_site_label
 _atom_site_symmetry_multiplicity
 _atom_site_fract_x
 _atom_site_fract_y
 _atom_site_fract_z
 _atom_site_occupancy
  C  C0  1  0.67659700  0.61998400  0.79684000  1
  C  C1  1  0.32340300  0.38001600  0.20316000  1
  C  C2  1  0.06048200  0.72627700  0.97281600  1
  C  C3  1  0.93951800  0.27372300  0.02718400  1
  C  C4  1  0.78089400  0.78693300  0.47087000  1
  C  C5  1  0.21910600  0.21306700  0.52913000  1
  C  C6  1  0.17998000  0.69314100  0.67044400  1
  C  C7  1  0.82002000  0.30685900  0.32955600  1
  C  C8  1  0.50853700  0.74855200  0.06543700  1
  C  C9  1  0.49146300  0.25144800  0.93456300  1
  C  C10  1  0.76604200  0.84666400  0.21665200  1
  C  C11  1  0.23395800  0.15333600  0.78334800  1
  C  C12  1  0.73242900  0.26978300  0.57926100  1
  C  C13  1  0.26757100  0.73021700  0.42073900  1
  Ni  Ni14  1  0.73423700  0.66182100  0.98015300  1
  Ni  Ni15  1  0.26576300  0.33817900  0.01984700  1
  Ni  Ni16  1  0.74704100  0.09624000  0.98136300  1
  Ni  Ni17  1  0.25295900  0.90376000  0.01863700  1
  Ni  Ni18  1  0.44540000  0.49907700  0.88679400  1
  Ni  Ni19  1  0.55460000  0.50092300  0.11320600  1
  Ni  Ni20  1  0.53504500  0.90125600  0.15232300  1
  Ni  Ni21  1  0.46495500  0.09874400  0.84767700  1
  Ni  Ni22  1  0.79571500  0.67654300  0.31272100  1
  Ni  Ni23  1  0.20428500  0.32345700  0.68727900  1
  Ni  Ni24  1  0.31436000  0.88957000  0.75299000  1
  Ni  Ni25  1  0.68564000  0.11043000  0.24701000  1
  Ni  Ni26  1  0.99353400  0.28428500  0.85557500  1
  Ni  Ni27  1  0.00646600  0.71571500  0.14442500  1
  Ni  Ni28  1  0.59445800  0.15973700  0.52180600  1
  Ni  Ni29  1  0.40554200  0.84026300  0.47819400  1
  Ni  Ni30  1  0.57768500  0.45427900  0.66735600  1
  Ni  Ni31  1  0.42231500  0.54572100  0.33264400  1
  Ni  Ni32  1  0.17373400  0.59451800  0.50701700  1
  Ni  Ni33  1  0.82626600  0.40548200  0.49298300  1
  Ni  Ni34  1  0.98417400  0.06268900  0.61277000  1
  Ni  Ni35  1  0.01582600  0.93731100  0.38723000  1
  Cu  Cu36  1  0.96316500  0.73229500  0.81419900  1
  Cu  Cu37  1  0.03683500  0.26770500  0.18580100  1
  Cu  Cu38  1  0.79794800  0.73835700  0.64480600  1
  Cu  Cu39  1  0.20205200  0.26164300  0.35519400  1
