# generated using pymatgen
data_Cu8(NiC6)5
_symmetry_space_group_name_H-M   'P 1'
_cell_length_a   5.28147491
_cell_length_b   13.42337507
_cell_length_c   18.47089005
_cell_angle_alpha   90.00000000
_cell_angle_beta   90.00000000
_cell_angle_gamma   90.00000000
_symmetry_Int_Tables_number   1
_chemical_formula_structural   Cu8(NiC6)5
_chemical_formula_sum   'Cu16 Ni10 C60'
_cell_volume   1309.49778857
_cell_formula_units_Z   2
loop_
 _symmetry_equiv_pos_site_id
 _symmetry_equiv_pos_as_xyz
  1  'x, y, z'
loop_
 _atom_site_type_symbol
 _atom_site_label
 _atom_site_symmetry_multiplicity
 _atom_site_fract_x
 _atom_site_fract_y
 _atom_site_fract_z
 _atom_site_occupancy
  Ni  Ni0  1  0.00000000  0.50000000  0.50000000  1
  Ni  Ni1  1  0.00000000  -0.00000000  0.00000000  1
  Ni  Ni2  1  0.50000000  0.50000000  0.60160213  1
  Ni  Ni3  1  0.50000000  0.00000000  0.89839787  1
  Ni  Ni4  1  0.50000000  0.50000000  0.39839787  1
  Ni  Ni5  1  0.50000000  -0.00000000  0.10160213  1
  Ni  Ni6  1  0.00000000  0.50000000  0.66660065  1
  Ni  Ni7  1  0.00000000  0.00000000  0.83339935  1
  Ni  Ni8  1  0.00000000  0.50000000  0.33339935  1
  Ni  Ni9  1  0.00000000  -0.00000000  0.16660065  1
  Cu  Cu10  1  0.82541066  0.29066292  0.58441594  1
  Cu  Cu11  1  0.17458934  0.70933708  0.58441594  1
  Cu  Cu12  1  0.82541066  0.20933708  0.91558406  1
  Cu  Cu13  1  0.17458934  0.79066292  0.91558406  1
  Cu  Cu14  1  0.17458934  0.70933708  0.41558406  1
  Cu  Cu15  1  0.82541066  0.29066292  0.41558406  1
  Cu  Cu16  1  0.17458934  0.79066292  0.08441594  1
  Cu  Cu17  1  0.82541066  0.20933708  0.08441594  1
  Cu  Cu18  1  0.31662281  0.28926870  0.66710566  1
  Cu  Cu19  1  0.68337719  0.71073130  0.66710566  1
  Cu  Cu20  1  0.31662281  0.21073130  0.83289434  1
  Cu  Cu21  1  0.68337719  0.78926870  0.83289434  1
  Cu  Cu22  1  0.68337719  0.71073130  0.33289434  1
  Cu  Cu23  1  0.31662281  0.28926870  0.33289434  1
  Cu  Cu24  1  0.68337719  0.78926870  0.16710566  1
  Cu  Cu25  1  0.31662281  0.21073130  0.16710566  1
  C  C26  1  0.40928384  0.45466651  0.50000000  1
  C  C27  1  0.59071616  0.54533349  0.50000000  1
  C  C28  1  0.40928384  0.04533349  0.00000000  1
  C  C29  1  0.59071616  0.95466651  0.00000000  1
  C  C30  1  0.84015447  0.41328484  0.58879943  1
  C  C31  1  0.15984553  0.58671516  0.58879943  1
  C  C32  1  0.84015447  0.08671516  0.91120057  1
  C  C33  1  0.15984553  0.91328484  0.91120057  1
  C  C34  1  0.15984553  0.58671516  0.41120057  1
  C  C35  1  0.84015447  0.41328484  0.41120057  1
  C  C36  1  0.15984553  0.91328484  0.08879943  1
  C  C37  1  0.84015447  0.08671516  0.08879943  1
  C  C38  1  0.29863663  0.41033931  0.66590366  1
  C  C39  1  0.70136337  0.58966069  0.66590366  1
  C  C40  1  0.29863663  0.08966069  0.83409634  1
  C  C41  1  0.70136337  0.91033931  0.83409634  1
  C  C42  1  0.70136337  0.58966069  0.33409634  1
  C  C43  1  0.29863663  0.41033931  0.33409634  1
  C  C44  1  0.70136337  0.91033931  0.16590366  1
  C  C45  1  0.29863663  0.08966069  0.16590366  1
  C  C46  1  0.68563152  0.46059695  0.77848708  1
  C  C47  1  0.31436848  0.53940305  0.77848708  1
  C  C48  1  0.68563152  0.03940305  0.72151292  1
  C  C49  1  0.31436848  0.96059695  0.72151292  1
  C  C50  1  0.31436848  0.53940305  0.22151292  1
  C  C51  1  0.68563152  0.46059695  0.22151292  1
  C  C52  1  0.31436848  0.96059695  0.27848708  1
  C  C53  1  0.68563152  0.03940305  0.27848708  1
  C  C54  1  0.83092195  0.25470201  0.50000000  1
  C  C55  1  0.16907805  0.74529799  0.50000000  1
  C  C56  1  0.83092195  0.24529799  0.00000000  1
  C  C57  1  0.16907805  0.75470201  0.00000000  1
  C  C58  1  0.32658047  0.25000000  0.75000000  1
  C  C59  1  0.67341953  0.75000000  0.75000000  1
  C  C60  1  0.67341953  0.75000000  0.25000000  1
  C  C61  1  0.32658047  0.25000000  0.25000000  1
  C  C62  1  0.56903900  0.25087816  0.62417557  1
  C  C63  1  0.43096100  0.74912184  0.62417557  1
  C  C64  1  0.56903900  0.24912184  0.87582443  1
  C  C65  1  0.43096100  0.75087816  0.87582443  1
  C  C66  1  0.43096100  0.74912184  0.37582443  1
  C  C67  1  0.56903900  0.25087816  0.37582443  1
  C  C68  1  0.43096100  0.75087816  0.12417557  1
  C  C69  1  0.56903900  0.24912184  0.12417557  1
  C  C70  1  0.06757593  0.24170769  0.62678653  1
  C  C71  1  0.93242407  0.75829231  0.62678653  1
  C  C72  1  0.06757593  0.25829231  0.87321347  1
  C  C73  1  0.93242407  0.74170769  0.87321347  1
  C  C74  1  0.93242407  0.75829231  0.37321347  1
  C  C75  1  0.06757593  0.24170769  0.37321347  1
  C  C76  1  0.93242407  0.74170769  0.12678653  1
  C  C77  1  0.06757593  0.25829231  0.12678653  1
  C  C78  1  0.50000000  0.50000000  0.81443053  1
  C  C79  1  0.50000000  0.00000000  0.68556947  1
  C  C80  1  0.50000000  0.50000000  0.18556947  1
  C  C81  1  0.50000000  -0.00000000  0.31443053  1
  C  C82  1  0.00000000  0.50000000  0.90202128  1
  C  C83  1  0.00000000  -0.00000000  0.59797872  1
  C  C84  1  0.00000000  0.50000000  0.09797872  1
  C  C85  1  0.00000000  0.00000000  0.40202128  1
