# generated using pymatgen
data_Cu(NiC3)2
_symmetry_space_group_name_H-M   'P 1'
_cell_length_a   5.17676500
_cell_length_b   8.46097700
_cell_length_c   10.81191200
_cell_angle_alpha   90.00000000
_cell_angle_beta   90.00000000
_cell_angle_gamma   90.00000000
_symmetry_Int_Tables_number   1
_chemical_formula_structural   Cu(NiC3)2
_chemical_formula_sum   'Cu4 Ni8 C24'
_cell_volume   473.56703911
_cell_formula_units_Z   4
loop_
 _symmetry_equiv_pos_site_id
 _symmetry_equiv_pos_as_xyz
  1  'x, y, z'
loop_
 _atom_site_type_symbol
 _atom_site_label
 _atom_site_symmetry_multiplicity
 _atom_site_fract_x
 _atom_site_fract_y
 _atom_site_fract_z
 _atom_site_occupancy
  Ni  Ni0  1  0.49602400  0.73734300  0.35513100  1
  Ni  Ni1  1  0.49602400  0.26265700  0.64486900  1
  Ni  Ni2  1  0.99602400  0.76265700  0.85513100  1
  Ni  Ni3  1  0.99602400  0.23734300  0.14486900  1
  Ni  Ni4  1  0.99315000  0.82756300  0.17512200  1
  Ni  Ni5  1  0.99315000  0.17243700  0.82487800  1
  Ni  Ni6  1  0.49315000  0.67243700  0.67512200  1
  Ni  Ni7  1  0.49315000  0.32756300  0.32487800  1
  Cu  Cu8  1  0.00389500  0.52568800  0.35496300  1
  Cu  Cu9  1  0.00389500  0.47431200  0.64503700  1
  Cu  Cu10  1  0.50389500  0.97431200  0.85496300  1
  Cu  Cu11  1  0.50389500  0.02568800  0.14503700  1
  C  C12  1  0.67136100  0.88481300  0.53480200  1
  C  C13  1  0.67136100  0.11518700  0.46519800  1
  C  C14  1  0.17136100  0.61518700  0.03480200  1
  C  C15  1  0.17136100  0.38481300  0.96519800  1
  C  C16  1  0.13178700  0.69517900  0.31204400  1
  C  C17  1  0.13178700  0.30482100  0.68795600  1
  C  C18  1  0.63178700  0.80482100  0.81204400  1
  C  C19  1  0.63178700  0.19517900  0.18795600  1
  C  C20  1  0.63277000  0.87769500  0.22264200  1
  C  C21  1  0.63277000  0.12230500  0.77735800  1
  C  C22  1  0.13277000  0.62230500  0.72264200  1
  C  C23  1  0.13277000  0.37769500  0.27735800  1
  C  C24  1  0.68995600  0.53053600  0.33555900  1
  C  C25  1  0.68995600  0.46946400  0.66444100  1
  C  C26  1  0.18995600  0.96946400  0.83555900  1
  C  C27  1  0.18995600  0.03053600  0.16444100  1
  C  C28  1  0.54047500  0.80141900  0.52628900  1
  C  C29  1  0.54047500  0.19858100  0.47371100  1
  C  C30  1  0.04047500  0.69858100  0.02628900  1
  C  C31  1  0.04047500  0.30141900  0.97371100  1
  C  C32  1  0.09177800  0.50000000  0.50000000  1
  C  C33  1  0.59177800  0.00000000  0.00000000  1
  C  C34  1  0.00328700  0.00000000  0.50000000  1
  C  C35  1  0.50328700  0.50000000  0.00000000  1
