# generated using pymatgen
data_Cu5Ni2C25
_symmetry_space_group_name_H-M   'P 1'
_cell_length_a   2.97837838
_cell_length_b   2.97837838
_cell_length_c   39.44859342
_cell_angle_alpha   89.26222815
_cell_angle_beta   89.26222815
_cell_angle_gamma   57.85877483
_symmetry_Int_Tables_number   1
_chemical_formula_structural   Cu5Ni2C25
_chemical_formula_sum   'Cu5 Ni2 C25'
_cell_volume   296.27431558
_cell_formula_units_Z   1
loop_
 _symmetry_equiv_pos_site_id
 _symmetry_equiv_pos_as_xyz
  1  'x, y, z'
loop_
 _atom_site_type_symbol
 _atom_site_label
 _atom_site_symmetry_multiplicity
 _atom_site_fract_x
 _atom_site_fract_y
 _atom_site_fract_z
 _atom_site_occupancy
  C  C0  1  0.69791700  0.69791700  0.93366400  1
  C  C1  1  0.05577200  0.05577200  0.81328700  1
  C  C2  1  0.43621600  0.43621600  0.68785700  1
  C  C3  1  0.81192200  0.81192200  0.56304800  1
  C  C4  1  0.18825900  0.18825900  0.43764800  1
  C  C5  1  0.55877100  0.55877100  0.31396200  1
  C  C6  1  0.93983900  0.93983900  0.18587700  1
  C  C7  1  0.31017900  0.31017900  0.06467900  1
  C  C8  1  0.37313000  0.37313000  0.87498500  1
  Ni  Ni9  1  0.00185700  0.00185700  0.00052100  1
  Ni  Ni10  1  0.24941700  0.24941700  0.24989700  1
  Cu  Cu11  1  0.74878900  0.74878900  0.74930500  1
  Cu  Cu12  1  0.12400700  0.12400700  0.62490100  1
  Cu  Cu13  1  0.50068100  0.50068100  0.50045500  1
  Cu  Cu14  1  0.87492300  0.87492300  0.37539400  1
  Cu  Cu15  1  0.62477100  0.62477100  0.12503000  1
  C  C16  1  0.35972600  0.35972600  0.97331100  1
  C  C17  1  0.71823800  0.71823800  0.84315100  1
  C  C18  1  0.09209700  0.09209700  0.72011000  1
  C  C19  1  0.48880600  0.48880600  0.59733800  1
  C  C20  1  0.84534200  0.84534200  0.47246700  1
  C  C21  1  0.21554200  0.21554200  0.34635600  1
  C  C22  1  0.61750700  0.61750700  0.22097900  1
  C  C23  1  0.96523500  0.96523500  0.09623700  1
  C  C24  1  0.03238100  0.03238100  0.90673100  1
  C  C25  1  0.40919000  0.40919000  0.77645600  1
  C  C26  1  0.76176900  0.76176900  0.65193600  1
  C  C27  1  0.15668300  0.15668300  0.52879300  1
  C  C28  1  0.53483100  0.53483100  0.40414600  1
  C  C29  1  0.88054100  0.88054100  0.27888500  1
  C  C30  1  0.28565000  0.28565000  0.15354800  1
  C  C31  1  0.64001400  0.64001400  0.02904900  1
