# generated using pymatgen
data_Cu4(Ni6C19)3
_symmetry_space_group_name_H-M   'P 1'
_cell_length_a   8.78204903
_cell_length_b   9.95854537
_cell_length_c   11.13516369
_cell_angle_alpha   111.37180555
_cell_angle_beta   105.20603193
_cell_angle_gamma   94.84855623
_symmetry_Int_Tables_number   1
_chemical_formula_structural   Cu4(Ni6C19)3
_chemical_formula_sum   'Cu4 Ni18 C57'
_cell_volume   857.36834074
_cell_formula_units_Z   1
loop_
 _symmetry_equiv_pos_site_id
 _symmetry_equiv_pos_as_xyz
  1  'x, y, z'
loop_
 _atom_site_type_symbol
 _atom_site_label
 _atom_site_symmetry_multiplicity
 _atom_site_fract_x
 _atom_site_fract_y
 _atom_site_fract_z
 _atom_site_occupancy
  C  C0  1  0.37446300  0.37679600  0.54155800  1
  C  C1  1  0.62553700  0.62320400  0.45844200  1
  C  C2  1  0.16086300  0.37348700  0.31664500  1
  C  C3  1  0.83913700  0.62651300  0.68335500  1
  C  C4  1  0.04572800  0.35021700  0.40800500  1
  C  C5  1  0.95427200  0.64978300  0.59199500  1
  C  C6  1  0.15153500  0.51578900  0.44777000  1
  C  C7  1  0.84846500  0.48421100  0.55223000  1
  C  C8  1  0.34702100  0.21093500  0.28424000  1
  C  C9  1  0.65297900  0.78906500  0.71576000  1
  C  C10  1  0.48280800  0.15496200  0.37744200  1
  C  C11  1  0.51719200  0.84503800  0.62255800  1
  C  C12  1  0.28514600  0.08627300  0.33601600  1
  C  C13  1  0.71485400  0.91372700  0.66398400  1
  C  C14  1  0.32198500  0.64015900  0.68237500  1
  C  C15  1  0.67801500  0.35984100  0.31762500  1
  C  C16  1  0.47819600  0.60968700  0.78114000  1
  C  C17  1  0.52180400  0.39031300  0.21886000  1
  C  C18  1  0.29177600  0.54676700  0.77445000  1
  C  C19  1  0.70822400  0.45323300  0.22555000  1
  C  C20  1  0.65106800  0.28248400  0.61713200  1
  C  C21  1  0.34893200  0.71751600  0.38286800  1
  C  C22  1  0.55728700  0.27349100  0.72845100  1
  C  C23  1  0.44271300  0.72650900  0.27154900  1
  C  C24  1  0.65042600  0.43424500  0.74288600  1
  C  C25  1  0.34957400  0.56575500  0.25711400  1
  C  C26  1  0.23682900  0.28004900  0.69781300  1
  C  C27  1  0.76317100  0.71995100  0.30218700  1
  C  C28  1  0.09895000  0.21777100  0.54719500  1
  C  C29  1  0.90105000  0.78222900  0.45280500  1
  C  C30  1  0.24774200  0.13106000  0.57509100  1
  C  C31  1  0.75225800  0.86894000  0.42490900  1
  C  C32  1  0.57685600  0.14576400  0.90830200  1
  C  C33  1  0.42314400  0.85423600  0.09169800  1
  C  C34  1  0.41455800  0.21355700  0.91662900  1
  C  C35  1  0.58544200  0.78644300  0.08337100  1
  C  C36  1  0.40370200  0.06100400  0.78942300  1
  C  C37  1  0.59629800  0.93899600  0.21057700  1
  C  C38  1  0.92264300  0.15030000  0.06404300  1
  C  C39  1  0.07735700  0.84970000  0.93595700  1
  C  C40  1  0.79208700  0.99505700  0.00575100  1
  C  C41  1  0.20791300  0.00494300  0.99424900  1
  C  C42  1  0.79793800  0.13124800  0.14620300  1
  C  C43  1  0.20206200  0.86875200  0.85379700  1
  C  C44  1  0.09299800  0.85868000  0.32808500  1
  C  C45  1  0.90700200  0.14132000  0.67191500  1
  C  C46  1  0.04131400  0.86489900  0.17715700  1
  C  C47  1  0.95868600  0.13510100  0.82284300  1
  C  C48  1  0.98106100  0.97408100  0.29780600  1
  C  C49  1  0.01893900  0.02591900  0.70219400  1
  C  C50  1  0.20981200  0.61993700  0.96214500  1
  C  C51  1  0.79018800  0.38006300  0.03785500  1
  C  C52  1  0.17090200  0.44856900  0.94440800  1
  C  C53  1  0.82909800  0.55143100  0.05559200  1
  C  C54  1  0.03631600  0.51665200  0.86282400  1
  C  C55  1  0.96368400  0.48334800  0.13717600  1
  Ni  Ni56  1  0.15393500  0.40551500  0.41394000  1
  Ni  Ni57  1  0.84606500  0.59448500  0.58606000  1
  Ni  Ni58  1  0.37074200  0.18078200  0.36555500  1
  Ni  Ni59  1  0.62925800  0.81921800  0.63444500  1
  Ni  Ni60  1  0.36191500  0.56262200  0.71696300  1
  Ni  Ni61  1  0.63808500  0.43737800  0.28303700  1
  Ni  Ni62  1  0.58087700  0.33296000  0.67360500  1
  Ni  Ni63  1  0.41912300  0.66704000  0.32639500  1
  Ni  Ni64  1  0.22091500  0.23357500  0.59576100  1
  Ni  Ni65  1  0.77908500  0.76642500  0.40423900  1
  Ni  Ni66  1  0.47451800  0.16368500  0.84995800  1
  Ni  Ni67  1  0.52548200  0.83631500  0.15004200  1
  Ni  Ni68  1  0.80518400  0.10743400  0.05031100  1
  Ni  Ni69  1  0.19481600  0.89256600  0.94968900  1
  Ni  Ni70  1  0.07752700  0.92871400  0.27916000  1
  Ni  Ni71  1  0.92247300  0.07128600  0.72084000  1
  Ni  Ni72  1  0.15682300  0.51509900  0.89154500  1
  Ni  Ni73  1  0.84317700  0.48490100  0.10845500  1
  Cu  Cu74  1  0.81170100  0.20645800  0.43753800  1
  Cu  Cu75  1  0.18829900  0.79354200  0.56246200  1
  Cu  Cu76  1  0.77293800  0.69184900  0.89068700  1
  Cu  Cu77  1  0.22706200  0.30815100  0.10931300  1
  C  C78  1  0.50000000  0.50000000  0.50000000  1
