# generated using pymatgen
data_Cu4Ni4C5
_symmetry_space_group_name_H-M   'P 1'
_cell_length_a   8.93397272
_cell_length_b   10.20604550
_cell_length_c   10.52998000
_cell_angle_alpha   90.00000000
_cell_angle_beta   90.00000000
_cell_angle_gamma   121.84503063
_symmetry_Int_Tables_number   1
_chemical_formula_structural   Cu4Ni4C5
_chemical_formula_sum   'Cu16 Ni16 C20'
_cell_volume   815.60888304
_cell_formula_units_Z   4
loop_
 _symmetry_equiv_pos_site_id
 _symmetry_equiv_pos_as_xyz
  1  'x, y, z'
loop_
 _atom_site_type_symbol
 _atom_site_label
 _atom_site_symmetry_multiplicity
 _atom_site_fract_x
 _atom_site_fract_y
 _atom_site_fract_z
 _atom_site_occupancy
  C  C0  1  0.70534300  0.78789300  0.75000000  1
  C  C1  1  0.29465700  0.21210700  0.25000000  1
  C  C2  1  0.17808100  0.80525000  0.75000000  1
  C  C3  1  0.82191900  0.19475000  0.25000000  1
  Ni  Ni4  1  0.63282900  0.34834300  0.82221000  1
  Ni  Ni5  1  0.36717100  0.65165700  0.17779000  1
  Ni  Ni6  1  0.36717100  0.65165700  0.32221000  1
  Ni  Ni7  1  0.63282900  0.34834300  0.67779000  1
  Ni  Ni8  1  0.88312700  0.81606000  0.31891100  1
  Ni  Ni9  1  0.11687300  0.18394000  0.68108900  1
  Ni  Ni10  1  0.11687300  0.18394000  0.81891100  1
  Ni  Ni11  1  0.88312700  0.81606000  0.18108900  1
  Ni  Ni12  1  0.89366900  0.68044100  0.32147700  1
  Ni  Ni13  1  0.10633100  0.31955900  0.67852300  1
  Ni  Ni14  1  0.10633100  0.31955900  0.82147700  1
  Ni  Ni15  1  0.89366900  0.68044100  0.17852300  1
  Ni  Ni16  1  0.64791600  0.21319600  0.81858000  1
  Ni  Ni17  1  0.35208400  0.78680400  0.18142000  1
  Ni  Ni18  1  0.35208400  0.78680400  0.31858000  1
  Ni  Ni19  1  0.64791600  0.21319600  0.68142000  1
  Cu  Cu20  1  0.84246000  0.91687600  0.42718500  1
  Cu  Cu21  1  0.15754000  0.08312400  0.57281500  1
  Cu  Cu22  1  0.15754000  0.08312400  0.92718500  1
  Cu  Cu23  1  0.84246000  0.91687600  0.07281500  1
  Cu  Cu24  1  0.62521200  0.47037200  0.91775600  1
  Cu  Cu25  1  0.37478800  0.52962800  0.08224400  1
  Cu  Cu26  1  0.37478800  0.52962800  0.41775600  1
  Cu  Cu27  1  0.62521200  0.47037200  0.58224400  1
  Cu  Cu28  1  0.84037100  0.50759500  0.37598800  1
  Cu  Cu29  1  0.15962900  0.49240500  0.62401200  1
  Cu  Cu30  1  0.15962900  0.49240500  0.87598800  1
  Cu  Cu31  1  0.84037100  0.50759500  0.12401200  1
  Cu  Cu32  1  0.31763900  0.89762000  0.41754400  1
  Cu  Cu33  1  0.68236100  0.10238000  0.58245600  1
  Cu  Cu34  1  0.68236100  0.10238000  0.91754400  1
  Cu  Cu35  1  0.31763900  0.89762000  0.08245600  1
  C  C36  1  0.24580200  0.79204700  0.96030000  1
  C  C37  1  0.75419800  0.20795300  0.03970000  1
  C  C38  1  0.75419800  0.20795300  0.46030000  1
  C  C39  1  0.24580200  0.79204700  0.53970000  1
  C  C40  1  0.03811400  0.50987300  0.75000000  1
  C  C41  1  0.96188600  0.49012700  0.25000000  1
  C  C42  1  0.74301600  0.79719800  0.96816800  1
  C  C43  1  0.25698400  0.20280200  0.03183200  1
  C  C44  1  0.25698400  0.20280200  0.46816800  1
  C  C45  1  0.74301600  0.79719800  0.53183200  1
  C  C46  1  0.33703900  0.62462800  0.75000000  1
  C  C47  1  0.66296100  0.37537200  0.25000000  1
  C  C48  1  0.00366100  0.89289700  0.75000000  1
  C  C49  1  0.99633900  0.10710300  0.25000000  1
  C  C50  1  0.66294800  0.99605300  0.75000000  1
  C  C51  1  0.33705200  0.00394700  0.25000000  1
