# generated using pymatgen
data_Cu6NiC29
_symmetry_space_group_name_H-M   'P 1'
_cell_length_a   8.60679055
_cell_length_b   8.60679055
_cell_length_c   8.60679049
_cell_angle_alpha   60.89640238
_cell_angle_beta   60.89640238
_cell_angle_gamma   60.89639897
_symmetry_Int_Tables_number   1
_chemical_formula_structural   Cu6NiC29
_chemical_formula_sum   'Cu6 Ni1 C29'
_cell_volume   459.93486885
_cell_formula_units_Z   1
loop_
 _symmetry_equiv_pos_site_id
 _symmetry_equiv_pos_as_xyz
  1  'x, y, z'
loop_
 _atom_site_type_symbol
 _atom_site_label
 _atom_site_symmetry_multiplicity
 _atom_site_fract_x
 _atom_site_fract_y
 _atom_site_fract_z
 _atom_site_occupancy
  C  C0  1  0.14511200  0.14511200  0.14511200  1
  C  C1  1  0.35536900  0.35536900  0.35536900  1
  C  C2  1  0.64267500  0.64267500  0.64267500  1
  C  C3  1  0.00593600  0.00593600  0.00593600  1
  C  C4  1  0.49907000  0.49907000  0.49907000  1
  Ni  Ni5  1  0.85703100  0.85703100  0.85703100  1
  Cu  Cu6  1  0.45396200  0.74738200  0.04573900  1
  Cu  Cu7  1  0.54230300  0.25276500  0.95221800  1
  Cu  Cu8  1  0.95221800  0.54230300  0.25276500  1
  Cu  Cu9  1  0.25276500  0.95221800  0.54230300  1
  Cu  Cu10  1  0.74738200  0.04573900  0.45396200  1
  Cu  Cu11  1  0.04573900  0.45396200  0.74738200  1
  C  C12  1  0.31009600  0.10592000  0.51637200  1
  C  C13  1  0.51637200  0.31009600  0.10592000  1
  C  C14  1  0.91149500  0.05775800  0.26248400  1
  C  C15  1  0.10592000  0.51637200  0.31009600  1
  C  C16  1  0.81593600  0.00664600  0.61321000  1
  C  C17  1  0.59299300  0.24007600  0.44441400  1
  C  C18  1  0.05775800  0.26248400  0.91149500  1
  C  C19  1  0.24007600  0.44441400  0.59299300  1
  C  C20  1  0.39041400  0.18641700  0.98609100  1
  C  C21  1  0.44441400  0.59299300  0.24007600  1
  C  C22  1  0.74442400  0.08545300  0.93696700  1
  C  C23  1  0.98609100  0.39041400  0.18641700  1
  C  C24  1  0.00664600  0.61321000  0.81593600  1
  C  C25  1  0.26248400  0.91149500  0.05775800  1
  C  C26  1  0.56540400  0.40566900  0.75410600  1
  C  C27  1  0.61321000  0.81593600  0.00664600  1
  C  C28  1  0.75410600  0.56540400  0.40566900  1
  C  C29  1  0.93696700  0.74442400  0.08545300  1
  C  C30  1  0.40566900  0.75410600  0.56540400  1
  C  C31  1  0.18641700  0.98609100  0.39041400  1
  C  C32  1  0.88813200  0.49379900  0.68616200  1
  C  C33  1  0.08545300  0.93696700  0.74442400  1
  C  C34  1  0.49379900  0.68616200  0.88813200  1
  C  C35  1  0.68616200  0.88813200  0.49379900  1
