# generated using pymatgen
data_Cu2Ni2C9
_symmetry_space_group_name_H-M   'P 1'
_cell_length_a   9.44528297
_cell_length_b   9.44528297
_cell_length_c   19.30844189
_cell_angle_alpha   63.97422643
_cell_angle_beta   63.97422643
_cell_angle_gamma   32.45277561
_symmetry_Int_Tables_number   1
_chemical_formula_structural   Cu2Ni2C9
_chemical_formula_sum   'Cu8 Ni8 C36'
_cell_volume   822.17873112
_cell_formula_units_Z   4
loop_
 _symmetry_equiv_pos_site_id
 _symmetry_equiv_pos_as_xyz
  1  'x, y, z'
loop_
 _atom_site_type_symbol
 _atom_site_label
 _atom_site_symmetry_multiplicity
 _atom_site_fract_x
 _atom_site_fract_y
 _atom_site_fract_z
 _atom_site_occupancy
  C  C0  1  0.46824100  0.86409300  0.83744000  1
  C  C1  1  0.13590700  0.53175900  0.66256000  1
  C  C2  1  0.86409300  0.46824100  0.33744000  1
  C  C3  1  0.53175900  0.13590700  0.16256000  1
  Ni  Ni4  1  0.18224800  0.63084200  0.97835900  1
  Ni  Ni5  1  0.36915800  0.81775200  0.52164100  1
  Ni  Ni6  1  0.81775200  0.36915800  0.02164100  1
  Ni  Ni7  1  0.50000000  0.00000000  0.00000000  1
  Ni  Ni8  1  0.63084200  0.18224800  0.47835900  1
  Ni  Ni9  1  0.67714200  0.32285800  0.25000000  1
  Ni  Ni10  1  0.32285800  0.67714200  0.75000000  1
  Ni  Ni11  1  0.00000000  0.50000000  0.50000000  1
  Cu  Cu12  1  0.05017400  0.49419100  0.86514000  1
  Cu  Cu13  1  0.72132200  0.23397000  0.61646700  1
  Cu  Cu14  1  0.94982600  0.50580900  0.13486000  1
  Cu  Cu15  1  0.23397000  0.72132200  0.11646700  1
  Cu  Cu16  1  0.49419100  0.05017400  0.36514000  1
  Cu  Cu17  1  0.50580900  0.94982600  0.63486000  1
  Cu  Cu18  1  0.27867800  0.76603000  0.38353300  1
  Cu  Cu19  1  0.76603000  0.27867800  0.88353300  1
  C  C20  1  0.74658100  0.80846700  0.10594300  1
  C  C21  1  0.67322300  0.47291600  0.91964900  1
  C  C22  1  0.80846700  0.74658100  0.60594300  1
  C  C23  1  0.76680400  0.37632700  0.55786600  1
  C  C24  1  0.20418200  0.35163400  0.06905500  1
  C  C25  1  0.56350200  0.34155400  0.69597900  1
  C  C26  1  0.62367300  0.23319600  0.94213400  1
  C  C27  1  0.92819700  0.98272400  0.12542400  1
  C  C28  1  0.23319600  0.62367300  0.44213400  1
  C  C29  1  0.52708400  0.32677700  0.58035100  1
  C  C30  1  0.82946500  0.45310900  0.14068800  1
  C  C31  1  0.59126400  0.94911000  0.29062300  1
  C  C32  1  0.32677700  0.52708400  0.08035100  1
  C  C33  1  0.98272400  0.92819700  0.62542400  1
  C  C34  1  0.25341900  0.19153300  0.89405700  1
  C  C35  1  0.17053500  0.54689100  0.85931200  1
  C  C36  1  0.94911000  0.59126400  0.79062300  1
  C  C37  1  0.37632700  0.76680400  0.05786600  1
  C  C38  1  0.45310900  0.82946500  0.64068800  1
  C  C39  1  0.40873600  0.05089000  0.70937700  1
  C  C40  1  0.01727600  0.07180300  0.37457600  1
  C  C41  1  0.35163400  0.20418200  0.56905500  1
  C  C42  1  0.07180300  0.01727600  0.87457600  1
  C  C43  1  0.34155400  0.56350200  0.19597900  1
  C  C44  1  0.47291600  0.67322300  0.41964900  1
  C  C45  1  0.19153300  0.25341900  0.39405700  1
  C  C46  1  0.05089000  0.40873600  0.20937700  1
  C  C47  1  0.64836600  0.79581800  0.43094500  1
  C  C48  1  0.79581800  0.64836600  0.93094500  1
  C  C49  1  0.65844600  0.43649800  0.80402100  1
  C  C50  1  0.43649800  0.65844600  0.30402100  1
  C  C51  1  0.54689100  0.17053500  0.35931200  1
