# generated using pymatgen
data_Cu5Ni5C2
_symmetry_space_group_name_H-M   'P 1'
_cell_length_a   4.06081100
_cell_length_b   8.89455800
_cell_length_c   15.47018772
_cell_angle_alpha   89.95074548
_cell_angle_beta   90.00000000
_cell_angle_gamma   90.00000000
_symmetry_Int_Tables_number   1
_chemical_formula_structural   Cu5Ni5C2
_chemical_formula_sum   'Cu15 Ni15 C6'
_cell_volume   558.76934409
_cell_formula_units_Z   3
loop_
 _symmetry_equiv_pos_site_id
 _symmetry_equiv_pos_as_xyz
  1  'x, y, z'
loop_
 _atom_site_type_symbol
 _atom_site_label
 _atom_site_symmetry_multiplicity
 _atom_site_fract_x
 _atom_site_fract_y
 _atom_site_fract_z
 _atom_site_occupancy
  C  C0  1  0.00000000  0.99931600  0.33664400  1
  C  C1  1  0.00000000  0.50381300  0.83570100  1
  C  C2  1  0.00000000  0.50591300  0.16886700  1
  C  C3  1  0.00000000  0.00250400  0.66392600  1
  C  C4  1  0.50000000  0.99269200  0.00058500  1
  C  C5  1  0.50000000  0.49699200  0.49648700  1
  Ni  Ni6  1  0.50000000  0.00904600  0.50150400  1
  Ni  Ni7  1  0.50000000  0.50824500  0.00043500  1
  Ni  Ni8  1  0.50000000  0.74818700  0.25564700  1
  Ni  Ni9  1  0.50000000  0.25278400  0.75133600  1
  Ni  Ni10  1  0.50000000  0.24962500  0.24894800  1
  Ni  Ni11  1  0.50000000  0.75265300  0.74834100  1
  Ni  Ni12  1  0.00000000  0.14652800  0.85237500  1
  Ni  Ni13  1  0.00000000  0.14697700  0.14817700  1
  Ni  Ni14  1  0.00000000  0.64813800  0.64781900  1
  Ni  Ni15  1  0.00000000  0.29694600  0.00092800  1
  Ni  Ni16  1  0.00000000  0.78345800  0.49420800  1
  Ni  Ni17  1  0.00000000  0.84891200  0.14136800  1
  Ni  Ni18  1  0.00000000  0.34979600  0.63995200  1
  Ni  Ni19  1  0.00000000  0.36002000  0.36021600  1
  Ni  Ni20  1  0.00000000  0.84961100  0.85942700  1
  Cu  Cu21  1  0.50000000  0.99599900  0.18337500  1
  Cu  Cu22  1  0.50000000  0.49989900  0.68092400  1
  Cu  Cu23  1  0.50000000  0.22650100  0.40567300  1
  Cu  Cu24  1  0.50000000  0.72808500  0.90702200  1
  Cu  Cu25  1  0.50000000  0.77838500  0.41089300  1
  Cu  Cu26  1  0.50000000  0.27460400  0.91048500  1
  Cu  Cu27  1  0.50000000  0.49601800  0.31661500  1
  Cu  Cu28  1  0.50000000  0.99991500  0.81764500  1
  Cu  Cu29  1  0.50000000  0.72653400  0.09479100  1
  Cu  Cu30  1  0.50000000  0.22955900  0.59303900  1
  Cu  Cu31  1  0.50000000  0.27472800  0.09043300  1
  Cu  Cu32  1  0.50000000  0.77444100  0.58892500  1
  Cu  Cu33  1  0.00000000  0.69609400  0.00023700  1
  Cu  Cu34  1  0.00000000  0.19604800  0.49925200  1
  Cu  Cu35  1  0.00000000  0.65123400  0.34780000  1
