# generated using pymatgen
data_Cu12Ni3C4
_symmetry_space_group_name_H-M   'P 1'
_cell_length_a   10.35746200
_cell_length_b   10.35746200
_cell_length_c   10.35746200
_cell_angle_alpha   90.00000000
_cell_angle_beta   90.00000000
_cell_angle_gamma   90.00000000
_symmetry_Int_Tables_number   1
_chemical_formula_structural   Cu12Ni3C4
_chemical_formula_sum   'Cu48 Ni12 C16'
_cell_volume   1111.11764861
_cell_formula_units_Z   4
loop_
 _symmetry_equiv_pos_site_id
 _symmetry_equiv_pos_as_xyz
  1  'x, y, z'
loop_
 _atom_site_type_symbol
 _atom_site_label
 _atom_site_symmetry_multiplicity
 _atom_site_fract_x
 _atom_site_fract_y
 _atom_site_fract_z
 _atom_site_occupancy
  C  C0  1  0.79927500  0.70072500  0.29927500  1
  C  C1  1  0.70072500  0.29927500  0.79927500  1
  C  C2  1  0.29927500  0.79927500  0.70072500  1
  C  C3  1  0.20072500  0.20072500  0.20072500  1
  C  C4  1  0.43393300  0.43393300  0.43393300  1
  C  C5  1  0.93393300  0.06606700  0.56606700  1
  C  C6  1  0.06606700  0.56606700  0.93393300  1
  C  C7  1  0.56606700  0.93393300  0.06606700  1
  C  C8  1  0.91482600  0.91482600  0.91482600  1
  C  C9  1  0.58517400  0.08517400  0.41482600  1
  C  C10  1  0.08517400  0.41482600  0.58517400  1
  C  C11  1  0.41482600  0.58517400  0.08517400  1
  C  C12  1  0.65427000  0.65427000  0.65427000  1
  C  C13  1  0.15427000  0.84573000  0.34573000  1
  C  C14  1  0.84573000  0.34573000  0.15427000  1
  C  C15  1  0.34573000  0.15427000  0.84573000  1
  Ni  Ni16  1  0.62603800  0.96801800  0.73150600  1
  Ni  Ni17  1  0.12603800  0.53198200  0.26849400  1
  Ni  Ni18  1  0.37396200  0.46801800  0.76849400  1
  Ni  Ni19  1  0.53198200  0.26849400  0.12603800  1
  Ni  Ni20  1  0.76849400  0.37396200  0.46801800  1
  Ni  Ni21  1  0.26849400  0.12603800  0.53198200  1
  Ni  Ni22  1  0.96801800  0.73150600  0.62603800  1
  Ni  Ni23  1  0.73150600  0.62603800  0.96801800  1
  Ni  Ni24  1  0.46801800  0.76849400  0.37396200  1
  Ni  Ni25  1  0.03198200  0.23150600  0.87396200  1
  Ni  Ni26  1  0.23150600  0.87396200  0.03198200  1
  Ni  Ni27  1  0.87396200  0.03198200  0.23150600  1
  Cu  Cu28  1  0.65141800  0.00263900  0.59477300  1
  Cu  Cu29  1  0.15141800  0.49736100  0.40522700  1
  Cu  Cu30  1  0.34858200  0.50263900  0.90522700  1
  Cu  Cu31  1  0.49736100  0.40522700  0.15141800  1
  Cu  Cu32  1  0.90522700  0.34858200  0.50263900  1
  Cu  Cu33  1  0.40522700  0.15141800  0.49736100  1
  Cu  Cu34  1  0.00263900  0.59477300  0.65141800  1
  Cu  Cu35  1  0.59477300  0.65141800  0.00263900  1
  Cu  Cu36  1  0.50263900  0.90522700  0.34858200  1
  Cu  Cu37  1  0.99736100  0.09477300  0.84858200  1
  Cu  Cu38  1  0.09477300  0.84858200  0.99736100  1
  Cu  Cu39  1  0.84858200  0.99736100  0.09477300  1
  Cu  Cu40  1  0.58220600  0.83084900  0.74180200  1
  Cu  Cu41  1  0.08220600  0.66915100  0.25819800  1
  Cu  Cu42  1  0.41779400  0.33084900  0.75819800  1
  Cu  Cu43  1  0.66915100  0.25819800  0.08220600  1
  Cu  Cu44  1  0.75819800  0.41779400  0.33084900  1
  Cu  Cu45  1  0.25819800  0.08220600  0.66915100  1
  Cu  Cu46  1  0.71129100  0.47492900  0.55293400  1
  Cu  Cu47  1  0.83084900  0.74180200  0.58220600  1
  Cu  Cu48  1  0.33084900  0.75819800  0.41779400  1
  Cu  Cu49  1  0.16915100  0.24180200  0.91779400  1
  Cu  Cu50  1  0.24180200  0.91779400  0.16915100  1
  Cu  Cu51  1  0.91779400  0.16915100  0.24180200  1
  Cu  Cu52  1  0.52507100  0.05293400  0.78870900  1
  Cu  Cu53  1  0.02507100  0.44706600  0.21129100  1
  Cu  Cu54  1  0.47492900  0.55293400  0.71129100  1
  Cu  Cu55  1  0.44706600  0.21129100  0.02507100  1
  Cu  Cu56  1  0.75246700  0.01213700  0.30673600  1
  Cu  Cu57  1  0.30673600  0.75246700  0.01213700  1
  Cu  Cu58  1  0.01213700  0.30673600  0.75246700  1
  Cu  Cu59  1  0.48786300  0.69326400  0.25246700  1
  Cu  Cu60  1  0.80673600  0.74753300  0.98786300  1
  Cu  Cu61  1  0.98786300  0.80673600  0.74753300  1
  Cu  Cu62  1  0.19326400  0.24753300  0.51213700  1
  Cu  Cu63  1  0.69326400  0.25246700  0.48786300  1
  Cu  Cu64  1  0.51213700  0.19326400  0.24753300  1
  Cu  Cu65  1  0.25246700  0.48786300  0.69326400  1
  Cu  Cu66  1  0.24753300  0.51213700  0.19326400  1
  Cu  Cu67  1  0.74753300  0.98786300  0.80673600  1
  Cu  Cu68  1  0.97492900  0.94706600  0.28870900  1
  Cu  Cu69  1  0.28870900  0.97492900  0.94706600  1
  Cu  Cu70  1  0.94706600  0.28870900  0.97492900  1
  Cu  Cu71  1  0.55293400  0.71129100  0.47492900  1
  Cu  Cu72  1  0.78870900  0.52507100  0.05293400  1
  Cu  Cu73  1  0.05293400  0.78870900  0.52507100  1
  Cu  Cu74  1  0.21129100  0.02507100  0.44706600  1
  Cu  Cu75  1  0.74180200  0.58220600  0.83084900  1
