# generated using pymatgen
data_CuNiC13
_symmetry_space_group_name_H-M   'P 1'
_cell_length_a   7.03207500
_cell_length_b   5.25153200
_cell_length_c   10.76816309
_cell_angle_alpha   77.33334417
_cell_angle_beta   90.00000000
_cell_angle_gamma   90.00000000
_symmetry_Int_Tables_number   1
_chemical_formula_structural   CuNiC13
_chemical_formula_sum   'Cu2 Ni2 C26'
_cell_volume   387.98118789
_cell_formula_units_Z   2
loop_
 _symmetry_equiv_pos_site_id
 _symmetry_equiv_pos_as_xyz
  1  'x, y, z'
loop_
 _atom_site_type_symbol
 _atom_site_label
 _atom_site_symmetry_multiplicity
 _atom_site_fract_x
 _atom_site_fract_y
 _atom_site_fract_z
 _atom_site_occupancy
  C  C0  1  0.75000000  0.77165600  0.40457600  1
  C  C1  1  0.25000000  0.22834400  0.59542400  1
  C  C2  1  0.99296900  0.63342600  0.72420900  1
  C  C3  1  0.00703100  0.36657400  0.27579100  1
  C  C4  1  0.49296900  0.36657400  0.27579100  1
  C  C5  1  0.50703100  0.63342600  0.72420900  1
  C  C6  1  0.75000000  0.36661800  0.93966000  1
  C  C7  1  0.25000000  0.63338200  0.06034000  1
  C  C8  1  0.75000000  0.66429900  0.94438600  1
  C  C9  1  0.25000000  0.33570100  0.05561400  1
  Ni  Ni10  1  0.75000000  0.17846700  0.57812500  1
  Ni  Ni11  1  0.25000000  0.82153300  0.42187500  1
  Cu  Cu12  1  0.75000000  0.92815100  0.11945100  1
  Cu  Cu13  1  0.25000000  0.07184900  0.88054900  1
  C  C14  1  0.75000000  0.28033500  0.43613700  1
  C  C15  1  0.25000000  0.71966500  0.56386300  1
  C  C16  1  0.75000000  0.68685300  0.17197100  1
  C  C17  1  0.25000000  0.31314700  0.82802900  1
  C  C18  1  0.75000000  0.09661400  0.18790700  1
  C  C19  1  0.25000000  0.90338600  0.81209300  1
  C  C20  1  0.75000000  0.99860900  0.99954200  1
  C  C21  1  0.25000000  0.00139100  0.00045800  1
  C  C22  1  0.75000000  0.88557900  0.60350200  1
  C  C23  1  0.25000000  0.11442100  0.39649800  1
  C  C24  1  0.42316600  0.73105900  0.36576200  1
  C  C25  1  0.57683400  0.26894100  0.63423800  1
  C  C26  1  0.92316600  0.26894100  0.63423800  1
  C  C27  1  0.07683400  0.73105900  0.36576200  1
  C  C28  1  0.75000000  0.54436600  0.88586400  1
  C  C29  1  0.25000000  0.45563400  0.11413600  1
