# generated using pymatgen
data_Cu2Ni8C5
_symmetry_space_group_name_H-M   'P 1'
_cell_length_a   8.96994100
_cell_length_b   12.00587100
_cell_length_c   16.91138300
_cell_angle_alpha   90.00000000
_cell_angle_beta   90.00000000
_cell_angle_gamma   90.00000000
_symmetry_Int_Tables_number   1
_chemical_formula_structural   Cu2Ni8C5
_chemical_formula_sum   'Cu8 Ni32 C20'
_cell_volume   1821.21988897
_cell_formula_units_Z   4
loop_
 _symmetry_equiv_pos_site_id
 _symmetry_equiv_pos_as_xyz
  1  'x, y, z'
loop_
 _atom_site_type_symbol
 _atom_site_label
 _atom_site_symmetry_multiplicity
 _atom_site_fract_x
 _atom_site_fract_y
 _atom_site_fract_z
 _atom_site_occupancy
  C  C0  1  0.75000000  0.24812100  0.09992200  1
  C  C1  1  0.75000000  0.74812100  0.40007800  1
  C  C2  1  0.25000000  0.75187900  0.90007800  1
  C  C3  1  0.25000000  0.25187900  0.59992200  1
  Ni  Ni4  1  0.75000000  0.27657000  0.36055300  1
  Ni  Ni5  1  0.75000000  0.77657000  0.13944700  1
  Ni  Ni6  1  0.25000000  0.72343000  0.63944700  1
  Ni  Ni7  1  0.25000000  0.22343000  0.86055300  1
  Ni  Ni8  1  0.75000000  0.42984300  0.43552400  1
  Ni  Ni9  1  0.75000000  0.92984300  0.06447600  1
  Ni  Ni10  1  0.25000000  0.57015700  0.56447600  1
  Ni  Ni11  1  0.25000000  0.07015700  0.93552400  1
  Ni  Ni12  1  0.85273500  0.36933200  0.38169800  1
  Ni  Ni13  1  0.64726500  0.86933200  0.11830200  1
  Ni  Ni14  1  0.35273500  0.63066800  0.61830200  1
  Ni  Ni15  1  0.14726500  0.13066800  0.88169800  1
  Ni  Ni16  1  0.14726500  0.63066800  0.61830200  1
  Ni  Ni17  1  0.35273500  0.13066800  0.88169800  1
  Ni  Ni18  1  0.64726500  0.36933200  0.38169800  1
  Ni  Ni19  1  0.85273500  0.86933200  0.11830200  1
  Ni  Ni20  1  0.25000000  0.49068200  0.29378200  1
  Ni  Ni21  1  0.25000000  0.99068200  0.20621800  1
  Ni  Ni22  1  0.75000000  0.50931800  0.70621800  1
  Ni  Ni23  1  0.75000000  0.00931800  0.79378200  1
  Ni  Ni24  1  0.25000000  0.47936200  0.07598700  1
  Ni  Ni25  1  0.25000000  0.97936200  0.42401300  1
  Ni  Ni26  1  0.75000000  0.52063800  0.92401300  1
  Ni  Ni27  1  0.75000000  0.02063800  0.57598700  1
  Ni  Ni28  1  0.33821600  0.48678300  0.14488800  1
  Ni  Ni29  1  0.16178400  0.98678300  0.35511200  1
  Ni  Ni30  1  0.83821600  0.51321700  0.85511200  1
  Ni  Ni31  1  0.66178400  0.01321700  0.64488800  1
  Ni  Ni32  1  0.66178400  0.51321700  0.85511200  1
  Ni  Ni33  1  0.83821600  0.01321700  0.64488800  1
  Ni  Ni34  1  0.16178400  0.48678300  0.14488800  1
  Ni  Ni35  1  0.33821600  0.98678300  0.35511200  1
  Cu  Cu36  1  0.75000000  0.30266100  0.45047400  1
  Cu  Cu37  1  0.75000000  0.80266100  0.04952600  1
  Cu  Cu38  1  0.25000000  0.69733900  0.54952600  1
  Cu  Cu39  1  0.25000000  0.19733900  0.95047400  1
  Cu  Cu40  1  0.25000000  0.49157600  0.21988300  1
  Cu  Cu41  1  0.25000000  0.99157600  0.28011700  1
  Cu  Cu42  1  0.75000000  0.50842400  0.78011700  1
  Cu  Cu43  1  0.75000000  0.00842400  0.71988300  1
  C  C44  1  0.75000000  0.42226500  0.10126000  1
  C  C45  1  0.75000000  0.92226500  0.39874000  1
  C  C46  1  0.25000000  0.57773500  0.89874000  1
  C  C47  1  0.25000000  0.07773500  0.60126000  1
  C  C48  1  0.75000000  0.20029700  0.98033400  1
  C  C49  1  0.75000000  0.70029700  0.51966600  1
  C  C50  1  0.25000000  0.79970300  0.01966600  1
  C  C51  1  0.25000000  0.29970300  0.48033400  1
  C  C52  1  0.96103000  0.19973200  0.14757900  1
  C  C53  1  0.53897000  0.69973200  0.35242100  1
  C  C54  1  0.46103000  0.80026800  0.85242100  1
  C  C55  1  0.03897000  0.30026800  0.64757900  1
  C  C56  1  0.03897000  0.80026800  0.85242100  1
  C  C57  1  0.46103000  0.30026800  0.64757900  1
  C  C58  1  0.53897000  0.19973200  0.14757900  1
  C  C59  1  0.96103000  0.69973200  0.35242100  1
