# generated using pymatgen
data_CuNiC8
_symmetry_space_group_name_H-M   'P 1'
_cell_length_a   8.50308979
_cell_length_b   8.50987155
_cell_length_c   8.51622296
_cell_angle_alpha   90.00000000
_cell_angle_beta   90.00000000
_cell_angle_gamma   90.00000000
_symmetry_Int_Tables_number   1
_chemical_formula_structural   CuNiC8
_chemical_formula_sum   'Cu4 Ni4 C32'
_cell_volume   616.23561273
_cell_formula_units_Z   4
loop_
 _symmetry_equiv_pos_site_id
 _symmetry_equiv_pos_as_xyz
  1  'x, y, z'
loop_
 _atom_site_type_symbol
 _atom_site_label
 _atom_site_symmetry_multiplicity
 _atom_site_fract_x
 _atom_site_fract_y
 _atom_site_fract_z
 _atom_site_occupancy
  C  C0  1  0.00000000  0.50000000  0.50000000  1
  C  C1  1  0.50000000  0.00000000  0.50000000  1
  C  C2  1  0.50000000  0.00000000  -0.00000000  1
  C  C3  1  0.00000000  0.50000000  -0.00000000  1
  Ni  Ni4  1  0.50000000  0.50000000  -0.00000000  1
  Ni  Ni5  1  0.00000000  0.00000000  0.50000000  1
  Ni  Ni6  1  0.00000000  0.00000000  -0.00000000  1
  Ni  Ni7  1  0.50000000  0.50000000  0.50000000  1
  Cu  Cu8  1  0.75000000  0.75000000  0.75000000  1
  Cu  Cu9  1  0.25000000  0.25000000  0.75000000  1
  Cu  Cu10  1  0.25000000  0.75000000  0.25000000  1
  Cu  Cu11  1  0.75000000  0.25000000  0.25000000  1
  C  C12  1  0.25000000  0.25000000  0.25000000  1
  C  C13  1  0.75000000  0.75000000  0.25000000  1
  C  C14  1  0.75000000  0.25000000  0.75000000  1
  C  C15  1  0.25000000  0.75000000  0.75000000  1
  C  C16  1  0.01925952  0.23362742  0.25977782  1
  C  C17  1  0.98074048  0.76637258  0.25977782  1
  C  C18  1  0.98074048  0.23362742  0.74022218  1
  C  C19  1  0.01925952  0.76637258  0.74022218  1
  C  C20  1  0.25416424  0.01966897  0.23918750  1
  C  C21  1  0.25416424  0.98033103  0.76081250  1
  C  C22  1  0.74583576  0.98033103  0.23918750  1
  C  C23  1  0.74583576  0.01966897  0.76081250  1
  C  C24  1  0.23959501  0.26008637  0.01991146  1
  C  C25  1  0.76040499  0.26008637  0.98008854  1
  C  C26  1  0.23959501  0.73991363  0.98008854  1
  C  C27  1  0.76040499  0.73991363  0.01991146  1
  C  C28  1  0.48074048  0.26637258  0.24022218  1
  C  C29  1  0.51925952  0.73362742  0.24022218  1
  C  C30  1  0.51925952  0.26637258  0.75977782  1
  C  C31  1  0.48074048  0.73362742  0.75977782  1
  C  C32  1  0.24583576  0.48033103  0.26081250  1
  C  C33  1  0.24583576  0.51966897  0.73918750  1
  C  C34  1  0.75416424  0.51966897  0.26081250  1
  C  C35  1  0.75416424  0.48033103  0.73918750  1
  C  C36  1  0.26040499  0.23991363  0.48008854  1
  C  C37  1  0.73959501  0.23991363  0.51991146  1
  C  C38  1  0.26040499  0.76008637  0.51991146  1
  C  C39  1  0.73959501  0.76008637  0.48008854  1
