# generated using pymatgen
data_Cu2NiC7
_symmetry_space_group_name_H-M   'P 1'
_cell_length_a   8.44388049
_cell_length_b   8.44388049
_cell_length_c   8.44388049
_cell_angle_alpha   90.00000000
_cell_angle_beta   90.00000000
_cell_angle_gamma   90.00000000
_symmetry_Int_Tables_number   1
_chemical_formula_structural   Cu2NiC7
_chemical_formula_sum   'Cu8 Ni4 C28'
_cell_volume   602.04122915
_cell_formula_units_Z   4
loop_
 _symmetry_equiv_pos_site_id
 _symmetry_equiv_pos_as_xyz
  1  'x, y, z'
loop_
 _atom_site_type_symbol
 _atom_site_label
 _atom_site_symmetry_multiplicity
 _atom_site_fract_x
 _atom_site_fract_y
 _atom_site_fract_z
 _atom_site_occupancy
  Ni  Ni0  1  0.25000000  0.25000000  0.25000000  1
  Ni  Ni1  1  0.25000000  0.75000000  0.75000000  1
  Ni  Ni2  1  0.75000000  0.25000000  0.75000000  1
  Ni  Ni3  1  0.75000000  0.75000000  0.25000000  1
  Cu  Cu4  1  0.50000000  0.50000000  0.50000000  1
  Cu  Cu5  1  -0.00000000  -0.00000000  -0.00000000  1
  Cu  Cu6  1  -0.00000000  -0.00000000  0.50000000  1
  Cu  Cu7  1  -0.00000000  0.50000000  -0.00000000  1
  Cu  Cu8  1  0.50000000  -0.00000000  -0.00000000  1
  Cu  Cu9  1  0.50000000  0.50000000  -0.00000000  1
  Cu  Cu10  1  0.50000000  -0.00000000  0.50000000  1
  Cu  Cu11  1  -0.00000000  0.50000000  0.50000000  1
  C  C12  1  0.75000000  0.75000000  0.75000000  1
  C  C13  1  0.75000000  0.25000000  0.25000000  1
  C  C14  1  0.25000000  0.75000000  0.25000000  1
  C  C15  1  0.25000000  0.25000000  0.75000000  1
  C  C16  1  0.21492796  0.29291898  0.51757458  1
  C  C17  1  0.21492796  0.70708102  0.48242542  1
  C  C18  1  0.78507204  0.29291898  0.48242542  1
  C  C19  1  0.78507204  0.70708102  0.51757458  1
  C  C20  1  0.29291898  0.51757458  0.21492796  1
  C  C21  1  0.70708102  0.48242542  0.21492796  1
  C  C22  1  0.29291898  0.48242542  0.78507204  1
  C  C23  1  0.70708102  0.51757458  0.78507204  1
  C  C24  1  0.51757458  0.21492796  0.29291898  1
  C  C25  1  0.48242542  0.21492796  0.70708102  1
  C  C26  1  0.48242542  0.78507204  0.29291898  1
  C  C27  1  0.51757458  0.78507204  0.70708102  1
  C  C28  1  0.28507204  0.20708102  0.98242542  1
  C  C29  1  0.28507204  0.79291898  0.01757458  1
  C  C30  1  0.71492796  0.20708102  0.01757458  1
  C  C31  1  0.71492796  0.79291898  0.98242542  1
  C  C32  1  0.20708102  0.98242542  0.28507204  1
  C  C33  1  0.79291898  0.01757458  0.28507204  1
  C  C34  1  0.20708102  0.01757458  0.71492796  1
  C  C35  1  0.79291898  0.98242542  0.71492796  1
  C  C36  1  0.98242542  0.28507204  0.20708102  1
  C  C37  1  0.01757458  0.28507204  0.79291898  1
  C  C38  1  0.01757458  0.71492796  0.20708102  1
  C  C39  1  0.98242542  0.71492796  0.79291898  1
