# generated using pymatgen
data_CuNiC5
_symmetry_space_group_name_H-M   'P 1'
_cell_length_a   6.82662412
_cell_length_b   7.65622057
_cell_length_c   8.49591655
_cell_angle_alpha   116.01055158
_cell_angle_beta   68.13609192
_cell_angle_gamma   106.15056943
_symmetry_Int_Tables_number   1
_chemical_formula_structural   CuNiC5
_chemical_formula_sum   'Cu4 Ni4 C20'
_cell_volume   366.83960649
_cell_formula_units_Z   4
loop_
 _symmetry_equiv_pos_site_id
 _symmetry_equiv_pos_as_xyz
  1  'x, y, z'
loop_
 _atom_site_type_symbol
 _atom_site_label
 _atom_site_symmetry_multiplicity
 _atom_site_fract_x
 _atom_site_fract_y
 _atom_site_fract_z
 _atom_site_occupancy
  Ni  Ni0  1  0.29197100  0.41217700  0.17707800  1
  Ni  Ni1  1  0.29608400  0.91075900  0.17353800  1
  Ni  Ni2  1  0.29304500  0.15615700  0.67523700  1
  Ni  Ni3  1  0.29774400  0.66737200  0.67703200  1
  Cu  Cu4  1  0.72607200  0.56555300  0.80833800  1
  Cu  Cu5  1  0.72479000  0.11360700  0.82267500  1
  Cu  Cu6  1  0.70786700  0.33951800  0.32366100  1
  Cu  Cu7  1  0.71608800  0.84881500  0.32730500  1
  C  C8  1  0.96758900  0.99721600  0.01155000  1
  C  C9  1  0.97683900  0.74550800  0.50114100  1
  C  C10  1  0.00453200  0.50009500  0.00137300  1
  C  C11  1  0.01628000  0.25299700  0.49354800  1
  C  C12  1  0.67476600  0.42636100  0.06664100  1
  C  C13  1  0.66264300  0.00408100  0.15596600  1
  C  C14  1  0.67719200  0.23321400  0.59497800  1
  C  C15  1  0.66604900  0.66342800  0.51248100  1
  C  C16  1  0.37746100  0.55554400  0.90795600  1
  C  C17  1  0.38028600  0.02962600  0.89009400  1
  C  C18  1  0.35417400  0.29360900  0.41499500  1
  C  C19  1  0.36502600  0.80840400  0.42097800  1
  C  C20  1  0.00112100  0.37715300  0.75151400  1
  C  C21  1  0.88423500  0.86058000  0.77822500  1
  C  C22  1  0.00794700  0.12507800  0.25741700  1
  C  C23  1  0.01125600  0.62462600  0.23608300  1
  C  C24  1  0.95748200  0.74775800  0.00552600  1
  C  C25  1  0.00114600  0.23733300  0.99542200  1
  C  C26  1  0.99469300  0.51087800  0.50588500  1
  C  C27  1  0.96562300  0.99255900  0.51336300  1
