# generated using pymatgen
data_CuNi4C17
_symmetry_space_group_name_H-M   'P 1'
_cell_length_a   7.22278179
_cell_length_b   7.28349895
_cell_length_c   10.25759820
_cell_angle_alpha   90.00003150
_cell_angle_beta   89.31933048
_cell_angle_gamma   89.99998892
_symmetry_Int_Tables_number   1
_chemical_formula_structural   CuNi4C17
_chemical_formula_sum   'Cu2 Ni8 C34'
_cell_volume   539.58465725
_cell_formula_units_Z   2
loop_
 _symmetry_equiv_pos_site_id
 _symmetry_equiv_pos_as_xyz
  1  'x, y, z'
loop_
 _atom_site_type_symbol
 _atom_site_label
 _atom_site_symmetry_multiplicity
 _atom_site_fract_x
 _atom_site_fract_y
 _atom_site_fract_z
 _atom_site_occupancy
  Ni  Ni0  1  0.25000000  0.75000000  0.25000000  1
  Ni  Ni1  1  0.75000000  0.25000000  0.75000000  1
  Ni  Ni2  1  0.99999900  0.49999900  0.49999900  1
  Ni  Ni3  1  0.50000100  0.00000100  0.00000100  1
  Ni  Ni4  1  0.75000000  0.75000000  0.25000000  1
  Ni  Ni5  1  0.25000000  0.25000000  0.75000000  1
  Ni  Ni6  1  0.99999900  0.00000100  0.49999900  1
  Ni  Ni7  1  0.50000000  0.49999900  0.00000100  1
  Cu  Cu8  1  0.25000000  0.74999800  0.75000300  1
  Cu  Cu9  1  0.75000000  0.25000300  0.25000000  1
  C  C10  1  0.00000000  0.49999900  0.00000000  1
  C  C11  1  0.50000000  0.00000100  0.50000000  1
  C  C12  1  0.25000000  0.25000000  0.25000000  1
  C  C13  1  0.75000000  0.75000000  0.75000000  1
  C  C14  1  0.00000000  0.00000100  0.00000000  1
  C  C15  1  0.50000000  0.49999900  0.50000000  1
  C  C16  1  0.96599500  0.25000000  0.14199700  1
  C  C17  1  0.46599400  0.75000000  0.64199700  1
  C  C18  1  0.03400600  0.75000000  0.85800300  1
  C  C19  1  0.53400500  0.25000000  0.35800300  1
  C  C20  1  0.79607400  0.04737200  0.62564800  1
  C  C21  1  0.29607400  0.54737200  0.12564900  1
  C  C22  1  0.79607400  0.45262700  0.62564800  1
  C  C23  1  0.29607400  0.95262800  0.12564900  1
  C  C24  1  0.99870500  0.25000000  0.82827700  1
  C  C25  1  0.49870600  0.75000000  0.32827600  1
  C  C26  1  0.20392600  0.95262800  0.37435100  1
  C  C27  1  0.70392600  0.45262700  0.87435200  1
  C  C28  1  0.20392600  0.54737200  0.37435100  1
  C  C29  1  0.70392600  0.04737200  0.87435200  1
  C  C30  1  0.00129400  0.75000000  0.17172400  1
  C  C31  1  0.50129500  0.25000000  0.67172300  1
  C  C32  1  0.19902100  0.45080200  0.62588600  1
  C  C33  1  0.69902100  0.95080200  0.12588700  1
  C  C34  1  0.19902000  0.04919800  0.62588600  1
  C  C35  1  0.69902100  0.54919800  0.12588700  1
  C  C36  1  0.99822100  0.25000000  0.42509000  1
  C  C37  1  0.49822100  0.75000000  0.92509100  1
  C  C38  1  0.80097900  0.54919800  0.37411300  1
  C  C39  1  0.30098000  0.04919800  0.87411400  1
  C  C40  1  0.80097900  0.95080200  0.37411300  1
  C  C41  1  0.30097900  0.45080200  0.87411400  1
  C  C42  1  0.00177900  0.75000000  0.57490900  1
  C  C43  1  0.50177900  0.25000000  0.07491000  1
