# generated using pymatgen
data_CuNiC5
_symmetry_space_group_name_H-M   'P 1'
_cell_length_a   12.05531700
_cell_length_b   3.61081000
_cell_length_c   12.37500600
_cell_angle_alpha   90.00000000
_cell_angle_beta   90.00000000
_cell_angle_gamma   90.00000000
_symmetry_Int_Tables_number   1
_chemical_formula_structural   CuNiC5
_chemical_formula_sum   'Cu4 Ni4 C20'
_cell_volume   538.67731849
_cell_formula_units_Z   4
loop_
 _symmetry_equiv_pos_site_id
 _symmetry_equiv_pos_as_xyz
  1  'x, y, z'
loop_
 _atom_site_type_symbol
 _atom_site_label
 _atom_site_symmetry_multiplicity
 _atom_site_fract_x
 _atom_site_fract_y
 _atom_site_fract_z
 _atom_site_occupancy
  Ni  Ni0  1  0.15099000  0.25000000  0.70868200  1
  Ni  Ni1  1  0.84901000  0.75000000  0.29131800  1
  Ni  Ni2  1  0.34901000  0.75000000  0.20868200  1
  Ni  Ni3  1  0.65099000  0.25000000  0.79131800  1
  Cu  Cu4  1  0.10776200  0.25000000  0.07451800  1
  Cu  Cu5  1  0.89223800  0.75000000  0.92548200  1
  Cu  Cu6  1  0.39223800  0.75000000  0.57451800  1
  Cu  Cu7  1  0.60776200  0.25000000  0.42548200  1
  C  C8  1  0.13755500  0.75000000  0.41559900  1
  C  C9  1  0.86244500  0.25000000  0.58440100  1
  C  C10  1  0.36244500  0.25000000  0.91559900  1
  C  C11  1  0.63755500  0.75000000  0.08440100  1
  C  C12  1  0.04192600  0.75000000  0.61838500  1
  C  C13  1  0.95807400  0.25000000  0.38161500  1
  C  C14  1  0.45807400  0.25000000  0.11838500  1
  C  C15  1  0.54192600  0.75000000  0.88161500  1
  C  C16  1  0.02883200  0.25000000  0.88755400  1
  C  C17  1  0.97116800  0.75000000  0.11244600  1
  C  C18  1  0.47116800  0.75000000  0.38755400  1
  C  C19  1  0.52883200  0.25000000  0.61244600  1
  C  C20  1  0.20371700  0.25000000  0.25196000  1
  C  C21  1  0.79628300  0.75000000  0.74804000  1
  C  C22  1  0.29628300  0.75000000  0.75196000  1
  C  C23  1  0.70371700  0.25000000  0.24804000  1
  C  C24  1  0.23025700  0.75000000  0.03218900  1
  C  C25  1  0.76974300  0.25000000  0.96781100  1
  C  C26  1  0.26974300  0.25000000  0.53218900  1
  C  C27  1  0.73025700  0.75000000  0.46781100  1
