# generated using pymatgen
data_CuNiC5
_symmetry_space_group_name_H-M   'P 1'
_cell_length_a   7.11872300
_cell_length_b   7.47462800
_cell_length_c   15.76945900
_cell_angle_alpha   90.00000000
_cell_angle_beta   90.00000000
_cell_angle_gamma   90.00000000
_symmetry_Int_Tables_number   1
_chemical_formula_structural   CuNiC5
_chemical_formula_sum   'Cu8 Ni8 C40'
_cell_volume   839.08985822
_cell_formula_units_Z   8
loop_
 _symmetry_equiv_pos_site_id
 _symmetry_equiv_pos_as_xyz
  1  'x, y, z'
loop_
 _atom_site_type_symbol
 _atom_site_label
 _atom_site_symmetry_multiplicity
 _atom_site_fract_x
 _atom_site_fract_y
 _atom_site_fract_z
 _atom_site_occupancy
  C  C0  1  0.75000000  0.96061900  0.75727900  1
  C  C1  1  0.75000000  0.53938100  0.25727900  1
  C  C2  1  0.25000000  0.46061900  0.74272100  1
  C  C3  1  0.25000000  0.03938100  0.24272100  1
  Ni  Ni4  1  0.75000000  0.39772700  0.88032000  1
  Ni  Ni5  1  0.25000000  0.60227300  0.11968000  1
  Ni  Ni6  1  0.25000000  0.89772700  0.61968000  1
  Ni  Ni7  1  0.75000000  0.10227300  0.38032000  1
  Ni  Ni8  1  0.50000000  0.00000000  0.00000000  1
  Ni  Ni9  1  0.50000000  0.50000000  0.50000000  1
  Ni  Ni10  1  0.00000000  0.50000000  0.50000000  1
  Ni  Ni11  1  0.00000000  0.00000000  0.00000000  1
  Cu  Cu12  1  0.25000000  0.38352800  0.91141400  1
  Cu  Cu13  1  0.75000000  0.61647200  0.08858600  1
  Cu  Cu14  1  0.75000000  0.88352800  0.58858600  1
  Cu  Cu15  1  0.25000000  0.11647200  0.41141400  1
  Cu  Cu16  1  0.75000000  0.38504500  0.68923400  1
  Cu  Cu17  1  0.75000000  0.11495500  0.18923400  1
  Cu  Cu18  1  0.25000000  0.88504500  0.81076600  1
  Cu  Cu19  1  0.25000000  0.61495500  0.31076600  1
  C  C20  1  0.06558800  0.62483000  0.36359300  1
  C  C21  1  0.56558800  0.37517000  0.63640700  1
  C  C22  1  0.93441200  0.12483000  0.13640700  1
  C  C23  1  0.43441200  0.87517000  0.86359300  1
  C  C24  1  0.93441200  0.37517000  0.63640700  1
  C  C25  1  0.43441200  0.62483000  0.36359300  1
  C  C26  1  0.06558800  0.87517000  0.86359300  1
  C  C27  1  0.56558800  0.12483000  0.13640700  1
  C  C28  1  0.25000000  0.29081100  0.46706300  1
  C  C29  1  0.75000000  0.70918900  0.53293700  1
  C  C30  1  0.75000000  0.79081100  0.03293700  1
  C  C31  1  0.25000000  0.20918900  0.96706300  1
  C  C32  1  0.75000000  0.11801200  0.92397600  1
  C  C33  1  0.25000000  0.88198800  0.07602400  1
  C  C34  1  0.25000000  0.61801200  0.57602400  1
  C  C35  1  0.75000000  0.38198800  0.42397600  1
  C  C36  1  0.75000000  0.22103800  0.75510600  1
  C  C37  1  0.25000000  0.77896200  0.24489400  1
  C  C38  1  0.25000000  0.72103800  0.74489400  1
  C  C39  1  0.75000000  0.27896200  0.25510600  1
  C  C40  1  0.41998100  0.11860900  0.34759400  1
  C  C41  1  0.91998100  0.88139100  0.65240600  1
  C  C42  1  0.58001900  0.61860900  0.15240600  1
  C  C43  1  0.08001900  0.38139100  0.84759400  1
  C  C44  1  0.58001900  0.88139100  0.65240600  1
  C  C45  1  0.08001900  0.11860900  0.34759400  1
  C  C46  1  0.41998100  0.38139100  0.84759400  1
  C  C47  1  0.91998100  0.61860900  0.15240600  1
  C  C48  1  0.75000000  0.45392300  0.03119100  1
  C  C49  1  0.25000000  0.04921500  0.75169700  1
  C  C50  1  0.25000000  0.45078500  0.25169700  1
  C  C51  1  0.75000000  0.54921500  0.74830300  1
  C  C52  1  0.75000000  0.04607700  0.53119100  1
  C  C53  1  0.25000000  0.95392300  0.46880900  1
  C  C54  1  0.25000000  0.54607700  0.96880900  1
  C  C55  1  0.75000000  0.95078500  0.24830300  1
