# generated using pymatgen
data_Cu5Ni5C2
_symmetry_space_group_name_H-M   'P 1'
_cell_length_a   4.06593700
_cell_length_b   8.85740700
_cell_length_c   15.42910810
_cell_angle_alpha   89.79989468
_cell_angle_beta   90.00000000
_cell_angle_gamma   90.00000000
_symmetry_Int_Tables_number   1
_chemical_formula_structural   Cu5Ni5C2
_chemical_formula_sum   'Cu15 Ni15 C6'
_cell_volume   555.65524652
_cell_formula_units_Z   3
loop_
 _symmetry_equiv_pos_site_id
 _symmetry_equiv_pos_as_xyz
  1  'x, y, z'
loop_
 _atom_site_type_symbol
 _atom_site_label
 _atom_site_symmetry_multiplicity
 _atom_site_fract_x
 _atom_site_fract_y
 _atom_site_fract_z
 _atom_site_occupancy
  C  C0  1  0.00000000  0.99930400  0.33683600  1
  C  C1  1  0.00000000  0.50429300  0.83563900  1
  C  C2  1  0.00000000  0.50568000  0.16848400  1
  C  C3  1  0.00000000  0.00319500  0.66385500  1
  C  C4  1  0.50000000  0.99219800  0.00056300  1
  C  C5  1  0.50000000  0.49748000  0.49638800  1
  Ni  Ni6  1  0.50000000  0.00983300  0.50126400  1
  Ni  Ni7  1  0.50000000  0.50809700  0.00066100  1
  Ni  Ni8  1  0.50000000  0.74685100  0.25585500  1
  Ni  Ni9  1  0.50000000  0.25208600  0.75176400  1
  Ni  Ni10  1  0.50000000  0.24894900  0.24798700  1
  Ni  Ni11  1  0.50000000  0.75160300  0.74788500  1
  Ni  Ni12  1  0.00000000  0.14527900  0.85385300  1
  Ni  Ni13  1  0.00000000  0.14542100  0.14709000  1
  Ni  Ni14  1  0.00000000  0.64745500  0.64680700  1
  Ni  Ni15  1  0.00000000  0.78150500  0.49427700  1
  Ni  Ni16  1  0.00000000  0.29515000  0.00062300  1
  Ni  Ni17  1  0.00000000  0.84951200  0.14016600  1
  Ni  Ni18  1  0.00000000  0.35173000  0.63780100  1
  Ni  Ni19  1  0.00000000  0.36209700  0.36227100  1
  Ni  Ni20  1  0.00000000  0.85118100  0.86179900  1
  Cu  Cu21  1  0.50000000  0.99500600  0.18505500  1
  Cu  Cu22  1  0.50000000  0.49874600  0.68358300  1
  Cu  Cu23  1  0.50000000  0.22498900  0.40470500  1
  Cu  Cu24  1  0.50000000  0.72560300  0.90643800  1
  Cu  Cu25  1  0.50000000  0.77907100  0.41030300  1
  Cu  Cu26  1  0.50000000  0.27725500  0.90959200  1
  Cu  Cu27  1  0.50000000  0.49507900  0.31553700  1
  Cu  Cu28  1  0.50000000  0.99833100  0.81492300  1
  Cu  Cu29  1  0.50000000  0.72509800  0.09449400  1
  Cu  Cu30  1  0.50000000  0.22757800  0.59353800  1
  Cu  Cu31  1  0.50000000  0.27728600  0.09098400  1
  Cu  Cu32  1  0.50000000  0.77803300  0.58962700  1
  Cu  Cu33  1  0.00000000  0.19969200  0.49931600  1
  Cu  Cu34  1  0.00000000  0.70036000  0.00037800  1
  Cu  Cu35  1  0.00000000  0.64917500  0.34965700  1
