# generated using pymatgen
data_Cu(NiC5)4
_symmetry_space_group_name_H-M   'P 1'
_cell_length_a   8.72318661
_cell_length_b   8.72318661
_cell_length_c   6.77902499
_cell_angle_alpha   75.23519393
_cell_angle_beta   75.23519393
_cell_angle_gamma   36.95796468
_symmetry_Int_Tables_number   1
_chemical_formula_structural   Cu(NiC5)4
_chemical_formula_sum   'Cu1 Ni4 C20'
_cell_volume   298.73347899
_cell_formula_units_Z   1
loop_
 _symmetry_equiv_pos_site_id
 _symmetry_equiv_pos_as_xyz
  1  'x, y, z'
loop_
 _atom_site_type_symbol
 _atom_site_label
 _atom_site_symmetry_multiplicity
 _atom_site_fract_x
 _atom_site_fract_y
 _atom_site_fract_z
 _atom_site_occupancy
  Ni  Ni0  1  0.59963900  0.59963900  0.10116200  1
  Ni  Ni1  1  0.99996000  0.99996000  0.50066200  1
  Ni  Ni2  1  0.40015200  0.40015200  0.89910000  1
  Ni  Ni3  1  0.19987100  0.19987100  0.69907800  1
  Cu  Cu4  1  0.79904100  0.79904100  0.29941200  1
  C  C5  1  0.19892700  0.19892700  0.19920400  1
  C  C6  1  0.59945700  0.59945700  0.60048100  1
  C  C7  1  0.00042800  0.00042800  0.99902600  1
  C  C8  1  0.40038100  0.40038100  0.39959400  1
  C  C9  1  0.79945400  0.79945400  0.80082200  1
  C  C10  1  0.29804500  0.29804500  0.29849400  1
  C  C11  1  0.50026500  0.50026500  0.49868700  1
  C  C12  1  0.89805300  0.89805300  0.90548900  1
  C  C13  1  0.70259300  0.70259300  0.69300400  1
  C  C14  1  0.10170300  0.10170300  0.10487900  1
  C  C15  1  0.09583600  0.60284600  0.59233800  1
  C  C16  1  0.29967900  0.80012200  0.80146400  1
  C  C17  1  0.70136000  0.19214600  0.20194700  1
  C  C18  1  0.50259300  0.99964100  0.00684600  1
  C  C19  1  0.90078900  0.40702100  0.39785700  1
  C  C20  1  0.60284600  0.09583600  0.59233800  1
  C  C21  1  0.80012200  0.29967900  0.80146400  1
  C  C22  1  0.19214600  0.70136000  0.20194700  1
  C  C23  1  0.99964100  0.50259300  0.00684600  1
  C  C24  1  0.40702100  0.90078900  0.39785700  1
