# generated using pymatgen
data_CuNiC8
_symmetry_space_group_name_H-M   'P 1'
_cell_length_a   9.38786335
_cell_length_b   9.38786335
_cell_length_c   9.38587083
_cell_angle_alpha   26.93335552
_cell_angle_beta   26.93335552
_cell_angle_gamma   38.49250993
_symmetry_Int_Tables_number   1
_chemical_formula_structural   CuNiC8
_chemical_formula_sum   'Cu1 Ni1 C8'
_cell_volume   169.41578788
_cell_formula_units_Z   1
loop_
 _symmetry_equiv_pos_site_id
 _symmetry_equiv_pos_as_xyz
  1  'x, y, z'
loop_
 _atom_site_type_symbol
 _atom_site_label
 _atom_site_symmetry_multiplicity
 _atom_site_fract_x
 _atom_site_fract_y
 _atom_site_fract_z
 _atom_site_occupancy
  C  C0  1  0.80926300  0.30926300  0.50000000  1
  C  C1  1  0.19453500  0.69453500  0.50000000  1
  Ni  Ni2  1  0.50168800  0.00168800  0.50000000  1
  Cu  Cu3  1  0.99954500  0.49954500  0.50000000  1
  C  C4  1  0.74539300  0.74539300  0.00000000  1
  C  C5  1  0.24539300  0.24539300  0.00000000  1
  C  C6  1  0.80832200  0.30832200  0.00398400  1
  C  C7  1  0.31230600  0.81230600  0.99601600  1
  C  C8  1  0.19855500  0.18500100  0.50000000  1
  C  C9  1  0.68500100  0.69855500  0.50000000  1
