# generated using pymatgen
data_Cu3Ni5C12
_symmetry_space_group_name_H-M   'P 1'
_cell_length_a   5.76317678
_cell_length_b   5.76317678
_cell_length_c   13.88021101
_cell_angle_alpha   89.84828331
_cell_angle_beta   89.84828331
_cell_angle_gamma   60.20045889
_symmetry_Int_Tables_number   1
_chemical_formula_structural   Cu3Ni5C12
_chemical_formula_sum   'Cu6 Ni10 C24'
_cell_volume   400.05736015
_cell_formula_units_Z   2
loop_
 _symmetry_equiv_pos_site_id
 _symmetry_equiv_pos_as_xyz
  1  'x, y, z'
loop_
 _atom_site_type_symbol
 _atom_site_label
 _atom_site_symmetry_multiplicity
 _atom_site_fract_x
 _atom_site_fract_y
 _atom_site_fract_z
 _atom_site_occupancy
  Ni  Ni0  1  0.00420400  0.00420400  0.62044300  1
  Ni  Ni1  1  0.67274500  0.67274500  0.29496900  1
  Ni  Ni2  1  0.32968200  0.32968200  0.95304100  1
  Ni  Ni3  1  0.65866400  0.65866400  0.65736800  1
  Ni  Ni4  1  0.34133600  0.34133600  0.34263200  1
  Ni  Ni5  1  0.16788600  0.16788600  0.16413700  1
  Ni  Ni6  1  0.83211400  0.83211400  0.83586300  1
  Ni  Ni7  1  0.99579600  0.99579600  0.37955700  1
  Ni  Ni8  1  0.67031800  0.67031800  0.04695900  1
  Ni  Ni9  1  0.32725500  0.32725500  0.70503100  1
  Cu  Cu10  1  0.00000000  0.50000000  0.50000000  1
  Cu  Cu11  1  0.67645400  0.16845800  0.16121400  1
  Cu  Cu12  1  0.32354600  0.83154200  0.83878600  1
  Cu  Cu13  1  0.50000000  0.00000000  0.50000000  1
  Cu  Cu14  1  0.16845800  0.67645400  0.16121400  1
  Cu  Cu15  1  0.83154200  0.32354600  0.83878600  1
  C  C16  1  0.82707000  0.82707000  0.58407100  1
  C  C17  1  0.49480900  0.49480900  0.25549500  1
  C  C18  1  0.16437500  0.16437500  0.90988400  1
  C  C19  1  0.67790400  0.67790400  0.42199300  1
  C  C20  1  0.32965200  0.32965200  0.08446600  1
  C  C21  1  0.99014900  0.99014900  0.75380500  1
  C  C22  1  0.84671000  0.34776500  0.58849500  1
  C  C23  1  0.48116600  0.02596400  0.24965400  1
  C  C24  1  0.15423400  0.65869800  0.90593600  1
  C  C25  1  0.34776500  0.84671000  0.58849500  1
  C  C26  1  0.02596400  0.48116600  0.24965400  1
  C  C27  1  0.65869800  0.15423400  0.90593600  1
  C  C28  1  0.65223500  0.15329000  0.41150500  1
  C  C29  1  0.34130200  0.84576600  0.09406400  1
  C  C30  1  0.97403600  0.51883400  0.75034600  1
  C  C31  1  0.15329000  0.65223500  0.41150500  1
  C  C32  1  0.84576600  0.34130200  0.09406400  1
  C  C33  1  0.51883400  0.97403600  0.75034600  1
  C  C34  1  0.32209600  0.32209600  0.57800700  1
  C  C35  1  0.00985100  0.00985100  0.24619500  1
  C  C36  1  0.67034800  0.67034800  0.91553400  1
  C  C37  1  0.17293000  0.17293000  0.41592900  1
  C  C38  1  0.83562500  0.83562500  0.09011600  1
  C  C39  1  0.50519100  0.50519100  0.74450500  1
