# generated using pymatgen
data_Cu4NiC8
_symmetry_space_group_name_H-M   'P 1'
_cell_length_a   5.99217185
_cell_length_b   5.99217185
_cell_length_c   10.13387700
_cell_angle_alpha   90.00000000
_cell_angle_beta   90.00000000
_cell_angle_gamma   119.99999832
_symmetry_Int_Tables_number   1
_chemical_formula_structural   Cu4NiC8
_chemical_formula_sum   'Cu8 Ni2 C16'
_cell_volume   315.11914361
_cell_formula_units_Z   2
loop_
 _symmetry_equiv_pos_site_id
 _symmetry_equiv_pos_as_xyz
  1  'x, y, z'
loop_
 _atom_site_type_symbol
 _atom_site_label
 _atom_site_symmetry_multiplicity
 _atom_site_fract_x
 _atom_site_fract_y
 _atom_site_fract_z
 _atom_site_occupancy
  C  C0  1  0.66666700  0.33333300  0.49270800  1
  C  C1  1  0.33333300  0.66666700  0.99270800  1
  Ni  Ni2  1  0.66666700  0.33333300  0.87249200  1
  Ni  Ni3  1  0.33333300  0.66666700  0.37249200  1
  Cu  Cu4  1  0.82477300  0.17522700  0.18972300  1
  Cu  Cu5  1  0.64954700  0.82477300  0.68972300  1
  Cu  Cu6  1  0.17522700  0.35045300  0.68972300  1
  Cu  Cu7  1  0.82477300  0.64954700  0.18972300  1
  Cu  Cu8  1  0.35045300  0.17522700  0.18972300  1
  Cu  Cu9  1  0.17522700  0.82477300  0.68972300  1
  Cu  Cu10  1  0.00000000  0.00000000  0.43734300  1
  Cu  Cu11  1  0.00000000  0.00000000  0.93734300  1
  C  C12  1  0.82590500  0.17409500  0.99411600  1
  C  C13  1  0.65181000  0.82590500  0.49411600  1
  C  C14  1  0.17409500  0.34819000  0.49411600  1
  C  C15  1  0.82590500  0.65181000  0.99411600  1
  C  C16  1  0.34819000  0.17409500  0.99411600  1
  C  C17  1  0.17409500  0.82590500  0.49411600  1
  C  C18  1  0.00000000  0.00000000  0.75392200  1
  C  C19  1  0.00000000  0.00000000  0.25392200  1
  C  C20  1  0.49015100  0.50984900  0.27533800  1
  C  C21  1  0.98030300  0.49015100  0.77533800  1
  C  C22  1  0.50984900  0.01969700  0.77533800  1
  C  C23  1  0.49015100  0.98030300  0.27533800  1
  C  C24  1  0.50984900  0.49015100  0.77533800  1
  C  C25  1  0.01969700  0.50984900  0.27533800  1
