# generated using pymatgen
data_Cu12Ni4C3
_symmetry_space_group_name_H-M   'P 1'
_cell_length_a   7.66150400
_cell_length_b   8.00216500
_cell_length_c   9.60727899
_cell_angle_alpha   80.50473694
_cell_angle_beta   90.00000000
_cell_angle_gamma   90.00000000
_symmetry_Int_Tables_number   1
_chemical_formula_structural   Cu12Ni4C3
_chemical_formula_sum   'Cu24 Ni8 C6'
_cell_volume   580.93913972
_cell_formula_units_Z   2
loop_
 _symmetry_equiv_pos_site_id
 _symmetry_equiv_pos_as_xyz
  1  'x, y, z'
loop_
 _atom_site_type_symbol
 _atom_site_label
 _atom_site_symmetry_multiplicity
 _atom_site_fract_x
 _atom_site_fract_y
 _atom_site_fract_z
 _atom_site_occupancy
  C  C0  1  0.06385000  0.34910200  0.33055900  1
  C  C1  1  0.56385000  0.65089800  0.16944100  1
  C  C2  1  0.93615000  0.65089800  0.66944100  1
  C  C3  1  0.43615000  0.34910200  0.83055900  1
  C  C4  1  0.00000000  0.00000000  0.00000000  1
  C  C5  1  0.50000000  0.00000000  0.50000000  1
  Ni  Ni6  1  0.05204500  0.18075000  0.71290000  1
  Ni  Ni7  1  0.55204500  0.81925000  0.78710000  1
  Ni  Ni8  1  0.94795500  0.81925000  0.28710000  1
  Ni  Ni9  1  0.44795500  0.18075000  0.21290000  1
  Ni  Ni10  1  0.14749200  0.67324400  0.96941300  1
  Ni  Ni11  1  0.64749200  0.32675600  0.53058700  1
  Ni  Ni12  1  0.85250800  0.32675600  0.03058700  1
  Ni  Ni13  1  0.35250800  0.67324400  0.46941300  1
  Cu  Cu14  1  0.12186400  0.15989000  0.84119700  1
  Cu  Cu15  1  0.62186400  0.84011000  0.65880300  1
  Cu  Cu16  1  0.87813600  0.84011000  0.15880300  1
  Cu  Cu17  1  0.37813600  0.15989000  0.34119700  1
  Cu  Cu18  1  0.93682300  0.08408700  0.68386300  1
  Cu  Cu19  1  0.43682300  0.91591300  0.81613700  1
  Cu  Cu20  1  0.06317700  0.91591300  0.31613700  1
  Cu  Cu21  1  0.56317700  0.08408700  0.18386300  1
  Cu  Cu22  1  0.11222900  0.30363400  0.62825500  1
  Cu  Cu23  1  0.61222900  0.69636600  0.87174500  1
  Cu  Cu24  1  0.88777100  0.69636600  0.37174500  1
  Cu  Cu25  1  0.38777100  0.30363400  0.12825500  1
  Cu  Cu26  1  0.04675400  0.79520500  0.90333800  1
  Cu  Cu27  1  0.54675400  0.20479500  0.59666200  1
  Cu  Cu28  1  0.95324600  0.20479500  0.09666200  1
  Cu  Cu29  1  0.45324600  0.79520500  0.40333800  1
  Cu  Cu30  1  0.16873200  0.54914700  0.90686200  1
  Cu  Cu31  1  0.66873200  0.45085300  0.59313800  1
  Cu  Cu32  1  0.83126800  0.45085300  0.09313800  1
  Cu  Cu33  1  0.33126800  0.54914700  0.40686200  1
  Cu  Cu34  1  0.21294200  0.68566600  0.08522400  1
  Cu  Cu35  1  0.71294200  0.31433400  0.41477600  1
  Cu  Cu36  1  0.78705800  0.31433400  0.91477600  1
  Cu  Cu37  1  0.28705800  0.68566600  0.58522400  1
