# generated using pymatgen
data_CuNi2C7
_symmetry_space_group_name_H-M   'P 1'
_cell_length_a   5.89695003
_cell_length_b   6.07715200
_cell_length_c   8.44091372
_cell_angle_alpha   90.00000000
_cell_angle_beta   90.16872382
_cell_angle_gamma   90.00000000
_symmetry_Int_Tables_number   1
_chemical_formula_structural   CuNi2C7
_chemical_formula_sum   'Cu2 Ni4 C14'
_cell_volume   302.49285773
_cell_formula_units_Z   2
loop_
 _symmetry_equiv_pos_site_id
 _symmetry_equiv_pos_as_xyz
  1  'x, y, z'
loop_
 _atom_site_type_symbol
 _atom_site_label
 _atom_site_symmetry_multiplicity
 _atom_site_fract_x
 _atom_site_fract_y
 _atom_site_fract_z
 _atom_site_occupancy
  Ni  Ni0  1  0.01188100  0.45440400  0.25333700  1
  Ni  Ni1  1  0.98811900  0.54559600  0.74666300  1
  Ni  Ni2  1  0.48811900  0.95440400  0.24666300  1
  Ni  Ni3  1  0.51188100  0.04559600  0.75333700  1
  Cu  Cu4  1  0.00000000  0.00000000  0.50000000  1
  Cu  Cu5  1  0.50000000  0.50000000  0.00000000  1
  C  C6  1  0.00000000  0.00000000  0.00000000  1
  C  C7  1  0.50000000  0.50000000  0.50000000  1
  C  C8  1  0.90608600  0.03738500  0.22865700  1
  C  C9  1  0.09391400  0.96261500  0.77134300  1
  C  C10  1  0.59391400  0.53738500  0.27134300  1
  C  C11  1  0.40608600  0.46261500  0.72865700  1
  C  C12  1  0.18292900  0.72727800  0.05607800  1
  C  C13  1  0.81707100  0.27272200  0.94392200  1
  C  C14  1  0.31707100  0.22727800  0.44392200  1
  C  C15  1  0.68292900  0.77272200  0.55607800  1
  C  C16  1  0.27600900  0.18577900  0.04434700  1
  C  C17  1  0.72399100  0.81422100  0.95565300  1
  C  C18  1  0.22399100  0.68577900  0.45565300  1
  C  C19  1  0.77600900  0.31422100  0.54434700  1
