# generated using pymatgen
data_Cu6NiC5
_symmetry_space_group_name_H-M   'P 1'
_cell_length_a   5.50402100
_cell_length_b   10.30608000
_cell_length_c   11.33269300
_cell_angle_alpha   90.00000000
_cell_angle_beta   90.00000000
_cell_angle_gamma   90.00000000
_symmetry_Int_Tables_number   1
_chemical_formula_structural   Cu6NiC5
_chemical_formula_sum   'Cu24 Ni4 C20'
_cell_volume   642.84565898
_cell_formula_units_Z   4
loop_
 _symmetry_equiv_pos_site_id
 _symmetry_equiv_pos_as_xyz
  1  'x, y, z'
loop_
 _atom_site_type_symbol
 _atom_site_label
 _atom_site_symmetry_multiplicity
 _atom_site_fract_x
 _atom_site_fract_y
 _atom_site_fract_z
 _atom_site_occupancy
  C  C0  1  0.23481900  0.54383600  0.05328700  1
  C  C1  1  0.76518100  0.45616400  0.94671300  1
  C  C2  1  0.76518100  0.04383600  0.94671300  1
  C  C3  1  0.76518100  0.95616400  0.55328700  1
  C  C4  1  0.23481900  0.95616400  0.05328700  1
  C  C5  1  0.23481900  0.04383600  0.44671300  1
  C  C6  1  0.23481900  0.45616400  0.44671300  1
  C  C7  1  0.76518100  0.54383600  0.55328700  1
  C  C8  1  0.03273000  0.75000000  0.85315500  1
  C  C9  1  0.96727000  0.25000000  0.14684500  1
  C  C10  1  0.96727000  0.75000000  0.35315500  1
  C  C11  1  0.03273000  0.25000000  0.64684500  1
  C  C12  1  0.14509300  0.75000000  0.58710800  1
  C  C13  1  0.85490700  0.25000000  0.41289200  1
  C  C14  1  0.85490700  0.75000000  0.08710800  1
  C  C15  1  0.14509300  0.25000000  0.91289200  1
  C  C16  1  0.32475900  0.50000000  0.75000000  1
  C  C17  1  0.67524100  0.50000000  0.25000000  1
  C  C18  1  0.67524100  0.00000000  0.25000000  1
  C  C19  1  0.32475900  0.00000000  0.75000000  1
  Ni  Ni20  1  0.61918700  0.75000000  0.59867800  1
  Ni  Ni21  1  0.38081300  0.25000000  0.40132200  1
  Ni  Ni22  1  0.38081300  0.75000000  0.09867800  1
  Ni  Ni23  1  0.61918700  0.25000000  0.90132200  1
  Cu  Cu24  1  0.12330000  0.62871700  0.72445600  1
  Cu  Cu25  1  0.87670000  0.37128300  0.27554400  1
  Cu  Cu26  1  0.87670000  0.12871700  0.27554400  1
  Cu  Cu27  1  0.87670000  0.87128300  0.22445600  1
  Cu  Cu28  1  0.12330000  0.87128300  0.72445600  1
  Cu  Cu29  1  0.12330000  0.12871700  0.77554400  1
  Cu  Cu30  1  0.12330000  0.37128300  0.77554400  1
  Cu  Cu31  1  0.87670000  0.62871700  0.22445600  1
  Cu  Cu32  1  0.04643400  0.11895600  0.02974700  1
  Cu  Cu33  1  0.95356600  0.88104400  0.97025300  1
  Cu  Cu34  1  0.95356600  0.61895600  0.97025300  1
  Cu  Cu35  1  0.95356600  0.38104400  0.52974700  1
  Cu  Cu36  1  0.04643400  0.38104400  0.02974700  1
  Cu  Cu37  1  0.04643400  0.61895600  0.47025300  1
  Cu  Cu38  1  0.04643400  0.88104400  0.47025300  1
  Cu  Cu39  1  0.95356600  0.11895600  0.52974700  1
  Cu  Cu40  1  0.48585800  0.53863800  0.87496400  1
  Cu  Cu41  1  0.51414200  0.46136200  0.12503600  1
  Cu  Cu42  1  0.51414200  0.03863800  0.12503600  1
  Cu  Cu43  1  0.51414200  0.96136200  0.37496400  1
  Cu  Cu44  1  0.48585800  0.96136200  0.87496400  1
  Cu  Cu45  1  0.48585800  0.03863800  0.62503600  1
  Cu  Cu46  1  0.48585800  0.46136200  0.62503600  1
  Cu  Cu47  1  0.51414200  0.53863800  0.37496400  1
