# generated using pymatgen
data_CuNi14C17
_symmetry_space_group_name_H-M   'P 1'
_cell_length_a   8.57980300
_cell_length_b   8.57980300
_cell_length_c   4.27319800
_cell_angle_alpha   90.00000000
_cell_angle_beta   90.00000000
_cell_angle_gamma   90.00000000
_symmetry_Int_Tables_number   1
_chemical_formula_structural   CuNi14C17
_chemical_formula_sum   'Cu1 Ni14 C17'
_cell_volume   314.56300778
_cell_formula_units_Z   1
loop_
 _symmetry_equiv_pos_site_id
 _symmetry_equiv_pos_as_xyz
  1  'x, y, z'
loop_
 _atom_site_type_symbol
 _atom_site_label
 _atom_site_symmetry_multiplicity
 _atom_site_fract_x
 _atom_site_fract_y
 _atom_site_fract_z
 _atom_site_occupancy
  Ni  Ni0  1  0.50000000  0.00000000  0.00000000  1
  Ni  Ni1  1  0.00000000  0.50000000  0.00000000  1
  Ni  Ni2  1  0.25004700  0.00000000  0.50000000  1
  Ni  Ni3  1  0.74995300  0.00000000  0.50000000  1
  Ni  Ni4  1  0.24964900  0.50000000  0.50000000  1
  Ni  Ni5  1  0.75035100  0.50000000  0.50000000  1
  Ni  Ni6  1  0.00000000  0.25004700  0.50000000  1
  Ni  Ni7  1  0.50000000  0.24964900  0.50000000  1
  Ni  Ni8  1  0.00000000  0.74995300  0.50000000  1
  Ni  Ni9  1  0.50000000  0.75035100  0.50000000  1
  Ni  Ni10  1  0.25158000  0.25158000  0.00000000  1
  Ni  Ni11  1  0.74842000  0.25158000  0.00000000  1
  Ni  Ni12  1  0.25158000  0.74842000  0.00000000  1
  Ni  Ni13  1  0.74842000  0.74842000  0.00000000  1
  Cu  Cu14  1  0.50000000  0.50000000  0.00000000  1
  C  C15  1  0.00000000  0.00000000  0.00000000  1
  C  C16  1  0.00000000  0.22932400  0.00000000  1
  C  C17  1  0.50000000  0.23675700  0.00000000  1
  C  C18  1  0.00000000  0.77067600  0.00000000  1
  C  C19  1  0.50000000  0.76324300  0.00000000  1
  C  C20  1  0.24922800  0.24922800  0.50000000  1
  C  C21  1  0.75077200  0.24922800  0.50000000  1
  C  C22  1  0.24922800  0.75077200  0.50000000  1
  C  C23  1  0.75077200  0.75077200  0.50000000  1
  C  C24  1  0.00000000  0.00000000  0.50000000  1
  C  C25  1  0.50000000  0.00000000  0.50000000  1
  C  C26  1  0.00000000  0.50000000  0.50000000  1
  C  C27  1  0.50000000  0.50000000  0.50000000  1
  C  C28  1  0.22932400  0.00000000  0.00000000  1
  C  C29  1  0.77067600  0.00000000  0.00000000  1
  C  C30  1  0.23675700  0.50000000  0.00000000  1
  C  C31  1  0.76324300  0.50000000  0.00000000  1
