# generated using pymatgen
data_Cu2NiC6
_symmetry_space_group_name_H-M   'P 1'
_cell_length_a   3.39225611
_cell_length_b   3.39225611
_cell_length_c   31.47442500
_cell_angle_alpha   90.00000000
_cell_angle_beta   90.00000000
_cell_angle_gamma   120.00000216
_symmetry_Int_Tables_number   1
_chemical_formula_structural   Cu2NiC6
_chemical_formula_sum   'Cu2 Ni1 C6'
_cell_volume   313.66473487
_cell_formula_units_Z   1
loop_
 _symmetry_equiv_pos_site_id
 _symmetry_equiv_pos_as_xyz
  1  'x, y, z'
loop_
 _atom_site_type_symbol
 _atom_site_label
 _atom_site_symmetry_multiplicity
 _atom_site_fract_x
 _atom_site_fract_y
 _atom_site_fract_z
 _atom_site_occupancy
  C  C0  1  0.00000000  0.00000000  0.05961600  1
  C  C1  1  0.00000000  0.00000000  0.94038400  1
  Ni  Ni2  1  0.33333300  0.66666700  0.00000000  1
  Cu  Cu3  1  0.00000000  0.00000000  0.76865000  1
  Cu  Cu4  1  0.00000000  0.00000000  0.23135000  1
  C  C5  1  0.33333300  0.66666700  0.71599600  1
  C  C6  1  0.33333300  0.66666700  0.17865100  1
  C  C7  1  0.33333300  0.66666700  0.82134900  1
  C  C8  1  0.33333300  0.66666700  0.28400400  1
