# generated using pymatgen
data_Cu4NiC8
_symmetry_space_group_name_H-M   'P 1'
_cell_length_a   8.25062000
_cell_length_b   8.99879262
_cell_length_c   12.04170043
_cell_angle_alpha   101.75209573
_cell_angle_beta   93.26124938
_cell_angle_gamma   113.03197104
_symmetry_Int_Tables_number   1
_chemical_formula_structural   Cu4NiC8
_chemical_formula_sum   'Cu8 Ni2 C16'
_cell_volume   796.22090444
_cell_formula_units_Z   2
loop_
 _symmetry_equiv_pos_site_id
 _symmetry_equiv_pos_as_xyz
  1  'x, y, z'
loop_
 _atom_site_type_symbol
 _atom_site_label
 _atom_site_symmetry_multiplicity
 _atom_site_fract_x
 _atom_site_fract_y
 _atom_site_fract_z
 _atom_site_occupancy
  C  C0  1  0.20722200  0.51364500  0.92551600  1
  C  C1  1  0.79277800  0.48635500  0.07448400  1
  C  C2  1  0.82460900  0.11498900  0.16310700  1
  C  C3  1  0.17539100  0.88501100  0.83689300  1
  C  C4  1  0.38430800  0.44481300  0.66137500  1
  C  C5  1  0.61569200  0.55518700  0.33862500  1
  C  C6  1  0.17019500  0.72302100  0.45210200  1
  C  C7  1  0.82980500  0.27697900  0.54789800  1
  Ni  Ni8  1  0.23583200  0.14968000  0.27630000  1
  Ni  Ni9  1  0.76416800  0.85032000  0.72370000  1
  Cu  Cu10  1  0.18548400  0.35688000  0.40138300  1
  Cu  Cu11  1  0.81451600  0.64312000  0.59861700  1
  Cu  Cu12  1  0.50546100  0.10506500  0.31260800  1
  Cu  Cu13  1  0.49453900  0.89493500  0.68739200  1
  Cu  Cu14  1  0.99116700  0.90838500  0.30924400  1
  Cu  Cu15  1  0.00883300  0.09161500  0.69075600  1
  Cu  Cu16  1  0.26536100  0.24867800  0.08158400  1
  Cu  Cu17  1  0.73463900  0.75132200  0.91841600  1
  C  C18  1  0.08261100  0.29458000  0.06130600  1
  C  C19  1  0.91738900  0.70542000  0.93869400  1
  C  C20  1  0.99398700  0.71085000  0.25296700  1
  C  C21  1  0.00601300  0.28915000  0.74703300  1
  C  C22  1  0.68967900  0.28643100  0.29768200  1
  C  C23  1  0.31032100  0.71356900  0.70231800  1
  C  C24  1  0.44756800  0.43576100  0.12306500  1
  C  C25  1  0.55243200  0.56423900  0.87693500  1
