# generated using pymatgen
data_Cu4NiC14
_symmetry_space_group_name_H-M   'P 1'
_cell_length_a   8.47653137
_cell_length_b   8.47653137
_cell_length_c   7.82133693
_cell_angle_alpha   82.01035109
_cell_angle_beta   82.01035109
_cell_angle_gamma   97.08146353
_symmetry_Int_Tables_number   1
_chemical_formula_structural   Cu4NiC14
_chemical_formula_sum   'Cu8 Ni2 C28'
_cell_volume   545.26093343
_cell_formula_units_Z   2
loop_
 _symmetry_equiv_pos_site_id
 _symmetry_equiv_pos_as_xyz
  1  'x, y, z'
loop_
 _atom_site_type_symbol
 _atom_site_label
 _atom_site_symmetry_multiplicity
 _atom_site_fract_x
 _atom_site_fract_y
 _atom_site_fract_z
 _atom_site_occupancy
  C  C0  1  0.50708800  0.75798200  0.41624100  1
  C  C1  1  0.75798200  0.50708800  0.91624100  1
  C  C2  1  0.46815900  0.19993100  0.59159800  1
  C  C3  1  0.19993100  0.46815900  0.09159800  1
  Ni  Ni4  1  0.15090000  0.84174200  0.75779300  1
  Ni  Ni5  1  0.84174200  0.15090000  0.25779300  1
  Cu  Cu6  1  0.81584800  0.96531200  0.66802400  1
  Cu  Cu7  1  0.96531200  0.81584800  0.16802400  1
  Cu  Cu8  1  0.50359500  0.82709000  0.92742500  1
  Cu  Cu9  1  0.82709000  0.50359500  0.42742500  1
  Cu  Cu10  1  0.50539700  0.13275500  0.08408900  1
  Cu  Cu11  1  0.13275500  0.50539700  0.58408900  1
  Cu  Cu12  1  0.18844000  0.03623000  0.32040600  1
  Cu  Cu13  1  0.03623000  0.18844000  0.82040600  1
  C  C14  1  0.48937700  0.65944800  0.02302500  1
  C  C15  1  0.65944800  0.48937700  0.52302500  1
  C  C16  1  0.39587200  0.86992300  0.79541900  1
  C  C17  1  0.86992300  0.39587200  0.29541900  1
  C  C18  1  0.68886000  0.87755700  0.83651500  1
  C  C19  1  0.87755700  0.68886000  0.33651500  1
  C  C20  1  0.49211200  0.94098400  0.07883800  1
  C  C21  1  0.94098400  0.49211200  0.57883800  1
  C  C22  1  0.60943600  0.16718900  0.22057300  1
  C  C23  1  0.16718900  0.60943600  0.72057300  1
  C  C24  1  0.54239400  0.23345700  0.90794800  1
  C  C25  1  0.23345700  0.54239400  0.40794800  1
  C  C26  1  0.32166300  0.14658300  0.16669000  1
  C  C27  1  0.14658300  0.32166300  0.66669000  1
  C  C28  1  0.26933600  0.97470300  0.47044200  1
  C  C29  1  0.97470300  0.26933600  0.97044200  1
  C  C30  1  0.05833900  0.13993700  0.34597000  1
  C  C31  1  0.13993700  0.05833900  0.84597000  1
  C  C32  1  0.13102800  0.88394800  0.22934900  1
  C  C33  1  0.88394800  0.13102800  0.72934900  1
  C  C34  1  0.72780100  0.01140700  0.51816300  1
  C  C35  1  0.01140700  0.72780100  0.01816300  1
  C  C36  1  0.94195000  0.85622700  0.64949200  1
  C  C37  1  0.85622700  0.94195000  0.14949200  1
