# generated using pymatgen
data_Cu(NiC3)3
_symmetry_space_group_name_H-M   'P 1'
_cell_length_a   9.51144612
_cell_length_b   9.51144612
_cell_length_c   13.93651300
_cell_angle_alpha   90.00000000
_cell_angle_beta   90.00000000
_cell_angle_gamma   120.00000083
_symmetry_Int_Tables_number   1
_chemical_formula_structural   Cu(NiC3)3
_chemical_formula_sum   'Cu6 Ni18 C54'
_cell_volume   1091.88740493
_cell_formula_units_Z   6
loop_
 _symmetry_equiv_pos_site_id
 _symmetry_equiv_pos_as_xyz
  1  'x, y, z'
loop_
 _atom_site_type_symbol
 _atom_site_label
 _atom_site_symmetry_multiplicity
 _atom_site_fract_x
 _atom_site_fract_y
 _atom_site_fract_z
 _atom_site_occupancy
  Ni  Ni0  1  0.33333300  0.66666700  0.25006500  1
  Ni  Ni1  1  0.66666700  0.33333300  0.75006500  1
  Ni  Ni2  1  0.00000000  0.00000000  0.00004900  1
  Ni  Ni3  1  0.00000000  0.00000000  0.50004900  1
  Ni  Ni4  1  0.33333300  0.66666700  0.77038000  1
  Ni  Ni5  1  0.66666700  0.33333300  0.27038000  1
  Ni  Ni6  1  0.01519300  0.68518400  0.08757400  1
  Ni  Ni7  1  0.31481600  0.33000900  0.08757400  1
  Ni  Ni8  1  0.66999100  0.98480700  0.08757400  1
  Ni  Ni9  1  0.98480700  0.31481600  0.58757400  1
  Ni  Ni10  1  0.68518400  0.66999100  0.58757400  1
  Ni  Ni11  1  0.33000900  0.01519300  0.58757400  1
  Ni  Ni12  1  0.98430700  0.31440700  0.91262700  1
  Ni  Ni13  1  0.68559300  0.66990000  0.91262700  1
  Ni  Ni14  1  0.33010000  0.01569300  0.91262700  1
  Ni  Ni15  1  0.01569300  0.68559300  0.41262700  1
  Ni  Ni16  1  0.31440700  0.33010000  0.41262700  1
  Ni  Ni17  1  0.66990000  0.98430700  0.41262700  1
  Cu  Cu18  1  0.66666700  0.33333300  0.51981200  1
  Cu  Cu19  1  0.33333300  0.66666700  0.01981200  1
  Cu  Cu20  1  0.33333300  0.66666700  0.48215500  1
  Cu  Cu21  1  0.66666700  0.33333300  0.98215500  1
  Cu  Cu22  1  0.00000000  0.00000000  0.74983300  1
  Cu  Cu23  1  0.00000000  0.00000000  0.24983300  1
  C  C24  1  0.01895600  0.67221800  0.64079500  1
  C  C25  1  0.32778200  0.34673700  0.64079500  1
  C  C26  1  0.65326300  0.98104400  0.64079500  1
  C  C27  1  0.98104400  0.32778200  0.14079500  1
  C  C28  1  0.67221800  0.65326300  0.14079500  1
  C  C29  1  0.34673700  0.01895600  0.14079500  1
  C  C30  1  0.98198900  0.32794600  0.35911800  1
  C  C31  1  0.67205400  0.65404300  0.35911800  1
  C  C32  1  0.34595700  0.01801100  0.35911800  1
  C  C33  1  0.01801100  0.67205400  0.85911800  1
  C  C34  1  0.32794600  0.34595700  0.85911800  1
  C  C35  1  0.65404300  0.98198900  0.85911800  1
  C  C36  1  0.51498900  0.39145500  0.62081000  1
  C  C37  1  0.60854500  0.12353500  0.62081000  1
  C  C38  1  0.87646500  0.48501100  0.62081000  1
  C  C39  1  0.48501100  0.60854500  0.12081000  1
  C  C40  1  0.39145500  0.87646500  0.12081000  1
  C  C41  1  0.12353500  0.51498900  0.12081000  1
  C  C42  1  0.48492000  0.60838100  0.37922100  1
  C  C43  1  0.39161900  0.87653900  0.37922100  1
  C  C44  1  0.12346100  0.51508000  0.37922100  1
  C  C45  1  0.51508000  0.39161900  0.87922100  1
  C  C46  1  0.60838100  0.12346100  0.87922100  1
  C  C47  1  0.87653900  0.48492000  0.87922100  1
  C  C48  1  0.17184700  0.73076700  0.93337700  1
  C  C49  1  0.26923300  0.44108000  0.93337700  1
  C  C50  1  0.55892000  0.82815300  0.93337700  1
  C  C51  1  0.82815300  0.26923300  0.43337700  1
  C  C52  1  0.73076700  0.55892000  0.43337700  1
  C  C53  1  0.44108000  0.17184700  0.43337700  1
  C  C54  1  0.82903300  0.26882400  0.06578800  1
  C  C55  1  0.73117600  0.56020900  0.06578800  1
  C  C56  1  0.43979100  0.17096700  0.06578800  1
  C  C57  1  0.17096700  0.73117600  0.56578800  1
  C  C58  1  0.26882400  0.43979100  0.56578800  1
  C  C59  1  0.56020900  0.82903300  0.56578800  1
  C  C60  1  0.95179500  0.80088700  0.86116400  1
  C  C61  1  0.19911300  0.15090800  0.86116400  1
  C  C62  1  0.84909200  0.04820500  0.86116400  1
  C  C63  1  0.04820500  0.19911300  0.36116400  1
  C  C64  1  0.80088700  0.84909200  0.36116400  1
  C  C65  1  0.15090800  0.95179500  0.36116400  1
  C  C66  1  0.04821500  0.19934100  0.13900600  1
  C  C67  1  0.80065900  0.84887400  0.13900600  1
  C  C68  1  0.15112600  0.95178500  0.13900600  1
  C  C69  1  0.95178500  0.80065900  0.63900600  1
  C  C70  1  0.19934100  0.15112600  0.63900600  1
  C  C71  1  0.84887400  0.04821500  0.63900600  1
  C  C72  1  0.09923900  0.68090700  0.75009000  1
  C  C73  1  0.31909300  0.41833100  0.75009000  1
  C  C74  1  0.58166900  0.90076100  0.75009000  1
  C  C75  1  0.90076100  0.31909300  0.25009000  1
  C  C76  1  0.68090700  0.58166900  0.25009000  1
  C  C77  1  0.41833100  0.09923900  0.25009000  1
