# generated using pymatgen
data_Cu12Ni3C4
_symmetry_space_group_name_H-M   'P 1'
_cell_length_a   10.63815262
_cell_length_b   10.63815262
_cell_length_c   21.51104706
_cell_angle_alpha   79.70200500
_cell_angle_beta   79.70200500
_cell_angle_gamma   78.02044082
_symmetry_Int_Tables_number   1
_chemical_formula_structural   Cu12Ni3C4
_chemical_formula_sum   'Cu48 Ni12 C16'
_cell_volume   2317.51422336
_cell_formula_units_Z   4
loop_
 _symmetry_equiv_pos_site_id
 _symmetry_equiv_pos_as_xyz
  1  'x, y, z'
loop_
 _atom_site_type_symbol
 _atom_site_label
 _atom_site_symmetry_multiplicity
 _atom_site_fract_x
 _atom_site_fract_y
 _atom_site_fract_z
 _atom_site_occupancy
  C  C0  1  0.19693800  0.44571800  0.78945600  1
  C  C1  1  0.55378300  0.80356700  0.71123000  1
  C  C2  1  0.80356700  0.55378300  0.21123000  1
  C  C3  1  0.44571800  0.19693800  0.28945600  1
  C  C4  1  0.98987400  0.49736100  0.52766800  1
  C  C5  1  0.49736100  0.98987400  0.02766800  1
  C  C6  1  0.70932700  0.48610100  0.92495100  1
  C  C7  1  0.51450900  0.29079300  0.57453600  1
  C  C8  1  0.29079300  0.51450900  0.07453600  1
  C  C9  1  0.48610100  0.70932700  0.42495100  1
  C  C10  1  0.06360700  0.82670300  0.93200000  1
  C  C11  1  0.17300200  0.93669300  0.56751500  1
  C  C12  1  0.93669300  0.17300200  0.06751500  1
  C  C13  1  0.82670300  0.06360700  0.43200000  1
  C  C14  1  0.93402500  0.06443800  0.75058200  1
  C  C15  1  0.06443800  0.93402500  0.25058200  1
  Ni  Ni16  1  0.91875400  0.17747700  0.89915000  1
  Ni  Ni17  1  0.82274000  0.08100700  0.60075700  1
  Ni  Ni18  1  0.08100700  0.82274000  0.10075700  1
  Ni  Ni19  1  0.17747700  0.91875400  0.39915000  1
  Ni  Ni20  1  0.84332000  0.76051200  0.83649800  1
  Ni  Ni21  1  0.24028900  0.15642600  0.66332000  1
  Ni  Ni22  1  0.15642600  0.24028900  0.16332000  1
  Ni  Ni23  1  0.76051200  0.84332000  0.33649800  1
  Ni  Ni24  1  0.35294900  0.61539600  0.59650700  1
  Ni  Ni25  1  0.38434900  0.64761900  0.90344900  1
  Ni  Ni26  1  0.64761900  0.38434900  0.40344900  1
  Ni  Ni27  1  0.61539600  0.35294900  0.09650700  1
  Cu  Cu28  1  0.83133600  0.70548400  0.93497200  1
  Cu  Cu29  1  0.29394500  0.16930600  0.56480000  1
  Cu  Cu30  1  0.16930600  0.29394500  0.06480000  1
  Cu  Cu31  1  0.70548400  0.83133600  0.43497200  1
  Cu  Cu32  1  0.97422400  0.31931200  0.93531600  1
  Cu  Cu33  1  0.68071600  0.02562000  0.56477100  1
  Cu  Cu34  1  0.02562000  0.68071600  0.06477100  1
  Cu  Cu35  1  0.31931200  0.97422400  0.43531600  1
  Cu  Cu36  1  0.03012400  0.79336600  0.80399900  1
  Cu  Cu37  1  0.20610300  0.97032400  0.69598100  1
  Cu  Cu38  1  0.97032400  0.20610300  0.19598100  1
  Cu  Cu39  1  0.79336600  0.03012400  0.30399900  1
  Cu  Cu40  1  0.17352000  0.67931700  0.64242500  1
  Cu  Cu41  1  0.32007500  0.82605800  0.85738500  1
  Cu  Cu42  1  0.82605800  0.32007500  0.35738500  1
  Cu  Cu43  1  0.67931700  0.17352000  0.14242500  1
  Cu  Cu44  1  0.33177000  0.52565300  0.52185700  1
  Cu  Cu45  1  0.47419500  0.66806900  0.97829900  1
  Cu  Cu46  1  0.66806900  0.47419500  0.47829900  1
  Cu  Cu47  1  0.52565300  0.33177000  0.02185700  1
  Cu  Cu48  1  0.47395400  0.49567000  0.65322400  1
  Cu  Cu49  1  0.50437900  0.52628300  0.84691400  1
  Cu  Cu50  1  0.52628300  0.50437900  0.34691400  1
  Cu  Cu51  1  0.49567000  0.47395400  0.15322400  1
  Cu  Cu52  1  0.06922500  0.28011100  0.68363800  1
  Cu  Cu53  1  0.72012000  0.93091700  0.81648400  1
  Cu  Cu54  1  0.93091700  0.72012000  0.31648400  1
  Cu  Cu55  1  0.28011100  0.06922500  0.18363800  1
  Cu  Cu56  1  0.95117400  0.15686500  0.52700600  1
  Cu  Cu57  1  0.84356800  0.04873500  0.97304800  1
  Cu  Cu58  1  0.04873500  0.84356800  0.47304800  1
  Cu  Cu59  1  0.15686500  0.95117400  0.02700600  1
  Cu  Cu60  1  0.22351200  0.56316400  0.94240100  1
  Cu  Cu61  1  0.43669600  0.77652000  0.55779200  1
  Cu  Cu62  1  0.77652000  0.43669600  0.05779200  1
  Cu  Cu63  1  0.56316400  0.22351200  0.44240100  1
  Cu  Cu64  1  0.92110200  0.91782700  0.64915600  1
  Cu  Cu65  1  0.08195200  0.07888400  0.85082400  1
  Cu  Cu66  1  0.07888400  0.08195200  0.35082400  1
  Cu  Cu67  1  0.91782700  0.92110200  0.14915600  1
  Cu  Cu68  1  0.81740800  0.60776700  0.79923400  1
  Cu  Cu69  1  0.39213300  0.18292300  0.70068400  1
  Cu  Cu70  1  0.18292300  0.39213300  0.20068400  1
  Cu  Cu71  1  0.60776700  0.81740800  0.29923400  1
  Cu  Cu72  1  0.78415300  0.26113500  0.84095400  1
  Cu  Cu73  1  0.73910600  0.21627900  0.65883800  1
  Cu  Cu74  1  0.21627900  0.73910600  0.15883800  1
  Cu  Cu75  1  0.26113500  0.78415300  0.34095400  1
