# generated using pymatgen
data_Cu24Ni18C7
_symmetry_space_group_name_H-M   'P 1'
_cell_length_a   12.11144841
_cell_length_b   12.11144841
_cell_length_c   12.11144841
_cell_angle_alpha   109.47122063
_cell_angle_beta   109.47122063
_cell_angle_gamma   109.47122063
_symmetry_Int_Tables_number   1
_chemical_formula_structural   Cu24Ni18C7
_chemical_formula_sum   'Cu24 Ni18 C7'
_cell_volume   1367.62288706
_cell_formula_units_Z   1
loop_
 _symmetry_equiv_pos_site_id
 _symmetry_equiv_pos_as_xyz
  1  'x, y, z'
loop_
 _atom_site_type_symbol
 _atom_site_label
 _atom_site_symmetry_multiplicity
 _atom_site_fract_x
 _atom_site_fract_y
 _atom_site_fract_z
 _atom_site_occupancy
  C  C0  1  0.18020400  0.00000000  0.18020400  1
  C  C1  1  0.00000000  0.18020400  0.18020400  1
  C  C2  1  0.81979600  0.81979600  0.00000000  1
  C  C3  1  0.81979600  0.00000000  0.81979600  1
  C  C4  1  0.18020400  0.18020400  0.00000000  1
  C  C5  1  0.00000000  0.81979600  0.81979600  1
  C  C6  1  0.00000000  0.00000000  0.00000000  1
  Ni  Ni7  1  0.00000000  0.81824200  0.18175800  1
  Ni  Ni8  1  0.18175800  0.18175800  0.36351600  1
  Ni  Ni9  1  0.81824200  0.00000000  0.18175800  1
  Ni  Ni10  1  0.00000000  0.18175800  0.81824200  1
  Ni  Ni11  1  0.81824200  0.18175800  0.00000000  1
  Ni  Ni12  1  0.18175800  0.36351600  0.18175800  1
  Ni  Ni13  1  0.36351600  0.18175800  0.18175800  1
  Ni  Ni14  1  0.18175800  0.81824200  0.00000000  1
  Ni  Ni15  1  0.18175800  0.00000000  0.81824200  1
  Ni  Ni16  1  0.63648400  0.81824200  0.81824200  1
  Ni  Ni17  1  0.81824200  0.81824200  0.63648400  1
  Ni  Ni18  1  0.81824200  0.63648400  0.81824200  1
  Ni  Ni19  1  0.35127100  0.00000000  0.35127100  1
  Ni  Ni20  1  0.00000000  0.35127100  0.35127100  1
  Ni  Ni21  1  0.64872900  0.64872900  0.00000000  1
  Ni  Ni22  1  0.64872900  0.00000000  0.64872900  1
  Ni  Ni23  1  0.35127100  0.35127100  0.00000000  1
  Ni  Ni24  1  0.00000000  0.64872900  0.64872900  1
  Cu  Cu25  1  0.30334800  0.00000000  0.60847000  1
  Cu  Cu26  1  0.00000000  0.30334800  0.60847000  1
  Cu  Cu27  1  0.69665200  0.69665200  0.30512200  1
  Cu  Cu28  1  0.69665200  0.30512200  0.69665200  1
  Cu  Cu29  1  0.00000000  0.60847000  0.30334800  1
  Cu  Cu30  1  0.30334800  0.60847000  0.00000000  1
  Cu  Cu31  1  0.60847000  0.00000000  0.30334800  1
  Cu  Cu32  1  0.30512200  0.69665200  0.69665200  1
  Cu  Cu33  1  0.60847000  0.30334800  0.00000000  1
  Cu  Cu34  1  0.39153000  0.69487800  0.39153000  1
  Cu  Cu35  1  0.69487800  0.39153000  0.39153000  1
  Cu  Cu36  1  0.39153000  0.39153000  0.69487800  1
  Cu  Cu37  1  0.69665200  0.00000000  0.39153000  1
  Cu  Cu38  1  0.00000000  0.69665200  0.39153000  1
  Cu  Cu39  1  0.30334800  0.30334800  0.69487800  1
  Cu  Cu40  1  0.30334800  0.69487800  0.30334800  1
  Cu  Cu41  1  0.00000000  0.39153000  0.69665200  1
  Cu  Cu42  1  0.69665200  0.39153000  0.00000000  1
  Cu  Cu43  1  0.39153000  0.00000000  0.69665200  1
  Cu  Cu44  1  0.69487800  0.30334800  0.30334800  1
  Cu  Cu45  1  0.39153000  0.69665200  0.00000000  1
  Cu  Cu46  1  0.60847000  0.30512200  0.60847000  1
  Cu  Cu47  1  0.30512200  0.60847000  0.60847000  1
  Cu  Cu48  1  0.60847000  0.60847000  0.30512200  1
