# generated using pymatgen
data_CuNi2C19
_symmetry_space_group_name_H-M   'P 1'
_cell_length_a   3.87459904
_cell_length_b   7.44751029
_cell_length_c   10.09393809
_cell_angle_alpha   76.71007452
_cell_angle_beta   89.99099618
_cell_angle_gamma   74.90615207
_symmetry_Int_Tables_number   1
_chemical_formula_structural   CuNi2C19
_chemical_formula_sum   'Cu1 Ni2 C19'
_cell_volume   273.13877262
_cell_formula_units_Z   1
loop_
 _symmetry_equiv_pos_site_id
 _symmetry_equiv_pos_as_xyz
  1  'x, y, z'
loop_
 _atom_site_type_symbol
 _atom_site_label
 _atom_site_symmetry_multiplicity
 _atom_site_fract_x
 _atom_site_fract_y
 _atom_site_fract_z
 _atom_site_occupancy
  Ni  Ni0  1  0.53358100  0.92972300  0.81305400  1
  Ni  Ni1  1  0.49550500  0.00786700  0.46422200  1
  Cu  Cu2  1  0.47421800  0.04777700  0.12969500  1
  C  C3  1  0.14353700  0.70998500  0.05166600  1
  C  C4  1  0.16751500  0.66178800  0.38367900  1
  C  C5  1  0.22467200  0.54755400  0.71647100  1
  C  C6  1  0.77381500  0.44957700  0.22840500  1
  C  C7  1  0.82370400  0.34983100  0.56766600  1
  C  C8  1  0.86240800  0.27180700  0.91753100  1
  C  C9  1  0.23368800  0.52974400  0.23530200  1
  C  C10  1  0.84295600  0.31085500  0.09006400  1
  C  C11  1  0.04093200  0.91366200  0.28932100  1
  C  C12  1  0.11332900  0.76992100  0.58436100  1
  C  C13  1  0.16347200  0.67002800  0.87670200  1
  C  C14  1  0.63140200  0.73416300  0.07994800  1
  C  C15  1  0.68097400  0.63477300  0.41396100  1
  C  C16  1  0.75471400  0.48748100  0.73848600  1
  C  C17  1  0.29681600  0.40346200  0.55160500  1
  C  C18  1  0.36717200  0.26242700  0.87612100  1
  C  C19  1  0.87258600  0.25265800  0.39634300  1
  C  C20  1  0.94260100  0.11175400  0.67500700  1
  C  C21  1  0.00106100  0.99484500  0.98222900  1
