# generated using pymatgen
data_Cu14Ni2C
_symmetry_space_group_name_H-M   'P 1'
_cell_length_a   7.78259837
_cell_length_b   7.78259837
_cell_length_c   4.93124900
_cell_angle_alpha   90.00000000
_cell_angle_beta   90.00000000
_cell_angle_gamma   120.00000313
_symmetry_Int_Tables_number   1
_chemical_formula_structural   Cu14Ni2C
_chemical_formula_sum   'Cu14 Ni2 C1'
_cell_volume   258.66447559
_cell_formula_units_Z   1
loop_
 _symmetry_equiv_pos_site_id
 _symmetry_equiv_pos_as_xyz
  1  'x, y, z'
loop_
 _atom_site_type_symbol
 _atom_site_label
 _atom_site_symmetry_multiplicity
 _atom_site_fract_x
 _atom_site_fract_y
 _atom_site_fract_z
 _atom_site_occupancy
  C  C0  1  0.33333300  0.66666700  0.74866100  1
  Ni  Ni1  1  0.66666700  0.33333300  0.49534100  1
  Ni  Ni2  1  0.00000000  0.00000000  0.99783400  1
  Cu  Cu3  1  0.13475400  0.56737700  0.99504400  1
  Cu  Cu4  1  0.43262300  0.56737700  0.99504400  1
  Cu  Cu5  1  0.43262300  0.86524600  0.99504400  1
  Cu  Cu6  1  0.53185600  0.76592800  0.50228400  1
  Cu  Cu7  1  0.23407200  0.76592800  0.50228400  1
  Cu  Cu8  1  0.23407200  0.46814400  0.50228400  1
  Cu  Cu9  1  0.46184000  0.23092000  0.40525400  1
  Cu  Cu10  1  0.76908000  0.23092000  0.40525400  1
  Cu  Cu11  1  0.76908000  0.53816000  0.40525400  1
  Cu  Cu12  1  0.20455900  0.10228000  0.90450300  1
  Cu  Cu13  1  0.89772000  0.10228000  0.90450300  1
  Cu  Cu14  1  0.89772000  0.79544100  0.90450300  1
  Cu  Cu15  1  0.66666700  0.33333300  0.79509500  1
  Cu  Cu16  1  0.00000000  0.00000000  0.29516100  1
