# generated using pymatgen
data_Cu8Ni2C
_symmetry_space_group_name_H-M   'P 1'
_cell_length_a   13.46758800
_cell_length_b   8.56120500
_cell_length_c   7.50148000
_cell_angle_alpha   90.00000000
_cell_angle_beta   90.00000000
_cell_angle_gamma   90.00000000
_symmetry_Int_Tables_number   1
_chemical_formula_structural   Cu8Ni2C
_chemical_formula_sum   'Cu64 Ni16 C8'
_cell_volume   864.91150512
_cell_formula_units_Z   8
loop_
 _symmetry_equiv_pos_site_id
 _symmetry_equiv_pos_as_xyz
  1  'x, y, z'
loop_
 _atom_site_type_symbol
 _atom_site_label
 _atom_site_symmetry_multiplicity
 _atom_site_fract_x
 _atom_site_fract_y
 _atom_site_fract_z
 _atom_site_occupancy
  C  C0  1  0.12189300  0.37636200  0.15318200  1
  C  C1  1  0.62189300  0.12363800  0.84681800  1
  C  C2  1  0.87810700  0.87636200  0.34681800  1
  C  C3  1  0.37810700  0.62363800  0.65318200  1
  C  C4  1  0.87810700  0.62363800  0.84681800  1
  C  C5  1  0.37810700  0.87636200  0.15318200  1
  C  C6  1  0.12189300  0.12363800  0.65318200  1
  C  C7  1  0.62189300  0.37636200  0.34681800  1
  Ni  Ni8  1  0.71351100  0.41566200  0.03925900  1
  Ni  Ni9  1  0.21351100  0.08433800  0.96074100  1
  Ni  Ni10  1  0.28648900  0.91566200  0.46074100  1
  Ni  Ni11  1  0.78648900  0.58433800  0.53925900  1
  Ni  Ni12  1  0.28648900  0.58433800  0.96074100  1
  Ni  Ni13  1  0.78648900  0.91566200  0.03925900  1
  Ni  Ni14  1  0.71351100  0.08433800  0.53925900  1
  Ni  Ni15  1  0.21351100  0.41566200  0.46074100  1
  Ni  Ni16  1  0.99895700  0.84322800  0.66540500  1
  Ni  Ni17  1  0.49895700  0.65677200  0.33459500  1
  Ni  Ni18  1  0.00104300  0.34322800  0.83459500  1
  Ni  Ni19  1  0.50104300  0.15677200  0.16540500  1
  Ni  Ni20  1  0.00104300  0.15677200  0.33459500  1
  Ni  Ni21  1  0.50104300  0.34322800  0.66540500  1
  Ni  Ni22  1  0.99895700  0.65677200  0.16540500  1
  Ni  Ni23  1  0.49895700  0.84322800  0.83459500  1
  Cu  Cu24  1  0.75727600  0.32250100  0.13606900  1
  Cu  Cu25  1  0.25727600  0.17749900  0.86393100  1
  Cu  Cu26  1  0.24272400  0.82250100  0.36393100  1
  Cu  Cu27  1  0.74272400  0.67749900  0.63606900  1
  Cu  Cu28  1  0.24272400  0.67749900  0.86393100  1
  Cu  Cu29  1  0.74272400  0.82250100  0.13606900  1
  Cu  Cu30  1  0.75727600  0.17749900  0.63606900  1
  Cu  Cu31  1  0.25727600  0.32250100  0.36393100  1
  Cu  Cu32  1  0.75774100  0.43433900  0.89963400  1
  Cu  Cu33  1  0.25774100  0.06566100  0.10036600  1
  Cu  Cu34  1  0.24225900  0.93433900  0.60036600  1
  Cu  Cu35  1  0.74225900  0.56566100  0.39963400  1
  Cu  Cu36  1  0.24225900  0.56566100  0.10036600  1
  Cu  Cu37  1  0.74225900  0.93433900  0.89963400  1
  Cu  Cu38  1  0.75774100  0.06566100  0.39963400  1
  Cu  Cu39  1  0.25774100  0.43433900  0.60036600  1
  Cu  Cu40  1  0.69989300  0.53935800  0.11689900  1
  Cu  Cu41  1  0.19989300  0.96064200  0.88310100  1
  Cu  Cu42  1  0.30010700  0.03935800  0.38310100  1
  Cu  Cu43  1  0.80010700  0.46064200  0.61689900  1
  Cu  Cu44  1  0.30010700  0.46064200  0.88310100  1
  Cu  Cu45  1  0.80010700  0.03935800  0.11689900  1
  Cu  Cu46  1  0.69989300  0.96064200  0.61689900  1
  Cu  Cu47  1  0.19989300  0.53935800  0.38310100  1
  Cu  Cu48  1  0.62990500  0.36709800  0.00190500  1
  Cu  Cu49  1  0.12990500  0.13290200  0.99809500  1
  Cu  Cu50  1  0.37009500  0.86709800  0.49809500  1
  Cu  Cu51  1  0.87009500  0.63290200  0.50190500  1
  Cu  Cu52  1  0.37009500  0.63290200  0.99809500  1
  Cu  Cu53  1  0.87009500  0.86709800  0.00190500  1
  Cu  Cu54  1  0.62990500  0.13290200  0.50190500  1
  Cu  Cu55  1  0.12990500  0.36709800  0.49809500  1
  Cu  Cu56  1  0.01956100  0.70793100  0.70133300  1
  Cu  Cu57  1  0.51956100  0.79206900  0.29866700  1
  Cu  Cu58  1  0.98043900  0.20793100  0.79866700  1
  Cu  Cu59  1  0.48043900  0.29206900  0.20133300  1
  Cu  Cu60  1  0.98043900  0.29206900  0.29866700  1
  Cu  Cu61  1  0.48043900  0.20793100  0.70133300  1
  Cu  Cu62  1  0.01956100  0.79206900  0.20133300  1
  Cu  Cu63  1  0.51956100  0.70793100  0.79866700  1
  Cu  Cu64  1  0.90842500  0.86639200  0.66235900  1
  Cu  Cu65  1  0.40842500  0.63360800  0.33764100  1
  Cu  Cu66  1  0.09157500  0.36639200  0.83764100  1
  Cu  Cu67  1  0.59157500  0.13360800  0.16235900  1
  Cu  Cu68  1  0.09157500  0.13360800  0.33764100  1
  Cu  Cu69  1  0.59157500  0.36639200  0.66235900  1
  Cu  Cu70  1  0.90842500  0.63360800  0.16235900  1
  Cu  Cu71  1  0.40842500  0.86639200  0.83764100  1
  Cu  Cu72  1  0.03585500  0.86843300  0.51893800  1
  Cu  Cu73  1  0.53585500  0.63156700  0.48106200  1
  Cu  Cu74  1  0.96414500  0.36843300  0.98106200  1
  Cu  Cu75  1  0.46414500  0.13156700  0.01893800  1
  Cu  Cu76  1  0.96414500  0.13156700  0.48106200  1
  Cu  Cu77  1  0.46414500  0.36843300  0.51893800  1
  Cu  Cu78  1  0.03585500  0.63156700  0.01893800  1
  Cu  Cu79  1  0.53585500  0.86843300  0.98106200  1
  Cu  Cu80  1  0.03117000  0.92741700  0.78286000  1
  Cu  Cu81  1  0.53117000  0.57258300  0.21714000  1
  Cu  Cu82  1  0.96883000  0.42741700  0.71714000  1
  Cu  Cu83  1  0.46883000  0.07258300  0.28286000  1
  Cu  Cu84  1  0.96883000  0.07258300  0.21714000  1
  Cu  Cu85  1  0.46883000  0.42741700  0.78286000  1
  Cu  Cu86  1  0.03117000  0.57258300  0.28286000  1
  Cu  Cu87  1  0.53117000  0.92741700  0.71714000  1
