# generated using pymatgen
data_Cu3NiC13
_symmetry_space_group_name_H-M   'P 1'
_cell_length_a   8.82530069
_cell_length_b   8.82529893
_cell_length_c   8.82529901
_cell_angle_alpha   58.60314457
_cell_angle_beta   58.60314709
_cell_angle_gamma   58.60315256
_symmetry_Int_Tables_number   1
_chemical_formula_structural   Cu3NiC13
_chemical_formula_sum   'Cu6 Ni2 C26'
_cell_volume   470.51947961
_cell_formula_units_Z   2
loop_
 _symmetry_equiv_pos_site_id
 _symmetry_equiv_pos_as_xyz
  1  'x, y, z'
loop_
 _atom_site_type_symbol
 _atom_site_label
 _atom_site_symmetry_multiplicity
 _atom_site_fract_x
 _atom_site_fract_y
 _atom_site_fract_z
 _atom_site_occupancy
  C  C0  1  0.13833100  0.13833100  0.13833100  1
  C  C1  1  0.63833100  0.63833100  0.63833100  1
  Ni  Ni2  1  0.35711300  0.35711300  0.35711300  1
  Ni  Ni3  1  0.85711300  0.85711300  0.85711300  1
  Cu  Cu4  1  0.03529500  0.46525400  0.74540400  1
  Cu  Cu5  1  0.46525400  0.74540400  0.03529500  1
  Cu  Cu6  1  0.74540400  0.03529500  0.46525400  1
  Cu  Cu7  1  0.24540400  0.96525400  0.53529500  1
  Cu  Cu8  1  0.53529500  0.24540400  0.96525400  1
  Cu  Cu9  1  0.96525400  0.53529500  0.24540400  1
  C  C10  1  0.13665800  0.51682000  0.27170200  1
  C  C11  1  0.27170200  0.13665800  0.51682000  1
  C  C12  1  0.06339900  0.28672600  0.91816500  1
  C  C13  1  0.51682000  0.27170200  0.13665800  1
  C  C14  1  0.01682000  0.63665800  0.77170200  1
  C  C15  1  0.22089500  0.44669300  0.57216800  1
  C  C16  1  0.28672600  0.91816500  0.06339900  1
  C  C17  1  0.44669300  0.57216800  0.22089500  1
  C  C18  1  0.20923400  0.00063100  0.36725300  1
  C  C19  1  0.57216800  0.22089500  0.44669300  1
  C  C20  1  0.07216800  0.94669300  0.72089500  1
  C  C21  1  0.36725300  0.20923400  0.00063100  1
  C  C22  1  0.63665800  0.77170200  0.01682000  1
  C  C23  1  0.91816500  0.06339900  0.28672600  1
  C  C24  1  0.41816500  0.78672600  0.56339900  1
  C  C25  1  0.77170200  0.01682000  0.63665800  1
  C  C26  1  0.56339900  0.41816500  0.78672600  1
  C  C27  1  0.72089500  0.07216800  0.94669300  1
  C  C28  1  0.78672600  0.56339900  0.41816500  1
  C  C29  1  0.00063100  0.36725300  0.20923400  1
  C  C30  1  0.50063100  0.70923400  0.86725300  1
  C  C31  1  0.94669300  0.72089500  0.07216800  1
  C  C32  1  0.70923400  0.86725300  0.50063100  1
  C  C33  1  0.86725300  0.50063100  0.70923400  1
