# generated using pymatgen
data_Cu2Ni6C19
_symmetry_space_group_name_H-M   'P 1'
_cell_length_a   5.94655325
_cell_length_b   5.94655325
_cell_length_c   14.89733800
_cell_angle_alpha   90.00000000
_cell_angle_beta   90.00000000
_cell_angle_gamma   119.78808988
_symmetry_Int_Tables_number   1
_chemical_formula_structural   Cu2Ni6C19
_chemical_formula_sum   'Cu2 Ni6 C19'
_cell_volume   457.18644096
_cell_formula_units_Z   1
loop_
 _symmetry_equiv_pos_site_id
 _symmetry_equiv_pos_as_xyz
  1  'x, y, z'
loop_
 _atom_site_type_symbol
 _atom_site_label
 _atom_site_symmetry_multiplicity
 _atom_site_fract_x
 _atom_site_fract_y
 _atom_site_fract_z
 _atom_site_occupancy
  Ni  Ni0  1  0.65630900  0.34369100  0.15344300  1
  Ni  Ni1  1  0.33925000  0.66075000  0.32367700  1
  Ni  Ni2  1  0.65630900  0.34369100  0.84655700  1
  Ni  Ni3  1  0.33925000  0.66075000  0.67632300  1
  Ni  Ni4  1  0.96605000  0.03395000  0.00000000  1
  Ni  Ni5  1  0.02220200  0.97779800  0.50000000  1
  Cu  Cu6  1  0.00077600  0.99922400  0.25002100  1
  Cu  Cu7  1  0.00077600  0.99922400  0.74997900  1
  C  C8  1  0.32372600  0.67627400  0.11263100  1
  C  C9  1  0.67322400  0.32677600  0.38621900  1
  C  C10  1  0.32372600  0.67627400  0.88736900  1
  C  C11  1  0.67322400  0.32677600  0.61378100  1
  C  C12  1  0.16222200  0.37093900  0.82828600  1
  C  C13  1  0.35842200  0.14939100  0.66118900  1
  C  C14  1  0.16222200  0.37093900  0.17171400  1
  C  C15  1  0.35842200  0.14939100  0.33881100  1
  C  C16  1  0.85060900  0.64157800  0.66118900  1
  C  C17  1  0.62906100  0.83777800  0.82828600  1
  C  C18  1  0.85060900  0.64157800  0.33881100  1
  C  C19  1  0.62906100  0.83777800  0.17171400  1
  C  C20  1  0.37406000  0.62594000  0.00000000  1
  C  C21  1  0.62436500  0.37563500  0.50000000  1
  C  C22  1  0.15826300  0.84173700  0.14578800  1
  C  C23  1  0.84419200  0.15580800  0.36727400  1
  C  C24  1  0.15826300  0.84173700  0.85421200  1
  C  C25  1  0.84419200  0.15580800  0.63272600  1
  C  C26  1  0.72421900  0.27578100  0.00000000  1
