# generated using pymatgen
data_CuNiC
_symmetry_space_group_name_H-M   'P 1'
_cell_length_a   4.45283200
_cell_length_b   7.57423300
_cell_length_c   21.85832100
_cell_angle_alpha   90.00000000
_cell_angle_beta   90.00000000
_cell_angle_gamma   90.00000000
_symmetry_Int_Tables_number   1
_chemical_formula_structural   CuNiC
_chemical_formula_sum   'Cu12 Ni12 C12'
_cell_volume   737.21093825
_cell_formula_units_Z   12
loop_
 _symmetry_equiv_pos_site_id
 _symmetry_equiv_pos_as_xyz
  1  'x, y, z'
loop_
 _atom_site_type_symbol
 _atom_site_label
 _atom_site_symmetry_multiplicity
 _atom_site_fract_x
 _atom_site_fract_y
 _atom_site_fract_z
 _atom_site_occupancy
  C  C0  1  0.25000000  0.70466700  0.33282600  1
  C  C1  1  0.75000000  0.29533300  0.66717400  1
  C  C2  1  0.75000000  0.20466700  0.16717400  1
  C  C3  1  0.25000000  0.79533300  0.83282600  1
  C  C4  1  0.25000000  0.79500000  0.16635800  1
  C  C5  1  0.75000000  0.20500000  0.83364200  1
  C  C6  1  0.75000000  0.29500000  0.33364200  1
  C  C7  1  0.25000000  0.70500000  0.66635800  1
  C  C8  1  0.25000000  0.71060000  0.00187800  1
  C  C9  1  0.75000000  0.28940000  0.99812200  1
  C  C10  1  0.75000000  0.21060000  0.49812200  1
  C  C11  1  0.25000000  0.78940000  0.50187800  1
  Ni  Ni12  1  0.25000000  0.08971900  0.07037800  1
  Ni  Ni13  1  0.75000000  0.91028100  0.92962200  1
  Ni  Ni14  1  0.75000000  0.58971900  0.42962200  1
  Ni  Ni15  1  0.25000000  0.41028100  0.57037800  1
  Ni  Ni16  1  0.25000000  0.08423800  0.27263500  1
  Ni  Ni17  1  0.75000000  0.91576200  0.72736500  1
  Ni  Ni18  1  0.75000000  0.58423800  0.22736500  1
  Ni  Ni19  1  0.25000000  0.41576200  0.77263500  1
  Ni  Ni20  1  0.25000000  0.08512600  0.39360600  1
  Ni  Ni21  1  0.75000000  0.91487400  0.60639400  1
  Ni  Ni22  1  0.75000000  0.58512600  0.10639400  1
  Ni  Ni23  1  0.25000000  0.41487400  0.89360600  1
  Cu  Cu24  1  0.25000000  0.41717500  0.23677000  1
  Cu  Cu25  1  0.75000000  0.58282500  0.76323000  1
  Cu  Cu26  1  0.75000000  0.91717500  0.26323000  1
  Cu  Cu27  1  0.25000000  0.08282500  0.73677000  1
  Cu  Cu28  1  0.25000000  0.41682600  0.43618300  1
  Cu  Cu29  1  0.75000000  0.58317400  0.56381700  1
  Cu  Cu30  1  0.75000000  0.91682600  0.06381700  1
  Cu  Cu31  1  0.25000000  0.08317400  0.93618300  1
  Cu  Cu32  1  0.25000000  0.41911400  0.09440900  1
  Cu  Cu33  1  0.75000000  0.58088600  0.90559100  1
  Cu  Cu34  1  0.75000000  0.91911400  0.40559100  1
  Cu  Cu35  1  0.25000000  0.08088600  0.59440900  1
