# generated using pymatgen
data_Cu3Ni2C23
_symmetry_space_group_name_H-M   'P 1'
_cell_length_a   5.88308100
_cell_length_b   5.89436343
_cell_length_c   9.58609369
_cell_angle_alpha   89.66540010
_cell_angle_beta   89.60699929
_cell_angle_gamma   60.43151959
_symmetry_Int_Tables_number   1
_chemical_formula_structural   Cu3Ni2C23
_chemical_formula_sum   'Cu3 Ni2 C23'
_cell_volume   289.11734655
_cell_formula_units_Z   1
loop_
 _symmetry_equiv_pos_site_id
 _symmetry_equiv_pos_as_xyz
  1  'x, y, z'
loop_
 _atom_site_type_symbol
 _atom_site_label
 _atom_site_symmetry_multiplicity
 _atom_site_fract_x
 _atom_site_fract_y
 _atom_site_fract_z
 _atom_site_occupancy
  C  C0  1  0.33278600  0.32519000  0.89690000  1
  C  C1  1  0.00376800  0.00086100  0.99348200  1
  C  C2  1  0.99826900  0.00298900  0.49451300  1
  C  C3  1  0.67054200  0.66706200  0.39335400  1
  Ni  Ni4  1  0.31283100  0.34560700  0.49880800  1
  Ni  Ni5  1  0.66930800  0.67064700  0.00066700  1
  Cu  Cu6  1  0.65851300  0.17132800  0.22279000  1
  Cu  Cu7  1  0.81940900  0.82725800  0.71944700  1
  Cu  Cu8  1  0.80533200  0.34884200  0.71856400  1
  C  C9  1  0.17671300  0.65694400  0.21457900  1
  C  C10  1  0.17244500  0.17614400  0.21365600  1
  C  C11  1  0.33673900  0.83588500  0.71036200  1
  C  C12  1  0.16355600  0.66511700  0.59002600  1
  C  C13  1  0.04501100  0.47797200  0.34226000  1
  C  C14  1  0.35509500  0.31384400  0.10516200  1
  C  C15  1  0.99183100  0.01279200  0.30345000  1
  C  C16  1  0.98158100  0.00083100  0.80411400  1
  C  C17  1  0.14778000  0.18710900  0.59690100  1
  C  C18  1  0.48363000  0.47883700  0.33857100  1
  C  C19  1  0.48862000  0.03953100  0.34231400  1
  C  C20  1  0.33864300  0.82498400  0.09206400  1
  C  C21  1  0.65975300  0.17393100  0.59757200  1
  C  C22  1  0.53175000  0.95310200  0.84759700  1
  C  C23  1  0.53397100  0.49730200  0.83889400  1
  C  C24  1  0.69243900  0.66480600  0.60080400  1
  C  C25  1  0.83855800  0.82601500  0.09865000  1
  C  C26  1  0.96185700  0.51864800  0.83985700  1
  C  C27  1  0.82926500  0.33671900  0.09248000  1
