# generated using pymatgen
data_CuNiC8
_symmetry_space_group_name_H-M   'P 1'
_cell_length_a   9.96885400
_cell_length_b   5.77480100
_cell_length_c   9.58921840
_cell_angle_alpha   86.24004151
_cell_angle_beta   90.00000000
_cell_angle_gamma   90.00000000
_symmetry_Int_Tables_number   1
_chemical_formula_structural   CuNiC8
_chemical_formula_sum   'Cu4 Ni4 C32'
_cell_volume   550.84531491
_cell_formula_units_Z   4
loop_
 _symmetry_equiv_pos_site_id
 _symmetry_equiv_pos_as_xyz
  1  'x, y, z'
loop_
 _atom_site_type_symbol
 _atom_site_label
 _atom_site_symmetry_multiplicity
 _atom_site_fract_x
 _atom_site_fract_y
 _atom_site_fract_z
 _atom_site_occupancy
  C  C0  1  0.31619200  0.72749200  0.50010400  1
  C  C1  1  0.81619200  0.27250800  0.99989600  1
  C  C2  1  0.68380800  0.27250800  0.49989600  1
  C  C3  1  0.18380800  0.72749200  0.00010400  1
  Ni  Ni4  1  0.39793300  0.30695800  0.80947300  1
  Ni  Ni5  1  0.89793300  0.69304200  0.69052700  1
  Ni  Ni6  1  0.10206700  0.30695800  0.30947300  1
  Ni  Ni7  1  0.60206700  0.69304200  0.19052700  1
  Cu  Cu8  1  0.61026800  0.80753700  0.81209600  1
  Cu  Cu9  1  0.38973200  0.19246300  0.18790400  1
  Cu  Cu10  1  0.88973200  0.80753700  0.31209600  1
  Cu  Cu11  1  0.11026800  0.19246300  0.68790400  1
  C  C12  1  0.44374200  0.86995500  0.12450500  1
  C  C13  1  0.04652600  0.62826400  0.36707900  1
  C  C14  1  0.72232700  0.52105300  0.74345000  1
  C  C15  1  0.27767300  0.47894700  0.25655000  1
  C  C16  1  0.45851000  0.11523500  0.36451000  1
  C  C17  1  0.81357900  0.73980700  0.49273700  1
  C  C18  1  0.77894000  0.96631100  0.74875300  1
  C  C19  1  0.95851000  0.88476500  0.13549000  1
  C  C20  1  0.45347400  0.62826400  0.86707900  1
  C  C21  1  0.22232700  0.47894700  0.75655000  1
  C  C22  1  0.05625800  0.86995500  0.62450500  1
  C  C23  1  0.55625800  0.13004500  0.87549500  1
  C  C24  1  0.27894000  0.03368900  0.75124700  1
  C  C25  1  0.95910900  0.61812500  0.87805300  1
  C  C26  1  0.54149000  0.88476500  0.63549000  1
  C  C27  1  0.04149000  0.11523500  0.86451000  1
  C  C28  1  0.22106000  0.03368900  0.25124700  1
  C  C29  1  0.94374200  0.13004500  0.37549500  1
  C  C30  1  0.45910900  0.38187500  0.62194700  1
  C  C31  1  0.95347400  0.37173600  0.63292100  1
  C  C32  1  0.04089100  0.38187500  0.12194700  1
  C  C33  1  0.72106000  0.96631100  0.24875300  1
  C  C34  1  0.54089100  0.61812500  0.37805300  1
  C  C35  1  0.31357900  0.26019300  0.00726300  1
  C  C36  1  0.18642100  0.26019300  0.50726300  1
  C  C37  1  0.68642100  0.73980700  0.99273700  1
  C  C38  1  0.54652600  0.37173600  0.13292100  1
  C  C39  1  0.77767300  0.52105300  0.24345000  1
