# generated using pymatgen
data_CuNiC6
_symmetry_space_group_name_H-M   'P 1'
_cell_length_a   10.30540900
_cell_length_b   5.39152400
_cell_length_c   8.51683592
_cell_angle_alpha   71.54323706
_cell_angle_beta   90.00000000
_cell_angle_gamma   90.00000000
_symmetry_Int_Tables_number   1
_chemical_formula_structural   CuNiC6
_chemical_formula_sum   'Cu4 Ni4 C24'
_cell_volume   448.87059835
_cell_formula_units_Z   4
loop_
 _symmetry_equiv_pos_site_id
 _symmetry_equiv_pos_as_xyz
  1  'x, y, z'
loop_
 _atom_site_type_symbol
 _atom_site_label
 _atom_site_symmetry_multiplicity
 _atom_site_fract_x
 _atom_site_fract_y
 _atom_site_fract_z
 _atom_site_occupancy
  C  C0  1  0.10003600  0.51125900  0.84373400  1
  C  C1  1  0.89996400  0.48874100  0.15626600  1
  C  C2  1  0.60003600  0.48874100  0.65626600  1
  C  C3  1  0.39996400  0.51125900  0.34373400  1
  Ni  Ni4  1  0.38024600  0.05998600  0.07037800  1
  Ni  Ni5  1  0.61975400  0.94001400  0.92962200  1
  Ni  Ni6  1  0.88024600  0.94001400  0.42962200  1
  Ni  Ni7  1  0.11975400  0.05998600  0.57037800  1
  Cu  Cu8  1  0.90611500  0.04561100  0.83314700  1
  Cu  Cu9  1  0.09388500  0.95438900  0.16685300  1
  Cu  Cu10  1  0.59388500  0.04561100  0.33314700  1
  Cu  Cu11  1  0.40611500  0.95438900  0.66685300  1
  C  C12  1  0.97165300  0.84930300  0.64915300  1
  C  C13  1  0.03639300  0.31162300  0.68899400  1
  C  C14  1  0.78010700  0.20412200  0.27552600  1
  C  C15  1  0.46340700  0.74775200  0.49039100  1
  C  C16  1  0.72545000  0.76700300  0.49424800  1
  C  C17  1  0.77455000  0.76700300  0.99424800  1
  C  C18  1  0.46360700  0.31162300  0.18899400  1
  C  C19  1  0.53639300  0.68837700  0.81100600  1
  C  C20  1  0.53659300  0.25224800  0.50960900  1
  C  C21  1  0.47165300  0.15069700  0.85084700  1
  C  C22  1  0.27455000  0.23299700  0.50575200  1
  C  C23  1  0.02834700  0.15069700  0.35084700  1
  C  C24  1  0.52834700  0.84930300  0.14915300  1
  C  C25  1  0.22545000  0.23299700  0.00575200  1
  C  C26  1  0.96340700  0.25224800  0.00960900  1
  C  C27  1  0.03659300  0.74775200  0.99039100  1
  C  C28  1  0.21989300  0.79587800  0.72447400  1
  C  C29  1  0.96360700  0.68837700  0.31100600  1
  C  C30  1  0.28010700  0.79587800  0.22447400  1
  C  C31  1  0.71989300  0.20412200  0.77552600  1
