# generated using pymatgen
data_Cu3(NiC5)4
_symmetry_space_group_name_H-M   'P 1'
_cell_length_a   11.10387250
_cell_length_b   11.10387250
_cell_length_c   11.10387250
_cell_angle_alpha   120.67505885
_cell_angle_beta   120.30669884
_cell_angle_gamma   89.15215555
_symmetry_Int_Tables_number   1
_chemical_formula_structural   Cu3(NiC5)4
_chemical_formula_sum   'Cu6 Ni8 C40'
_cell_volume   960.76421074
_cell_formula_units_Z   2
loop_
 _symmetry_equiv_pos_site_id
 _symmetry_equiv_pos_as_xyz
  1  'x, y, z'
loop_
 _atom_site_type_symbol
 _atom_site_label
 _atom_site_symmetry_multiplicity
 _atom_site_fract_x
 _atom_site_fract_y
 _atom_site_fract_z
 _atom_site_occupancy
  C  C0  1  0.97983600  0.02872800  0.50450600  1
  C  C1  1  0.52538200  0.02538200  0.50000000  1
  C  C2  1  0.52422200  0.47533100  0.49549400  1
  C  C3  1  0.47983600  0.97533100  0.95110800  1
  C  C4  1  0.02538200  0.52538200  0.50000000  1
  C  C5  1  0.02422200  0.52872800  0.04889200  1
  Ni  Ni6  1  0.57287300  0.71897600  0.14487100  1
  Ni  Ni7  1  0.57410500  0.42800300  0.85512900  1
  Ni  Ni8  1  0.27959400  0.42795500  0.85398700  1
  Ni  Ni9  1  0.57396800  0.42560600  0.14601300  1
  Ni  Ni10  1  0.77959400  0.92560600  0.85163900  1
  Ni  Ni11  1  0.07287300  0.92800300  0.85389800  1
  Ni  Ni12  1  0.07410500  0.21897600  0.14610200  1
  Ni  Ni13  1  0.07396800  0.92795500  0.14836100  1
  Cu  Cu14  1  0.75021600  0.75021600  0.00000000  1
  Cu  Cu15  1  0.75106600  0.75149000  0.49987500  1
  Cu  Cu16  1  0.25106600  0.75119100  0.99957600  1
  Cu  Cu17  1  0.25161500  0.25119100  0.50012500  1
  Cu  Cu18  1  0.75161500  0.25149000  0.00042400  1
  Cu  Cu19  1  0.25021600  0.25021600  0.00000000  1
  C  C20  1  0.49952200  0.49952200  0.00000000  1
  C  C21  1  0.99952200  0.99952200  0.00000000  1
  C  C22  1  0.42230900  0.79646200  0.17481900  1
  C  C23  1  0.62630500  0.80276700  0.05115600  1
  C  C24  1  0.75355600  0.80050100  0.37625900  1
  C  C25  1  0.62164300  0.24749000  0.82518100  1
  C  C26  1  0.75161100  0.57514900  0.94884400  1
  C  C27  1  0.42424200  0.37729700  0.62374100  1
  C  C28  1  0.20193100  0.57799800  0.82033900  1
  C  C29  1  0.19940700  0.37640000  0.95196800  1
  C  C30  1  0.20550500  0.24696400  0.62522100  1
  C  C31  1  0.75765900  0.38159100  0.17966100  1
  C  C32  1  0.42443200  0.24743900  0.04803200  1
  C  C33  1  0.62174300  0.58028400  0.37477900  1
  C  C34  1  0.70550500  0.08028400  0.95854200  1
  C  C35  1  0.70193100  0.88159100  0.62393300  1
  C  C36  1  0.69940700  0.74743900  0.82300700  1
  C  C37  1  0.25355600  0.87729700  0.95305500  1
  C  C38  1  0.92230900  0.74749000  0.62584700  1
  C  C39  1  0.12630500  0.07514900  0.82353800  1
  C  C40  1  0.92424200  0.30050100  0.04694500  1
  C  C41  1  0.12164300  0.29646200  0.37415300  1
  C  C42  1  0.25161100  0.30276700  0.17646200  1
  C  C43  1  0.12174300  0.74696400  0.04145800  1
  C  C44  1  0.25765900  0.07799800  0.37606700  1
  C  C45  1  0.92443200  0.87640000  0.17699300  1
  C  C46  1  0.31119900  0.00027800  0.64053500  1
  C  C47  1  0.35974300  0.67066400  0.35946500  1
  C  C48  1  0.00067300  0.68687200  0.34172900  1
  C  C49  1  0.34514300  0.65894400  0.65827100  1
  C  C50  1  0.50067300  0.15894400  0.31380100  1
  C  C51  1  0.81119900  0.17066400  0.31092000  1
  C  C52  1  0.85974300  0.50027800  0.68908000  1
  C  C53  1  0.84514300  0.18687200  0.68619900  1
