# generated using pymatgen
data_Cu4Ni8C45
_symmetry_space_group_name_H-M   'P 1'
_cell_length_a   10.71477300
_cell_length_b   10.22095300
_cell_length_c   11.91130792
_cell_angle_alpha   55.47521995
_cell_angle_beta   90.00000000
_cell_angle_gamma   90.00000000
_symmetry_Int_Tables_number   1
_chemical_formula_structural   Cu4Ni8C45
_chemical_formula_sum   'Cu8 Ni16 C90'
_cell_volume   1074.72754825
_cell_formula_units_Z   2
loop_
 _symmetry_equiv_pos_site_id
 _symmetry_equiv_pos_as_xyz
  1  'x, y, z'
loop_
 _atom_site_type_symbol
 _atom_site_label
 _atom_site_symmetry_multiplicity
 _atom_site_fract_x
 _atom_site_fract_y
 _atom_site_fract_z
 _atom_site_occupancy
  C  C0  1  0.50000000  0.00000000  0.50000000  1
  C  C1  1  0.00000000  0.00000000  0.00000000  1
  C  C2  1  0.66268900  0.08514100  0.29481100  1
  C  C3  1  0.83731100  0.08514100  0.79481100  1
  C  C4  1  0.33731100  0.91485900  0.70518900  1
  C  C5  1  0.16268900  0.91485900  0.20518900  1
  C  C6  1  0.53277700  0.17869600  0.23938500  1
  C  C7  1  0.96722300  0.17869600  0.73938500  1
  C  C8  1  0.46722300  0.82130400  0.76061500  1
  C  C9  1  0.03277700  0.82130400  0.26061500  1
  C  C10  1  0.53668600  0.81491400  0.41186000  1
  C  C11  1  0.96331400  0.81491400  0.91186000  1
  C  C12  1  0.46331400  0.18508600  0.58814000  1
  C  C13  1  0.03668600  0.18508600  0.08814000  1
  C  C14  1  0.39862900  0.89014400  0.36853200  1
  C  C15  1  0.10137100  0.89014400  0.86853200  1
  C  C16  1  0.60137100  0.10985600  0.63146800  1
  C  C17  1  0.89862900  0.10985600  0.13146800  1
  C  C18  1  0.49812100  0.58345100  0.73327900  1
  C  C19  1  0.00187900  0.58345100  0.23327900  1
  C  C20  1  0.50187900  0.41654900  0.26672100  1
  C  C21  1  0.99812100  0.41654900  0.76672100  1
  C  C22  1  0.40796000  0.43601700  0.73041500  1
  C  C23  1  0.09204000  0.43601700  0.23041500  1
  C  C24  1  0.59204000  0.56398300  0.26958500  1
  C  C25  1  0.90796000  0.56398300  0.76958500  1
  C  C26  1  0.42823000  0.41836000  0.88832100  1
  C  C27  1  0.07177000  0.41836000  0.38832100  1
  C  C28  1  0.57177000  0.58164000  0.11167900  1
  C  C29  1  0.92823000  0.58164000  0.61167900  1
  C  C30  1  0.63785400  0.11785500  0.91813900  1
  C  C31  1  0.86214600  0.11785500  0.41813900  1
  C  C32  1  0.36214600  0.88214500  0.08186100  1
  C  C33  1  0.13785400  0.88214500  0.58186100  1
  C  C34  1  0.50260800  0.15494400  0.98636600  1
  C  C35  1  0.99739200  0.15494400  0.48636600  1
  C  C36  1  0.49739200  0.84505600  0.01363400  1
  C  C37  1  0.00260800  0.84505600  0.51363400  1
  C  C38  1  0.49072000  0.17379400  0.82771600  1
  C  C39  1  0.00928000  0.17379400  0.32771600  1
  C  C40  1  0.50928000  0.82620600  0.17228400  1
  C  C41  1  0.99072000  0.82620600  0.67228400  1
  C  C42  1  0.58277200  0.40353900  0.62286500  1
  C  C43  1  0.91722800  0.40353900  0.12286500  1
  C  C44  1  0.41722800  0.59646100  0.37713500  1
  C  C45  1  0.08277200  0.59646100  0.87713500  1
  C  C46  1  0.67522400  0.54094500  0.63569300  1
  C  C47  1  0.82477600  0.54094500  0.13569300  1
  C  C48  1  0.32477600  0.45905500  0.36430700  1
  C  C49  1  0.17522400  0.45905500  0.86430700  1
  C  C50  1  0.73144400  0.34123100  0.70819200  1
  C  C51  1  0.76855600  0.34123100  0.20819200  1
  C  C52  1  0.26855600  0.65876900  0.29180800  1
  C  C53  1  0.23144400  0.65876900  0.79180800  1
  C  C54  1  0.75584600  0.30886200  0.92910400  1
  C  C55  1  0.74415400  0.30886200  0.42910400  1
  C  C56  1  0.24415400  0.69113800  0.07089600  1
  C  C57  1  0.25584600  0.69113800  0.57089600  1
  C  C58  1  0.69770200  0.50965600  0.84859500  1
  C  C59  1  0.80229800  0.50965600  0.34859500  1
  C  C60  1  0.30229800  0.49034400  0.15140500  1
  C  C61  1  0.19770200  0.49034400  0.65140500  1
  C  C62  1  0.62344800  0.34776300  0.99905500  1
  C  C63  1  0.87655200  0.34776300  0.49905500  1
  C  C64  1  0.37655200  0.65223700  0.00094500  1
  C  C65  1  0.12344800  0.65223700  0.50094500  1
  Ni  Ni66  1  0.47106800  0.45802300  0.79030700  1
  Ni  Ni67  1  0.02893200  0.45802300  0.29030700  1
  Ni  Ni68  1  0.52893200  0.54197700  0.20969300  1
  Ni  Ni69  1  0.97106800  0.54197700  0.70969300  1
  Ni  Ni70  1  0.55238400  0.18829800  0.89330000  1
  Ni  Ni71  1  0.94761600  0.18829800  0.39330000  1
  Ni  Ni72  1  0.44761600  0.81170200  0.10670000  1
  Ni  Ni73  1  0.05238400  0.81170200  0.60670000  1
  Ni  Ni74  1  0.64916700  0.41584200  0.68629900  1
  Ni  Ni75  1  0.85083300  0.41584200  0.18629900  1
  Ni  Ni76  1  0.35083300  0.58415800  0.31370100  1
  Ni  Ni77  1  0.14916700  0.58415800  0.81370100  1
  Ni  Ni78  1  0.67319000  0.38341500  0.90547200  1
  Ni  Ni79  1  0.82681000  0.38341500  0.40547200  1
  Ni  Ni80  1  0.32681000  0.61658500  0.09452800  1
  Ni  Ni81  1  0.17319000  0.61658500  0.59452800  1
  Cu  Cu82  1  0.70059500  0.85052100  0.61164500  1
  Cu  Cu83  1  0.79940500  0.85052100  0.11164500  1
  Cu  Cu84  1  0.29940500  0.14947900  0.38835500  1
  Cu  Cu85  1  0.20059500  0.14947900  0.88835500  1
  Cu  Cu86  1  0.71270100  0.84216300  0.78632500  1
  Cu  Cu87  1  0.78729900  0.84216300  0.28632500  1
  Cu  Cu88  1  0.28729900  0.15783700  0.21367500  1
  Cu  Cu89  1  0.21270100  0.15783700  0.71367500  1
  C  C90  1  0.58657400  0.36076600  0.81886000  1
  C  C91  1  0.91342600  0.36076600  0.31886000  1
  C  C92  1  0.41342600  0.63923400  0.18114000  1
  C  C93  1  0.08657400  0.63923400  0.68114000  1
  C  C94  1  0.82823700  0.75568700  0.85890800  1
  C  C95  1  0.67176300  0.75568700  0.35890800  1
  C  C96  1  0.17176300  0.24431300  0.14109200  1
  C  C97  1  0.32823700  0.24431300  0.64109200  1
  C  C98  1  0.59827600  0.14346800  0.31056300  1
  C  C99  1  0.90172400  0.14346800  0.81056300  1
  C  C100  1  0.40172400  0.85653200  0.68943700  1
  C  C101  1  0.09827600  0.85653200  0.18943700  1
  C  C102  1  0.46086500  0.83937100  0.44449600  1
  C  C103  1  0.03913500  0.83937100  0.94449600  1
  C  C104  1  0.53913500  0.16062900  0.55550400  1
  C  C105  1  0.96086500  0.16062900  0.05550400  1
  C  C106  1  0.71771800  0.01007800  0.74822100  1
  C  C107  1  0.78228200  0.01007800  0.24822100  1
  C  C108  1  0.28228200  0.98992200  0.25177900  1
  C  C109  1  0.21771800  0.98992200  0.75177900  1
  C  C110  1  0.59904100  0.76143400  0.86869600  1
  C  C111  1  0.90095900  0.76143400  0.36869600  1
  C  C112  1  0.40095900  0.23856600  0.13130400  1
  C  C113  1  0.09904100  0.23856600  0.63130400  1
