# generated using pymatgen
data_Cu21Ni5C4
_symmetry_space_group_name_H-M   'P 1'
_cell_length_a   14.44553400
_cell_length_b   14.44553400
_cell_length_c   6.18401900
_cell_angle_alpha   90.00000000
_cell_angle_beta   90.00000000
_cell_angle_gamma   90.00000000
_symmetry_Int_Tables_number   1
_chemical_formula_structural   Cu21Ni5C4
_chemical_formula_sum   'Cu42 Ni10 C8'
_cell_volume   1290.44059533
_cell_formula_units_Z   2
loop_
 _symmetry_equiv_pos_site_id
 _symmetry_equiv_pos_as_xyz
  1  'x, y, z'
loop_
 _atom_site_type_symbol
 _atom_site_label
 _atom_site_symmetry_multiplicity
 _atom_site_fract_x
 _atom_site_fract_y
 _atom_site_fract_z
 _atom_site_occupancy
  C  C0  1  0.49212400  0.20199600  0.45471200  1
  C  C1  1  0.99212400  0.29800400  0.04528800  1
  C  C2  1  0.50787600  0.79800400  0.45471200  1
  C  C3  1  0.00787600  0.70199600  0.04528800  1
  C  C4  1  0.79800400  0.49212400  0.54528800  1
  C  C5  1  0.70199600  0.99212400  0.95471200  1
  C  C6  1  0.20199600  0.50787600  0.54528800  1
  C  C7  1  0.29800400  0.00787600  0.95471200  1
  Ni  Ni8  1  0.50000000  0.50000000  0.00000000  1
  Ni  Ni9  1  0.00000000  0.00000000  0.50000000  1
  Ni  Ni10  1  0.32152400  0.33923800  0.00110300  1
  Ni  Ni11  1  0.82152400  0.16076200  0.49889700  1
  Ni  Ni12  1  0.67847600  0.66076200  0.00110300  1
  Ni  Ni13  1  0.17847600  0.83923800  0.49889700  1
  Ni  Ni14  1  0.66076200  0.32152400  0.99889700  1
  Ni  Ni15  1  0.83923800  0.82152400  0.50110300  1
  Ni  Ni16  1  0.33923800  0.67847600  0.99889700  1
  Ni  Ni17  1  0.16076200  0.17847600  0.50110300  1
  Cu  Cu18  1  0.49501300  0.30070100  0.26414600  1
  Cu  Cu19  1  0.99501300  0.19929900  0.23585400  1
  Cu  Cu20  1  0.50498700  0.69929900  0.26414600  1
  Cu  Cu21  1  0.00498700  0.80070100  0.23585400  1
  Cu  Cu22  1  0.69929900  0.49501300  0.73585400  1
  Cu  Cu23  1  0.80070100  0.99501300  0.76414600  1
  Cu  Cu24  1  0.30070100  0.50498700  0.73585400  1
  Cu  Cu25  1  0.19929900  0.00498700  0.76414600  1
  Cu  Cu26  1  0.36238300  0.18423300  0.39194300  1
  Cu  Cu27  1  0.86238300  0.31576700  0.10805700  1
  Cu  Cu28  1  0.63761700  0.81576700  0.39194300  1
  Cu  Cu29  1  0.13761700  0.68423300  0.10805700  1
  Cu  Cu30  1  0.81576700  0.36238300  0.60805700  1
  Cu  Cu31  1  0.68423300  0.86238300  0.89194300  1
  Cu  Cu32  1  0.18423300  0.63761700  0.60805700  1
  Cu  Cu33  1  0.31576700  0.13761700  0.89194300  1
  Cu  Cu34  1  0.62298500  0.21413400  0.50351900  1
  Cu  Cu35  1  0.12298500  0.28586600  0.99648100  1
  Cu  Cu36  1  0.37701500  0.78586600  0.50351900  1
  Cu  Cu37  1  0.87701500  0.71413400  0.99648100  1
  Cu  Cu38  1  0.78586600  0.62298500  0.49648100  1
  Cu  Cu39  1  0.71413400  0.12298500  0.00351900  1
  Cu  Cu40  1  0.21413400  0.37701500  0.49648100  1
  Cu  Cu41  1  0.28586600  0.87701500  0.00351900  1
  Cu  Cu42  1  0.46596000  0.28517400  0.68842200  1
  Cu  Cu43  1  0.96596000  0.21482600  0.81157800  1
  Cu  Cu44  1  0.53404000  0.71482600  0.68842200  1
  Cu  Cu45  1  0.03404000  0.78517400  0.81157800  1
  Cu  Cu46  1  0.71482600  0.46596000  0.31157800  1
  Cu  Cu47  1  0.78517400  0.96596000  0.18842200  1
  Cu  Cu48  1  0.28517400  0.53404000  0.31157800  1
  Cu  Cu49  1  0.21482600  0.03404000  0.18842200  1
  Cu  Cu50  1  0.51799200  0.11590600  0.21879100  1
  Cu  Cu51  1  0.01799200  0.38409400  0.28120900  1
  Cu  Cu52  1  0.48200800  0.88409400  0.21879100  1
  Cu  Cu53  1  0.98200800  0.61590600  0.28120900  1
  Cu  Cu54  1  0.88409400  0.51799200  0.78120900  1
  Cu  Cu55  1  0.61590600  0.01799200  0.71879100  1
  Cu  Cu56  1  0.11590600  0.48200800  0.78120900  1
  Cu  Cu57  1  0.38409400  0.98200800  0.71879100  1
  Cu  Cu58  1  0.50000000  0.50000000  0.50000000  1
  Cu  Cu59  1  0.00000000  0.00000000  0.00000000  1
