# generated using pymatgen
data_Cu3Ni2C
_symmetry_space_group_name_H-M   'P 1'
_cell_length_a   6.72688085
_cell_length_b   6.72688085
_cell_length_c   6.72688085
_cell_angle_alpha   130.42619862
_cell_angle_beta   114.60429691
_cell_angle_gamma   86.28365255
_symmetry_Int_Tables_number   1
_chemical_formula_structural   Cu3Ni2C
_chemical_formula_sum   'Cu6 Ni4 C2'
_cell_volume   201.21146586
_cell_formula_units_Z   2
loop_
 _symmetry_equiv_pos_site_id
 _symmetry_equiv_pos_as_xyz
  1  'x, y, z'
loop_
 _atom_site_type_symbol
 _atom_site_label
 _atom_site_symmetry_multiplicity
 _atom_site_fract_x
 _atom_site_fract_y
 _atom_site_fract_z
 _atom_site_occupancy
  C  C0  1  0.25000000  0.97071100  0.72071100  1
  C  C1  1  0.75000000  0.02928900  0.27928900  1
  Ni  Ni2  1  0.07933200  0.28060500  0.20127300  1
  Ni  Ni3  1  0.92066800  0.71939500  0.79872700  1
  Ni  Ni4  1  0.42066800  0.62194100  0.20127300  1
  Ni  Ni5  1  0.57933200  0.37805900  0.79872700  1
  Cu  Cu6  1  0.50000000  0.50000000  0.50000000  1
  Cu  Cu7  1  0.00000000  0.50000000  0.00000000  1
  Cu  Cu8  1  0.28079900  0.00000000  0.28079900  1
  Cu  Cu9  1  0.71920100  0.00000000  0.71920100  1
  Cu  Cu10  1  0.21920100  0.50000000  0.71920100  1
  Cu  Cu11  1  0.78079900  0.50000000  0.28079900  1
