# generated using pymatgen
data_Cu6NiC45
_symmetry_space_group_name_H-M   'P 1'
_cell_length_a   8.92211231
_cell_length_b   8.92211231
_cell_length_c   23.32313300
_cell_angle_alpha   90.00000000
_cell_angle_beta   90.00000000
_cell_angle_gamma   120.00000226
_symmetry_Int_Tables_number   1
_chemical_formula_structural   Cu6NiC45
_chemical_formula_sum   'Cu12 Ni2 C90'
_cell_volume   1607.87721790
_cell_formula_units_Z   2
loop_
 _symmetry_equiv_pos_site_id
 _symmetry_equiv_pos_as_xyz
  1  'x, y, z'
loop_
 _atom_site_type_symbol
 _atom_site_label
 _atom_site_symmetry_multiplicity
 _atom_site_fract_x
 _atom_site_fract_y
 _atom_site_fract_z
 _atom_site_occupancy
  Ni  Ni0  1  0.00000000  0.00000000  0.50000000  1
  Ni  Ni1  1  0.00000000  0.00000000  0.00000000  1
  Cu  Cu2  1  0.33333300  0.66666700  0.52521700  1
  Cu  Cu3  1  0.66666700  0.33333300  0.47478300  1
  Cu  Cu4  1  0.66666700  0.33333300  0.97478300  1
  Cu  Cu5  1  0.33333300  0.66666700  0.02521700  1
  Cu  Cu6  1  0.00000000  0.00000000  0.65045100  1
  Cu  Cu7  1  0.00000000  0.00000000  0.34954900  1
  Cu  Cu8  1  0.00000000  0.00000000  0.84954900  1
  Cu  Cu9  1  0.00000000  0.00000000  0.15045100  1
  Cu  Cu10  1  0.33333300  0.66666700  0.81310400  1
  Cu  Cu11  1  0.66666700  0.33333300  0.18689600  1
  Cu  Cu12  1  0.66666700  0.33333300  0.68689600  1
  Cu  Cu13  1  0.33333300  0.66666700  0.31310400  1
  C  C14  1  0.37442100  0.32227700  0.57958200  1
  C  C15  1  0.62557900  0.67772300  0.42041800  1
  C  C16  1  0.67772300  0.05214400  0.57958200  1
  C  C17  1  0.32227700  0.37442100  0.92041800  1
  C  C18  1  0.32227700  0.94785600  0.42041800  1
  C  C19  1  0.67772300  0.62557900  0.07958200  1
  C  C20  1  0.94785600  0.62557900  0.57958200  1
  C  C21  1  0.05214400  0.67772300  0.92041800  1
  C  C22  1  0.05214400  0.37442100  0.42041800  1
  C  C23  1  0.94785600  0.32227700  0.07958200  1
  C  C24  1  0.62557900  0.94785600  0.92041800  1
  C  C25  1  0.37442100  0.05214400  0.07958200  1
  C  C26  1  0.29226000  0.00000000  0.75000000  1
  C  C27  1  0.70774000  0.00000000  0.25000000  1
  C  C28  1  0.00000000  0.29226000  0.75000000  1
  C  C29  1  0.00000000  0.70774000  0.25000000  1
  C  C30  1  0.70774000  0.70774000  0.75000000  1
  C  C31  1  0.29226000  0.29226000  0.25000000  1
  C  C32  1  0.45078000  0.27877300  0.52723300  1
  C  C33  1  0.54922000  0.72122700  0.47276700  1
  C  C34  1  0.72122700  0.17200700  0.52723300  1
  C  C35  1  0.27877300  0.45078000  0.97276700  1
  C  C36  1  0.27877300  0.82799300  0.47276700  1
  C  C37  1  0.72122700  0.54922000  0.02723300  1
  C  C38  1  0.82799300  0.54922000  0.52723300  1
  C  C39  1  0.17200700  0.72122700  0.97276700  1
  C  C40  1  0.17200700  0.45078000  0.47276700  1
  C  C41  1  0.82799300  0.27877300  0.02723300  1
  C  C42  1  0.54922000  0.82799300  0.97276700  1
  C  C43  1  0.45078000  0.17200700  0.02723300  1
  C  C44  1  0.37788700  0.49509100  0.57164200  1
  C  C45  1  0.62211300  0.50490900  0.42835800  1
  C  C46  1  0.50490900  0.88279700  0.57164200  1
  C  C47  1  0.49509100  0.37788700  0.92835800  1
  C  C48  1  0.49509100  0.11720300  0.42835800  1
  C  C49  1  0.50490900  0.62211300  0.07164200  1
  C  C50  1  0.11720300  0.62211300  0.57164200  1
  C  C51  1  0.88279700  0.50490900  0.92835800  1
  C  C52  1  0.88279700  0.37788700  0.42835800  1
  C  C53  1  0.11720300  0.49509100  0.07164200  1
  C  C54  1  0.62211300  0.11720300  0.92835800  1
  C  C55  1  0.37788700  0.88279700  0.07164200  1
  C  C56  1  0.17789300  0.17297900  0.58167700  1
  C  C57  1  0.82210700  0.82702100  0.41832300  1
  C  C58  1  0.82702100  0.00491400  0.58167700  1
  C  C59  1  0.17297900  0.17789300  0.91832300  1
  C  C60  1  0.17297900  0.99508600  0.41832300  1
  C  C61  1  0.82702100  0.82210700  0.08167700  1
  C  C62  1  0.99508600  0.82210700  0.58167700  1
  C  C63  1  0.00491400  0.82702100  0.91832300  1
  C  C64  1  0.00491400  0.17789300  0.41832300  1
  C  C65  1  0.99508600  0.17297900  0.08167700  1
  C  C66  1  0.82210700  0.99508600  0.91832300  1
  C  C67  1  0.17789300  0.00491400  0.08167700  1
  C  C68  1  0.03025900  0.20513700  0.69677500  1
  C  C69  1  0.96974100  0.79486300  0.30322500  1
  C  C70  1  0.79486300  0.82512200  0.69677500  1
  C  C71  1  0.20513700  0.03025900  0.80322500  1
  C  C72  1  0.20513700  0.17487800  0.30322500  1
  C  C73  1  0.79486300  0.96974100  0.19677500  1
  C  C74  1  0.17487800  0.96974100  0.69677500  1
  C  C75  1  0.82512200  0.79486300  0.80322500  1
  C  C76  1  0.82512200  0.03025900  0.30322500  1
  C  C77  1  0.17487800  0.20513700  0.19677500  1
  C  C78  1  0.96974100  0.17487800  0.80322500  1
  C  C79  1  0.03025900  0.82512200  0.19677500  1
  C  C80  1  0.46791200  0.32607300  0.63492100  1
  C  C81  1  0.53208800  0.67392700  0.36507900  1
  C  C82  1  0.67392700  0.14183900  0.63492100  1
  C  C83  1  0.32607300  0.46791200  0.86507900  1
  C  C84  1  0.32607300  0.85816100  0.36507900  1
  C  C85  1  0.67392700  0.53208800  0.13492100  1
  C  C86  1  0.85816100  0.53208800  0.63492100  1
  C  C87  1  0.14183900  0.67392700  0.86507900  1
  C  C88  1  0.14183900  0.46791200  0.36507900  1
  C  C89  1  0.85816100  0.32607300  0.13492100  1
  C  C90  1  0.53208800  0.85816100  0.86507900  1
  C  C91  1  0.46791200  0.14183900  0.13492100  1
  C  C92  1  0.46917300  0.15946200  0.73963600  1
  C  C93  1  0.53082700  0.84053800  0.26036400  1
  C  C94  1  0.84053800  0.30971100  0.73963600  1
  C  C95  1  0.15946200  0.46917300  0.76036400  1
  C  C96  1  0.15946200  0.69028900  0.26036400  1
  C  C97  1  0.84053800  0.53082700  0.23963600  1
  C  C98  1  0.69028900  0.53082700  0.73963600  1
  C  C99  1  0.30971100  0.84053800  0.76036400  1
  C  C100  1  0.30971100  0.46917300  0.26036400  1
  C  C101  1  0.69028900  0.15946200  0.23963600  1
  C  C102  1  0.53082700  0.69028900  0.76036400  1
  C  C103  1  0.46917300  0.30971100  0.23963600  1
