# generated using pymatgen
data_CuNi14C17
_symmetry_space_group_name_H-M   'P 1'
_cell_length_a   4.22289300
_cell_length_b   8.44068000
_cell_length_c   8.61042400
_cell_angle_alpha   90.00000000
_cell_angle_beta   90.00000000
_cell_angle_gamma   90.00000000
_symmetry_Int_Tables_number   1
_chemical_formula_structural   CuNi14C17
_chemical_formula_sum   'Cu1 Ni14 C17'
_cell_volume   306.91071497
_cell_formula_units_Z   1
loop_
 _symmetry_equiv_pos_site_id
 _symmetry_equiv_pos_as_xyz
  1  'x, y, z'
loop_
 _atom_site_type_symbol
 _atom_site_label
 _atom_site_symmetry_multiplicity
 _atom_site_fract_x
 _atom_site_fract_y
 _atom_site_fract_z
 _atom_site_occupancy
  Ni  Ni0  1  0.00000000  0.50000000  0.00000000  1
  Ni  Ni1  1  0.00000000  0.50000000  0.50000000  1
  Ni  Ni2  1  0.50000000  0.00000000  0.25518900  1
  Ni  Ni3  1  0.50000000  0.00000000  0.74481100  1
  Ni  Ni4  1  0.50000000  0.50000000  0.25208700  1
  Ni  Ni5  1  0.50000000  0.50000000  0.74791300  1
  Ni  Ni6  1  0.50000000  0.24987400  0.00000000  1
  Ni  Ni7  1  0.50000000  0.24600400  0.50000000  1
  Ni  Ni8  1  0.50000000  0.75012600  0.00000000  1
  Ni  Ni9  1  0.50000000  0.75399600  0.50000000  1
  Ni  Ni10  1  0.00000000  0.24676300  0.25442600  1
  Ni  Ni11  1  0.00000000  0.24676300  0.74557400  1
  Ni  Ni12  1  0.00000000  0.75323700  0.25442600  1
  Ni  Ni13  1  0.00000000  0.75323700  0.74557400  1
  C  C14  1  0.00000000  0.00000000  0.00000000  1
  Cu  Cu15  1  0.00000000  0.00000000  0.50000000  1
  C  C16  1  0.00000000  0.23918300  0.00000000  1
  C  C17  1  0.00000000  0.25670800  0.50000000  1
  C  C18  1  0.00000000  0.76081700  0.00000000  1
  C  C19  1  0.00000000  0.74329200  0.50000000  1
  C  C20  1  0.50000000  0.24849800  0.24942200  1
  C  C21  1  0.50000000  0.24849800  0.75057800  1
  C  C22  1  0.50000000  0.75150200  0.24942200  1
  C  C23  1  0.50000000  0.75150200  0.75057800  1
  C  C24  1  0.50000000  0.00000000  0.00000000  1
  C  C25  1  0.50000000  0.00000000  0.50000000  1
  C  C26  1  0.50000000  0.50000000  0.00000000  1
  C  C27  1  0.50000000  0.50000000  0.50000000  1
  C  C28  1  0.00000000  0.00000000  0.21239500  1
  C  C29  1  0.00000000  0.00000000  0.78760500  1
  C  C30  1  0.00000000  0.50000000  0.24585300  1
  C  C31  1  0.00000000  0.50000000  0.75414700  1
