# generated using pymatgen
data_CuNiC6
_symmetry_space_group_name_H-M   'P 1'
_cell_length_a   7.48513600
_cell_length_b   6.66990400
_cell_length_c   12.24381318
_cell_angle_alpha   60.86665892
_cell_angle_beta   90.00000000
_cell_angle_gamma   90.00000000
_symmetry_Int_Tables_number   1
_chemical_formula_structural   CuNiC6
_chemical_formula_sum   'Cu4 Ni4 C24'
_cell_volume   533.94121896
_cell_formula_units_Z   4
loop_
 _symmetry_equiv_pos_site_id
 _symmetry_equiv_pos_as_xyz
  1  'x, y, z'
loop_
 _atom_site_type_symbol
 _atom_site_label
 _atom_site_symmetry_multiplicity
 _atom_site_fract_x
 _atom_site_fract_y
 _atom_site_fract_z
 _atom_site_occupancy
  Ni  Ni0  1  0.40882000  0.43926600  0.77274800  1
  Ni  Ni1  1  0.59118000  0.43926600  0.27274800  1
  Ni  Ni2  1  0.65889700  0.82452900  0.90130800  1
  Ni  Ni3  1  0.34110300  0.82452900  0.40130800  1
  Cu  Cu4  1  0.83376500  0.87291400  0.58595700  1
  Cu  Cu5  1  0.16623500  0.87291400  0.08595700  1
  Cu  Cu6  1  0.93464000  0.34107400  0.85481100  1
  Cu  Cu7  1  0.06536000  0.34107400  0.35481100  1
  C  C8  1  0.58430500  0.11453800  0.09288300  1
  C  C9  1  0.41569500  0.11453800  0.59288300  1
  C  C10  1  0.25487100  0.42807400  0.04924300  1
  C  C11  1  0.74512900  0.42807400  0.54924300  1
  C  C12  1  0.13783000  0.87339400  0.81629000  1
  C  C13  1  0.86217000  0.87339400  0.31629000  1
  C  C14  1  0.82577900  0.47607800  0.65679400  1
  C  C15  1  0.17422100  0.47607800  0.15679400  1
  C  C16  1  0.46422600  0.33167400  0.08978800  1
  C  C17  1  0.53577400  0.33167400  0.58978800  1
  C  C18  1  0.45919600  0.89061800  0.13385200  1
  C  C19  1  0.54080400  0.89061800  0.63385200  1
  C  C20  1  0.03508800  0.98987500  0.88831800  1
  C  C21  1  0.96491200  0.98987500  0.38831800  1
  C  C22  1  0.85419200  0.26558400  0.50888900  1
  C  C23  1  0.14580800  0.26558400  0.00888900  1
  C  C24  1  0.67991100  0.21100000  0.95810200  1
  C  C25  1  0.32008900  0.21100000  0.45810200  1
  C  C26  1  0.00721600  0.74039600  0.76608100  1
  C  C27  1  0.99278400  0.74039600  0.26608100  1
  C  C28  1  0.28565100  0.68630200  0.92051600  1
  C  C29  1  0.71434900  0.68630200  0.42051600  1
  C  C30  1  0.73182000  0.06858300  0.20585900  1
  C  C31  1  0.26818000  0.06858300  0.70585900  1
