# generated using pymatgen
data_Cu5Ni4
_symmetry_space_group_name_H-M   'P 1'
_cell_length_a   10.06505703
_cell_length_b   16.68624575
_cell_length_c   18.80913649
_cell_angle_alpha   90.00000000
_cell_angle_beta   90.00000000
_cell_angle_gamma   90.00000000
_symmetry_Int_Tables_number   1
_chemical_formula_structural   Cu5Ni4
_chemical_formula_sum   'Cu80 Ni64'
_cell_volume   3158.95713906
_cell_formula_units_Z   16
loop_
 _symmetry_equiv_pos_site_id
 _symmetry_equiv_pos_as_xyz
  1  'x, y, z'
loop_
 _atom_site_type_symbol
 _atom_site_label
 _atom_site_symmetry_multiplicity
 _atom_site_fract_x
 _atom_site_fract_y
 _atom_site_fract_z
 _atom_site_occupancy
  Ni  Ni0  1  0.16423477  0.03487458  0.33626866  1
  Ni  Ni1  1  0.83576523  0.96512542  0.66373134  1
  Ni  Ni2  1  0.33576523  0.96512542  0.83626866  1
  Ni  Ni3  1  0.83576523  0.53487458  0.16373134  1
  Ni  Ni4  1  0.66423477  0.03487458  0.16373134  1
  Ni  Ni5  1  0.16423477  0.46512542  0.83626866  1
  Ni  Ni6  1  0.66423477  0.46512542  0.66373134  1
  Ni  Ni7  1  0.33576523  0.53487458  0.33626866  1
  Ni  Ni8  1  0.07141970  0.14169432  0.24866855  1
  Ni  Ni9  1  0.92858030  0.85830568  0.75133145  1
  Ni  Ni10  1  0.42858030  0.85830568  0.74866855  1
  Ni  Ni11  1  0.92858030  0.64169432  0.25133145  1
  Ni  Ni12  1  0.57141970  0.14169432  0.25133145  1
  Ni  Ni13  1  0.07141970  0.35830568  0.74866855  1
  Ni  Ni14  1  0.57141970  0.35830568  0.75133145  1
  Ni  Ni15  1  0.42858030  0.64169432  0.24866855  1
  Ni  Ni16  1  0.15666087  0.05482447  0.13141121  1
  Ni  Ni17  1  0.84333913  0.94517553  0.86858879  1
  Ni  Ni18  1  0.34333913  0.94517553  0.63141121  1
  Ni  Ni19  1  0.84333913  0.55482447  0.36858879  1
  Ni  Ni20  1  0.65666087  0.05482447  0.36858879  1
  Ni  Ni21  1  0.15666087  0.44517553  0.63141121  1
  Ni  Ni22  1  0.65666087  0.44517553  0.86858879  1
  Ni  Ni23  1  0.34333913  0.55482447  0.13141121  1
  Ni  Ni24  1  0.13580766  0.13835219  0.12260998  1
  Ni  Ni25  1  0.86419234  0.86164781  0.87739002  1
  Ni  Ni26  1  0.36419234  0.86164781  0.62260998  1
  Ni  Ni27  1  0.86419234  0.63835219  0.37739002  1
  Ni  Ni28  1  0.63580766  0.13835219  0.37739002  1
  Ni  Ni29  1  0.13580766  0.36164781  0.62260998  1
  Ni  Ni30  1  0.63580766  0.36164781  0.87739002  1
  Ni  Ni31  1  0.36419234  0.63835219  0.12260998  1
  Ni  Ni32  1  0.13262778  0.06620648  0.26112035  1
  Ni  Ni33  1  0.86737222  0.93379352  0.73887965  1
  Ni  Ni34  1  0.36737222  0.93379352  0.76112035  1
  Ni  Ni35  1  0.86737222  0.56620648  0.23887965  1
  Ni  Ni36  1  0.63262778  0.06620648  0.23887965  1
  Ni  Ni37  1  0.13262778  0.43379352  0.76112035  1
  Ni  Ni38  1  0.63262778  0.43379352  0.73887965  1
  Ni  Ni39  1  0.36737222  0.56620648  0.26112035  1
  Ni  Ni40  1  0.15428586  0.01938052  0.19940736  1
  Ni  Ni41  1  0.84571414  0.98061948  0.80059264  1
  Ni  Ni42  1  0.34571414  0.98061948  0.69940736  1
  Ni  Ni43  1  0.84571414  0.51938052  0.30059264  1
  Ni  Ni44  1  0.65428586  0.01938052  0.30059264  1
  Ni  Ni45  1  0.15428586  0.48061948  0.69940736  1
  Ni  Ni46  1  0.65428586  0.48061948  0.80059264  1
  Ni  Ni47  1  0.34571414  0.51938052  0.19940736  1
  Ni  Ni48  1  0.07224259  0.17694661  0.18046386  1
  Ni  Ni49  1  0.92775741  0.82305339  0.81953614  1
  Ni  Ni50  1  0.42775741  0.82305339  0.68046386  1
  Ni  Ni51  1  0.92775741  0.67694661  0.31953614  1
  Ni  Ni52  1  0.57224259  0.17694661  0.31953614  1
  Ni  Ni53  1  0.07224259  0.32305339  0.68046386  1
  Ni  Ni54  1  0.57224259  0.32305339  0.81953614  1
  Ni  Ni55  1  0.42775741  0.67694661  0.18046386  1
  Ni  Ni56  1  0.17221892  0.18185942  0.05314409  1
  Ni  Ni57  1  0.82778108  0.81814058  0.94685591  1
  Ni  Ni58  1  0.32778108  0.81814058  0.55314409  1
  Ni  Ni59  1  0.82778108  0.68185942  0.44685591  1
  Ni  Ni60  1  0.67221892  0.18185942  0.44685591  1
  Ni  Ni61  1  0.17221892  0.31814058  0.55314409  1
  Ni  Ni62  1  0.67221892  0.31814058  0.94685591  1
  Ni  Ni63  1  0.32778108  0.68185942  0.05314409  1
  Cu  Cu64  1  0.47739396  0.48238924  0.37107597  1
  Cu  Cu65  1  0.52260604  0.51761076  0.62892403  1
  Cu  Cu66  1  0.02260604  0.51761076  0.87107597  1
  Cu  Cu67  1  0.52260604  0.98238924  0.12892403  1
  Cu  Cu68  1  0.97739396  0.48238924  0.12892403  1
  Cu  Cu69  1  0.47739396  0.01761076  0.87107597  1
  Cu  Cu70  1  0.97739396  0.01761076  0.62892403  1
  Cu  Cu71  1  0.02260604  0.98238924  0.37107597  1
  Cu  Cu72  1  0.03657330  0.32376184  0.49210602  1
  Cu  Cu73  1  0.96342670  0.67623816  0.50789398  1
  Cu  Cu74  1  0.46342670  0.67623816  0.99210602  1
  Cu  Cu75  1  0.96342670  0.82376184  0.00789398  1
  Cu  Cu76  1  0.53657330  0.32376184  0.00789398  1
  Cu  Cu77  1  0.03657330  0.17623816  0.99210602  1
  Cu  Cu78  1  0.53657330  0.17623816  0.50789398  1
  Cu  Cu79  1  0.46342670  0.82376184  0.49210602  1
  Cu  Cu80  1  0.19342071  0.46979000  0.33828865  1
  Cu  Cu81  1  0.80657929  0.53021000  0.66171135  1
  Cu  Cu82  1  0.30657929  0.53021000  0.83828865  1
  Cu  Cu83  1  0.80657929  0.96979000  0.16171135  1
  Cu  Cu84  1  0.69342071  0.46979000  0.16171135  1
  Cu  Cu85  1  0.19342071  0.03021000  0.83828865  1
  Cu  Cu86  1  0.69342071  0.03021000  0.66171135  1
  Cu  Cu87  1  0.30657929  0.96979000  0.33828865  1
  Cu  Cu88  1  0.48222535  0.26342306  0.33120895  1
  Cu  Cu89  1  0.51777465  0.73657694  0.66879105  1
  Cu  Cu90  1  0.01777465  0.73657694  0.83120895  1
  Cu  Cu91  1  0.51777465  0.76342306  0.16879105  1
  Cu  Cu92  1  0.98222535  0.26342306  0.16879105  1
  Cu  Cu93  1  0.48222535  0.23657694  0.83120895  1
  Cu  Cu94  1  0.98222535  0.23657694  0.66879105  1
  Cu  Cu95  1  0.01777465  0.76342306  0.33120895  1
  Cu  Cu96  1  0.31942093  0.14274422  0.01257777  1
  Cu  Cu97  1  0.68057907  0.85725578  0.98742223  1
  Cu  Cu98  1  0.18057907  0.85725578  0.51257777  1
  Cu  Cu99  1  0.68057907  0.64274422  0.48742223  1
  Cu  Cu100  1  0.81942093  0.14274422  0.48742223  1
  Cu  Cu101  1  0.31942093  0.35725578  0.51257777  1
  Cu  Cu102  1  0.81942093  0.35725578  0.98742223  1
  Cu  Cu103  1  0.18057907  0.64274422  0.01257777  1
  Cu  Cu104  1  0.32755503  0.49284559  0.05912508  1
  Cu  Cu105  1  0.67244497  0.50715441  0.94087492  1
  Cu  Cu106  1  0.17244497  0.50715441  0.55912508  1
  Cu  Cu107  1  0.67244497  0.99284559  0.44087492  1
  Cu  Cu108  1  0.82755503  0.49284559  0.44087492  1
  Cu  Cu109  1  0.32755503  0.00715441  0.55912508  1
  Cu  Cu110  1  0.82755503  0.00715441  0.94087492  1
  Cu  Cu111  1  0.17244497  0.99284559  0.05912508  1
  Cu  Cu112  1  0.21346148  0.28559947  0.06772716  1
  Cu  Cu113  1  0.78653852  0.71440053  0.93227284  1
  Cu  Cu114  1  0.28653852  0.71440053  0.56772716  1
  Cu  Cu115  1  0.78653852  0.78559947  0.43227284  1
  Cu  Cu116  1  0.71346148  0.28559947  0.43227284  1
  Cu  Cu117  1  0.21346148  0.21440053  0.56772716  1
  Cu  Cu118  1  0.71346148  0.21440053  0.93227284  1
  Cu  Cu119  1  0.28653852  0.78559947  0.06772716  1
  Cu  Cu120  1  0.20928698  0.11331204  0.39658260  1
  Cu  Cu121  1  0.79071302  0.88668796  0.60341740  1
  Cu  Cu122  1  0.29071302  0.88668796  0.89658260  1
  Cu  Cu123  1  0.79071302  0.61331204  0.10341740  1
  Cu  Cu124  1  0.70928698  0.11331204  0.10341740  1
  Cu  Cu125  1  0.20928698  0.38668796  0.89658260  1
  Cu  Cu126  1  0.70928698  0.38668796  0.60341740  1
  Cu  Cu127  1  0.29071302  0.61331204  0.39658260  1
  Cu  Cu128  1  0.48123825  0.18894588  0.18613973  1
  Cu  Cu129  1  0.51876175  0.81105412  0.81386027  1
  Cu  Cu130  1  0.01876175  0.81105412  0.68613973  1
  Cu  Cu131  1  0.51876175  0.68894588  0.31386027  1
  Cu  Cu132  1  0.98123825  0.18894588  0.31386027  1
  Cu  Cu133  1  0.48123825  0.31105412  0.68613973  1
  Cu  Cu134  1  0.98123825  0.31105412  0.81386027  1
  Cu  Cu135  1  0.01876175  0.68894588  0.18613973  1
  Cu  Cu136  1  0.33638105  0.41666778  0.20415112  1
  Cu  Cu137  1  0.66361895  0.58333222  0.79584888  1
  Cu  Cu138  1  0.16361895  0.58333222  0.70415112  1
  Cu  Cu139  1  0.66361895  0.91666778  0.29584888  1
  Cu  Cu140  1  0.83638105  0.41666778  0.29584888  1
  Cu  Cu141  1  0.33638105  0.08333222  0.70415112  1
  Cu  Cu142  1  0.83638105  0.08333222  0.79584888  1
  Cu  Cu143  1  0.16361895  0.91666778  0.20415112  1
