# generated using pymatgen
data_CuNiC8
_symmetry_space_group_name_H-M   'P 1'
_cell_length_a   10.78681103
_cell_length_b   10.78681103
_cell_length_c   10.78681058
_cell_angle_alpha   33.92159481
_cell_angle_beta   33.92159481
_cell_angle_gamma   33.92159932
_symmetry_Int_Tables_number   1
_chemical_formula_structural   CuNiC8
_chemical_formula_sum   'Cu2 Ni2 C16'
_cell_volume   348.37111752
_cell_formula_units_Z   2
loop_
 _symmetry_equiv_pos_site_id
 _symmetry_equiv_pos_as_xyz
  1  'x, y, z'
loop_
 _atom_site_type_symbol
 _atom_site_label
 _atom_site_symmetry_multiplicity
 _atom_site_fract_x
 _atom_site_fract_y
 _atom_site_fract_z
 _atom_site_occupancy
  C  C0  1  0.86715100  0.86715100  0.86715100  1
  C  C1  1  0.13161300  0.13161300  0.13161300  1
  C  C2  1  0.71486600  0.71486600  0.71486600  1
  C  C3  1  0.28685000  0.28685000  0.28685000  1
  Ni  Ni4  1  0.00185000  0.00185000  0.00185000  1
  Ni  Ni5  1  0.59282200  0.59282200  0.59282200  1
  Cu  Cu6  1  0.49928700  0.49928700  0.49928700  1
  Cu  Cu7  1  0.40900200  0.40900200  0.40900200  1
  C  C8  1  0.39860600  0.82881300  0.39860600  1
  C  C9  1  0.39860600  0.39860600  0.82881300  1
  C  C10  1  0.82881300  0.39860600  0.39860600  1
  C  C11  1  0.59575700  0.17401900  0.59575700  1
  C  C12  1  0.59575700  0.59575700  0.17401900  1
  C  C13  1  0.17401900  0.59575700  0.59575700  1
  C  C14  1  0.21186400  0.69835400  0.21186400  1
  C  C15  1  0.21186400  0.21186400  0.69835300  1
  C  C16  1  0.69835300  0.21186400  0.21186400  1
  C  C17  1  0.79706500  0.28879000  0.79706500  1
  C  C18  1  0.79706500  0.79706500  0.28879000  1
  C  C19  1  0.28879000  0.79706500  0.79706500  1
