# generated using pymatgen
data_Cu5(Ni2C)2
_symmetry_space_group_name_H-M   'P 1'
_cell_length_a   6.88900900
_cell_length_b   12.32146600
_cell_length_c   14.06981362
_cell_angle_alpha   76.51651993
_cell_angle_beta   90.00000000
_cell_angle_gamma   90.00000000
_symmetry_Int_Tables_number   1
_chemical_formula_structural   Cu5(Ni2C)2
_chemical_formula_sum   'Cu20 Ni16 C8'
_cell_volume   1161.36581569
_cell_formula_units_Z   4
loop_
 _symmetry_equiv_pos_site_id
 _symmetry_equiv_pos_as_xyz
  1  'x, y, z'
loop_
 _atom_site_type_symbol
 _atom_site_label
 _atom_site_symmetry_multiplicity
 _atom_site_fract_x
 _atom_site_fract_y
 _atom_site_fract_z
 _atom_site_occupancy
  C  C0  1  0.24702100  0.32461900  0.91318300  1
  C  C1  1  0.74702100  0.67538100  0.58681700  1
  C  C2  1  0.75297900  0.67538100  0.08681700  1
  C  C3  1  0.25297900  0.32461900  0.41318300  1
  Ni  Ni4  1  0.45843500  0.42055700  0.93235200  1
  Ni  Ni5  1  0.95843500  0.57944300  0.56764800  1
  Ni  Ni6  1  0.54156500  0.57944300  0.06764800  1
  Ni  Ni7  1  0.04156500  0.42055700  0.43235200  1
  Ni  Ni8  1  0.08651500  0.29127700  0.01962700  1
  Ni  Ni9  1  0.58651500  0.70872300  0.48037300  1
  Ni  Ni10  1  0.91348500  0.70872300  0.98037300  1
  Ni  Ni11  1  0.41348500  0.29127700  0.51962700  1
  Ni  Ni12  1  0.74195600  0.19015500  0.86906500  1
  Ni  Ni13  1  0.24195600  0.80984500  0.63093500  1
  Ni  Ni14  1  0.25804400  0.80984500  0.13093500  1
  Ni  Ni15  1  0.75804400  0.19015500  0.36906500  1
  Ni  Ni16  1  0.96474000  0.03952500  0.71705100  1
  Ni  Ni17  1  0.46474000  0.96047500  0.78294900  1
  Ni  Ni18  1  0.03526000  0.96047500  0.28294900  1
  Ni  Ni19  1  0.53526000  0.03952500  0.21705100  1
  Cu  Cu20  1  0.05237000  0.48094300  0.85036100  1
  Cu  Cu21  1  0.55237000  0.51905700  0.64963900  1
  Cu  Cu22  1  0.94763000  0.51905700  0.14963900  1
  Cu  Cu23  1  0.44763000  0.48094300  0.35036100  1
  Cu  Cu24  1  0.22682200  0.27113900  0.76438100  1
  Cu  Cu25  1  0.72682200  0.72886100  0.73561900  1
  Cu  Cu26  1  0.77317800  0.72886100  0.23561900  1
  Cu  Cu27  1  0.27317800  0.27113900  0.26438100  1
  Cu  Cu28  1  0.42713200  0.15809200  0.97271400  1
  Cu  Cu29  1  0.92713200  0.84190800  0.52728600  1
  Cu  Cu30  1  0.57286800  0.84190800  0.02728600  1
  Cu  Cu31  1  0.07286800  0.15809200  0.47271400  1
  Cu  Cu32  1  0.62062500  0.38641900  0.01746100  1
  Cu  Cu33  1  0.12062500  0.61358100  0.48253900  1
  Cu  Cu34  1  0.37937500  0.61358100  0.98253900  1
  Cu  Cu35  1  0.87937500  0.38641900  0.51746100  1
  Cu  Cu36  1  0.47007500  0.03232500  0.67241200  1
  Cu  Cu37  1  0.97007500  0.96767500  0.82758800  1
  Cu  Cu38  1  0.52992500  0.96767500  0.32758800  1
  Cu  Cu39  1  0.02992500  0.03232500  0.17241200  1
  C  C40  1  0.72049200  0.23839100  0.78996000  1
  C  C41  1  0.22049200  0.76160900  0.71004000  1
  C  C42  1  0.27950800  0.76160900  0.21004000  1
  C  C43  1  0.77950800  0.23839100  0.28996000  1
