# generated using pymatgen
data_CuNiC2
_symmetry_space_group_name_H-M   'P 1'
_cell_length_a   5.19125600
_cell_length_b   10.62242400
_cell_length_c   12.93885500
_cell_angle_alpha   90.00000000
_cell_angle_beta   90.00000000
_cell_angle_gamma   90.00000000
_symmetry_Int_Tables_number   1
_chemical_formula_structural   CuNiC2
_chemical_formula_sum   'Cu16 Ni16 C32'
_cell_volume   713.49662732
_cell_formula_units_Z   16
loop_
 _symmetry_equiv_pos_site_id
 _symmetry_equiv_pos_as_xyz
  1  'x, y, z'
loop_
 _atom_site_type_symbol
 _atom_site_label
 _atom_site_symmetry_multiplicity
 _atom_site_fract_x
 _atom_site_fract_y
 _atom_site_fract_z
 _atom_site_occupancy
  Ni  Ni0  1  0.65803500  0.95261900  0.44111600  1
  Ni  Ni1  1  0.15803500  0.54738100  0.55888400  1
  Ni  Ni2  1  0.34196500  0.45261900  0.05888400  1
  Ni  Ni3  1  0.84196500  0.04738100  0.94111600  1
  Ni  Ni4  1  0.34196500  0.04738100  0.55888400  1
  Ni  Ni5  1  0.84196500  0.45261900  0.44111600  1
  Ni  Ni6  1  0.65803500  0.54738100  0.94111600  1
  Ni  Ni7  1  0.15803500  0.95261900  0.05888400  1
  Ni  Ni8  1  0.80934400  0.29423900  0.30657800  1
  Ni  Ni9  1  0.30934400  0.20576100  0.69342200  1
  Ni  Ni10  1  0.19065600  0.79423900  0.19342200  1
  Ni  Ni11  1  0.69065600  0.70576100  0.80657800  1
  Ni  Ni12  1  0.19065600  0.70576100  0.69342200  1
  Ni  Ni13  1  0.69065600  0.79423900  0.30657800  1
  Ni  Ni14  1  0.80934400  0.20576100  0.80657800  1
  Ni  Ni15  1  0.30934400  0.29423900  0.19342200  1
  Cu  Cu16  1  0.63011800  0.03864200  0.18533400  1
  Cu  Cu17  1  0.13011800  0.46135800  0.81466600  1
  Cu  Cu18  1  0.36988200  0.53864200  0.31466600  1
  Cu  Cu19  1  0.86988200  0.96135800  0.68533400  1
  Cu  Cu20  1  0.36988200  0.96135800  0.81466600  1
  Cu  Cu21  1  0.86988200  0.53864200  0.18533400  1
  Cu  Cu22  1  0.63011800  0.46135800  0.68533400  1
  Cu  Cu23  1  0.13011800  0.03864200  0.31466600  1
  Cu  Cu24  1  0.80825000  0.29097100  0.06399600  1
  Cu  Cu25  1  0.30825000  0.20902900  0.93600400  1
  Cu  Cu26  1  0.19175000  0.79097100  0.43600400  1
  Cu  Cu27  1  0.69175000  0.70902900  0.56399600  1
  Cu  Cu28  1  0.19175000  0.70902900  0.93600400  1
  Cu  Cu29  1  0.69175000  0.79097100  0.06399600  1
  Cu  Cu30  1  0.80825000  0.20902900  0.56399600  1
  Cu  Cu31  1  0.30825000  0.29097100  0.43600400  1
  C  C32  1  0.70906100  0.47503000  0.30545300  1
  C  C33  1  0.20906100  0.02497000  0.69454700  1
  C  C34  1  0.29093900  0.97503000  0.19454700  1
  C  C35  1  0.79093900  0.52497000  0.80545300  1
  C  C36  1  0.29093900  0.52497000  0.69454700  1
  C  C37  1  0.79093900  0.97503000  0.30545300  1
  C  C38  1  0.70906100  0.02497000  0.80545300  1
  C  C39  1  0.20906100  0.47503000  0.19454700  1
  C  C40  1  0.67374100  0.28942500  0.44579500  1
  C  C41  1  0.17374100  0.21057500  0.55420500  1
  C  C42  1  0.32625900  0.78942500  0.05420500  1
  C  C43  1  0.82625900  0.71057500  0.94579500  1
  C  C44  1  0.32625900  0.71057500  0.55420500  1
  C  C45  1  0.82625900  0.78942500  0.44579500  1
  C  C46  1  0.67374100  0.21057500  0.94579500  1
  C  C47  1  0.17374100  0.28942500  0.05420500  1
  C  C48  1  0.70743600  0.46410400  0.06938800  1
  C  C49  1  0.20743600  0.03589600  0.93061200  1
  C  C50  1  0.29256400  0.96410400  0.43061200  1
  C  C51  1  0.79256400  0.53589600  0.56938800  1
  C  C52  1  0.29256400  0.53589600  0.93061200  1
  C  C53  1  0.79256400  0.96410400  0.06938800  1
  C  C54  1  0.70743600  0.03589600  0.56938800  1
  C  C55  1  0.20743600  0.46410400  0.43061200  1
  C  C56  1  0.65234000  0.21505400  0.18157900  1
  C  C57  1  0.15234000  0.28494600  0.81842100  1
  C  C58  1  0.34766000  0.71505400  0.31842100  1
  C  C59  1  0.84766000  0.78494600  0.68157900  1
  C  C60  1  0.34766000  0.78494600  0.81842100  1
  C  C61  1  0.84766000  0.71505400  0.18157900  1
  C  C62  1  0.65234000  0.28494600  0.68157900  1
  C  C63  1  0.15234000  0.21505400  0.31842100  1
