# generated using pymatgen
data_Cu4Ni12C5
_symmetry_space_group_name_H-M   'P 1'
_cell_length_a   6.72884488
_cell_length_b   11.11501186
_cell_length_c   10.95613348
_cell_angle_alpha   91.34712127
_cell_angle_beta   94.94504102
_cell_angle_gamma   100.32376929
_symmetry_Int_Tables_number   1
_chemical_formula_structural   Cu4Ni12C5
_chemical_formula_sum   'Cu4 Ni12 C5'
_cell_volume   802.52115714
_cell_formula_units_Z   1
loop_
 _symmetry_equiv_pos_site_id
 _symmetry_equiv_pos_as_xyz
  1  'x, y, z'
loop_
 _atom_site_type_symbol
 _atom_site_label
 _atom_site_symmetry_multiplicity
 _atom_site_fract_x
 _atom_site_fract_y
 _atom_site_fract_z
 _atom_site_occupancy
  C  C0  1  0.13387900  0.05047000  0.03929100  1
  C  C1  1  0.33170200  0.33878100  0.20780200  1
  C  C2  1  0.60624900  0.68639800  0.74309300  1
  C  C3  1  0.91054800  0.18852900  0.75000700  1
  C  C4  1  0.11490000  0.79236600  0.26391500  1
  Ni  Ni5  1  0.79397400  0.65435300  0.59483300  1
  Ni  Ni6  1  0.91248600  0.95541900  0.24695700  1
  Ni  Ni7  1  0.30065800  0.82622400  0.45056300  1
  Ni  Ni8  1  0.76706700  0.14060100  0.96615100  1
  Ni  Ni9  1  0.19835700  0.33119100  0.38264900  1
  Ni  Ni10  1  0.80346900  0.67240300  0.91279900  1
  Ni  Ni11  1  0.36584900  0.52342600  0.73837400  1
  Ni  Ni12  1  0.73410000  0.12550200  0.56249400  1
  Ni  Ni13  1  0.16950100  0.06158900  0.77349900  1
  Ni  Ni14  1  0.16769900  0.44902300  0.08880700  1
  Ni  Ni15  1  0.32202300  0.84135400  0.07000800  1
  Ni  Ni16  1  0.63689400  0.44375600  0.24260200  1
  Cu  Cu17  1  0.53217800  0.80333200  0.73704600  1
  Cu  Cu18  1  0.00934900  0.31907900  0.75128500  1
  Cu  Cu19  1  0.32248700  0.21355100  0.15153400  1
  Cu  Cu20  1  0.98121300  0.67015200  0.25143600  1
