# generated using pymatgen
data_CuNiC7
_symmetry_space_group_name_H-M   'P 1'
_cell_length_a   5.38735000
_cell_length_b   7.55131500
_cell_length_c   11.11147900
_cell_angle_alpha   90.00000000
_cell_angle_beta   90.00000000
_cell_angle_gamma   90.00000000
_symmetry_Int_Tables_number   1
_chemical_formula_structural   CuNiC7
_chemical_formula_sum   'Cu4 Ni4 C28'
_cell_volume   452.03248703
_cell_formula_units_Z   4
loop_
 _symmetry_equiv_pos_site_id
 _symmetry_equiv_pos_as_xyz
  1  'x, y, z'
loop_
 _atom_site_type_symbol
 _atom_site_label
 _atom_site_symmetry_multiplicity
 _atom_site_fract_x
 _atom_site_fract_y
 _atom_site_fract_z
 _atom_site_occupancy
  C  C0  1  0.45577200  0.74861600  0.95567600  1
  C  C1  1  0.04422800  0.74861600  0.45567600  1
  C  C2  1  0.54422800  0.24861600  0.04432400  1
  C  C3  1  0.95577200  0.24861600  0.54432400  1
  Ni  Ni4  1  0.46178900  0.50626500  0.64338300  1
  Ni  Ni5  1  0.53821100  0.00626500  0.35661700  1
  Ni  Ni6  1  0.96178900  0.00626500  0.85661700  1
  Ni  Ni7  1  0.03821100  0.50626500  0.14338300  1
  Cu  Cu8  1  0.03551800  0.99274500  0.14291100  1
  Cu  Cu9  1  0.96448200  0.49274500  0.85708900  1
  Cu  Cu10  1  0.53551800  0.49274500  0.35708900  1
  Cu  Cu11  1  0.46448200  0.99274500  0.64291100  1
  C  C12  1  0.15946900  0.75222500  0.12183500  1
  C  C13  1  0.34053100  0.75222500  0.62183500  1
  C  C14  1  0.84053100  0.25222500  0.87816500  1
  C  C15  1  0.65946900  0.25222500  0.37816500  1
  C  C16  1  0.62979600  0.55988900  0.78973600  1
  C  C17  1  0.87488000  0.94078300  0.28754700  1
  C  C18  1  0.37020400  0.05988900  0.21026400  1
  C  C19  1  0.12512000  0.44078300  0.71245300  1
  C  C20  1  0.37488000  0.44078300  0.21245300  1
  C  C21  1  0.12979600  0.05988900  0.71026400  1
  C  C22  1  0.62512000  0.94078300  0.78754700  1
  C  C23  1  0.87020400  0.55988900  0.28973600  1
  C  C24  1  0.04750700  0.74890700  0.85675100  1
  C  C25  1  0.45249300  0.74890700  0.35675100  1
  C  C26  1  0.95249300  0.24890700  0.14324900  1
  C  C27  1  0.54750700  0.24890700  0.64324900  1
  C  C28  1  0.23499700  0.03825800  0.97310200  1
  C  C29  1  0.26929900  0.46231100  0.47461700  1
  C  C30  1  0.76500300  0.53825800  0.02689800  1
  C  C31  1  0.73070100  0.96231100  0.52538300  1
  C  C32  1  0.76929900  0.96231100  0.02538300  1
  C  C33  1  0.73499700  0.53825800  0.52689800  1
  C  C34  1  0.23070100  0.46231100  0.97461700  1
  C  C35  1  0.26500300  0.03825800  0.47310200  1
