# generated using pymatgen
data_Cu2NiC10
_symmetry_space_group_name_H-M   'P 1'
_cell_length_a   3.92436700
_cell_length_b   3.94586200
_cell_length_c   11.95319000
_cell_angle_alpha   90.00000000
_cell_angle_beta   90.00000000
_cell_angle_gamma   90.00000000
_symmetry_Int_Tables_number   1
_chemical_formula_structural   Cu2NiC10
_chemical_formula_sum   'Cu2 Ni1 C10'
_cell_volume   185.09527409
_cell_formula_units_Z   1
loop_
 _symmetry_equiv_pos_site_id
 _symmetry_equiv_pos_as_xyz
  1  'x, y, z'
loop_
 _atom_site_type_symbol
 _atom_site_label
 _atom_site_symmetry_multiplicity
 _atom_site_fract_x
 _atom_site_fract_y
 _atom_site_fract_z
 _atom_site_occupancy
  C  C0  1  0.50000000  0.50000000  0.18428500  1
  C  C1  1  0.50000000  0.50000000  0.81571500  1
  C  C2  1  0.50000000  0.50000000  0.50000000  1
  Ni  Ni3  1  0.00000000  0.00000000  0.00000000  1
  Cu  Cu4  1  0.00000000  0.00000000  0.35590500  1
  Cu  Cu5  1  0.00000000  0.00000000  0.64409500  1
  C  C6  1  0.50000000  0.00000000  0.36989100  1
  C  C7  1  0.50000000  0.00000000  0.63010900  1
  C  C8  1  0.00000000  0.00000000  0.14995900  1
  C  C9  1  0.00000000  0.00000000  0.85004100  1
  C  C10  1  0.00000000  0.50000000  0.37053200  1
  C  C11  1  0.00000000  0.50000000  0.62946800  1
  C  C12  1  0.00000000  0.50000000  0.00000000  1
