# generated using pymatgen
data_Cu2NiC42
_symmetry_space_group_name_H-M   'P 1'
_cell_length_a   7.62687000
_cell_length_b   15.21971964
_cell_length_c   13.15968479
_cell_angle_alpha   30.22918233
_cell_angle_beta   54.58016850
_cell_angle_gamma   59.92602988
_symmetry_Int_Tables_number   1
_chemical_formula_structural   Cu2NiC42
_chemical_formula_sum   'Cu2 Ni1 C42'
_cell_volume   626.73246174
_cell_formula_units_Z   1
loop_
 _symmetry_equiv_pos_site_id
 _symmetry_equiv_pos_as_xyz
  1  'x, y, z'
loop_
 _atom_site_type_symbol
 _atom_site_label
 _atom_site_symmetry_multiplicity
 _atom_site_fract_x
 _atom_site_fract_y
 _atom_site_fract_z
 _atom_site_occupancy
  C  C0  1  0.01295400  0.00106300  0.98598200  1
  C  C1  1  0.98489600  0.49328700  0.02181700  1
  C  C2  1  0.51550400  0.00647300  0.97802300  1
  C  C3  1  0.50926800  0.28077100  0.95024200  1
  C  C4  1  0.49544400  0.50267800  0.00187800  1
  C  C5  1  0.49303200  0.24139100  0.49261000  1
  C  C6  1  0.02870600  0.28077100  0.95024200  1
  C  C7  1  0.49956300  0.73780700  0.02688200  1
  C  C8  1  0.97354200  0.98783900  0.53861900  1
  C  C9  1  0.51501600  0.74449500  0.51877900  1
  C  C10  1  0.97105900  0.73780700  0.02688200  1
  C  C11  1  0.03896600  0.24139100  0.49261000  1
  C  C12  1  0.00515700  0.50046600  0.49437700  1
  C  C13  1  0.95843600  0.74449500  0.51877900  1
  Ni  Ni14  1  0.24464200  0.99882200  0.25653600  1
  Cu  Cu15  1  0.50268500  0.49911500  0.49820000  1
  Cu  Cu16  1  0.50466000  0.00596200  0.48937800  1
  C  C17  1  0.14695100  0.20982800  0.14322100  1
  C  C18  1  0.13552800  0.50891100  0.12674600  1
  C  C19  1  0.13684400  0.26703900  0.59611800  1
  C  C20  1  0.41434700  0.22866100  0.35699300  1
  C  C21  1  0.13762200  0.72626500  0.13611200  1
  C  C22  1  0.59315600  0.50891100  0.12674600  1
  C  C23  1  0.15550800  0.98331300  0.16198500  1
  C  C24  1  0.38903400  0.01030000  0.85899700  1
  C  C25  1  0.19329200  0.54887200  0.56687300  1
  C  C26  1  0.42732000  0.44580200  0.43996600  1
  C  C27  1  0.58598200  0.72950100  0.18451600  1
  C  C28  1  0.86329000  0.23401000  0.40269900  1
  C  C29  1  0.13943300  0.79564500  0.56492200  1
  C  C30  1  0.41809900  0.27287000  0.80903200  1
  C  C31  1  0.80114200  0.44580200  0.43996600  1
  C  C32  1  0.57521800  0.54887200  0.56687300  1
  C  C33  1  0.55389600  0.98331300  0.16198500  1
  C  C34  1  0.87237200  0.01030000  0.85899700  1
  C  C35  1  0.39180300  0.48846800  0.88340900  1
  C  C36  1  0.19349800  0.94812300  0.66305700  1
  C  C37  1  0.44093800  0.06558000  0.31689300  1
  C  C38  1  0.86994700  0.26750800  0.86254500  1
  C  C39  1  0.86970700  0.74636200  0.38393000  1
  C  C40  1  0.58625800  0.77078200  0.64295900  1
  C  C41  1  0.79411600  0.06558000  0.31689300  1
  C  C42  1  0.58414500  0.94812300  0.66305700  1
  C  C43  1  0.86444500  0.48846800  0.88340900  1
  C  C44  1  0.86257500  0.74815800  0.88926600  1
