# generated using pymatgen
data_Cu2Ni13C8
_symmetry_space_group_name_H-M   'P 1'
_cell_length_a   7.85693900
_cell_length_b   14.21554500
_cell_length_c   13.56121536
_cell_angle_alpha   90.00000000
_cell_angle_beta   110.28907142
_cell_angle_gamma   90.00000000
_symmetry_Int_Tables_number   1
_chemical_formula_structural   Cu2Ni13C8
_chemical_formula_sum   'Cu4 Ni26 C16'
_cell_volume   1420.68421180
_cell_formula_units_Z   2
loop_
 _symmetry_equiv_pos_site_id
 _symmetry_equiv_pos_as_xyz
  1  'x, y, z'
loop_
 _atom_site_type_symbol
 _atom_site_label
 _atom_site_symmetry_multiplicity
 _atom_site_fract_x
 _atom_site_fract_y
 _atom_site_fract_z
 _atom_site_occupancy
  C  C0  1  0.12677700  0.08146000  0.46482000  1
  C  C1  1  0.12677700  0.41854000  0.96482000  1
  C  C2  1  0.87322300  0.91854000  0.53518000  1
  C  C3  1  0.87322300  0.58146000  0.03518000  1
  C  C4  1  0.84101200  0.07836400  0.44908600  1
  C  C5  1  0.84101200  0.42163600  0.94908600  1
  C  C6  1  0.15898800  0.92163600  0.55091400  1
  C  C7  1  0.15898800  0.57836400  0.05091400  1
  C  C8  1  0.21965800  0.42407500  0.18101200  1
  C  C9  1  0.21965800  0.07592500  0.68101200  1
  C  C10  1  0.78034200  0.57592500  0.81898800  1
  C  C11  1  0.78034200  0.92407500  0.31898800  1
  C  C12  1  0.93139100  0.42629700  0.16165500  1
  C  C13  1  0.93139100  0.07370300  0.66165500  1
  C  C14  1  0.06860900  0.57370300  0.83834500  1
  C  C15  1  0.06860900  0.92629700  0.33834500  1
  Ni  Ni16  1  0.26657900  0.28014600  0.08475300  1
  Ni  Ni17  1  0.26657900  0.21985400  0.58475300  1
  Ni  Ni18  1  0.73342100  0.71985400  0.91524700  1
  Ni  Ni19  1  0.73342100  0.78014600  0.41524700  1
  Ni  Ni20  1  0.79868400  0.28130800  0.05282700  1
  Ni  Ni21  1  0.79868400  0.21869200  0.55282700  1
  Ni  Ni22  1  0.20131600  0.71869200  0.94717300  1
  Ni  Ni23  1  0.20131600  0.78130800  0.44717300  1
  Ni  Ni24  1  0.65442800  0.08542000  0.25528200  1
  Ni  Ni25  1  0.65442800  0.41458000  0.75528200  1
  Ni  Ni26  1  0.34557200  0.91458000  0.74471800  1
  Ni  Ni27  1  0.34557200  0.58542000  0.24471800  1
  Ni  Ni28  1  0.11495300  0.08913600  0.27468400  1
  Ni  Ni29  1  0.11495300  0.41086400  0.77468400  1
  Ni  Ni30  1  0.88504700  0.91086400  0.72531600  1
  Ni  Ni31  1  0.88504700  0.58913600  0.22531600  1
  Ni  Ni32  1  0.39188900  0.35572300  0.35647300  1
  Ni  Ni33  1  0.39188900  0.14427700  0.85647300  1
  Ni  Ni34  1  0.60811100  0.64427700  0.64352700  1
  Ni  Ni35  1  0.60811100  0.85572300  0.14352700  1
  Ni  Ni36  1  0.87484600  0.34934100  0.31165100  1
  Ni  Ni37  1  0.87484600  0.15065900  0.81165100  1
  Ni  Ni38  1  0.12515400  0.65065900  0.68834900  1
  Ni  Ni39  1  0.12515400  0.84934100  0.18834900  1
  Ni  Ni40  1  0.50000000  0.50000000  0.00000000  1
  Ni  Ni41  1  0.50000000  0.00000000  0.50000000  1
  Cu  Cu42  1  0.91682500  0.99772100  0.98857000  1
  Cu  Cu43  1  0.91682500  0.50227900  0.48857000  1
  Cu  Cu44  1  0.08317500  0.00227900  0.01143000  1
  Cu  Cu45  1  0.08317500  0.49772100  0.51143000  1
