# generated using pymatgen
data_Cu4NiC3
_symmetry_space_group_name_H-M   'P 1'
_cell_length_a   10.15037200
_cell_length_b   10.24120600
_cell_length_c   11.94765400
_cell_angle_alpha   90.00000000
_cell_angle_beta   90.00000000
_cell_angle_gamma   90.00000000
_symmetry_Int_Tables_number   1
_chemical_formula_structural   Cu4NiC3
_chemical_formula_sum   'Cu16 Ni4 C12'
_cell_volume   1241.98313350
_cell_formula_units_Z   4
loop_
 _symmetry_equiv_pos_site_id
 _symmetry_equiv_pos_as_xyz
  1  'x, y, z'
loop_
 _atom_site_type_symbol
 _atom_site_label
 _atom_site_symmetry_multiplicity
 _atom_site_fract_x
 _atom_site_fract_y
 _atom_site_fract_z
 _atom_site_occupancy
  C  C0  1  0.84839700  0.91331600  0.75000000  1
  C  C1  1  0.34839700  0.58668400  0.75000000  1
  C  C2  1  0.15160300  0.08668400  0.25000000  1
  C  C3  1  0.65160300  0.41331600  0.25000000  1
  C  C4  1  0.04575800  0.29461700  0.54242200  1
  C  C5  1  0.54575800  0.20538300  0.95757800  1
  C  C6  1  0.95424200  0.70538300  0.04242200  1
  C  C7  1  0.45424200  0.79461700  0.45757800  1
  C  C8  1  0.95424200  0.70538300  0.45757800  1
  C  C9  1  0.45424200  0.79461700  0.04242200  1
  C  C10  1  0.04575800  0.29461700  0.95757800  1
  C  C11  1  0.54575800  0.20538300  0.54242200  1
  Ni  Ni12  1  0.77494200  0.48069500  0.75000000  1
  Ni  Ni13  1  0.27494200  0.01930500  0.75000000  1
  Ni  Ni14  1  0.22505800  0.51930500  0.25000000  1
  Ni  Ni15  1  0.72505800  0.98069500  0.25000000  1
  Cu  Cu16  1  0.79615300  0.25042600  0.75000000  1
  Cu  Cu17  1  0.29615300  0.24957400  0.75000000  1
  Cu  Cu18  1  0.20384700  0.74957400  0.25000000  1
  Cu  Cu19  1  0.70384700  0.75042600  0.25000000  1
  Cu  Cu20  1  0.98866800  0.57557500  0.75000000  1
  Cu  Cu21  1  0.48866800  0.92442500  0.75000000  1
  Cu  Cu22  1  0.01133200  0.42442500  0.25000000  1
  Cu  Cu23  1  0.51133200  0.07557500  0.25000000  1
  Cu  Cu24  1  0.83692700  0.04499000  0.41480500  1
  Cu  Cu25  1  0.33692700  0.45501000  0.08519500  1
  Cu  Cu26  1  0.16307300  0.95501000  0.91480500  1
  Cu  Cu27  1  0.66307300  0.54499000  0.58519500  1
  Cu  Cu28  1  0.16307300  0.95501000  0.58519500  1
  Cu  Cu29  1  0.66307300  0.54499000  0.91480500  1
  Cu  Cu30  1  0.83692700  0.04499000  0.08519500  1
  Cu  Cu31  1  0.33692700  0.45501000  0.41480500  1
