# generated using pymatgen
data_CuNi2C7
_symmetry_space_group_name_H-M   'P 1'
_cell_length_a   8.54766600
_cell_length_b   8.54766600
_cell_length_c   8.54766600
_cell_angle_alpha   90.00000000
_cell_angle_beta   90.00000000
_cell_angle_gamma   90.00000000
_symmetry_Int_Tables_number   1
_chemical_formula_structural   CuNi2C7
_chemical_formula_sum   'Cu4 Ni8 C28'
_cell_volume   624.51465101
_cell_formula_units_Z   4
loop_
 _symmetry_equiv_pos_site_id
 _symmetry_equiv_pos_as_xyz
  1  'x, y, z'
loop_
 _atom_site_type_symbol
 _atom_site_label
 _atom_site_symmetry_multiplicity
 _atom_site_fract_x
 _atom_site_fract_y
 _atom_site_fract_z
 _atom_site_occupancy
  Ni  Ni0  1  0.50000000  0.50000000  0.50000000  1
  Ni  Ni1  1  0.00000000  -0.00000000  0.00000000  1
  Ni  Ni2  1  0.00000000  -0.00000000  0.50000000  1
  Ni  Ni3  1  0.00000000  0.50000000  0.00000000  1
  Ni  Ni4  1  0.50000000  -0.00000000  0.00000000  1
  Ni  Ni5  1  0.50000000  0.50000000  0.00000000  1
  Ni  Ni6  1  0.50000000  -0.00000000  0.50000000  1
  Ni  Ni7  1  0.00000000  0.50000000  0.50000000  1
  Cu  Cu8  1  0.25000000  0.25000000  0.25000000  1
  Cu  Cu9  1  0.25000000  0.75000000  0.75000000  1
  Cu  Cu10  1  0.75000000  0.25000000  0.75000000  1
  Cu  Cu11  1  0.75000000  0.75000000  0.25000000  1
  C  C12  1  0.75000000  0.75000000  0.75000000  1
  C  C13  1  0.75000000  0.25000000  0.25000000  1
  C  C14  1  0.25000000  0.75000000  0.25000000  1
  C  C15  1  0.25000000  0.25000000  0.75000000  1
  C  C16  1  0.21472390  0.29399780  0.50665671  1
  C  C17  1  0.21472390  0.70600220  0.49334329  1
  C  C18  1  0.78527610  0.29399780  0.49334329  1
  C  C19  1  0.78527610  0.70600220  0.50665671  1
  C  C20  1  0.29399780  0.50665671  0.21472390  1
  C  C21  1  0.70600220  0.49334329  0.21472390  1
  C  C22  1  0.29399780  0.49334329  0.78527610  1
  C  C23  1  0.70600220  0.50665671  0.78527610  1
  C  C24  1  0.50665671  0.21472390  0.29399780  1
  C  C25  1  0.49334329  0.21472390  0.70600220  1
  C  C26  1  0.49334329  0.78527610  0.29399780  1
  C  C27  1  0.50665671  0.78527610  0.70600220  1
  C  C28  1  0.28527610  0.20600220  0.99334329  1
  C  C29  1  0.28527610  0.79399780  0.00665671  1
  C  C30  1  0.71472390  0.20600220  0.00665671  1
  C  C31  1  0.71472390  0.79399780  0.99334329  1
  C  C32  1  0.20600220  0.99334329  0.28527610  1
  C  C33  1  0.79399780  0.00665671  0.28527610  1
  C  C34  1  0.20600220  0.00665671  0.71472390  1
  C  C35  1  0.79399780  0.99334329  0.71472390  1
  C  C36  1  0.99334329  0.28527610  0.20600220  1
  C  C37  1  0.00665671  0.28527610  0.79399780  1
  C  C38  1  0.00665671  0.71472390  0.20600220  1
  C  C39  1  0.99334329  0.71472390  0.79399780  1
