# generated using pymatgen
data_CuNiC26
_symmetry_space_group_name_H-M   'P 1'
_cell_length_a   6.55364191
_cell_length_b   11.36999689
_cell_length_c   14.16086353
_cell_angle_alpha   89.73486496
_cell_angle_beta   89.22629416
_cell_angle_gamma   78.62623491
_symmetry_Int_Tables_number   1
_chemical_formula_structural   CuNiC26
_chemical_formula_sum   'Cu4 Ni4 C104'
_cell_volume   1034.37639802
_cell_formula_units_Z   4
loop_
 _symmetry_equiv_pos_site_id
 _symmetry_equiv_pos_as_xyz
  1  'x, y, z'
loop_
 _atom_site_type_symbol
 _atom_site_label
 _atom_site_symmetry_multiplicity
 _atom_site_fract_x
 _atom_site_fract_y
 _atom_site_fract_z
 _atom_site_occupancy
  Ni  Ni0  1  0.49466600  0.23650700  0.26688600  1
  Ni  Ni1  1  0.50533400  0.76349300  0.73311400  1
  Ni  Ni2  1  0.48754100  0.73344600  0.24062000  1
  Ni  Ni3  1  0.51245900  0.26655400  0.75938000  1
  Cu  Cu4  1  0.00000000  0.00000000  0.00000000  1
  Cu  Cu5  1  0.00000000  0.50000000  0.00000000  1
  Cu  Cu6  1  0.00000000  0.50000000  0.50000000  1
  Cu  Cu7  1  0.00000000  0.00000000  0.50000000  1
  C  C8  1  0.60297200  0.09834000  0.06446700  1
  C  C9  1  0.39702800  0.90166000  0.93553300  1
  C  C10  1  0.59883200  0.11271200  0.95316400  1
  C  C11  1  0.40116800  0.88728800  0.04683600  1
  C  C12  1  0.04135100  0.84365900  0.85156400  1
  C  C13  1  0.95864900  0.15634100  0.14843600  1
  C  C14  1  0.80417200  0.85992400  0.88468800  1
  C  C15  1  0.19582800  0.14007600  0.11531200  1
  C  C16  1  0.82324300  0.86416100  0.12996600  1
  C  C17  1  0.17675700  0.13583900  0.87003400  1
  C  C18  1  0.05256800  0.87210700  0.16596900  1
  C  C19  1  0.94743200  0.12789300  0.83403100  1
  C  C20  1  0.66672900  0.68707300  0.04300500  1
  C  C21  1  0.33327100  0.31292700  0.95699500  1
  C  C22  1  0.61442500  0.62510900  0.94640000  1
  C  C23  1  0.38557500  0.37489100  0.05360000  1
  C  C24  1  0.76785000  0.35986500  0.91120700  1
  C  C25  1  0.23215000  0.64013500  0.08879300  1
  C  C26  1  0.92597300  0.27768400  0.97891000  1
  C  C27  1  0.07402700  0.72231600  0.02109000  1
  C  C28  1  0.05401800  0.41192700  0.18218700  1
  C  C29  1  0.94598200  0.58807300  0.81781300  1
  C  C30  1  0.80414200  0.37142000  0.37975500  1
  C  C31  1  0.19585800  0.62858000  0.62024500  1
  C  C32  1  0.04273000  0.35491200  0.34595200  1
  C  C33  1  0.95727000  0.64508800  0.65404800  1
  C  C34  1  0.60175500  0.61240500  0.45109300  1
  C  C35  1  0.39824500  0.38759500  0.54890700  1
  C  C36  1  0.59617600  0.59345100  0.56225600  1
  C  C37  1  0.40382400  0.40654900  0.43774400  1
  C  C38  1  0.82121900  0.35523700  0.62212500  1
  C  C39  1  0.17878100  0.64476300  0.37787500  1
  C  C40  1  0.04899400  0.36027000  0.66135100  1
  C  C41  1  0.95100600  0.63973000  0.33864900  1
  C  C42  1  0.92756800  0.08568000  0.31533800  1
  C  C43  1  0.07243200  0.91432000  0.68466200  1
  C  C44  1  0.08852800  0.22533900  0.52175600  1
  C  C45  1  0.91147200  0.77466100  0.47824400  1
  C  C46  1  0.37560200  0.87030200  0.54943500  1
  C  C47  1  0.62439800  0.12969800  0.45056500  1
  C  C48  1  0.33438000  0.81749900  0.44769800  1
  C  C49  1  0.66562000  0.18250100  0.55230200  1
  C  C50  1  0.54893600  0.96230900  0.30137500  1
  C  C51  1  0.45106400  0.03769100  0.69862500  1
  C  C52  1  0.69421800  0.87103400  0.36581000  1
  C  C53  1  0.30578100  0.12896600  0.63419000  1
  C  C54  1  0.67824600  0.38811400  0.13384000  1
  C  C55  1  0.32175400  0.61188600  0.86616000  1
  C  C56  1  0.47939200  0.46786300  0.17834900  1
  C  C57  1  0.52060800  0.53213700  0.82165100  1
  C  C58  1  0.10345600  0.96524300  0.31363700  1
  C  C59  1  0.89654400  0.03475700  0.68636300  1
  C  C60  1  0.88553400  0.53362900  0.18619100  1
  C  C61  1  0.11446600  0.46637100  0.81380900  1
  C  C62  1  0.26072900  0.14296200  0.45862000  1
  C  C63  1  0.73927100  0.85703800  0.54138000  1
  C  C64  1  0.68205400  0.07176100  0.00557700  1
  C  C65  1  0.31794600  0.92823900  0.99442300  1
  C  C66  1  0.94610200  0.86223900  0.90677800  1
  C  C67  1  0.05389800  0.13776200  0.09322200  1
  C  C68  1  0.96075200  0.87807800  0.11016900  1
  C  C69  1  0.03924800  0.12192200  0.88983100  1
  C  C70  1  0.71568000  0.62082500  0.99843700  1
  C  C71  1  0.28432000  0.37917500  0.00156300  1
  C  C72  1  0.84048000  0.35850300  0.97242000  1
  C  C73  1  0.15952000  0.64149700  0.02758000  1
  C  C74  1  0.94274500  0.46362400  0.14541500  1
  C  C75  1  0.05725500  0.53637600  0.85458500  1
  C  C76  1  0.94700800  0.37328800  0.40114500  1
  C  C77  1  0.05299200  0.62671200  0.59885500  1
  C  C78  1  0.68267800  0.57186800  0.50417300  1
  C  C79  1  0.31732200  0.42813200  0.49582700  1
  C  C80  1  0.96319900  0.36347100  0.60360100  1
  C  C81  1  0.03680100  0.63652900  0.39639900  1
  C  C82  1  0.01460900  0.02418400  0.35532800  1
  C  C83  1  0.98539100  0.97581600  0.64467200  1
  C  C84  1  0.17752400  0.14445200  0.51755300  1
  C  C85  1  0.82247600  0.85554800  0.48244700  1
  C  C86  1  0.28783900  0.88449200  0.49242200  1
  C  C87  1  0.71216100  0.11550800  0.50757800  1
  C  C88  1  0.63042800  0.87988400  0.30252900  1
  C  C89  1  0.36957200  0.12011600  0.69747100  1
  C  C90  1  0.53465300  0.38538800  0.15437500  1
  C  C91  1  0.46534700  0.61461200  0.84562500  1
  C  C92  1  0.38229500  0.62577500  0.19286500  1
  C  C93  1  0.61770500  0.37422500  0.80713500  1
  C  C94  1  0.46419900  0.13837800  0.35224500  1
  C  C95  1  0.53580100  0.86162200  0.64775500  1
  C  C96  1  0.44110900  0.15140800  0.15403700  1
  C  C97  1  0.55889100  0.84859200  0.84596300  1
  C  C98  1  0.79153600  0.18469800  0.24066100  1
  C  C99  1  0.20846400  0.81530200  0.75933900  1
  C  C100  1  0.56142200  0.36077300  0.34973300  1
  C  C101  1  0.43857800  0.63922700  0.65026600  1
  C  C102  1  0.21303200  0.33065300  0.25840900  1
  C  C103  1  0.78696800  0.66934700  0.74159100  1
  C  C104  1  0.77424600  0.64506300  0.25651400  1
  C  C105  1  0.22575400  0.35493700  0.74348600  1
  C  C106  1  0.42619400  0.70082700  0.37494400  1
  C  C107  1  0.57380600  0.29917300  0.62505600  1
  C  C108  1  0.24159500  0.86374200  0.24236000  1
  C  C109  1  0.75840500  0.13625800  0.75764000  1
  C  C110  1  0.57960000  0.80091100  0.12232200  1
  C  C111  1  0.42040000  0.19908900  0.87767800  1
