# generated using pymatgen
data_Cu(NiC2)2
_symmetry_space_group_name_H-M   'P 1'
_cell_length_a   5.97377100
_cell_length_b   8.09323400
_cell_length_c   11.26436700
_cell_angle_alpha   90.00000000
_cell_angle_beta   90.00000000
_cell_angle_gamma   90.00000000
_symmetry_Int_Tables_number   1
_chemical_formula_structural   Cu(NiC2)2
_chemical_formula_sum   'Cu4 Ni8 C16'
_cell_volume   544.59977703
_cell_formula_units_Z   4
loop_
 _symmetry_equiv_pos_site_id
 _symmetry_equiv_pos_as_xyz
  1  'x, y, z'
loop_
 _atom_site_type_symbol
 _atom_site_label
 _atom_site_symmetry_multiplicity
 _atom_site_fract_x
 _atom_site_fract_y
 _atom_site_fract_z
 _atom_site_occupancy
  Ni  Ni0  1  0.25000000  0.50290100  0.28631100  1
  Ni  Ni1  1  0.75000000  0.49709900  0.71368900  1
  Ni  Ni2  1  0.25000000  0.00290100  0.21368900  1
  Ni  Ni3  1  0.75000000  0.99709900  0.78631100  1
  Ni  Ni4  1  0.25000000  0.31927600  0.93195400  1
  Ni  Ni5  1  0.75000000  0.68072400  0.06804600  1
  Ni  Ni6  1  0.25000000  0.81927600  0.56804600  1
  Ni  Ni7  1  0.75000000  0.18072400  0.43195400  1
  Cu  Cu8  1  0.25000000  0.78921300  0.92467700  1
  Cu  Cu9  1  0.75000000  0.21078700  0.07532300  1
  Cu  Cu10  1  0.25000000  0.28921300  0.57532300  1
  Cu  Cu11  1  0.75000000  0.71078700  0.42467700  1
  C  C12  1  0.51842300  0.28850200  0.13747700  1
  C  C13  1  0.01842300  0.71149800  0.86252300  1
  C  C14  1  0.98157700  0.78850200  0.36252300  1
  C  C15  1  0.48157700  0.21149800  0.63747700  1
  C  C16  1  0.48157700  0.71149800  0.86252300  1
  C  C17  1  0.98157700  0.28850200  0.13747700  1
  C  C18  1  0.01842300  0.21149800  0.63747700  1
  C  C19  1  0.51842300  0.78850200  0.36252300  1
  C  C20  1  0.25000000  0.23804700  0.43063000  1
  C  C21  1  0.75000000  0.76195300  0.56937000  1
  C  C22  1  0.25000000  0.73804700  0.06937000  1
  C  C23  1  0.75000000  0.26195300  0.93063000  1
  C  C24  1  0.75000000  0.50602900  0.41048700  1
  C  C25  1  0.25000000  0.49397100  0.58951300  1
  C  C26  1  0.75000000  0.00602900  0.08951300  1
  C  C27  1  0.25000000  0.99397100  0.91048700  1
