# generated using pymatgen
data_Cu14NiC2
_symmetry_space_group_name_H-M   'P 1'
_cell_length_a   8.74896400
_cell_length_b   8.74896400
_cell_length_c   11.97176100
_cell_angle_alpha   90.00000000
_cell_angle_beta   90.00000000
_cell_angle_gamma   90.00000000
_symmetry_Int_Tables_number   1
_chemical_formula_structural   Cu14NiC2
_chemical_formula_sum   'Cu56 Ni4 C8'
_cell_volume   916.37091638
_cell_formula_units_Z   4
loop_
 _symmetry_equiv_pos_site_id
 _symmetry_equiv_pos_as_xyz
  1  'x, y, z'
loop_
 _atom_site_type_symbol
 _atom_site_label
 _atom_site_symmetry_multiplicity
 _atom_site_fract_x
 _atom_site_fract_y
 _atom_site_fract_z
 _atom_site_occupancy
  C  C0  1  0.22942100  0.77057900  0.50000000  1
  C  C1  1  0.77057900  0.22942100  0.50000000  1
  C  C2  1  0.27057900  0.27057900  0.00000000  1
  C  C3  1  0.72942100  0.72942100  0.00000000  1
  Ni  Ni4  1  0.64406800  0.64406800  0.50000000  1
  Ni  Ni5  1  0.35593200  0.35593200  0.50000000  1
  Ni  Ni6  1  0.85593200  0.14406800  0.00000000  1
  Ni  Ni7  1  0.14406800  0.85593200  0.00000000  1
  Cu  Cu8  1  0.18342100  0.81657900  0.25531800  1
  Cu  Cu9  1  0.81657900  0.18342100  0.25531800  1
  Cu  Cu10  1  0.31657900  0.31657900  0.75531800  1
  Cu  Cu11  1  0.68342100  0.68342100  0.75531800  1
  Cu  Cu12  1  0.81657900  0.18342100  0.74468200  1
  Cu  Cu13  1  0.18342100  0.81657900  0.74468200  1
  Cu  Cu14  1  0.68342100  0.68342100  0.24468200  1
  Cu  Cu15  1  0.31657900  0.31657900  0.24468200  1
  Cu  Cu16  1  0.93480900  0.72489800  0.37310500  1
  Cu  Cu17  1  0.06519100  0.27510200  0.37310500  1
  Cu  Cu18  1  0.56519100  0.22489800  0.87310500  1
  Cu  Cu19  1  0.43480900  0.77510200  0.87310500  1
  Cu  Cu20  1  0.06519100  0.27510200  0.62689500  1
  Cu  Cu21  1  0.93480900  0.72489800  0.62689500  1
  Cu  Cu22  1  0.43480900  0.77510200  0.12689500  1
  Cu  Cu23  1  0.56519100  0.22489800  0.12689500  1
  Cu  Cu24  1  0.72489800  0.93480900  0.37310500  1
  Cu  Cu25  1  0.27510200  0.06519100  0.37310500  1
  Cu  Cu26  1  0.22489800  0.56519100  0.87310500  1
  Cu  Cu27  1  0.77510200  0.43480900  0.87310500  1
  Cu  Cu28  1  0.27510200  0.06519100  0.62689500  1
  Cu  Cu29  1  0.72489800  0.93480900  0.62689500  1
  Cu  Cu30  1  0.77510200  0.43480900  0.12689500  1
  Cu  Cu31  1  0.22489800  0.56519100  0.12689500  1
  Cu  Cu32  1  0.50000000  0.50000000  0.11510200  1
  Cu  Cu33  1  0.00000000  0.00000000  0.61510200  1
  Cu  Cu34  1  0.50000000  0.50000000  0.88489800  1
  Cu  Cu35  1  0.00000000  0.00000000  0.38489800  1
  Cu  Cu36  1  0.14076500  0.53758500  0.32496000  1
  Cu  Cu37  1  0.85923500  0.46241500  0.32496000  1
  Cu  Cu38  1  0.35923500  0.03758500  0.82496000  1
  Cu  Cu39  1  0.64076500  0.96241500  0.82496000  1
  Cu  Cu40  1  0.85923500  0.46241500  0.67504000  1
  Cu  Cu41  1  0.14076500  0.53758500  0.67504000  1
  Cu  Cu42  1  0.64076500  0.96241500  0.17504000  1
  Cu  Cu43  1  0.35923500  0.03758500  0.17504000  1
  Cu  Cu44  1  0.53758500  0.14076500  0.32496000  1
  Cu  Cu45  1  0.46241500  0.85923500  0.32496000  1
  Cu  Cu46  1  0.03758500  0.35923500  0.82496000  1
  Cu  Cu47  1  0.96241500  0.64076500  0.82496000  1
  Cu  Cu48  1  0.46241500  0.85923500  0.67504000  1
  Cu  Cu49  1  0.53758500  0.14076500  0.67504000  1
  Cu  Cu50  1  0.96241500  0.64076500  0.17504000  1
  Cu  Cu51  1  0.03758500  0.35923500  0.17504000  1
  Cu  Cu52  1  0.00000000  0.50000000  0.50000000  1
  Cu  Cu53  1  0.50000000  0.00000000  0.00000000  1
  Cu  Cu54  1  0.50000000  0.00000000  0.50000000  1
  Cu  Cu55  1  0.00000000  0.50000000  0.00000000  1
  Cu  Cu56  1  0.40205400  0.59794600  0.29795500  1
  Cu  Cu57  1  0.59794600  0.40205400  0.29795500  1
  Cu  Cu58  1  0.09794600  0.09794600  0.79795500  1
  Cu  Cu59  1  0.90205400  0.90205400  0.79795500  1
  Cu  Cu60  1  0.59794600  0.40205400  0.70204500  1
  Cu  Cu61  1  0.40205400  0.59794600  0.70204500  1
  Cu  Cu62  1  0.90205400  0.90205400  0.20204500  1
  Cu  Cu63  1  0.09794600  0.09794600  0.20204500  1
  C  C64  1  0.87718700  0.87718700  0.50000000  1
  C  C65  1  0.12281300  0.12281300  0.50000000  1
  C  C66  1  0.62281300  0.37718700  0.00000000  1
  C  C67  1  0.37718700  0.62281300  0.00000000  1
