# generated using pymatgen
data_CuNi2C9
_symmetry_space_group_name_H-M   'P 1'
_cell_length_a   9.95007415
_cell_length_b   9.95007415
_cell_length_c   13.93706468
_cell_angle_alpha   61.89952428
_cell_angle_beta   61.89952428
_cell_angle_gamma   43.00747163
_symmetry_Int_Tables_number   1
_chemical_formula_structural   CuNi2C9
_chemical_formula_sum   'Cu4 Ni8 C36'
_cell_volume   811.64802231
_cell_formula_units_Z   4
loop_
 _symmetry_equiv_pos_site_id
 _symmetry_equiv_pos_as_xyz
  1  'x, y, z'
loop_
 _atom_site_type_symbol
 _atom_site_label
 _atom_site_symmetry_multiplicity
 _atom_site_fract_x
 _atom_site_fract_y
 _atom_site_fract_z
 _atom_site_occupancy
  C  C0  1  0.13603500  0.13603500  0.58577300  1
  C  C1  1  0.86396500  0.86396500  0.41422700  1
  C  C2  1  0.88969300  0.88969300  0.92782200  1
  C  C3  1  0.11030700  0.11030700  0.07217800  1
  Ni  Ni4  1  0.04518100  0.54328400  0.73071500  1
  Ni  Ni5  1  0.54328400  0.04518100  0.73071500  1
  Ni  Ni6  1  0.95481900  0.45671600  0.26928500  1
  Ni  Ni7  1  0.45671600  0.95481900  0.26928500  1
  Ni  Ni8  1  0.54879200  0.54879200  0.23685600  1
  Ni  Ni9  1  0.45120800  0.45120800  0.76314400  1
  Ni  Ni10  1  0.62655000  0.62655000  0.73011500  1
  Ni  Ni11  1  0.37345000  0.37345000  0.26988500  1
  Cu  Cu12  1  0.65897900  0.65897900  0.93748500  1
  Cu  Cu13  1  0.34102100  0.34102100  0.06251500  1
  Cu  Cu14  1  0.60752900  0.60752900  0.50396600  1
  Cu  Cu15  1  0.39247100  0.39247100  0.49603400  1
  C  C16  1  0.17409600  0.58944400  0.77024400  1
  C  C17  1  0.58944400  0.17409600  0.77024400  1
  C  C18  1  0.82590400  0.41055600  0.22975600  1
  C  C19  1  0.41055600  0.82590400  0.22975600  1
  C  C20  1  0.51331800  0.51331800  0.59213100  1
  C  C21  1  0.48668200  0.48668200  0.40786900  1
  C  C22  1  0.59622000  0.59622000  0.89427500  1
  C  C23  1  0.40378000  0.40378000  0.10572500  1
  C  C24  1  0.24763800  0.24763800  0.77473500  1
  C  C25  1  0.75236200  0.75236200  0.22526500  1
  C  C26  1  0.53961500  0.89101200  0.89622500  1
  C  C27  1  0.89101200  0.53961500  0.89622500  1
  C  C28  1  0.46038500  0.10898800  0.10377500  1
  C  C29  1  0.10898800  0.46038500  0.10377500  1
  C  C30  1  0.83957300  0.83957300  0.68961100  1
  C  C31  1  0.16042700  0.16042700  0.31038900  1
  C  C32  1  0.66225700  0.66225700  0.56012800  1
  C  C33  1  0.33774300  0.33774300  0.43987200  1
  C  C34  1  0.50198700  0.91019400  0.69216900  1
  C  C35  1  0.91019400  0.50198700  0.69216900  1
  C  C36  1  0.49801300  0.08980600  0.30783100  1
  C  C37  1  0.08980600  0.49801300  0.30783100  1
  C  C38  1  0.35555800  0.71421300  0.76004400  1
  C  C39  1  0.71421300  0.35555800  0.76004400  1
  C  C40  1  0.64444200  0.28578700  0.23995600  1
  C  C41  1  0.28578700  0.64444200  0.23995600  1
  C  C42  1  0.19624700  0.54957400  0.56742800  1
  C  C43  1  0.54957400  0.19624700  0.56742800  1
  C  C44  1  0.80375300  0.45042600  0.43257200  1
  C  C45  1  0.45042600  0.80375300  0.43257200  1
  C  C46  1  0.38892200  0.38892200  0.93630800  1
  C  C47  1  0.61107800  0.61107800  0.06369200  1
