# generated using pymatgen
data_Cu2Ni
_symmetry_space_group_name_H-M   'P 1'
_cell_length_a   6.62184000
_cell_length_b   6.62184000
_cell_length_c   6.62184000
_cell_angle_alpha   90.00000000
_cell_angle_beta   90.00000000
_cell_angle_gamma   90.00000000
_symmetry_Int_Tables_number   1
_chemical_formula_structural   Cu2Ni
_chemical_formula_sum   'Cu8 Ni4'
_cell_volume   290.35950593
_cell_formula_units_Z   4
loop_
 _symmetry_equiv_pos_site_id
 _symmetry_equiv_pos_as_xyz
  1  'x, y, z'
loop_
 _atom_site_type_symbol
 _atom_site_label
 _atom_site_symmetry_multiplicity
 _atom_site_fract_x
 _atom_site_fract_y
 _atom_site_fract_z
 _atom_site_occupancy
  Ni  Ni0  1  0.50000000  0.50000000  0.00000000  1
  Ni  Ni1  1  0.50000000  0.00000000  0.50000000  1
  Ni  Ni2  1  0.00000000  0.50000000  0.50000000  1
  Ni  Ni3  1  0.00000000  0.00000000  0.00000000  1
  Cu  Cu4  1  0.12489500  0.87510500  0.37510500  1
  Cu  Cu5  1  0.87510500  0.37510500  0.12489500  1
  Cu  Cu6  1  0.37510500  0.12489500  0.87510500  1
  Cu  Cu7  1  0.62489500  0.62489500  0.62489500  1
  Cu  Cu8  1  0.87510500  0.12489500  0.62489500  1
  Cu  Cu9  1  0.12489500  0.62489500  0.87510500  1
  Cu  Cu10  1  0.62489500  0.87510500  0.12489500  1
  Cu  Cu11  1  0.37510500  0.37510500  0.37510500  1
