# generated using pymatgen
data_CuNiC8
_symmetry_space_group_name_H-M   'P 1'
_cell_length_a   5.83455395
_cell_length_b   5.83455395
_cell_length_c   5.83455395
_cell_angle_alpha   121.42790911
_cell_angle_beta   121.42790911
_cell_angle_gamma   87.54408496
_symmetry_Int_Tables_number   1
_chemical_formula_structural   CuNiC8
_chemical_formula_sum   'Cu1 Ni1 C8'
_cell_volume   137.27730380
_cell_formula_units_Z   1
loop_
 _symmetry_equiv_pos_site_id
 _symmetry_equiv_pos_as_xyz
  1  'x, y, z'
loop_
 _atom_site_type_symbol
 _atom_site_label
 _atom_site_symmetry_multiplicity
 _atom_site_fract_x
 _atom_site_fract_y
 _atom_site_fract_z
 _atom_site_occupancy
  Ni  Ni0  1  0.27046500  0.27046500  0.00000000  1
  Cu  Cu1  1  0.77056100  0.77056100  0.00000000  1
  C  C2  1  0.99452300  0.49452300  0.50000000  1
  C  C3  1  0.49452300  0.99452300  0.50000000  1
  C  C4  1  0.56151900  0.56151900  0.51179100  1
  C  C5  1  0.04972900  0.04972900  0.48820900  1
  C  C6  1  0.56151900  0.04972900  0.00000000  1
  C  C7  1  0.04972900  0.56151900  0.00000000  1
  C  C8  1  0.55241300  0.55241300  0.00000000  1
  C  C9  1  0.03901800  0.03901800  0.00000000  1
