# generated using pymatgen
data_Cu(NiC3)2
_symmetry_space_group_name_H-M   'P 1'
_cell_length_a   6.83904477
_cell_length_b   6.83904477
_cell_length_c   7.50638614
_cell_angle_alpha   63.00849854
_cell_angle_beta   63.00849854
_cell_angle_gamma   90.21256029
_symmetry_Int_Tables_number   1
_chemical_formula_structural   Cu(NiC3)2
_chemical_formula_sum   'Cu2 Ni4 C12'
_cell_volume   268.87445405
_cell_formula_units_Z   2
loop_
 _symmetry_equiv_pos_site_id
 _symmetry_equiv_pos_as_xyz
  1  'x, y, z'
loop_
 _atom_site_type_symbol
 _atom_site_label
 _atom_site_symmetry_multiplicity
 _atom_site_fract_x
 _atom_site_fract_y
 _atom_site_fract_z
 _atom_site_occupancy
  Ni  Ni0  1  0.25000000  0.25000000  0.50000000  1
  Ni  Ni1  1  0.75000000  0.75000000  0.50000000  1
  Ni  Ni2  1  0.32688500  0.82688500  0.00000000  1
  Ni  Ni3  1  0.67311500  0.17311500  0.00000000  1
  Cu  Cu4  1  0.18009600  0.31990400  0.00000000  1
  Cu  Cu5  1  0.81990400  0.68009600  0.00000000  1
  C  C6  1  0.25182600  0.75182600  0.49634700  1
  C  C7  1  0.74817400  0.24817400  0.50365300  1
  C  C8  1  0.00079100  0.50079100  0.28600800  1
  C  C9  1  0.71320100  0.21320100  0.28600800  1
  C  C10  1  0.20646400  0.00790200  0.28563300  1
  C  C11  1  0.50790200  0.70646400  0.28563300  1
  C  C12  1  0.99920900  0.49920900  0.71399200  1
  C  C13  1  0.28679900  0.78679900  0.71399200  1
  C  C14  1  0.79353600  0.99209800  0.71436700  1
  C  C15  1  0.49209800  0.29353600  0.71436700  1
  C  C16  1  0.50000000  0.50000000  0.00000000  1
  C  C17  1  0.00000000  0.00000000  0.00000000  1
