# generated using pymatgen
data_CuNi4C9
_symmetry_space_group_name_H-M   'P 1'
_cell_length_a   7.23152448
_cell_length_b   7.23152448
_cell_length_c   7.23152448
_cell_angle_alpha   60.00000000
_cell_angle_beta   60.00000000
_cell_angle_gamma   60.00000000
_symmetry_Int_Tables_number   1
_chemical_formula_structural   CuNi4C9
_chemical_formula_sum   'Cu1 Ni4 C9'
_cell_volume   267.40811633
_cell_formula_units_Z   1
loop_
 _symmetry_equiv_pos_site_id
 _symmetry_equiv_pos_as_xyz
  1  'x, y, z'
loop_
 _atom_site_type_symbol
 _atom_site_label
 _atom_site_symmetry_multiplicity
 _atom_site_fract_x
 _atom_site_fract_y
 _atom_site_fract_z
 _atom_site_occupancy
  C  C0  1  0.00000000  0.00000000  0.00000000  1
  Ni  Ni1  1  0.37033300  0.37033300  0.37033300  1
  Ni  Ni2  1  0.37033300  0.37033300  0.88900000  1
  Ni  Ni3  1  0.37033300  0.88900000  0.37033300  1
  Ni  Ni4  1  0.88900000  0.37033300  0.37033300  1
  Cu  Cu5  1  0.75000000  0.75000000  0.75000000  1
  C  C6  1  0.13750800  0.13750800  0.13750800  1
  C  C7  1  0.13750800  0.13750800  0.58747600  1
  C  C8  1  0.13750800  0.58747600  0.13750800  1
  C  C9  1  0.58747600  0.13750800  0.13750800  1
  C  C10  1  0.60961100  0.60961100  0.60961100  1
  C  C11  1  0.60961100  0.60961100  0.17116800  1
  C  C12  1  0.60961100  0.17116800  0.60961100  1
  C  C13  1  0.17116800  0.60961100  0.60961100  1
