# generated using pymatgen
data_Cu8(Ni2C5)3
_symmetry_space_group_name_H-M   'P 1'
_cell_length_a   18.27140900
_cell_length_b   5.03967900
_cell_length_c   7.69025536
_cell_angle_alpha   61.11958828
_cell_angle_beta   90.00000000
_cell_angle_gamma   90.00000000
_symmetry_Int_Tables_number   1
_chemical_formula_structural   Cu8(Ni2C5)3
_chemical_formula_sum   'Cu16 Ni12 C30'
_cell_volume   620.06348893
_cell_formula_units_Z   2
loop_
 _symmetry_equiv_pos_site_id
 _symmetry_equiv_pos_as_xyz
  1  'x, y, z'
loop_
 _atom_site_type_symbol
 _atom_site_label
 _atom_site_symmetry_multiplicity
 _atom_site_fract_x
 _atom_site_fract_y
 _atom_site_fract_z
 _atom_site_occupancy
  C  C0  1  0.50000000  0.50000000  0.00000000  1
  C  C1  1  0.00000000  0.50000000  0.50000000  1
  C  C2  1  0.71553100  0.87540100  0.52378600  1
  C  C3  1  0.21553100  0.12459900  0.97621400  1
  C  C4  1  0.28446900  0.12459900  0.47621400  1
  C  C5  1  0.78446900  0.87540100  0.02378600  1
  C  C6  1  0.62264400  0.23680100  0.96799700  1
  C  C7  1  0.12264400  0.76319900  0.53200300  1
  C  C8  1  0.37735600  0.76319900  0.03200300  1
  C  C9  1  0.87735600  0.23680100  0.46799700  1
  C  C10  1  0.61064900  0.71074600  0.14513600  1
  C  C11  1  0.11064900  0.28925400  0.35486400  1
  C  C12  1  0.38935100  0.28925400  0.85486400  1
  C  C13  1  0.88935100  0.71074600  0.64513600  1
  C  C14  1  0.58946900  0.37308200  0.29559800  1
  C  C15  1  0.08946900  0.62691800  0.20440200  1
  C  C16  1  0.41053100  0.62691800  0.70440200  1
  C  C17  1  0.91053100  0.37308200  0.79559800  1
  C  C18  1  0.55491400  0.94637500  0.66743900  1
  C  C19  1  0.05491400  0.05362500  0.83256100  1
  C  C20  1  0.44508600  0.05362500  0.33256100  1
  C  C21  1  0.94508600  0.94637500  0.16743900  1
  C  C22  1  0.55957800  0.22642300  0.83069800  1
  C  C23  1  0.05957800  0.77357700  0.66930200  1
  C  C24  1  0.44042200  0.77357700  0.16930200  1
  C  C25  1  0.94042200  0.22642300  0.33069800  1
  C  C26  1  0.47481500  0.04108500  0.68860700  1
  C  C27  1  0.97481500  0.95891500  0.81139300  1
  C  C28  1  0.52518500  0.95891500  0.31139300  1
  C  C29  1  0.02518500  0.04108500  0.18860700  1
  Ni  Ni30  1  0.58101300  0.35453900  0.88318300  1
  Ni  Ni31  1  0.08101300  0.64546100  0.61681700  1
  Ni  Ni32  1  0.41898700  0.64546100  0.11681700  1
  Ni  Ni33  1  0.91898700  0.35453900  0.38318300  1
  Ni  Ni34  1  0.56899400  0.56512800  0.19092500  1
  Ni  Ni35  1  0.06899400  0.43487200  0.30907500  1
  Ni  Ni36  1  0.43100600  0.43487200  0.80907500  1
  Ni  Ni37  1  0.93100600  0.56512800  0.69092500  1
  Ni  Ni38  1  0.52062100  0.95753800  0.76429700  1
  Ni  Ni39  1  0.02062100  0.04246200  0.73570300  1
  Ni  Ni40  1  0.47937900  0.04246200  0.23570300  1
  Ni  Ni41  1  0.97937900  0.95753800  0.26429700  1
  Cu  Cu42  1  0.81927400  0.95454900  0.61428500  1
  Cu  Cu43  1  0.31927400  0.04545100  0.88571500  1
  Cu  Cu44  1  0.18072600  0.04545100  0.38571500  1
  Cu  Cu45  1  0.68072600  0.95454900  0.11428500  1
  Cu  Cu46  1  0.59919000  0.97516600  0.46113900  1
  Cu  Cu47  1  0.09919000  0.02483400  0.03886100  1
  Cu  Cu48  1  0.40081000  0.02483400  0.53886100  1
  Cu  Cu49  1  0.90081000  0.97516600  0.96113900  1
  Cu  Cu50  1  0.68574600  0.92386700  0.75688200  1
  Cu  Cu51  1  0.18574600  0.07613300  0.74311800  1
  Cu  Cu52  1  0.31425400  0.07613300  0.24311800  1
  Cu  Cu53  1  0.81425400  0.92386700  0.25688200  1
  Cu  Cu54  1  0.78033000  0.31703000  0.85288700  1
  Cu  Cu55  1  0.28033000  0.68297000  0.64711300  1
  Cu  Cu56  1  0.21967000  0.68297000  0.14711300  1
  Cu  Cu57  1  0.71967000  0.31703000  0.35288700  1
