# generated using pymatgen
data_Cu2Ni4C
_symmetry_space_group_name_H-M   'P 1'
_cell_length_a   4.61859400
_cell_length_b   10.03358300
_cell_length_c   33.48447300
_cell_angle_alpha   90.00000000
_cell_angle_beta   90.00000000
_cell_angle_gamma   90.00000000
_symmetry_Int_Tables_number   1
_chemical_formula_structural   Cu2Ni4C
_chemical_formula_sum   'Cu20 Ni40 C10'
_cell_volume   1551.70551169
_cell_formula_units_Z   10
loop_
 _symmetry_equiv_pos_site_id
 _symmetry_equiv_pos_as_xyz
  1  'x, y, z'
loop_
 _atom_site_type_symbol
 _atom_site_label
 _atom_site_symmetry_multiplicity
 _atom_site_fract_x
 _atom_site_fract_y
 _atom_site_fract_z
 _atom_site_occupancy
  C  C0  1  0.50000000  0.95747300  0.63889100  1
  C  C1  1  0.50000000  0.04252700  0.13889100  1
  C  C2  1  0.50000000  0.82716100  0.33767100  1
  C  C3  1  0.50000000  0.17283900  0.83767100  1
  C  C4  1  0.50000000  0.78305900  0.93837500  1
  C  C5  1  0.50000000  0.21694100  0.43837500  1
  C  C6  1  0.00000000  0.70354800  0.49982800  1
  C  C7  1  0.00000000  0.29645200  0.99982800  1
  C  C8  1  0.00000000  0.45536700  0.69912800  1
  C  C9  1  0.00000000  0.54463300  0.19912800  1
  Ni  Ni10  1  0.50000000  0.96529000  0.75018500  1
  Ni  Ni11  1  0.50000000  0.03471000  0.25018500  1
  Ni  Ni12  1  0.50000000  0.88092700  0.43920900  1
  Ni  Ni13  1  0.50000000  0.11907300  0.93920900  1
  Ni  Ni14  1  0.50000000  0.82600800  0.83376600  1
  Ni  Ni15  1  0.50000000  0.17399200  0.33376600  1
  Ni  Ni16  1  0.50000000  0.80652600  0.05203200  1
  Ni  Ni17  1  0.50000000  0.19347400  0.55203200  1
  Ni  Ni18  1  0.50000000  0.71151800  0.56760100  1
  Ni  Ni19  1  0.50000000  0.28848200  0.06760100  1
  Ni  Ni20  1  0.50000000  0.61479800  0.65132900  1
  Ni  Ni21  1  0.50000000  0.38520200  0.15132900  1
  Ni  Ni22  1  0.50000000  0.52737900  0.86197100  1
  Ni  Ni23  1  0.50000000  0.47262100  0.36197100  1
  Ni  Ni24  1  0.50000000  0.47031400  0.50857400  1
  Ni  Ni25  1  0.50000000  0.52968600  0.00857400  1
  Ni  Ni26  1  0.50000000  0.44680800  0.77136800  1
  Ni  Ni27  1  0.50000000  0.55319200  0.27136800  1
  Ni  Ni28  1  0.50000000  0.30791000  0.64044700  1
  Ni  Ni29  1  0.50000000  0.69209000  0.14044700  1
  Ni  Ni30  1  0.00000000  0.97846300  0.89046800  1
  Ni  Ni31  1  0.00000000  0.02153700  0.39046800  1
  Ni  Ni32  1  0.00000000  0.95095400  0.57027400  1
  Ni  Ni33  1  0.00000000  0.04904600  0.07027400  1
  Ni  Ni34  1  0.00000000  0.94786700  0.98617100  1
  Ni  Ni35  1  0.00000000  0.05213300  0.48617100  1
  Ni  Ni36  1  0.00000000  0.87941300  0.18391800  1
  Ni  Ni37  1  0.00000000  0.12058700  0.68391800  1
  Ni  Ni38  1  0.00000000  0.80749900  0.69541200  1
  Ni  Ni39  1  0.00000000  0.19250100  0.19541200  1
  Ni  Ni40  1  0.00000000  0.79651300  0.26961000  1
  Ni  Ni41  1  0.00000000  0.20348700  0.76961000  1
  Ni  Ni42  1  0.00000000  0.67239800  0.78113200  1
  Ni  Ni43  1  0.00000000  0.32760200  0.28113200  1
  Ni  Ni44  1  0.00000000  0.56088600  0.93663600  1
  Ni  Ni45  1  0.00000000  0.43911400  0.43663600  1
  Ni  Ni46  1  0.00000000  0.46586100  0.58300200  1
  Ni  Ni47  1  0.00000000  0.53413900  0.08300200  1
  Ni  Ni48  1  0.00000000  0.29689700  0.89511200  1
  Ni  Ni49  1  0.00000000  0.70310300  0.39511200  1
  Cu  Cu50  1  0.50000000  0.93809500  0.51970100  1
  Cu  Cu51  1  0.50000000  0.06190500  0.01970100  1
  Cu  Cu52  1  0.50000000  0.77706500  0.22051400  1
  Cu  Cu53  1  0.50000000  0.22293500  0.72051400  1
  Cu  Cu54  1  0.50000000  0.69590500  0.73076400  1
  Cu  Cu55  1  0.50000000  0.30409500  0.23076400  1
  Cu  Cu56  1  0.50000000  0.39309300  0.93455600  1
  Cu  Cu57  1  0.50000000  0.60690700  0.43455600  1
  Cu  Cu58  1  0.00000000  0.95307600  0.80603000  1
  Cu  Cu59  1  0.00000000  0.04692400  0.30603000  1
  Cu  Cu60  1  0.00000000  0.79771200  0.10459800  1
  Cu  Cu61  1  0.00000000  0.20228800  0.60459800  1
  Cu  Cu62  1  0.00000000  0.71549700  0.61563700  1
  Cu  Cu63  1  0.00000000  0.28450300  0.11563700  1
  Cu  Cu64  1  0.00000000  0.70742700  0.86551300  1
  Cu  Cu65  1  0.00000000  0.29257300  0.36551300  1
  Cu  Cu66  1  0.00000000  0.68437000  0.01280500  1
  Cu  Cu67  1  0.00000000  0.31563000  0.51280500  1
  Cu  Cu68  1  0.00000000  0.42231200  0.82039600  1
  Cu  Cu69  1  0.00000000  0.57768800  0.32039600  1
