# generated using pymatgen
data_Cu4Ni2C17
_symmetry_space_group_name_H-M   'P 1'
_cell_length_a   5.20980801
_cell_length_b   5.91168872
_cell_length_c   7.29836529
_cell_angle_alpha   89.45625457
_cell_angle_beta   105.23583069
_cell_angle_gamma   98.04399660
_symmetry_Int_Tables_number   1
_chemical_formula_structural   Cu4Ni2C17
_chemical_formula_sum   'Cu4 Ni2 C17'
_cell_volume   214.65861965
_cell_formula_units_Z   1
loop_
 _symmetry_equiv_pos_site_id
 _symmetry_equiv_pos_as_xyz
  1  'x, y, z'
loop_
 _atom_site_type_symbol
 _atom_site_label
 _atom_site_symmetry_multiplicity
 _atom_site_fract_x
 _atom_site_fract_y
 _atom_site_fract_z
 _atom_site_occupancy
  C  C0  1  0.50000000  0.00000000  0.00000000  1
  C  C1  1  0.35696500  0.75539300  0.24081800  1
  C  C2  1  0.64303500  0.24460700  0.75918200  1
  C  C3  1  0.62824900  0.92961500  0.38385600  1
  C  C4  1  0.37175100  0.07038500  0.61614400  1
  C  C5  1  0.65492300  0.52024500  0.19130600  1
  C  C6  1  0.34507700  0.47975500  0.80869400  1
  C  C7  1  0.84627500  0.64210800  0.41795900  1
  C  C8  1  0.15372500  0.35789200  0.58204100  1
  Ni  Ni9  1  0.86628600  0.76759200  0.78171400  1
  Ni  Ni10  1  0.13371400  0.23240800  0.21828600  1
  Cu  Cu11  1  0.56056600  0.81994900  0.26659900  1
  Cu  Cu12  1  0.43943400  0.18005100  0.73340100  1
  Cu  Cu13  1  0.71668700  0.65690600  0.28567500  1
  Cu  Cu14  1  0.28331300  0.34309400  0.71432500  1
  C  C15  1  0.13718300  0.78759300  0.92127100  1
  C  C16  1  0.86281700  0.21240700  0.07872900  1
  C  C17  1  0.84145200  0.96839300  0.65893900  1
  C  C18  1  0.15854800  0.03160700  0.34106100  1
  C  C19  1  0.65372500  0.74740200  0.89094300  1
  C  C20  1  0.34627500  0.25259800  0.10905700  1
  C  C21  1  0.82377700  0.55409100  0.66624800  1
  C  C22  1  0.17622300  0.44590900  0.33375200  1
