# generated using pymatgen
data_Cu3Ni2C13
_symmetry_space_group_name_H-M   'P 1'
_cell_length_a   5.94275600
_cell_length_b   5.96634028
_cell_length_c   7.83032893
_cell_angle_alpha   67.68877326
_cell_angle_beta   67.69911852
_cell_angle_gamma   60.13067459
_symmetry_Int_Tables_number   1
_chemical_formula_structural   Cu3Ni2C13
_chemical_formula_sum   'Cu3 Ni2 C13'
_cell_volume   216.36775548
_cell_formula_units_Z   1
loop_
 _symmetry_equiv_pos_site_id
 _symmetry_equiv_pos_as_xyz
  1  'x, y, z'
loop_
 _atom_site_type_symbol
 _atom_site_label
 _atom_site_symmetry_multiplicity
 _atom_site_fract_x
 _atom_site_fract_y
 _atom_site_fract_z
 _atom_site_occupancy
  C  C0  1  0.00000000  0.50000000  0.50000000  1
  Ni  Ni1  1  0.58283900  0.08932900  0.74499400  1
  Ni  Ni2  1  0.41716100  0.91067100  0.25500600  1
  Cu  Cu3  1  0.00000000  0.00000000  0.00000000  1
  Cu  Cu4  1  0.00000000  0.50000000  0.00000000  1
  Cu  Cu5  1  0.50000000  0.50000000  0.00000000  1
  C  C6  1  0.26583200  0.74502500  0.72331000  1
  C  C7  1  0.73416800  0.25497500  0.27669000  1
  C  C8  1  0.22985100  0.22325500  0.82405300  1
  C  C9  1  0.72284100  0.22325500  0.82405300  1
  C  C10  1  0.77014900  0.77674500  0.17594700  1
  C  C11  1  0.27715900  0.77674500  0.17594700  1
  C  C12  1  0.72398500  0.73703200  0.81499800  1
  C  C13  1  0.27601500  0.26296800  0.18500200  1
  C  C14  1  0.34505800  0.81389900  0.49598600  1
  C  C15  1  0.65494200  0.18610100  0.50401400  1
  C  C16  1  0.21257700  0.70952300  0.86532300  1
  C  C17  1  0.78742300  0.29047700  0.13467700  1
