# generated using pymatgen
data_Cu17Ni6C5
_symmetry_space_group_name_H-M   'P 1'
_cell_length_a   12.69189302
_cell_length_b   12.69189302
_cell_length_c   12.69189302
_cell_angle_alpha   150.34448098
_cell_angle_beta   109.65079906
_cell_angle_gamma   78.15278804
_symmetry_Int_Tables_number   1
_chemical_formula_structural   Cu17Ni6C5
_chemical_formula_sum   'Cu17 Ni6 C5'
_cell_volume   935.92664537
_cell_formula_units_Z   1
loop_
 _symmetry_equiv_pos_site_id
 _symmetry_equiv_pos_as_xyz
  1  'x, y, z'
loop_
 _atom_site_type_symbol
 _atom_site_label
 _atom_site_symmetry_multiplicity
 _atom_site_fract_x
 _atom_site_fract_y
 _atom_site_fract_z
 _atom_site_occupancy
  C  C0  1  0.13197900  0.63197900  0.50000000  1
  C  C1  1  0.86802100  0.36802100  0.50000000  1
  C  C2  1  0.00000000  0.00000000  0.00000000  1
  C  C3  1  0.66687900  0.66687900  0.00000000  1
  C  C4  1  0.33312100  0.33312100  0.00000000  1
  Ni  Ni5  1  0.55473800  0.81617000  0.73856900  1
  Ni  Ni6  1  0.07760100  0.81617000  0.26143100  1
  Ni  Ni7  1  0.92239900  0.18383100  0.73856900  1
  Ni  Ni8  1  0.44526200  0.18383100  0.26143100  1
  Ni  Ni9  1  0.29450200  0.50000000  0.79450200  1
  Ni  Ni10  1  0.70549800  0.50000000  0.20549800  1
  Cu  Cu11  1  0.84078700  0.00000000  0.84078700  1
  Cu  Cu12  1  0.15921300  0.00000000  0.15921300  1
  Cu  Cu13  1  0.88239700  0.88239700  0.00000000  1
  Cu  Cu14  1  0.11760300  0.11760300  0.00000000  1
  Cu  Cu15  1  0.30291600  0.57127700  0.73163900  1
  Cu  Cu16  1  0.83963800  0.57127700  0.26836100  1
  Cu  Cu17  1  0.16036200  0.42872300  0.73163900  1
  Cu  Cu18  1  0.69708400  0.42872300  0.26836100  1
  Cu  Cu19  1  0.74649000  0.01214900  0.26565900  1
  Cu  Cu20  1  0.74649000  0.48083100  0.73434100  1
  Cu  Cu21  1  0.25351000  0.98785100  0.73434100  1
  Cu  Cu22  1  0.25351000  0.51916900  0.26565900  1
  Cu  Cu23  1  0.58201200  0.82610600  0.24409400  1
  Cu  Cu24  1  0.58201200  0.33791800  0.75590600  1
  Cu  Cu25  1  0.41798800  0.17389400  0.75590600  1
  Cu  Cu26  1  0.41798800  0.66208200  0.24409400  1
  Cu  Cu27  1  0.00000000  0.50000000  0.50000000  1
