# generated using pymatgen
data_CuNi3C14
_symmetry_space_group_name_H-M   'P 1'
_cell_length_a   5.44405800
_cell_length_b   5.66796600
_cell_length_c   15.85442232
_cell_angle_alpha   69.05597473
_cell_angle_beta   90.00000000
_cell_angle_gamma   90.00000000
_symmetry_Int_Tables_number   1
_chemical_formula_structural   CuNi3C14
_chemical_formula_sum   'Cu2 Ni6 C28'
_cell_volume   456.89327789
_cell_formula_units_Z   2
loop_
 _symmetry_equiv_pos_site_id
 _symmetry_equiv_pos_as_xyz
  1  'x, y, z'
loop_
 _atom_site_type_symbol
 _atom_site_label
 _atom_site_symmetry_multiplicity
 _atom_site_fract_x
 _atom_site_fract_y
 _atom_site_fract_z
 _atom_site_occupancy
  C  C0  1  0.02096000  0.63516800  0.89159800  1
  C  C1  1  0.52096000  0.36483200  0.60840200  1
  C  C2  1  0.97980000  0.08137400  0.39146800  1
  C  C3  1  0.47980000  0.91862600  0.10853200  1
  C  C4  1  0.97904000  0.36483200  0.10840200  1
  C  C5  1  0.47904000  0.63516800  0.39159800  1
  C  C6  1  0.02020000  0.91862600  0.60853200  1
  C  C7  1  0.52020000  0.08137400  0.89146800  1
  Ni  Ni8  1  0.55208200  0.68044400  0.75019100  1
  Ni  Ni9  1  0.05208200  0.31955600  0.74980900  1
  Ni  Ni10  1  0.44791800  0.31955600  0.24980900  1
  Ni  Ni11  1  0.94791800  0.68044400  0.25019100  1
  Ni  Ni12  1  0.50000000  0.50000000  0.00000000  1
  Ni  Ni13  1  0.00000000  0.50000000  0.50000000  1
  Cu  Cu14  1  0.50000000  0.00000000  0.50000000  1
  Cu  Cu15  1  0.00000000  0.00000000  0.00000000  1
  C  C16  1  0.23356300  0.71343800  0.01570700  1
  C  C17  1  0.73356300  0.28656200  0.48429300  1
  C  C18  1  0.76961400  0.75077200  0.51561800  1
  C  C19  1  0.26961400  0.24922800  0.98438200  1
  C  C20  1  0.76643700  0.28656200  0.98429300  1
  C  C21  1  0.26643700  0.71343800  0.51570700  1
  C  C22  1  0.23038600  0.24922800  0.48438200  1
  C  C23  1  0.73038600  0.75077200  0.01561800  1
  C  C24  1  0.90054500  0.62452200  0.75004300  1
  C  C25  1  0.40054500  0.37547800  0.74995700  1
  C  C26  1  0.09945500  0.37547800  0.24995700  1
  C  C27  1  0.59945500  0.62452200  0.25004300  1
  C  C28  1  0.47212200  0.71720300  0.85773300  1
  C  C29  1  0.97212200  0.28279700  0.64226700  1
  C  C30  1  0.52710800  0.06839300  0.35807500  1
  C  C31  1  0.02710800  0.93160700  0.14192500  1
  C  C32  1  0.52787800  0.28279700  0.14226700  1
  C  C33  1  0.02787800  0.71720300  0.35773300  1
  C  C34  1  0.47289200  0.93160700  0.64192500  1
  C  C35  1  0.97289200  0.06839300  0.85807500  1
