# generated using pymatgen
data_CuNiC9
_symmetry_space_group_name_H-M   'P 1'
_cell_length_a   6.84787364
_cell_length_b   9.50316267
_cell_length_c   8.18535313
_cell_angle_alpha   93.76544207
_cell_angle_beta   81.76973389
_cell_angle_gamma   110.27625321
_symmetry_Int_Tables_number   1
_chemical_formula_structural   CuNiC9
_chemical_formula_sum   'Cu4 Ni4 C36'
_cell_volume   494.44518796
_cell_formula_units_Z   4
loop_
 _symmetry_equiv_pos_site_id
 _symmetry_equiv_pos_as_xyz
  1  'x, y, z'
loop_
 _atom_site_type_symbol
 _atom_site_label
 _atom_site_symmetry_multiplicity
 _atom_site_fract_x
 _atom_site_fract_y
 _atom_site_fract_z
 _atom_site_occupancy
  Ni  Ni0  1  0.82202400  0.60958400  0.67112500  1
  Ni  Ni1  1  0.32215900  0.10962400  0.17128900  1
  Ni  Ni2  1  0.17779300  0.39021100  0.32874900  1
  Ni  Ni3  1  0.67772000  0.89025800  0.82885000  1
  Cu  Cu4  1  0.65651000  0.87548400  0.21917200  1
  Cu  Cu5  1  0.84336500  0.62523500  0.28065000  1
  Cu  Cu6  1  0.15708800  0.37503200  0.71898500  1
  Cu  Cu7  1  0.34357400  0.12464800  0.78079500  1
  C  C8  1  0.95148600  0.17977000  0.02750900  1
  C  C9  1  0.45133900  0.67968500  0.52758900  1
  C  C10  1  0.04858700  0.82027400  0.97237300  1
  C  C11  1  0.54873700  0.32036400  0.47238400  1
  C  C12  1  0.28831100  0.61834200  0.02567800  1
  C  C13  1  0.78829500  0.11841900  0.52579500  1
  C  C14  1  0.71168500  0.38158900  0.97435500  1
  C  C15  1  0.21168100  0.88157200  0.47431700  1
  C  C16  1  0.13434300  0.68466300  0.94327800  1
  C  C17  1  0.63522100  0.18505200  0.44279900  1
  C  C18  1  0.86552200  0.31525200  0.05694300  1
  C  C19  1  0.36471100  0.81492000  0.55729900  1
  C  C20  1  0.26247800  0.53160600  0.54076100  1
  C  C21  1  0.76228300  0.03196000  0.04064100  1
  C  C22  1  0.73755500  0.46845200  0.45903700  1
  C  C23  1  0.23786100  0.96802700  0.95925200  1
  C  C24  1  0.82860600  0.43484900  0.80024900  1
  C  C25  1  0.32921400  0.93486800  0.30028200  1
  C  C26  1  0.17131600  0.56512300  0.19977200  1
  C  C27  1  0.67079100  0.06511700  0.69980800  1
  C  C28  1  0.69333900  0.50517700  0.09317900  1
  C  C29  1  0.19338600  0.00519200  0.59315500  1
  C  C30  1  0.30661100  0.49475400  0.90677500  1
  C  C31  1  0.80654600  0.99477200  0.40700900  1
  C  C32  1  0.91153200  0.79710100  0.83284300  1
  C  C33  1  0.41129900  0.29695600  0.33306200  1
  C  C34  1  0.08836900  0.20283500  0.16713500  1
  C  C35  1  0.58850800  0.70291200  0.66705300  1
  C  C36  1  0.92482700  0.81083500  0.14481000  1
  C  C37  1  0.42510500  0.31036300  0.64490100  1
  C  C38  1  0.07520100  0.18941600  0.85511100  1
  C  C39  1  0.57504100  0.68978600  0.35513500  1
  C  C40  1  0.50771100  0.24476600  0.96930300  1
  C  C41  1  0.00751800  0.74496400  0.46888400  1
  C  C42  1  0.49231100  0.75514200  0.03084400  1
  C  C43  1  0.99243700  0.25504900  0.53106500  1
