# generated using pymatgen
data_Cu6NiC4
_symmetry_space_group_name_H-M   'P 1'
_cell_length_a   7.51796071
_cell_length_b   7.51796071
_cell_length_c   7.51796071
_cell_angle_alpha   60.00000000
_cell_angle_beta   60.00000000
_cell_angle_gamma   60.00000000
_symmetry_Int_Tables_number   1
_chemical_formula_structural   Cu6NiC4
_chemical_formula_sum   'Cu12 Ni2 C8'
_cell_volume   300.45895855
_cell_formula_units_Z   2
loop_
 _symmetry_equiv_pos_site_id
 _symmetry_equiv_pos_as_xyz
  1  'x, y, z'
loop_
 _atom_site_type_symbol
 _atom_site_label
 _atom_site_symmetry_multiplicity
 _atom_site_fract_x
 _atom_site_fract_y
 _atom_site_fract_z
 _atom_site_occupancy
  C  C0  1  0.12500000  0.12500000  0.62500000  1
  C  C1  1  0.12500000  0.62500000  0.12500000  1
  C  C2  1  0.62500000  0.12500000  0.12500000  1
  C  C3  1  0.12500000  0.12500000  0.12500000  1
  C  C4  1  0.62500000  0.62500000  0.12500000  1
  C  C5  1  0.62500000  0.12500000  0.62500000  1
  C  C6  1  0.12500000  0.62500000  0.62500000  1
  C  C7  1  0.62500000  0.62500000  0.62500000  1
  Ni  Ni8  1  0.75000000  0.75000000  0.75000000  1
  Ni  Ni9  1  0.50000000  0.50000000  0.50000000  1
  Cu  Cu10  1  0.04947800  0.45052200  0.04947800  1
  Cu  Cu11  1  0.79947800  0.20052200  0.79947800  1
  Cu  Cu12  1  0.04947800  0.04947800  0.45052200  1
  Cu  Cu13  1  0.45052200  0.04947800  0.04947800  1
  Cu  Cu14  1  0.04947800  0.45052200  0.45052200  1
  Cu  Cu15  1  0.45052200  0.45052200  0.04947800  1
  Cu  Cu16  1  0.45052200  0.04947800  0.45052200  1
  Cu  Cu17  1  0.20052200  0.79947800  0.79947800  1
  Cu  Cu18  1  0.79947800  0.20052200  0.20052200  1
  Cu  Cu19  1  0.20052200  0.79947800  0.20052200  1
  Cu  Cu20  1  0.79947800  0.79947800  0.20052200  1
  Cu  Cu21  1  0.20052200  0.20052200  0.79947800  1
