# generated using pymatgen
data_Cu2NiC21
_symmetry_space_group_name_H-M   'P 1'
_cell_length_a   12.59014762
_cell_length_b   12.59014762
_cell_length_c   12.59014762
_cell_angle_alpha   154.75093772
_cell_angle_beta   154.75093772
_cell_angle_gamma   36.00903917
_symmetry_Int_Tables_number   1
_chemical_formula_structural   Cu2NiC21
_chemical_formula_sum   'Cu2 Ni1 C21'
_cell_volume   362.65462845
_cell_formula_units_Z   1
loop_
 _symmetry_equiv_pos_site_id
 _symmetry_equiv_pos_as_xyz
  1  'x, y, z'
loop_
 _atom_site_type_symbol
 _atom_site_label
 _atom_site_symmetry_multiplicity
 _atom_site_fract_x
 _atom_site_fract_y
 _atom_site_fract_z
 _atom_site_occupancy
  C  C0  1  0.90436400  0.90436400  0.00000000  1
  C  C1  1  0.09599500  0.09599500  0.00000000  1
  C  C2  1  0.59571500  0.59571500  0.00000000  1
  Ni  Ni3  1  0.40004600  0.40004600  0.00000000  1
  Cu  Cu4  1  0.75022300  0.75022300  0.00000000  1
  Cu  Cu5  1  0.25026500  0.25026500  0.00000000  1
  C  C6  1  0.32181900  0.82181900  0.50000000  1
  C  C7  1  0.82181900  0.32181900  0.50000000  1
  C  C8  1  0.17903400  0.67903400  0.50000000  1
  C  C9  1  0.67903400  0.17903400  0.50000000  1
  C  C10  1  0.99935900  0.49935900  0.50000000  1
  C  C11  1  0.49935900  0.99935900  0.50000000  1
  C  C12  1  0.56187200  0.06582400  0.00000000  1
  C  C13  1  0.06582400  0.56187200  0.00000000  1
  C  C14  1  0.56187200  0.56187200  0.49604800  1
  C  C15  1  0.06582400  0.06582400  0.50395200  1
  C  C16  1  0.43782000  0.93717800  0.00000000  1
  C  C17  1  0.93717800  0.43782000  0.00000000  1
  C  C18  1  0.43782000  0.43782000  0.50064200  1
  C  C19  1  0.93717800  0.93717800  0.49935800  1
  C  C20  1  0.42366200  0.92366200  0.50000000  1
  C  C21  1  0.92366200  0.42366200  0.50000000  1
  C  C22  1  0.07512700  0.57512700  0.50000000  1
  C  C23  1  0.57512700  0.07512700  0.50000000  1
