# generated using pymatgen
data_Cu2NiC8
_symmetry_space_group_name_H-M   'P 1'
_cell_length_a   7.92306500
_cell_length_b   7.37408800
_cell_length_c   9.57433286
_cell_angle_alpha   67.84418012
_cell_angle_beta   90.00000000
_cell_angle_gamma   90.00000000
_symmetry_Int_Tables_number   1
_chemical_formula_structural   Cu2NiC8
_chemical_formula_sum   'Cu8 Ni4 C32'
_cell_volume   518.08003316
_cell_formula_units_Z   4
loop_
 _symmetry_equiv_pos_site_id
 _symmetry_equiv_pos_as_xyz
  1  'x, y, z'
loop_
 _atom_site_type_symbol
 _atom_site_label
 _atom_site_symmetry_multiplicity
 _atom_site_fract_x
 _atom_site_fract_y
 _atom_site_fract_z
 _atom_site_occupancy
  C  C0  1  0.52500800  0.71039400  0.29714800  1
  C  C1  1  0.47499200  0.28960600  0.70285200  1
  C  C2  1  0.02500800  0.28960600  0.20285200  1
  C  C3  1  0.97499200  0.71039400  0.79714800  1
  Ni  Ni4  1  0.99319900  0.74192800  0.24914900  1
  Ni  Ni5  1  0.00680100  0.25807200  0.75085100  1
  Ni  Ni6  1  0.49319900  0.25807200  0.25085100  1
  Ni  Ni7  1  0.50680100  0.74192800  0.74914900  1
  Cu  Cu8  1  0.28952600  0.67196600  0.04634100  1
  Cu  Cu9  1  0.71047400  0.32803400  0.95365900  1
  Cu  Cu10  1  0.78952600  0.32803400  0.45365900  1
  Cu  Cu11  1  0.21047400  0.67196600  0.54634100  1
  Cu  Cu12  1  0.74569800  0.92591700  0.45552600  1
  Cu  Cu13  1  0.25430200  0.07408300  0.54447400  1
  Cu  Cu14  1  0.24569800  0.07408300  0.04447400  1
  Cu  Cu15  1  0.75430200  0.92591700  0.95552600  1
  C  C16  1  0.34782100  0.87659100  0.05993300  1
  C  C17  1  0.65217900  0.12340900  0.94006700  1
  C  C18  1  0.84782100  0.12340900  0.44006700  1
  C  C19  1  0.15217900  0.87659100  0.55993300  1
  C  C20  1  0.91583100  0.46980800  0.34870900  1
  C  C21  1  0.08416900  0.53019200  0.65129100  1
  C  C22  1  0.41583100  0.53019200  0.15129100  1
  C  C23  1  0.58416900  0.46980800  0.84870900  1
  C  C24  1  0.60563700  0.36415500  0.39689100  1
  C  C25  1  0.39436300  0.63584500  0.60310900  1
  C  C26  1  0.10563700  0.63584500  0.10310900  1
  C  C27  1  0.89436300  0.36415500  0.89689100  1
  C  C28  1  0.86654000  0.81542600  0.39418000  1
  C  C29  1  0.13346000  0.18457400  0.60582000  1
  C  C30  1  0.36654000  0.18457400  0.10582000  1
  C  C31  1  0.63346000  0.81542600  0.89418000  1
  C  C32  1  0.78693200  0.80893900  0.12269400  1
  C  C33  1  0.21306800  0.19106100  0.87730600  1
  C  C34  1  0.28693200  0.19106100  0.37730600  1
  C  C35  1  0.71306800  0.80893900  0.62269400  1
  C  C36  1  0.58356500  0.98914700  0.36098800  1
  C  C37  1  0.41643500  0.01085300  0.63901200  1
  C  C38  1  0.08356500  0.01085300  0.13901200  1
  C  C39  1  0.91643500  0.98914700  0.86098800  1
  C  C40  1  0.70273000  0.30685000  0.11873700  1
  C  C41  1  0.29727000  0.69315000  0.88126300  1
  C  C42  1  0.20273000  0.69315000  0.38126300  1
  C  C43  1  0.79727000  0.30685000  0.61873700  1
