# generated using pymatgen
data_Cu2(Ni2C7)3
_symmetry_space_group_name_H-M   'P 1'
_cell_length_a   7.48085740
_cell_length_b   7.48085740
_cell_length_c   7.48085740
_cell_angle_alpha   60.00000000
_cell_angle_beta   60.00000000
_cell_angle_gamma   60.00000000
_symmetry_Int_Tables_number   1
_chemical_formula_structural   Cu2(Ni2C7)3
_chemical_formula_sum   'Cu2 Ni6 C21'
_cell_volume   296.03232217
_cell_formula_units_Z   1
loop_
 _symmetry_equiv_pos_site_id
 _symmetry_equiv_pos_as_xyz
  1  'x, y, z'
loop_
 _atom_site_type_symbol
 _atom_site_label
 _atom_site_symmetry_multiplicity
 _atom_site_fract_x
 _atom_site_fract_y
 _atom_site_fract_z
 _atom_site_occupancy
  C  C0  1  0.00000000  0.00000000  0.66391000  1
  C  C1  1  0.61559100  0.61559100  0.15322800  1
  C  C2  1  0.38440900  0.84677200  0.38440900  1
  C  C3  1  0.66391000  0.33609000  0.00000000  1
  C  C4  1  0.00000000  0.33609000  0.66391000  1
  C  C5  1  0.66391000  0.00000000  0.00000000  1
  C  C6  1  0.00000000  0.00000000  0.33609000  1
  C  C7  1  0.00000000  0.33609000  0.00000000  1
  C  C8  1  0.33609000  0.00000000  0.66391000  1
  C  C9  1  0.66391000  0.00000000  0.33609000  1
  C  C10  1  0.33609000  0.00000000  0.00000000  1
  C  C11  1  0.00000000  0.66391000  0.00000000  1
  C  C12  1  0.38440900  0.38440900  0.84677200  1
  C  C13  1  0.00000000  0.66391000  0.33609000  1
  C  C14  1  0.33609000  0.66391000  0.00000000  1
  C  C15  1  0.00000000  0.00000000  0.00000000  1
  C  C16  1  0.61559100  0.15322800  0.61559100  1
  C  C17  1  0.15322800  0.61559100  0.61559100  1
  C  C18  1  0.38440900  0.38440900  0.38440900  1
  C  C19  1  0.84677200  0.38440900  0.38440900  1
  C  C20  1  0.61559100  0.61559100  0.61559100  1
  Ni  Ni21  1  0.72845900  0.72845900  0.27154100  1
  Ni  Ni22  1  0.72845900  0.27154100  0.72845900  1
  Ni  Ni23  1  0.27154100  0.72845900  0.27154100  1
  Ni  Ni24  1  0.72845900  0.27154100  0.27154100  1
  Ni  Ni25  1  0.27154100  0.72845900  0.72845900  1
  Ni  Ni26  1  0.27154100  0.27154100  0.72845900  1
  Cu  Cu27  1  0.25000000  0.25000000  0.25000000  1
  Cu  Cu28  1  0.75000000  0.75000000  0.75000000  1
