# generated using pymatgen
data_Cu3Ni4
_symmetry_space_group_name_H-M   'P 1'
_cell_length_a   5.68193900
_cell_length_b   7.50801343
_cell_length_c   7.59781578
_cell_angle_alpha   105.12573671
_cell_angle_beta   108.89100219
_cell_angle_gamma   110.17928645
_symmetry_Int_Tables_number   1
_chemical_formula_structural   Cu3Ni4
_chemical_formula_sum   'Cu6 Ni8'
_cell_volume   261.27674518
_cell_formula_units_Z   2
loop_
 _symmetry_equiv_pos_site_id
 _symmetry_equiv_pos_as_xyz
  1  'x, y, z'
loop_
 _atom_site_type_symbol
 _atom_site_label
 _atom_site_symmetry_multiplicity
 _atom_site_fract_x
 _atom_site_fract_y
 _atom_site_fract_z
 _atom_site_occupancy
  Ni  Ni0  1  0.35393200  0.69900400  0.55460900  1
  Ni  Ni1  1  0.52265700  0.98278900  0.01815300  1
  Ni  Ni2  1  0.04869500  0.56345100  0.89938700  1
  Ni  Ni3  1  0.57564300  0.58571000  0.94239400  1
  Ni  Ni4  1  0.88213100  0.26776200  0.45663900  1
  Ni  Ni5  1  0.20912100  0.10940200  0.71443400  1
  Ni  Ni6  1  0.16166900  0.92276900  0.29046800  1
  Ni  Ni7  1  0.30365500  0.33828700  0.16554200  1
  Cu  Cu8  1  0.83037100  0.39586900  0.13119400  1
  Cu  Cu9  1  0.83975300  0.66837900  0.54503100  1
  Cu  Cu10  1  0.93990600  0.90633300  0.89049400  1
  Cu  Cu11  1  0.75123300  0.14373500  0.78327900  1
  Cu  Cu12  1  0.47117100  0.34831800  0.54914300  1
  Cu  Cu13  1  0.60983000  0.81808100  0.30917200  1
