# generated using pymatgen
data_Cu(NiC5)4
_symmetry_space_group_name_H-M   'P 1'
_cell_length_a   11.59954838
_cell_length_b   11.59954838
_cell_length_c   11.59954871
_cell_angle_alpha   27.32402445
_cell_angle_beta   27.32402445
_cell_angle_gamma   27.32402346
_symmetry_Int_Tables_number   1
_chemical_formula_structural   Cu(NiC5)4
_chemical_formula_sum   'Cu1 Ni4 C20'
_cell_volume   290.17964624
_cell_formula_units_Z   1
loop_
 _symmetry_equiv_pos_site_id
 _symmetry_equiv_pos_as_xyz
  1  'x, y, z'
loop_
 _atom_site_type_symbol
 _atom_site_label
 _atom_site_symmetry_multiplicity
 _atom_site_fract_x
 _atom_site_fract_y
 _atom_site_fract_z
 _atom_site_occupancy
  Ni  Ni0  1  0.39961700  0.39961700  0.39961700  1
  Ni  Ni1  1  0.79993600  0.79993600  0.79993600  1
  Ni  Ni2  1  0.20006400  0.20006400  0.20006400  1
  Ni  Ni3  1  0.60038300  0.60038300  0.60038300  1
  Cu  Cu4  1  0.00000000  0.00000000  0.00000000  1
  C  C5  1  0.30026400  0.30026400  0.30026400  1
  C  C6  1  0.50000000  0.50000000  0.50000000  1
  C  C7  1  0.90022100  0.90022100  0.90022100  1
  C  C8  1  0.69973600  0.69973600  0.69973600  1
  C  C9  1  0.09977900  0.09977900  0.09977900  1
  C  C10  1  0.09771000  0.60502600  0.09771000  1
  C  C11  1  0.29718000  0.80379100  0.29718000  1
  C  C12  1  0.70282000  0.19620900  0.70282000  1
  C  C13  1  0.50000000  0.00000000  0.50000000  1
  C  C14  1  0.90229000  0.39497400  0.90229000  1
  C  C15  1  0.50000000  0.50000000  0.00000000  1
  C  C16  1  0.70282000  0.70282000  0.19620900  1
  C  C17  1  0.09771000  0.09771000  0.60502600  1
  C  C18  1  0.90229000  0.90229000  0.39497400  1
  C  C19  1  0.29718000  0.29718000  0.80379100  1
  C  C20  1  0.60502600  0.09771000  0.09771000  1
  C  C21  1  0.80379100  0.29718000  0.29718000  1
  C  C22  1  0.19620900  0.70282000  0.70282000  1
  C  C23  1  0.00000000  0.50000000  0.50000000  1
  C  C24  1  0.39497400  0.90229000  0.90229000  1
