# generated using pymatgen
data_Cu2Ni3C4
_symmetry_space_group_name_H-M   'P 1'
_cell_length_a   6.22290876
_cell_length_b   6.25906418
_cell_length_c   5.23799280
_cell_angle_alpha   89.99999789
_cell_angle_beta   93.55846646
_cell_angle_gamma   120.19238292
_symmetry_Int_Tables_number   1
_chemical_formula_structural   Cu2Ni3C4
_chemical_formula_sum   'Cu4 Ni6 C8'
_cell_volume   175.88571903
_cell_formula_units_Z   2
loop_
 _symmetry_equiv_pos_site_id
 _symmetry_equiv_pos_as_xyz
  1  'x, y, z'
loop_
 _atom_site_type_symbol
 _atom_site_label
 _atom_site_symmetry_multiplicity
 _atom_site_fract_x
 _atom_site_fract_y
 _atom_site_fract_z
 _atom_site_occupancy
  Ni  Ni0  1  0.36057500  0.08612100  0.94400100  1
  Ni  Ni1  1  0.63942500  0.72554600  0.55599900  1
  Ni  Ni2  1  0.63942500  0.91387900  0.05599900  1
  Ni  Ni3  1  0.36057500  0.27445400  0.44400100  1
  Ni  Ni4  1  0.00000000  0.67304900  0.75000000  1
  Ni  Ni5  1  0.00000000  0.32695100  0.25000000  1
  Cu  Cu6  1  0.68582900  0.18612900  0.62634200  1
  Cu  Cu7  1  0.31417100  0.50030000  0.87365800  1
  Cu  Cu8  1  0.31417100  0.81387100  0.37365800  1
  Cu  Cu9  1  0.68582900  0.49970000  0.12634200  1
  C  C10  1  0.23052600  0.97587800  0.60610500  1
  C  C11  1  0.76947400  0.74535200  0.89389500  1
  C  C12  1  0.76947400  0.02412200  0.39389500  1
  C  C13  1  0.23052600  0.25464800  0.10610500  1
  C  C14  1  0.72145800  0.24747700  0.97723700  1
  C  C15  1  0.27854200  0.52601900  0.52276300  1
  C  C16  1  0.27854200  0.75252300  0.02276300  1
  C  C17  1  0.72145800  0.47398100  0.47723700  1
