# generated using pymatgen
data_Cu11Ni2C3
_symmetry_space_group_name_H-M   'P 1'
_cell_length_a   10.91168800
_cell_length_b   7.92810110
_cell_length_c   11.79466870
_cell_angle_alpha   107.79069473
_cell_angle_beta   90.00000000
_cell_angle_gamma   90.00000000
_symmetry_Int_Tables_number   1
_chemical_formula_structural   Cu11Ni2C3
_chemical_formula_sum   'Cu22 Ni4 C6'
_cell_volume   971.55071833
_cell_formula_units_Z   2
loop_
 _symmetry_equiv_pos_site_id
 _symmetry_equiv_pos_as_xyz
  1  'x, y, z'
loop_
 _atom_site_type_symbol
 _atom_site_label
 _atom_site_symmetry_multiplicity
 _atom_site_fract_x
 _atom_site_fract_y
 _atom_site_fract_z
 _atom_site_occupancy
  C  C0  1  0.49457400  0.99148000  0.21280100  1
  C  C1  1  0.99457400  0.00852000  0.78719900  1
  C  C2  1  0.50542600  0.00852000  0.78719900  1
  C  C3  1  0.00542600  0.99148000  0.21280100  1
  C  C4  1  0.25000000  0.30713100  0.14859200  1
  C  C5  1  0.75000000  0.69286900  0.85140800  1
  Ni  Ni6  1  0.60443600  0.83699100  0.85853700  1
  Ni  Ni7  1  0.10443600  0.16300900  0.14146300  1
  Ni  Ni8  1  0.39556400  0.16300900  0.14146300  1
  Ni  Ni9  1  0.89556400  0.83699100  0.85853700  1
  Cu  Cu10  1  0.51046600  0.16026600  0.10662600  1
  Cu  Cu11  1  0.01046600  0.83973400  0.89337400  1
  Cu  Cu12  1  0.48953400  0.83973400  0.89337400  1
  Cu  Cu13  1  0.98953400  0.16026600  0.10662600  1
  Cu  Cu14  1  0.25000000  0.42379500  0.32484900  1
  Cu  Cu15  1  0.75000000  0.57620500  0.67515100  1
  Cu  Cu16  1  0.25000000  0.43828400  0.05898700  1
  Cu  Cu17  1  0.75000000  0.56171600  0.94101300  1
  Cu  Cu18  1  0.48831900  0.76416400  0.14612800  1
  Cu  Cu19  1  0.98831900  0.23583600  0.85387200  1
  Cu  Cu20  1  0.51168100  0.23583600  0.85387200  1
  Cu  Cu21  1  0.01168100  0.76416400  0.14612800  1
  Cu  Cu22  1  0.53419800  0.07131200  0.36315000  1
  Cu  Cu23  1  0.03419800  0.92868800  0.63685000  1
  Cu  Cu24  1  0.46580200  0.92868800  0.63685000  1
  Cu  Cu25  1  0.96580200  0.07131200  0.36315000  1
  Cu  Cu26  1  0.49522400  0.75188600  0.43256700  1
  Cu  Cu27  1  0.99522400  0.24811400  0.56743300  1
  Cu  Cu28  1  0.50477600  0.24811400  0.56743300  1
  Cu  Cu29  1  0.00477600  0.75188600  0.43256700  1
  Cu  Cu30  1  0.25000000  0.56663000  0.41040300  1
  Cu  Cu31  1  0.75000000  0.43337000  0.58959700  1
