# generated using pymatgen
data_Cu3NiC6
_symmetry_space_group_name_H-M   'P 1'
_cell_length_a   11.54025447
_cell_length_b   9.39410553
_cell_length_c   30.17617741
_cell_angle_alpha   90.00000000
_cell_angle_beta   90.00000000
_cell_angle_gamma   127.89587951
_symmetry_Int_Tables_number   1
_chemical_formula_structural   Cu3NiC6
_chemical_formula_sum   'Cu3 Ni1 C6'
_cell_volume   2581.56248151
_cell_formula_units_Z   1
loop_
 _symmetry_equiv_pos_site_id
 _symmetry_equiv_pos_as_xyz
  1  'x, y, z'
loop_
 _atom_site_type_symbol
 _atom_site_label
 _atom_site_symmetry_multiplicity
 _atom_site_fract_x
 _atom_site_fract_y
 _atom_site_fract_z
 _atom_site_occupancy
  Ni  Ni0  1  0.00000000  -0.00000000  -0.00000000  1
  Cu  Cu1  1  0.00000000  -0.00000000  0.50000000  1
  Cu  Cu2  1  0.50000000  0.50000000  -0.00000000  1
  Cu  Cu3  1  0.00000000  0.50000000  -0.00000000  1
  C  C4  1  0.00000000  -0.00000000  0.76940429  1
  C  C5  1  0.00000000  -0.00000000  0.23059571  1
  C  C6  1  0.70324166  0.73905101  -0.00000000  1
  C  C7  1  0.29675834  0.26094899  -0.00000000  1
  C  C8  1  0.96419065  0.26094899  -0.00000000  1
  C  C9  1  0.03580935  0.73905101  -0.00000000  1
