# generated using pymatgen
data_Cu5NiC14
_symmetry_space_group_name_H-M   'P 1'
_cell_length_a   8.85829500
_cell_length_b   9.25450400
_cell_length_c   13.08321300
_cell_angle_alpha   90.00000000
_cell_angle_beta   90.00000000
_cell_angle_gamma   90.00000000
_symmetry_Int_Tables_number   1
_chemical_formula_structural   Cu5NiC14
_chemical_formula_sum   'Cu20 Ni4 C56'
_cell_volume   1072.55037369
_cell_formula_units_Z   4
loop_
 _symmetry_equiv_pos_site_id
 _symmetry_equiv_pos_as_xyz
  1  'x, y, z'
loop_
 _atom_site_type_symbol
 _atom_site_label
 _atom_site_symmetry_multiplicity
 _atom_site_fract_x
 _atom_site_fract_y
 _atom_site_fract_z
 _atom_site_occupancy
  Ni  Ni0  1  0.47521000  0.06501400  0.75000000  1
  Ni  Ni1  1  0.52479000  0.93498600  0.25000000  1
  Ni  Ni2  1  0.02479000  0.56501400  0.25000000  1
  Ni  Ni3  1  0.97521000  0.43498600  0.75000000  1
  Cu  Cu4  1  0.06706900  0.00535800  0.75000000  1
  Cu  Cu5  1  0.93293100  0.99464200  0.25000000  1
  Cu  Cu6  1  0.43293100  0.50535800  0.25000000  1
  Cu  Cu7  1  0.56706900  0.49464200  0.75000000  1
  Cu  Cu8  1  0.24468700  0.27283000  0.56330900  1
  Cu  Cu9  1  0.75531300  0.72717000  0.43669100  1
  Cu  Cu10  1  0.25531300  0.77283000  0.43669100  1
  Cu  Cu11  1  0.75531300  0.72717000  0.06330900  1
  Cu  Cu12  1  0.74468700  0.22717000  0.56330900  1
  Cu  Cu13  1  0.24468700  0.27283000  0.93669100  1
  Cu  Cu14  1  0.74468700  0.22717000  0.93669100  1
  Cu  Cu15  1  0.25531300  0.77283000  0.06330900  1
  Cu  Cu16  1  0.00569500  0.79753700  0.58418100  1
  Cu  Cu17  1  0.99430500  0.20246300  0.41581900  1
  Cu  Cu18  1  0.49430500  0.29753700  0.41581900  1
  Cu  Cu19  1  0.99430500  0.20246300  0.08418100  1
  Cu  Cu20  1  0.50569500  0.70246300  0.58418100  1
  Cu  Cu21  1  0.00569500  0.79753700  0.91581900  1
  Cu  Cu22  1  0.50569500  0.70246300  0.91581900  1
  Cu  Cu23  1  0.49430500  0.29753700  0.08418100  1
  C  C24  1  0.34065800  0.34378400  0.03047700  1
  C  C25  1  0.65934200  0.65621600  0.96952300  1
  C  C26  1  0.15934200  0.84378400  0.96952300  1
  C  C27  1  0.65934200  0.65621600  0.53047700  1
  C  C28  1  0.84065800  0.15621600  0.03047700  1
  C  C29  1  0.34065800  0.34378400  0.46952300  1
  C  C30  1  0.84065800  0.15621600  0.46952300  1
  C  C31  1  0.15934200  0.84378400  0.53047700  1
  C  C32  1  0.99469600  0.34423900  0.13525100  1
  C  C33  1  0.00530400  0.65576100  0.86474900  1
  C  C34  1  0.50530400  0.84423900  0.86474900  1
  C  C35  1  0.00530400  0.65576100  0.63525100  1
  C  C36  1  0.49469600  0.15576100  0.13525100  1
  C  C37  1  0.99469600  0.34423900  0.36474900  1
  C  C38  1  0.49469600  0.15576100  0.36474900  1
  C  C39  1  0.50530400  0.84423900  0.63525100  1
  C  C40  1  0.72490900  0.55278900  0.75000000  1
  C  C41  1  0.27509100  0.44721100  0.25000000  1
  C  C42  1  0.77509100  0.05278900  0.25000000  1
  C  C43  1  0.22490900  0.94721100  0.75000000  1
  C  C44  1  0.17366200  0.39346700  0.62077600  1
  C  C45  1  0.82633800  0.60653300  0.37922400  1
  C  C46  1  0.32633800  0.89346700  0.37922400  1
  C  C47  1  0.82633800  0.60653300  0.12077600  1
  C  C48  1  0.67366200  0.10653300  0.62077600  1
  C  C49  1  0.17366200  0.39346700  0.87922400  1
  C  C50  1  0.67366200  0.10653300  0.87922400  1
  C  C51  1  0.32633800  0.89346700  0.12077600  1
  C  C52  1  0.03092500  0.16187100  0.75000000  1
  C  C53  1  0.96907500  0.83812900  0.25000000  1
  C  C54  1  0.46907500  0.66187100  0.25000000  1
  C  C55  1  0.53092500  0.33812900  0.75000000  1
  C  C56  1  0.11865400  0.17938900  0.50079900  1
  C  C57  1  0.88134600  0.82061100  0.49920100  1
  C  C58  1  0.38134600  0.67938900  0.49920100  1
  C  C59  1  0.88134600  0.82061100  0.00079900  1
  C  C60  1  0.61865400  0.32061100  0.50079900  1
  C  C61  1  0.11865400  0.17938900  0.99920100  1
  C  C62  1  0.61865400  0.32061100  0.99920100  1
  C  C63  1  0.38134600  0.67938900  0.00079900  1
  C  C64  1  0.34205000  0.16142400  0.61315200  1
  C  C65  1  0.65795000  0.83857600  0.38684800  1
  C  C66  1  0.15795000  0.66142400  0.38684800  1
  C  C67  1  0.65795000  0.83857600  0.11315200  1
  C  C68  1  0.84205000  0.33857600  0.61315200  1
  C  C69  1  0.34205000  0.16142400  0.88684800  1
  C  C70  1  0.84205000  0.33857600  0.88684800  1
  C  C71  1  0.15795000  0.66142400  0.11315200  1
  C  C72  1  0.02646300  0.06685200  0.15442500  1
  C  C73  1  0.97353700  0.93314800  0.84557500  1
  C  C74  1  0.47353700  0.56685200  0.84557500  1
  C  C75  1  0.97353700  0.93314800  0.65442500  1
  C  C76  1  0.52646300  0.43314800  0.15442500  1
  C  C77  1  0.02646300  0.06685200  0.34557500  1
  C  C78  1  0.52646300  0.43314800  0.34557500  1
  C  C79  1  0.47353700  0.56685200  0.65442500  1
