# generated using pymatgen
data_Cu6Ni3C2
_symmetry_space_group_name_H-M   'P 1'
_cell_length_a   10.12649411
_cell_length_b   5.33268218
_cell_length_c   28.91360391
_cell_angle_alpha   89.99999678
_cell_angle_beta   162.16345221
_cell_angle_gamma   74.73383476
_symmetry_Int_Tables_number   1
_chemical_formula_structural   Cu6Ni3C2
_chemical_formula_sum   'Cu12 Ni6 C4'
_cell_volume   244.35664678
_cell_formula_units_Z   2
loop_
 _symmetry_equiv_pos_site_id
 _symmetry_equiv_pos_as_xyz
  1  'x, y, z'
loop_
 _atom_site_type_symbol
 _atom_site_label
 _atom_site_symmetry_multiplicity
 _atom_site_fract_x
 _atom_site_fract_y
 _atom_site_fract_z
 _atom_site_occupancy
  C  C0  1  0.95885600  0.00072000  0.15234200  1
  C  C1  1  0.95885600  0.04042500  0.65234200  1
  C  C2  1  0.04115300  0.99928200  0.84767900  1
  C  C3  1  0.04115300  0.95956600  0.34767900  1
  Ni  Ni4  1  0.99361800  0.66843300  0.07693100  1
  Ni  Ni5  1  0.99998900  0.68484200  0.75000600  1
  Ni  Ni6  1  0.00638500  0.66205200  0.42308700  1
  Ni  Ni7  1  0.99361800  0.33795000  0.57693100  1
  Ni  Ni8  1  0.00638500  0.33156400  0.92308700  1
  Ni  Ni9  1  0.99998900  0.31516900  0.25000600  1
  Cu  Cu10  1  0.89314300  0.74346500  0.08519300  1
  Cu  Cu11  1  0.10919900  0.63321100  0.82886600  1
  Cu  Cu12  1  0.96675200  0.64550900  0.45214000  1
  Cu  Cu13  1  0.89314300  0.36339100  0.58519300  1
  Cu  Cu14  1  0.96675200  0.38773900  0.95214000  1
  Cu  Cu15  1  0.10919900  0.25759100  0.32886600  1
  Cu  Cu16  1  0.10685000  0.25653400  0.91482300  1
  Cu  Cu17  1  0.89078300  0.36680600  0.17114600  1
  Cu  Cu18  1  0.03327100  0.35448400  0.54788600  1
  Cu  Cu19  1  0.10685000  0.63661600  0.41482300  1
  Cu  Cu20  1  0.03327100  0.61224400  0.04788600  1
  Cu  Cu21  1  0.89078300  0.74241100  0.67114600  1
