# generated using pymatgen
data_Cu2NiC4
_symmetry_space_group_name_H-M   'P 1'
_cell_length_a   5.83532173
_cell_length_b   5.83532173
_cell_length_c   19.44126559
_cell_angle_alpha   80.40051171
_cell_angle_beta   80.40051171
_cell_angle_gamma   60.45523850
_symmetry_Int_Tables_number   1
_chemical_formula_structural   Cu2NiC4
_chemical_formula_sum   'Cu16 Ni8 C32'
_cell_volume   565.08737174
_cell_formula_units_Z   8
loop_
 _symmetry_equiv_pos_site_id
 _symmetry_equiv_pos_as_xyz
  1  'x, y, z'
loop_
 _atom_site_type_symbol
 _atom_site_label
 _atom_site_symmetry_multiplicity
 _atom_site_fract_x
 _atom_site_fract_y
 _atom_site_fract_z
 _atom_site_occupancy
  Ni  Ni0  1  0.64766700  0.64766700  0.02705300  1
  Ni  Ni1  1  0.12536000  0.12536000  0.12519900  1
  Ni  Ni2  1  0.89542600  0.89542600  0.28211600  1
  Ni  Ni3  1  0.37357900  0.37357900  0.37506900  1
  Ni  Ni4  1  0.62503900  0.62503900  0.62531100  1
  Ni  Ni5  1  0.50044800  0.50044800  0.49915800  1
  Ni  Ni6  1  0.87703400  0.87703400  0.87488500  1
  Ni  Ni7  1  0.74832800  0.74832800  0.75007100  1
  Cu  Cu8  1  0.62755100  0.12365900  0.12482600  1
  Cu  Cu9  1  0.25019500  0.25019500  0.25058600  1
  Cu  Cu10  1  0.12365900  0.62755100  0.12482600  1
  Cu  Cu11  1  0.14963900  0.14963900  0.53448400  1
  Cu  Cu12  1  0.87631900  0.36982700  0.37448100  1
  Cu  Cu13  1  0.60122600  0.60122600  0.21971000  1
  Cu  Cu14  1  0.39875300  0.39875300  0.78166300  1
  Cu  Cu15  1  0.36982700  0.87631900  0.37448100  1
  Cu  Cu16  1  0.12343500  0.62582000  0.62548300  1
  Cu  Cu17  1  0.84940600  0.84940600  0.46710000  1
  Cu  Cu18  1  0.62582000  0.12343500  0.62548300  1
  Cu  Cu19  1  0.87875600  0.37395900  0.87467200  1
  Cu  Cu20  1  0.37395900  0.87875600  0.87467200  1
  Cu  Cu21  1  0.10203700  0.10203700  0.71605300  1
  Cu  Cu22  1  0.99886700  0.99886700  0.00174600  1
  Cu  Cu23  1  0.35255400  0.35255400  0.96915500  1
  C  C24  1  0.26816500  0.82342300  0.06296300  1
  C  C25  1  0.93113100  0.93113100  0.17760000  1
  C  C26  1  0.82342300  0.26816500  0.06296300  1
  C  C27  1  0.82309200  0.82309200  0.06010600  1
  C  C28  1  0.43719800  0.43719800  0.18567600  1
  C  C29  1  0.51597300  0.07070300  0.31427100  1
  C  C30  1  0.43303500  0.97482400  0.18682400  1
  C  C31  1  0.18090400  0.18090400  0.43491800  1
  C  C32  1  0.07070300  0.51597300  0.31427100  1
  C  C33  1  0.31969600  0.31969600  0.07287500  1
  C  C34  1  0.06825600  0.06825600  0.31803700  1
  C  C35  1  0.97482400  0.43303500  0.18682400  1
  C  C36  1  0.78788200  0.30996900  0.56680000  1
  C  C37  1  0.68545400  0.68545400  0.42937400  1
  C  C38  1  0.68824400  0.21434300  0.43156600  1
  C  C39  1  0.43266300  0.43266300  0.68287900  1
  C  C40  1  0.30996900  0.78788200  0.56680000  1
  C  C41  1  0.56815300  0.56815300  0.31877200  1
  C  C42  1  0.31481300  0.31481300  0.56735300  1
  C  C43  1  0.21434300  0.68824400  0.43156600  1
  C  C44  1  0.93119000  0.93119000  0.68087700  1
  C  C45  1  0.04339600  0.56209200  0.81671800  1
  C  C46  1  0.93892500  0.46747400  0.68261300  1
  C  C47  1  0.68201200  0.68201200  0.92446500  1
  C  C48  1  0.56209200  0.04339600  0.81671800  1
  C  C49  1  0.82006400  0.82006400  0.56716100  1
  C  C50  1  0.55794500  0.55794500  0.81339900  1
  C  C51  1  0.46747400  0.93892500  0.68261300  1
  C  C52  1  0.17088700  0.17088700  0.94469600  1
  C  C53  1  0.17879400  0.73264200  0.93904000  1
  C  C54  1  0.07172100  0.07172100  0.82193200  1
  C  C55  1  0.73264200  0.17879400  0.93904000  1
