# generated using pymatgen
data_Cu(Ni3C10)2
_symmetry_space_group_name_H-M   'P 1'
_cell_length_a   9.87871959
_cell_length_b   9.87871959
_cell_length_c   18.76453300
_cell_angle_alpha   90.00000000
_cell_angle_beta   90.00000000
_cell_angle_gamma   119.99999723
_symmetry_Int_Tables_number   1
_chemical_formula_structural   Cu(Ni3C10)2
_chemical_formula_sum   'Cu2 Ni12 C40'
_cell_volume   1585.87780147
_cell_formula_units_Z   2
loop_
 _symmetry_equiv_pos_site_id
 _symmetry_equiv_pos_as_xyz
  1  'x, y, z'
loop_
 _atom_site_type_symbol
 _atom_site_label
 _atom_site_symmetry_multiplicity
 _atom_site_fract_x
 _atom_site_fract_y
 _atom_site_fract_z
 _atom_site_occupancy
  C  C0  1  0.33333300  0.66666700  0.75000000  1
  C  C1  1  0.66666700  0.33333300  0.25000000  1
  C  C2  1  0.66666700  0.33333300  0.75000000  1
  C  C3  1  0.33333300  0.66666700  0.25000000  1
  Ni  Ni4  1  0.82206100  0.04057800  0.57470300  1
  Ni  Ni5  1  0.17793900  0.95942200  0.42529700  1
  Ni  Ni6  1  0.95942200  0.78148300  0.57470300  1
  Ni  Ni7  1  0.82206100  0.78148300  0.92529700  1
  Ni  Ni8  1  0.04057800  0.21851700  0.42529700  1
  Ni  Ni9  1  0.17793900  0.21851700  0.07470300  1
  Ni  Ni10  1  0.21851700  0.17793900  0.57470300  1
  Ni  Ni11  1  0.95942200  0.17793900  0.92529700  1
  Ni  Ni12  1  0.78148300  0.82206100  0.42529700  1
  Ni  Ni13  1  0.04057800  0.82206100  0.07470300  1
  Ni  Ni14  1  0.21851700  0.04057800  0.92529700  1
  Ni  Ni15  1  0.78148300  0.95942200  0.07470300  1
  Cu  Cu16  1  0.00000000  0.00000000  0.50000000  1
  Cu  Cu17  1  0.00000000  0.00000000  0.00000000  1
  C  C18  1  0.27069000  0.41734000  0.50081000  1
  C  C19  1  0.72931000  0.58266000  0.49919000  1
  C  C20  1  0.58266000  0.85335000  0.50081000  1
  C  C21  1  0.27069000  0.85335000  0.99919000  1
  C  C22  1  0.41734000  0.14665000  0.49919000  1
  C  C23  1  0.72931000  0.14665000  0.00081000  1
  C  C24  1  0.14665000  0.72931000  0.50081000  1
  C  C25  1  0.58266000  0.72931000  0.99919000  1
  C  C26  1  0.85335000  0.27069000  0.49919000  1
  C  C27  1  0.41734000  0.27069000  0.00081000  1
  C  C28  1  0.14665000  0.41734000  0.99919000  1
  C  C29  1  0.85335000  0.58266000  0.00081000  1
  C  C30  1  0.04241200  0.23055600  0.65798600  1
  C  C31  1  0.95758800  0.76944400  0.34201400  1
  C  C32  1  0.76944400  0.81185600  0.65798600  1
  C  C33  1  0.04241200  0.81185600  0.84201400  1
  C  C34  1  0.23055600  0.18814400  0.34201400  1
  C  C35  1  0.95758800  0.18814400  0.15798600  1
  C  C36  1  0.18814400  0.95758800  0.65798600  1
  C  C37  1  0.76944400  0.95758800  0.84201400  1
  C  C38  1  0.81185600  0.04241200  0.34201400  1
  C  C39  1  0.23055600  0.04241200  0.15798600  1
  C  C40  1  0.18814400  0.23055600  0.84201400  1
  C  C41  1  0.81185600  0.76944400  0.15798600  1
  C  C42  1  0.62120100  0.07840100  0.66282600  1
  C  C43  1  0.37879900  0.92159900  0.33717400  1
  C  C44  1  0.92159900  0.54280000  0.66282600  1
  C  C45  1  0.62120100  0.54280000  0.83717400  1
  C  C46  1  0.07840100  0.45720000  0.33717400  1
  C  C47  1  0.37879900  0.45720000  0.16282600  1
  C  C48  1  0.45720000  0.37879900  0.66282600  1
  C  C49  1  0.92159900  0.37879900  0.83717400  1
  C  C50  1  0.54280000  0.62120100  0.33717400  1
  C  C51  1  0.07840100  0.62120100  0.16282600  1
  C  C52  1  0.45720000  0.07840100  0.83717400  1
  C  C53  1  0.54280000  0.92159900  0.16282600  1
