# generated using pymatgen
data_Cu12Ni2C11
_symmetry_space_group_name_H-M   'P 1'
_cell_length_a   8.06651825
_cell_length_b   8.06651825
_cell_length_c   9.80504240
_cell_angle_alpha   94.71453130
_cell_angle_beta   94.71453130
_cell_angle_gamma   85.47097359
_symmetry_Int_Tables_number   1
_chemical_formula_structural   Cu12Ni2C11
_chemical_formula_sum   'Cu24 Ni4 C22'
_cell_volume   632.01473323
_cell_formula_units_Z   2
loop_
 _symmetry_equiv_pos_site_id
 _symmetry_equiv_pos_as_xyz
  1  'x, y, z'
loop_
 _atom_site_type_symbol
 _atom_site_label
 _atom_site_symmetry_multiplicity
 _atom_site_fract_x
 _atom_site_fract_y
 _atom_site_fract_z
 _atom_site_occupancy
  C  C0  1  0.09948800  0.54023400  0.29577900  1
  C  C1  1  0.53340300  0.11687000  0.29432500  1
  C  C2  1  0.88313000  0.46659700  0.70567500  1
  C  C3  1  0.45976600  0.90051200  0.70422100  1
  C  C4  1  0.00354100  0.99645900  0.00000000  1
  C  C5  1  0.50411200  0.49588800  0.00000000  1
  C  C6  1  0.19076300  0.69397000  0.95116400  1
  C  C7  1  0.71736600  0.19275400  0.93364500  1
  C  C8  1  0.80724600  0.28263400  0.06635500  1
  C  C9  1  0.30603000  0.80923700  0.04883600  1
  C  C10  1  0.14195200  0.68792700  0.63226800  1
  C  C11  1  0.69658300  0.14166300  0.63060600  1
  C  C12  1  0.85833700  0.30341700  0.36939400  1
  C  C13  1  0.31207300  0.85804800  0.36773200  1
  C  C14  1  0.93960500  0.93115300  0.25600900  1
  C  C15  1  0.06884700  0.06039500  0.74399100  1
  C  C16  1  0.95307200  0.91158600  0.71903800  1
  C  C17  1  0.08841400  0.04692800  0.28096200  1
  C  C18  1  0.28377600  0.54185100  0.63062700  1
  C  C19  1  0.54325800  0.27308800  0.63046400  1
  C  C20  1  0.72691200  0.45674200  0.36953600  1
  C  C21  1  0.45814900  0.71622400  0.36937300  1
  Ni  Ni22  1  0.78716500  0.78980000  0.47626000  1
  Ni  Ni23  1  0.21020000  0.21283500  0.52374000  1
  Ni  Ni24  1  0.29608300  0.30229700  0.00787900  1
  Ni  Ni25  1  0.69770300  0.70391700  0.99212100  1
  Cu  Cu26  1  0.24872000  0.64917500  0.67931100  1
  Cu  Cu27  1  0.64893000  0.24026800  0.68395600  1
  Cu  Cu28  1  0.75973200  0.35107000  0.31604400  1
  Cu  Cu29  1  0.35082500  0.75128000  0.32068900  1
  Cu  Cu30  1  0.82508600  0.82047300  0.98722700  1
  Cu  Cu31  1  0.17952700  0.17491400  0.01277300  1
  Cu  Cu32  1  0.35272300  0.37837600  0.14870700  1
  Cu  Cu33  1  0.62162400  0.64727700  0.85129300  1
  Cu  Cu34  1  0.19518500  0.80481500  0.00000000  1
  Cu  Cu35  1  0.81448600  0.18551400  0.00000000  1
  Cu  Cu36  1  0.98816400  0.00027000  0.78971600  1
  Cu  Cu37  1  0.99973000  0.01183600  0.21028400  1
  Cu  Cu38  1  0.23041500  0.44788200  0.92794400  1
  Cu  Cu39  1  0.45668800  0.23812500  0.94668500  1
  Cu  Cu40  1  0.76187500  0.54331200  0.05331500  1
  Cu  Cu41  1  0.55211800  0.76958500  0.07205600  1
  Cu  Cu42  1  0.34706700  0.32882600  0.52800600  1
  Cu  Cu43  1  0.67117400  0.65293300  0.47199400  1
  Cu  Cu44  1  0.86137200  0.78823400  0.34234100  1
  Cu  Cu45  1  0.21176600  0.13862800  0.65765900  1
  Cu  Cu46  1  0.92335800  0.76041600  0.58853800  1
  Cu  Cu47  1  0.69252700  0.95244800  0.50887800  1
  Cu  Cu48  1  0.04755200  0.30747300  0.49112200  1
  Cu  Cu49  1  0.23958400  0.07664200  0.41146200  1
