# generated using pymatgen
data_CuNi6C
_symmetry_space_group_name_H-M   'P 1'
_cell_length_a   6.94226000
_cell_length_b   9.98565900
_cell_length_c   6.96760700
_cell_angle_alpha   90.00000000
_cell_angle_beta   90.00000000
_cell_angle_gamma   90.00000000
_symmetry_Int_Tables_number   1
_chemical_formula_structural   CuNi6C
_chemical_formula_sum   'Cu4 Ni24 C4'
_cell_volume   483.01570608
_cell_formula_units_Z   4
loop_
 _symmetry_equiv_pos_site_id
 _symmetry_equiv_pos_as_xyz
  1  'x, y, z'
loop_
 _atom_site_type_symbol
 _atom_site_label
 _atom_site_symmetry_multiplicity
 _atom_site_fract_x
 _atom_site_fract_y
 _atom_site_fract_z
 _atom_site_occupancy
  C  C0  1  0.60319700  0.75000000  0.32409100  1
  C  C1  1  0.89680300  0.75000000  0.82409100  1
  C  C2  1  0.39680300  0.25000000  0.67590900  1
  C  C3  1  0.10319700  0.25000000  0.17590900  1
  Ni  Ni4  1  0.16222800  0.75000000  0.39576400  1
  Ni  Ni5  1  0.33777200  0.75000000  0.89576400  1
  Ni  Ni6  1  0.83777200  0.25000000  0.60423600  1
  Ni  Ni7  1  0.66222800  0.25000000  0.10423600  1
  Ni  Ni8  1  0.28543500  0.86328900  0.36674300  1
  Ni  Ni9  1  0.21456500  0.63671100  0.86674300  1
  Ni  Ni10  1  0.71456500  0.36328900  0.63325700  1
  Ni  Ni11  1  0.78543500  0.13671100  0.13325700  1
  Ni  Ni12  1  0.71456500  0.13671100  0.63325700  1
  Ni  Ni13  1  0.78543500  0.36328900  0.13325700  1
  Ni  Ni14  1  0.28543500  0.63671100  0.36674300  1
  Ni  Ni15  1  0.21456500  0.86328900  0.86674300  1
  Ni  Ni16  1  0.82380400  0.75000000  0.52601500  1
  Ni  Ni17  1  0.67619600  0.75000000  0.02601500  1
  Ni  Ni18  1  0.17619600  0.25000000  0.47398500  1
  Ni  Ni19  1  0.32380400  0.25000000  0.97398500  1
  Ni  Ni20  1  0.44554100  0.91619400  0.33727400  1
  Ni  Ni21  1  0.05445900  0.58380600  0.83727400  1
  Ni  Ni22  1  0.55445900  0.41619400  0.66272600  1
  Ni  Ni23  1  0.94554100  0.08380600  0.16272600  1
  Ni  Ni24  1  0.55445900  0.08380600  0.66272600  1
  Ni  Ni25  1  0.94554100  0.41619400  0.16272600  1
  Ni  Ni26  1  0.44554100  0.58380600  0.33727400  1
  Ni  Ni27  1  0.05445900  0.91619400  0.83727400  1
  Cu  Cu28  1  0.98584200  0.75000000  0.45168400  1
  Cu  Cu29  1  0.51415800  0.75000000  0.95168400  1
  Cu  Cu30  1  0.01415800  0.25000000  0.54831600  1
  Cu  Cu31  1  0.48584200  0.25000000  0.04831600  1
