# generated using pymatgen
data_Cu2NiC18
_symmetry_space_group_name_H-M   'P 1'
_cell_length_a   5.46253423
_cell_length_b   8.63788521
_cell_length_c   13.21954205
_cell_angle_alpha   97.48488953
_cell_angle_beta   78.07633634
_cell_angle_gamma   71.56695314
_symmetry_Int_Tables_number   1
_chemical_formula_structural   Cu2NiC18
_chemical_formula_sum   'Cu4 Ni2 C36'
_cell_volume   565.98987671
_cell_formula_units_Z   2
loop_
 _symmetry_equiv_pos_site_id
 _symmetry_equiv_pos_as_xyz
  1  'x, y, z'
loop_
 _atom_site_type_symbol
 _atom_site_label
 _atom_site_symmetry_multiplicity
 _atom_site_fract_x
 _atom_site_fract_y
 _atom_site_fract_z
 _atom_site_occupancy
  C  C0  1  0.73086500  0.64589800  0.39237200  1
  C  C1  1  0.41271300  0.28236100  0.39221400  1
  C  C2  1  0.07382400  0.96307100  0.38928200  1
  C  C3  1  0.10194300  0.68646000  0.60965400  1
  C  C4  1  0.75204600  0.38605800  0.60985000  1
  C  C5  1  0.42739500  0.03670400  0.60850500  1
  Ni  Ni6  1  0.56578700  0.46491400  0.90351000  1
  Ni  Ni7  1  0.89642600  0.80354000  0.90360900  1
  Cu  Cu8  1  0.26554000  0.86891800  0.10000200  1
  Cu  Cu9  1  0.60205200  0.19748100  0.09841400  1
  Cu  Cu10  1  0.93386900  0.53289000  0.09937400  1
  Cu  Cu11  1  0.23159800  0.13458900  0.90221500  1
  C  C12  1  0.99348200  0.25352600  0.25951000  1
  C  C13  1  0.32735600  0.58615000  0.25913700  1
  C  C14  1  0.84176100  0.07872400  0.73775400  1
  C  C15  1  0.66727400  0.91624400  0.24920900  1
  C  C16  1  0.16630900  0.41597600  0.75140700  1
  C  C17  1  0.49817400  0.75217200  0.75148000  1
  C  C18  1  0.22587200  0.63908300  0.40917400  1
  C  C19  1  0.89492200  0.30062400  0.40953300  1
  C  C20  1  0.55693600  0.97139600  0.41473100  1
  C  C21  1  0.61208000  0.69325800  0.58258000  1
  C  C22  1  0.27781400  0.36204000  0.58233200  1
  C  C23  1  0.94078900  0.02972300  0.58870000  1
  C  C24  1  0.83049400  0.33493800  0.99961500  1
  C  C25  1  0.50345800  0.99798100  0.99920800  1
  C  C26  1  0.16733000  0.66649200  0.99936900  1
  C  C27  1  0.66681000  0.66649200  0.99936900  1
  C  C28  1  0.33495300  0.33493800  0.99961500  1
  C  C29  1  0.99935300  0.99798100  0.99920800  1
  C  C30  1  0.68449800  0.40789100  0.22351800  1
  C  C31  1  0.34554400  0.07723900  0.22524300  1
  C  C32  1  0.02074300  0.73923200  0.22498300  1
  C  C33  1  0.14638200  0.92761800  0.77544300  1
  C  C34  1  0.81667200  0.59165600  0.77453000  1
  C  C35  1  0.48642900  0.25605200  0.77581600  1
  C  C36  1  0.31714200  0.59165600  0.77453000  1
  C  C37  1  0.98170400  0.25605200  0.77581600  1
  C  C38  1  0.65055600  0.92761800  0.77544300  1
  C  C39  1  0.51504000  0.73923200  0.22498300  1
  C  C40  1  0.18409200  0.40789100  0.22351800  1
  C  C41  1  0.85197500  0.07723900  0.22524300  1
