# generated using pymatgen
data_Cu5Ni3C4
_symmetry_space_group_name_H-M   'P 1'
_cell_length_a   6.20840400
_cell_length_b   6.55870700
_cell_length_c   7.03727900
_cell_angle_alpha   90.00000000
_cell_angle_beta   90.00000000
_cell_angle_gamma   90.00000000
_symmetry_Int_Tables_number   1
_chemical_formula_structural   Cu5Ni3C4
_chemical_formula_sum   'Cu10 Ni6 C8'
_cell_volume   286.55168685
_cell_formula_units_Z   2
loop_
 _symmetry_equiv_pos_site_id
 _symmetry_equiv_pos_as_xyz
  1  'x, y, z'
loop_
 _atom_site_type_symbol
 _atom_site_label
 _atom_site_symmetry_multiplicity
 _atom_site_fract_x
 _atom_site_fract_y
 _atom_site_fract_z
 _atom_site_occupancy
  C  C0  1  0.00000000  0.72313600  0.00000000  1
  C  C1  1  0.50000000  0.76261500  0.00000000  1
  C  C2  1  0.73173600  0.26223900  0.00000000  1
  C  C3  1  0.26826400  0.26223900  0.00000000  1
  C  C4  1  0.76826400  0.73776100  0.50000000  1
  C  C5  1  0.23173600  0.73776100  0.50000000  1
  C  C6  1  0.50000000  0.27686400  0.50000000  1
  C  C7  1  0.00000000  0.23738500  0.50000000  1
  Ni  Ni8  1  0.50000000  0.06522300  0.00000000  1
  Ni  Ni9  1  0.00000000  0.93477700  0.50000000  1
  Ni  Ni10  1  0.00000000  0.43574800  0.00000000  1
  Ni  Ni11  1  0.50000000  0.45686500  0.00000000  1
  Ni  Ni12  1  0.00000000  0.54313500  0.50000000  1
  Ni  Ni13  1  0.50000000  0.56425200  0.50000000  1
  Cu  Cu14  1  0.23103000  0.75469300  0.80150100  1
  Cu  Cu15  1  0.76897000  0.75469300  0.80150100  1
  Cu  Cu16  1  0.00000000  0.04232800  0.00000000  1
  Cu  Cu17  1  0.50000000  0.95767200  0.50000000  1
  Cu  Cu18  1  0.76897000  0.75469300  0.19849900  1
  Cu  Cu19  1  0.23103000  0.75469300  0.19849900  1
  Cu  Cu20  1  0.26897000  0.24530700  0.69849900  1
  Cu  Cu21  1  0.73103000  0.24530700  0.69849900  1
  Cu  Cu22  1  0.26897000  0.24530700  0.30150100  1
  Cu  Cu23  1  0.73103000  0.24530700  0.30150100  1
