# generated using pymatgen
data_Cu7(NiC2)4
_symmetry_space_group_name_H-M   'P 1'
_cell_length_a   4.85997200
_cell_length_b   13.23112700
_cell_length_c   15.91697200
_cell_angle_alpha   90.00000000
_cell_angle_beta   90.00000000
_cell_angle_gamma   90.00000000
_symmetry_Int_Tables_number   1
_chemical_formula_structural   Cu7(NiC2)4
_chemical_formula_sum   'Cu28 Ni16 C32'
_cell_volume   1023.50756623
_cell_formula_units_Z   4
loop_
 _symmetry_equiv_pos_site_id
 _symmetry_equiv_pos_as_xyz
  1  'x, y, z'
loop_
 _atom_site_type_symbol
 _atom_site_label
 _atom_site_symmetry_multiplicity
 _atom_site_fract_x
 _atom_site_fract_y
 _atom_site_fract_z
 _atom_site_occupancy
  Ni  Ni0  1  0.25000000  0.86678900  0.45763400  1
  Ni  Ni1  1  0.25000000  0.36678900  0.04236600  1
  Ni  Ni2  1  0.75000000  0.13321100  0.54236600  1
  Ni  Ni3  1  0.75000000  0.63321100  0.95763400  1
  Ni  Ni4  1  0.25000000  0.75069300  0.02670200  1
  Ni  Ni5  1  0.25000000  0.25069300  0.47329800  1
  Ni  Ni6  1  0.75000000  0.24930700  0.97329800  1
  Ni  Ni7  1  0.75000000  0.74930700  0.52670200  1
  Ni  Ni8  1  0.25000000  0.56790200  0.30158900  1
  Ni  Ni9  1  0.25000000  0.06790200  0.19841100  1
  Ni  Ni10  1  0.75000000  0.43209800  0.69841100  1
  Ni  Ni11  1  0.75000000  0.93209800  0.80158900  1
  Ni  Ni12  1  0.25000000  0.95811700  0.90790500  1
  Ni  Ni13  1  0.25000000  0.45811700  0.59209500  1
  Ni  Ni14  1  0.75000000  0.04188300  0.09209500  1
  Ni  Ni15  1  0.75000000  0.54188300  0.40790500  1
  Cu  Cu16  1  0.00771700  0.56129500  0.12121900  1
  Cu  Cu17  1  0.49228300  0.06129500  0.37878100  1
  Cu  Cu18  1  0.50771700  0.43870500  0.87878100  1
  Cu  Cu19  1  0.99228300  0.93870500  0.62121900  1
  Cu  Cu20  1  0.99228300  0.43870500  0.87878100  1
  Cu  Cu21  1  0.50771700  0.93870500  0.62121900  1
  Cu  Cu22  1  0.49228300  0.56129500  0.12121900  1
  Cu  Cu23  1  0.00771700  0.06129500  0.37878100  1
  Cu  Cu24  1  0.25000000  0.81098700  0.75050500  1
  Cu  Cu25  1  0.25000000  0.31098700  0.74949500  1
  Cu  Cu26  1  0.75000000  0.18901300  0.24949500  1
  Cu  Cu27  1  0.75000000  0.68901300  0.25050500  1
  Cu  Cu28  1  0.99141500  0.86341300  0.17639400  1
  Cu  Cu29  1  0.50858500  0.36341300  0.32360600  1
  Cu  Cu30  1  0.49141500  0.13658700  0.82360600  1
  Cu  Cu31  1  0.00858500  0.63658700  0.67639400  1
  Cu  Cu32  1  0.00858500  0.13658700  0.82360600  1
  Cu  Cu33  1  0.49141500  0.63658700  0.67639400  1
  Cu  Cu34  1  0.50858500  0.86341300  0.17639400  1
  Cu  Cu35  1  0.99141500  0.36341300  0.32360600  1
  Cu  Cu36  1  0.25000000  0.63580700  0.84463000  1
  Cu  Cu37  1  0.25000000  0.13580700  0.65537000  1
  Cu  Cu38  1  0.75000000  0.36419300  0.15537000  1
  Cu  Cu39  1  0.75000000  0.86419300  0.34463000  1
  Cu  Cu40  1  0.25000000  0.62667900  0.50379100  1
  Cu  Cu41  1  0.25000000  0.12667900  0.99620900  1
  Cu  Cu42  1  0.75000000  0.37332100  0.49620900  1
  Cu  Cu43  1  0.75000000  0.87332100  0.00379100  1
  C  C44  1  0.25000000  0.91320400  0.30200400  1
  C  C45  1  0.25000000  0.41320400  0.19799600  1
  C  C46  1  0.75000000  0.08679600  0.69799600  1
  C  C47  1  0.75000000  0.58679600  0.80200400  1
  C  C48  1  0.25000000  0.94903000  0.06657400  1
  C  C49  1  0.25000000  0.44903000  0.43342600  1
  C  C50  1  0.75000000  0.05097000  0.93342600  1
  C  C51  1  0.75000000  0.55097000  0.56657400  1
  C  C52  1  0.25000000  0.55019700  0.98193000  1
  C  C53  1  0.25000000  0.05019700  0.51807000  1
  C  C54  1  0.75000000  0.44980300  0.01807000  1
  C  C55  1  0.75000000  0.94980300  0.48193000  1
  C  C56  1  0.00215100  0.71582500  0.38084300  1
  C  C57  1  0.49784900  0.21582500  0.11915700  1
  C  C58  1  0.50215100  0.28417500  0.61915700  1
  C  C59  1  0.99784900  0.78417500  0.88084300  1
  C  C60  1  0.99784900  0.28417500  0.61915700  1
  C  C61  1  0.50215100  0.78417500  0.88084300  1
  C  C62  1  0.49784900  0.71582500  0.38084300  1
  C  C63  1  0.00215100  0.21582500  0.11915700  1
  C  C64  1  0.25000000  0.99690800  0.74782600  1
  C  C65  1  0.25000000  0.49690800  0.75217400  1
  C  C66  1  0.75000000  0.00309200  0.25217400  1
  C  C67  1  0.75000000  0.50309200  0.24782600  1
  C  C68  1  0.25000000  0.70892900  0.19287000  1
  C  C69  1  0.25000000  0.20892900  0.30713000  1
  C  C70  1  0.75000000  0.29107100  0.80713000  1
  C  C71  1  0.75000000  0.79107100  0.69287000  1
  C  C72  1  0.25000000  0.77375300  0.60261600  1
  C  C73  1  0.25000000  0.27375300  0.89738400  1
  C  C74  1  0.75000000  0.22624700  0.39738400  1
  C  C75  1  0.75000000  0.72624700  0.10261600  1
