# generated using pymatgen
data_Cu43(Ni2C3)2
_symmetry_space_group_name_H-M   'P 1'
_cell_length_a   11.17866247
_cell_length_b   11.17866247
_cell_length_c   17.93124981
_cell_angle_alpha   90.00000000
_cell_angle_beta   90.00000000
_cell_angle_gamma   120.00000326
_symmetry_Int_Tables_number   1
_chemical_formula_structural   Cu43(Ni2C3)2
_chemical_formula_sum   'Cu86 Ni8 C12'
_cell_volume   1940.53225087
_cell_formula_units_Z   2
loop_
 _symmetry_equiv_pos_site_id
 _symmetry_equiv_pos_as_xyz
  1  'x, y, z'
loop_
 _atom_site_type_symbol
 _atom_site_label
 _atom_site_symmetry_multiplicity
 _atom_site_fract_x
 _atom_site_fract_y
 _atom_site_fract_z
 _atom_site_occupancy
  C  C0  1  0.47128232  0.47128232  0.90424754  1
  C  C1  1  0.52871768  0.52871768  0.09575246  1
  C  C2  1  1.00000000  0.52871768  0.90424754  1
  C  C3  1  0.52871768  0.52871768  0.40424754  1
  C  C4  1  1.00000000  0.52871768  0.59575246  1
  C  C5  1  0.00000000  0.47128232  0.09575246  1
  C  C6  1  0.47128232  0.47128232  0.59575246  1
  C  C7  1  0.00000000  0.47128232  0.40424754  1
  C  C8  1  0.52871768  1.00000000  0.90424754  1
  C  C9  1  0.47128232  0.00000000  0.09575246  1
  C  C10  1  0.47128232  0.00000000  0.40424754  1
  C  C11  1  0.52871768  1.00000000  0.59575246  1
  Ni  Ni12  1  -0.00000000  0.00000000  0.00000000  1
  Ni  Ni13  1  -0.00000000  0.00000000  0.50000000  1
  Ni  Ni14  1  0.27260052  0.27260052  0.75000000  1
  Ni  Ni15  1  0.72739948  0.72739948  0.25000000  1
  Ni  Ni16  1  1.00000000  0.72739948  0.75000000  1
  Ni  Ni17  1  0.00000000  0.27260052  0.25000000  1
  Ni  Ni18  1  0.72739948  1.00000000  0.75000000  1
  Ni  Ni19  1  0.27260052  0.00000000  0.25000000  1
  Cu  Cu20  1  0.85043484  0.44586184  0.75000000  1
  Cu  Cu21  1  0.14956516  0.55413816  0.25000000  1
  Cu  Cu22  1  0.59542700  0.14956516  0.75000000  1
  Cu  Cu23  1  0.40457300  0.55413816  0.75000000  1
  Cu  Cu24  1  0.40457300  0.85043484  0.25000000  1
  Cu  Cu25  1  0.59542700  0.44586184  0.25000000  1
  Cu  Cu26  1  0.55413816  0.40457300  0.75000000  1
  Cu  Cu27  1  0.44586184  0.85043484  0.75000000  1
  Cu  Cu28  1  0.44586184  0.59542700  0.25000000  1
  Cu  Cu29  1  0.55413816  0.14956516  0.25000000  1
  Cu  Cu30  1  0.14956516  0.59542700  0.75000000  1
  Cu  Cu31  1  0.85043484  0.40457300  0.25000000  1
  Cu  Cu32  1  0.84160792  0.84160792  0.38445309  1
  Cu  Cu33  1  0.15839208  0.15839208  0.61554691  1
  Cu  Cu34  1  1.00000000  0.15839208  0.38445309  1
  Cu  Cu35  1  0.15839208  0.15839208  0.88445309  1
  Cu  Cu36  1  1.00000000  0.15839208  0.11554691  1
  Cu  Cu37  1  0.00000000  0.84160792  0.61554691  1
  Cu  Cu38  1  0.84160792  0.84160792  0.11554691  1
  Cu  Cu39  1  0.00000000  0.84160792  0.88445309  1
  Cu  Cu40  1  0.15839208  1.00000000  0.38445309  1
  Cu  Cu41  1  0.84160792  0.00000000  0.61554691  1
  Cu  Cu42  1  0.84160792  0.00000000  0.88445309  1
  Cu  Cu43  1  0.15839208  1.00000000  0.11554691  1
  Cu  Cu44  1  0.75267773  0.24732227  0.00000000  1
  Cu  Cu45  1  0.24732227  0.75267773  0.00000000  1
  Cu  Cu46  1  0.49464454  0.24732227  0.00000000  1
  Cu  Cu47  1  0.24732227  0.75267773  0.50000000  1
  Cu  Cu48  1  0.50535546  0.75267773  0.50000000  1
  Cu  Cu49  1  0.50535546  0.75267773  0.00000000  1
  Cu  Cu50  1  0.75267773  0.24732227  0.50000000  1
  Cu  Cu51  1  0.49464454  0.24732227  0.50000000  1
  Cu  Cu52  1  0.75267773  0.50535546  0.00000000  1
  Cu  Cu53  1  0.24732227  0.49464454  0.00000000  1
  Cu  Cu54  1  0.24732227  0.49464454  0.50000000  1
  Cu  Cu55  1  0.75267773  0.50535546  0.50000000  1
  Cu  Cu56  1  0.85359179  0.85359179  0.75000000  1
  Cu  Cu57  1  0.14640821  0.14640821  0.25000000  1
  Cu  Cu58  1  1.00000000  0.14640821  0.75000000  1
  Cu  Cu59  1  0.00000000  0.85359179  0.25000000  1
  Cu  Cu60  1  0.14640821  1.00000000  0.75000000  1
  Cu  Cu61  1  0.85359179  0.00000000  0.25000000  1
  Cu  Cu62  1  0.66666700  0.33333300  0.87308856  1
  Cu  Cu63  1  0.33333300  0.66666700  0.12691144  1
  Cu  Cu64  1  0.33333300  0.66666700  0.37308856  1
  Cu  Cu65  1  0.33333300  0.66666700  0.62691144  1
  Cu  Cu66  1  0.66666700  0.33333300  0.62691144  1
  Cu  Cu67  1  0.66666700  0.33333300  0.37308856  1
  Cu  Cu68  1  0.66666700  0.33333300  0.12691144  1
  Cu  Cu69  1  0.33333300  0.66666700  0.87308856  1
  Cu  Cu70  1  0.74510093  0.74510093  0.96985602  1
  Cu  Cu71  1  0.25489907  0.25489907  0.03014398  1
  Cu  Cu72  1  1.00000000  0.25489907  0.96985602  1
  Cu  Cu73  1  0.25489907  0.25489907  0.46985602  1
  Cu  Cu74  1  1.00000000  0.25489907  0.53014398  1
  Cu  Cu75  1  0.00000000  0.74510093  0.03014398  1
  Cu  Cu76  1  0.74510093  0.74510093  0.53014398  1
  Cu  Cu77  1  0.00000000  0.74510093  0.46985602  1
  Cu  Cu78  1  0.25489907  1.00000000  0.96985602  1
  Cu  Cu79  1  0.74510093  0.00000000  0.03014398  1
  Cu  Cu80  1  0.74510093  0.00000000  0.46985602  1
  Cu  Cu81  1  0.25489907  1.00000000  0.53014398  1
  Cu  Cu82  1  0.84305404  0.23688154  0.83529566  1
  Cu  Cu83  1  0.15694596  0.76311846  0.16470434  1
  Cu  Cu84  1  0.39382750  0.15694596  0.83529566  1
  Cu  Cu85  1  0.15694596  0.76311846  0.33529566  1
  Cu  Cu86  1  0.60617250  0.76311846  0.66470434  1
  Cu  Cu87  1  0.60617250  0.84305404  0.16470434  1
  Cu  Cu88  1  0.84305404  0.23688154  0.66470434  1
  Cu  Cu89  1  0.39382750  0.23688154  0.33529566  1
  Cu  Cu90  1  0.76311846  0.60617250  0.83529566  1
  Cu  Cu91  1  0.60617250  0.84305404  0.33529566  1
  Cu  Cu92  1  0.23688154  0.84305404  0.66470434  1
  Cu  Cu93  1  0.23688154  0.39382750  0.16470434  1
  Cu  Cu94  1  0.39382750  0.15694596  0.66470434  1
  Cu  Cu95  1  0.76311846  0.15694596  0.33529566  1
  Cu  Cu96  1  0.39382750  0.23688154  0.16470434  1
  Cu  Cu97  1  0.60617250  0.76311846  0.83529566  1
  Cu  Cu98  1  0.23688154  0.39382750  0.33529566  1
  Cu  Cu99  1  0.76311846  0.15694596  0.16470434  1
  Cu  Cu100  1  0.76311846  0.60617250  0.66470434  1
  Cu  Cu101  1  0.23688154  0.84305404  0.83529566  1
  Cu  Cu102  1  0.15694596  0.39382750  0.66470434  1
  Cu  Cu103  1  0.84305404  0.60617250  0.33529566  1
  Cu  Cu104  1  0.84305404  0.60617250  0.16470434  1
  Cu  Cu105  1  0.15694596  0.39382750  0.83529566  1
