# generated using pymatgen
data_Cu2Ni4C21
_symmetry_space_group_name_H-M   'P 1'
_cell_length_a   12.33769235
_cell_length_b   12.30982403
_cell_length_c   5.52112132
_cell_angle_alpha   77.33774990
_cell_angle_beta   76.77403526
_cell_angle_gamma   25.88821484
_symmetry_Int_Tables_number   1
_chemical_formula_structural   Cu2Ni4C21
_chemical_formula_sum   'Cu2 Ni4 C21'
_cell_volume   356.22418327
_cell_formula_units_Z   1
loop_
 _symmetry_equiv_pos_site_id
 _symmetry_equiv_pos_as_xyz
  1  'x, y, z'
loop_
 _atom_site_type_symbol
 _atom_site_label
 _atom_site_symmetry_multiplicity
 _atom_site_fract_x
 _atom_site_fract_y
 _atom_site_fract_z
 _atom_site_occupancy
  Ni  Ni0  1  0.68351000  0.15496100  0.84503900  1
  Ni  Ni1  1  0.15496100  0.68351000  0.31649000  1
  Ni  Ni2  1  0.31649000  0.84503900  0.15496100  1
  Ni  Ni3  1  0.84503900  0.31649000  0.68351000  1
  Cu  Cu4  1  0.50000000  0.00000000  0.00000000  1
  Cu  Cu5  1  0.00000000  0.50000000  0.50000000  1
  C  C6  1  0.25278800  0.74721200  0.74721200  1
  C  C7  1  0.74721200  0.25278800  0.25278800  1
  C  C8  1  0.57509000  0.08608900  0.42491000  1
  C  C9  1  0.08608900  0.57509000  0.91391100  1
  C  C10  1  0.42491000  0.91391100  0.57509000  1
  C  C11  1  0.91391100  0.42491000  0.08608900  1
  C  C12  1  0.81184700  0.81184700  0.68815300  1
  C  C13  1  0.31184700  0.31184700  0.18815300  1
  C  C14  1  0.30335100  0.30335100  0.69664900  1
  C  C15  1  0.81694700  0.81694700  0.18305300  1
  C  C16  1  0.68815300  0.68815300  0.81184700  1
  C  C17  1  0.18815300  0.18815300  0.31184700  1
  C  C18  1  0.18305300  0.18305300  0.81694700  1
  C  C19  1  0.69664900  0.69664900  0.30335100  1
  C  C20  1  0.63462700  0.19008200  0.36537300  1
  C  C21  1  0.19008200  0.63462700  0.80991800  1
  C  C22  1  0.36537300  0.80991800  0.63462700  1
  C  C23  1  0.80991800  0.36537300  0.19008200  1
  C  C24  1  0.00000000  0.00000000  0.00000000  1
  C  C25  1  0.00000000  0.00000000  0.50000000  1
  C  C26  1  0.50000000  0.50000000  0.00000000  1
