# generated using pymatgen
data_CuNiC9
_symmetry_space_group_name_H-M   'P 1'
_cell_length_a   14.77286800
_cell_length_b   6.89702100
_cell_length_c   12.24646025
_cell_angle_alpha   78.88910363
_cell_angle_beta   90.00000000
_cell_angle_gamma   90.00000000
_symmetry_Int_Tables_number   1
_chemical_formula_structural   CuNiC9
_chemical_formula_sum   'Cu8 Ni8 C72'
_cell_volume   1224.38861486
_cell_formula_units_Z   8
loop_
 _symmetry_equiv_pos_site_id
 _symmetry_equiv_pos_as_xyz
  1  'x, y, z'
loop_
 _atom_site_type_symbol
 _atom_site_label
 _atom_site_symmetry_multiplicity
 _atom_site_fract_x
 _atom_site_fract_y
 _atom_site_fract_z
 _atom_site_occupancy
  Ni  Ni0  1  0.51398300  0.51791300  0.76636800  1
  Ni  Ni1  1  0.87751800  0.77570600  0.59295800  1
  Ni  Ni2  1  0.37751800  0.22429400  0.90704200  1
  Ni  Ni3  1  0.12248200  0.22429400  0.40704200  1
  Ni  Ni4  1  0.62248200  0.77570600  0.09295800  1
  Ni  Ni5  1  0.98601700  0.51791300  0.26636800  1
  Ni  Ni6  1  0.48601700  0.48208700  0.23363200  1
  Ni  Ni7  1  0.01398300  0.48208700  0.73363200  1
  C  C8  1  0.90670300  0.30197800  0.52502500  1
  C  C9  1  0.02105700  0.93771400  0.81911400  1
  C  C10  1  0.47894300  0.93771400  0.31911400  1
  C  C11  1  0.97894300  0.06228600  0.18088600  1
  C  C12  1  0.72902300  0.01034400  0.69993000  1
  C  C13  1  0.22902300  0.98965600  0.80007000  1
  C  C14  1  0.27097700  0.98965600  0.30007000  1
  C  C15  1  0.77097700  0.01034400  0.19993000  1
  C  C16  1  0.52105700  0.06228600  0.68088600  1
  C  C17  1  0.15030200  0.36798900  0.99339100  1
  C  C18  1  0.65030200  0.63201100  0.50660900  1
  C  C19  1  0.84969800  0.63201100  0.00660900  1
  C  C20  1  0.40670300  0.69802200  0.97497500  1
  C  C21  1  0.59329700  0.30197800  0.02502500  1
  C  C22  1  0.09329700  0.69802200  0.47497500  1
  C  C23  1  0.34969800  0.36798900  0.49339100  1
  Cu  Cu24  1  0.63991100  0.17560500  0.41310200  1
  Cu  Cu25  1  0.13991100  0.82439500  0.08689800  1
  Cu  Cu26  1  0.36008900  0.82439500  0.58689800  1
  Cu  Cu27  1  0.86008900  0.17560500  0.91310200  1
  Cu  Cu28  1  0.77378900  0.47737300  0.28143000  1
  Cu  Cu29  1  0.27378900  0.52262700  0.21857000  1
  Cu  Cu30  1  0.22621100  0.52262700  0.71857000  1
  Cu  Cu31  1  0.72621100  0.47737300  0.78143000  1
  C  C32  1  0.01943100  0.20406600  0.51978300  1
  C  C33  1  0.51943100  0.79593400  0.98021700  1
  C  C34  1  0.98056900  0.79593400  0.48021700  1
  C  C35  1  0.48056900  0.20406600  0.01978300  1
  C  C36  1  0.90665700  0.47432500  0.62618400  1
  C  C37  1  0.40665700  0.52567500  0.87381600  1
  C  C38  1  0.09334300  0.52567500  0.37381600  1
  C  C39  1  0.59334300  0.47432500  0.12618400  1
  C  C40  1  0.88220500  0.44529700  0.38096500  1
  C  C41  1  0.38220500  0.55470300  0.11903500  1
  C  C42  1  0.11779500  0.55470300  0.61903500  1
  C  C43  1  0.61779500  0.44529700  0.88096500  1
  C  C44  1  0.24391700  0.23758200  0.49075100  1
  C  C45  1  0.74391700  0.76241800  0.00924900  1
  C  C46  1  0.75608300  0.76241800  0.50924900  1
  C  C47  1  0.25608300  0.23758200  0.99075100  1
  C  C48  1  0.37753600  0.49425100  0.34683100  1
  C  C49  1  0.87753600  0.50574900  0.15316900  1
  C  C50  1  0.62246400  0.50574900  0.65316900  1
  C  C51  1  0.12246400  0.49425100  0.84683100  1
  C  C52  1  0.32473600  0.55201300  0.58512000  1
  C  C53  1  0.46796700  0.81144900  0.68771700  1
  C  C54  1  0.82473600  0.44798700  0.91488000  1
  C  C55  1  0.17526400  0.55201300  0.08512000  1
  C  C56  1  0.47062300  0.22522200  0.77068500  1
  C  C57  1  0.97062300  0.77477800  0.72931500  1
  C  C58  1  0.52937700  0.77477800  0.22931500  1
  C  C59  1  0.02937700  0.22522200  0.27068500  1
  C  C60  1  0.44810800  0.19866700  0.54929600  1
  C  C61  1  0.94810800  0.80133300  0.95070400  1
  C  C62  1  0.55189200  0.80133300  0.45070400  1
  C  C63  1  0.05189200  0.19866700  0.04929600  1
  C  C64  1  0.88201100  0.96413700  0.28345600  1
  C  C65  1  0.38201100  0.03586300  0.21654400  1
  C  C66  1  0.11798900  0.03586300  0.71654400  1
  C  C67  1  0.61798900  0.96413700  0.78345600  1
  C  C68  1  0.72828800  0.18865300  0.28716400  1
  C  C69  1  0.22828800  0.81134700  0.21283600  1
  C  C70  1  0.27171200  0.81134700  0.71283600  1
  C  C71  1  0.77171200  0.18865300  0.78716400  1
  C  C72  1  0.67208700  0.08377800  0.08061400  1
  C  C73  1  0.17208700  0.91622200  0.41938600  1
  C  C74  1  0.32791300  0.91622200  0.91938600  1
  C  C75  1  0.82791300  0.08377800  0.58061400  1
  C  C76  1  0.72424600  0.75700100  0.23610800  1
  C  C77  1  0.22424600  0.24299900  0.26389200  1
  C  C78  1  0.27575400  0.24299900  0.76389200  1
  C  C79  1  0.77575400  0.75700100  0.73610800  1
  C  C80  1  0.86675900  0.09298700  0.07940300  1
  C  C81  1  0.36675900  0.90701300  0.42059700  1
  C  C82  1  0.13324100  0.90701300  0.92059700  1
  C  C83  1  0.63324100  0.09298700  0.57940300  1
  C  C84  1  0.03203300  0.81144900  0.18771700  1
  C  C85  1  0.53203300  0.18855100  0.31228300  1
  C  C86  1  0.96796700  0.18855100  0.81228300  1
  C  C87  1  0.67526400  0.44798700  0.41488000  1
