# generated using pymatgen
data_Cu2Ni6C17
_symmetry_space_group_name_H-M   'P 1'
_cell_length_a   8.45780100
_cell_length_b   7.87554000
_cell_length_c   21.31995984
_cell_angle_alpha   90.00000000
_cell_angle_beta   108.35313657
_cell_angle_gamma   90.00000000
_symmetry_Int_Tables_number   1
_chemical_formula_structural   Cu2Ni6C17
_chemical_formula_sum   'Cu8 Ni24 C68'
_cell_volume   1347.88133146
_cell_formula_units_Z   4
loop_
 _symmetry_equiv_pos_site_id
 _symmetry_equiv_pos_as_xyz
  1  'x, y, z'
loop_
 _atom_site_type_symbol
 _atom_site_label
 _atom_site_symmetry_multiplicity
 _atom_site_fract_x
 _atom_site_fract_y
 _atom_site_fract_z
 _atom_site_occupancy
  C  C0  1  0.58437500  0.32136200  0.79281900  1
  C  C1  1  0.41562500  0.82136200  0.70718100  1
  C  C2  1  0.41562500  0.67863800  0.20718100  1
  C  C3  1  0.58437500  0.17863800  0.29281900  1
  C  C4  1  0.49556000  0.81775700  0.88037800  1
  C  C5  1  0.50444000  0.31775700  0.61962200  1
  C  C6  1  0.50444000  0.18224300  0.11962200  1
  C  C7  1  0.49556000  0.68224300  0.38037800  1
  C  C8  1  0.44567300  0.81918900  0.95644100  1
  C  C9  1  0.55432700  0.31918900  0.54355900  1
  C  C10  1  0.55432700  0.18081100  0.04355900  1
  C  C11  1  0.44567300  0.68081100  0.45644100  1
  C  C12  1  0.63178600  0.91827100  0.95209600  1
  C  C13  1  0.36821400  0.41827100  0.54790400  1
  C  C14  1  0.36821400  0.08172900  0.04790400  1
  C  C15  1  0.63178600  0.58172900  0.45209600  1
  C  C16  1  0.75386800  0.50134600  0.03619500  1
  C  C17  1  0.24613200  0.00134600  0.46380500  1
  C  C18  1  0.24613200  0.49865400  0.96380500  1
  C  C19  1  0.75386800  0.99865400  0.53619500  1
  C  C20  1  0.84882300  0.70320700  0.03515900  1
  C  C21  1  0.15117700  0.20320700  0.46484100  1
  C  C22  1  0.15117700  0.29679300  0.96484100  1
  C  C23  1  0.84882300  0.79679300  0.53515900  1
  C  C24  1  0.65554700  0.69014400  0.05271600  1
  C  C25  1  0.34445300  0.19014400  0.44728400  1
  C  C26  1  0.34445300  0.30985600  0.94728400  1
  C  C27  1  0.65554700  0.80985600  0.55271600  1
  C  C28  1  0.98823600  0.11307000  0.74351600  1
  C  C29  1  0.01176400  0.61307000  0.75648400  1
  C  C30  1  0.01176400  0.88693000  0.25648400  1
  C  C31  1  0.98823600  0.38693000  0.24351600  1
  C  C32  1  0.83371800  0.18222700  0.67001600  1
  C  C33  1  0.16628200  0.68222700  0.82998400  1
  C  C34  1  0.16628200  0.81777300  0.32998400  1
  C  C35  1  0.83371800  0.31777300  0.17001600  1
  C  C36  1  0.97772900  0.02006200  0.66595100  1
  C  C37  1  0.02227100  0.52006200  0.83404900  1
  C  C38  1  0.02227100  0.97993800  0.33404900  1
  C  C39  1  0.97772900  0.47993800  0.16595100  1
  C  C40  1  0.11199500  0.45529400  0.61727600  1
  C  C41  1  0.88800500  0.95529400  0.88272400  1
  C  C42  1  0.88800500  0.54470600  0.38272400  1
  C  C43  1  0.11199500  0.04470600  0.11727600  1
  C  C44  1  0.97969600  0.28258800  0.57742300  1
  C  C45  1  0.02030400  0.78258800  0.92257700  1
  C  C46  1  0.02030400  0.71741200  0.42257700  1
  C  C47  1  0.97969600  0.21741200  0.07742300  1
  C  C48  1  0.90269900  0.44236800  0.61977900  1
  C  C49  1  0.09730100  0.94236800  0.88022100  1
  C  C50  1  0.09730100  0.55763200  0.38022100  1
  C  C51  1  0.90269900  0.05763200  0.11977900  1
  Ni  Ni52  1  0.62937900  0.52729200  0.90874300  1
  Ni  Ni53  1  0.37062100  0.02729200  0.59125700  1
  Ni  Ni54  1  0.37062100  0.47270800  0.09125700  1
  Ni  Ni55  1  0.62937900  0.97270800  0.40874300  1
  Ni  Ni56  1  0.22948400  0.29610400  0.72330600  1
  Ni  Ni57  1  0.77051600  0.79610400  0.77669400  1
  Ni  Ni58  1  0.77051600  0.70389600  0.27669400  1
  Ni  Ni59  1  0.22948400  0.20389600  0.22330600  1
  Ni  Ni60  1  0.54653000  0.81072000  0.93412800  1
  Ni  Ni61  1  0.45347000  0.31072000  0.56587200  1
  Ni  Ni62  1  0.45347000  0.18928000  0.06587200  1
  Ni  Ni63  1  0.54653000  0.68928000  0.43412800  1
  Ni  Ni64  1  0.72901800  0.63540200  0.02334200  1
  Ni  Ni65  1  0.27098200  0.13540200  0.47665800  1
  Ni  Ni66  1  0.27098200  0.36459800  0.97665800  1
  Ni  Ni67  1  0.72901800  0.86459800  0.52334200  1
  Ni  Ni68  1  0.96307400  0.13892600  0.69084000  1
  Ni  Ni69  1  0.03692600  0.63892600  0.80916000  1
  Ni  Ni70  1  0.03692600  0.86107400  0.30916000  1
  Ni  Ni71  1  0.96307400  0.36107400  0.19084000  1
  Ni  Ni72  1  0.01372100  0.36874400  0.62027100  1
  Ni  Ni73  1  0.98627900  0.86874400  0.87972900  1
  Ni  Ni74  1  0.98627900  0.63125600  0.37972900  1
  Ni  Ni75  1  0.01372100  0.13125600  0.12027100  1
  Cu  Cu76  1  0.73103400  0.33449700  0.93091000  1
  Cu  Cu77  1  0.26896600  0.83449700  0.56909000  1
  Cu  Cu78  1  0.26896600  0.66550300  0.06909000  1
  Cu  Cu79  1  0.73103400  0.16550300  0.43091000  1
  Cu  Cu80  1  0.30487500  0.16952900  0.79454500  1
  Cu  Cu81  1  0.69512500  0.66952900  0.70545500  1
  Cu  Cu82  1  0.69512500  0.83047100  0.20545500  1
  Cu  Cu83  1  0.30487500  0.33047100  0.29454500  1
  C  C84  1  0.63574800  0.65100200  0.95347100  1
  C  C85  1  0.36425200  0.15100200  0.54652900  1
  C  C86  1  0.36425200  0.34899800  0.04652900  1
  C  C87  1  0.63574800  0.84899800  0.45347100  1
  C  C88  1  0.07366000  0.27122400  0.68131700  1
  C  C89  1  0.92634000  0.77122400  0.81868300  1
  C  C90  1  0.92634000  0.72877600  0.31868300  1
  C  C91  1  0.07366000  0.22877600  0.18131700  1
  C  C92  1  0.54312500  0.55351300  0.84751900  1
  C  C93  1  0.45687500  0.05351300  0.65248100  1
  C  C94  1  0.45687500  0.44648700  0.15248100  1
  C  C95  1  0.54312500  0.94648700  0.34751900  1
  C  C96  1  0.32478500  0.40962900  0.71204400  1
  C  C97  1  0.67521500  0.90962900  0.78795600  1
  C  C98  1  0.67521500  0.59037100  0.28795600  1
  C  C99  1  0.32478500  0.09037100  0.21204400  1
