# generated using pymatgen
data_CuNiC5
_symmetry_space_group_name_H-M   'P 1'
_cell_length_a   9.22555409
_cell_length_b   9.22555409
_cell_length_c   9.22555364
_cell_angle_alpha   90.20423653
_cell_angle_beta   90.20423653
_cell_angle_gamma   90.20423228
_symmetry_Int_Tables_number   1
_chemical_formula_structural   CuNiC5
_chemical_formula_sum   'Cu6 Ni6 C30'
_cell_volume   785.17969623
_cell_formula_units_Z   6
loop_
 _symmetry_equiv_pos_site_id
 _symmetry_equiv_pos_as_xyz
  1  'x, y, z'
loop_
 _atom_site_type_symbol
 _atom_site_label
 _atom_site_symmetry_multiplicity
 _atom_site_fract_x
 _atom_site_fract_y
 _atom_site_fract_z
 _atom_site_occupancy
  Ni  Ni0  1  0.99730800  0.74941900  0.50266300  1
  Ni  Ni1  1  0.50266300  0.99730800  0.74941900  1
  Ni  Ni2  1  0.74941900  0.50266300  0.99730800  1
  Ni  Ni3  1  0.49730800  0.00266300  0.24941900  1
  Ni  Ni4  1  0.24941900  0.49730800  0.00266300  1
  Ni  Ni5  1  0.00266300  0.24941900  0.49730800  1
  C  C6  1  0.50185700  0.74886100  0.99911000  1
  C  C7  1  0.99911000  0.50185700  0.74886100  1
  C  C8  1  0.74886100  0.99911000  0.50185700  1
  C  C9  1  0.00185700  0.49911000  0.24886100  1
  C  C10  1  0.24886100  0.00185700  0.49911000  1
  C  C11  1  0.49911000  0.24886100  0.00185700  1
  Cu  Cu12  1  0.25693800  0.74242000  0.25714900  1
  Cu  Cu13  1  0.74242000  0.25714900  0.25693800  1
  Cu  Cu14  1  0.25714900  0.25693800  0.74242000  1
  Cu  Cu15  1  0.24242000  0.75693800  0.75714900  1
  Cu  Cu16  1  0.75714900  0.24242000  0.75693800  1
  Cu  Cu17  1  0.75693800  0.75714900  0.24242000  1
  C  C18  1  0.95979800  0.63971300  0.64984200  1
  C  C19  1  0.64984200  0.95979800  0.63971300  1
  C  C20  1  0.63971300  0.64984200  0.95979800  1
  C  C21  1  0.04350200  0.64166600  0.35000000  1
  C  C22  1  0.35012500  0.95326900  0.36046000  1
  C  C23  1  0.35831000  0.65110200  0.04389000  1
  C  C24  1  0.95326900  0.36046000  0.35012500  1
  C  C25  1  0.65110200  0.04389000  0.35831000  1
  C  C26  1  0.64166600  0.35000000  0.04350200  1
  C  C27  1  0.04389000  0.35831000  0.65110200  1
  C  C28  1  0.35000000  0.04350200  0.64166600  1
  C  C29  1  0.36046000  0.35012500  0.95326900  1
  C  C30  1  0.45326900  0.85012500  0.86046000  1
  C  C31  1  0.15110200  0.85831000  0.54389000  1
  C  C32  1  0.14166600  0.54350200  0.85000000  1
  C  C33  1  0.54389000  0.15110200  0.85831000  1
  C  C34  1  0.85000000  0.14166600  0.54350200  1
  C  C35  1  0.86046000  0.45326900  0.85012500  1
  C  C36  1  0.45979800  0.14984200  0.13971300  1
  C  C37  1  0.14984200  0.13971300  0.45979800  1
  C  C38  1  0.13971300  0.45979800  0.14984200  1
  C  C39  1  0.54350200  0.85000000  0.14166600  1
  C  C40  1  0.85012400  0.86046000  0.45326900  1
  C  C41  1  0.85831000  0.54389000  0.15110200  1
