# generated using pymatgen
data_Cu5Ni3C
_symmetry_space_group_name_H-M   'P 1'
_cell_length_a   6.86901800
_cell_length_b   9.90894200
_cell_length_c   16.66109000
_cell_angle_alpha   90.00000000
_cell_angle_beta   90.00000000
_cell_angle_gamma   90.00000000
_symmetry_Int_Tables_number   1
_chemical_formula_structural   Cu5Ni3C
_chemical_formula_sum   'Cu20 Ni12 C4'
_cell_volume   1134.03210850
_cell_formula_units_Z   4
loop_
 _symmetry_equiv_pos_site_id
 _symmetry_equiv_pos_as_xyz
  1  'x, y, z'
loop_
 _atom_site_type_symbol
 _atom_site_label
 _atom_site_symmetry_multiplicity
 _atom_site_fract_x
 _atom_site_fract_y
 _atom_site_fract_z
 _atom_site_occupancy
  C  C0  1  0.61632900  0.25000000  0.85236000  1
  C  C1  1  0.88367100  0.25000000  0.35236000  1
  C  C2  1  0.38367100  0.75000000  0.14764000  1
  C  C3  1  0.11632900  0.75000000  0.64764000  1
  Ni  Ni4  1  0.61886800  0.25000000  0.10015000  1
  Ni  Ni5  1  0.88113200  0.25000000  0.60015000  1
  Ni  Ni6  1  0.38113200  0.75000000  0.89985000  1
  Ni  Ni7  1  0.11886800  0.75000000  0.39985000  1
  Ni  Ni8  1  0.25606100  0.40891200  0.29092100  1
  Ni  Ni9  1  0.24393900  0.09108800  0.79092100  1
  Ni  Ni10  1  0.74393900  0.90891200  0.70907900  1
  Ni  Ni11  1  0.75606100  0.59108800  0.20907900  1
  Ni  Ni12  1  0.74393900  0.59108800  0.70907900  1
  Ni  Ni13  1  0.75606100  0.90891200  0.20907900  1
  Ni  Ni14  1  0.25606100  0.09108800  0.29092100  1
  Ni  Ni15  1  0.24393900  0.40891200  0.79092100  1
  Cu  Cu16  1  0.65616900  0.25000000  0.98053000  1
  Cu  Cu17  1  0.84383100  0.25000000  0.48053000  1
  Cu  Cu18  1  0.34383100  0.75000000  0.01947000  1
  Cu  Cu19  1  0.15616900  0.75000000  0.51947000  1
  Cu  Cu20  1  0.76838400  0.25000000  0.78267500  1
  Cu  Cu21  1  0.73161600  0.25000000  0.28267500  1
  Cu  Cu22  1  0.23161600  0.75000000  0.21732500  1
  Cu  Cu23  1  0.26838400  0.75000000  0.71732500  1
  Cu  Cu24  1  0.35702500  0.25000000  0.83250600  1
  Cu  Cu25  1  0.14297500  0.25000000  0.33250600  1
  Cu  Cu26  1  0.64297500  0.75000000  0.16749400  1
  Cu  Cu27  1  0.85702500  0.75000000  0.66749400  1
  Cu  Cu28  1  0.66370300  0.13752900  0.94249300  1
  Cu  Cu29  1  0.83629700  0.36247100  0.44249300  1
  Cu  Cu30  1  0.33629700  0.63752900  0.05750700  1
  Cu  Cu31  1  0.16370300  0.86247100  0.55750700  1
  Cu  Cu32  1  0.33629700  0.86247100  0.05750700  1
  Cu  Cu33  1  0.16370300  0.63752900  0.55750700  1
  Cu  Cu34  1  0.66370300  0.36247100  0.94249300  1
  Cu  Cu35  1  0.83629700  0.13752900  0.44249300  1
