# generated using pymatgen
data_Cu5Ni13C4
_symmetry_space_group_name_H-M   'P 1'
_cell_length_a   8.23521200
_cell_length_b   8.23521200
_cell_length_c   12.05894600
_cell_angle_alpha   90.00000000
_cell_angle_beta   90.00000000
_cell_angle_gamma   90.00000000
_symmetry_Int_Tables_number   1
_chemical_formula_structural   Cu5Ni13C4
_chemical_formula_sum   'Cu10 Ni26 C8'
_cell_volume   817.82224229
_cell_formula_units_Z   2
loop_
 _symmetry_equiv_pos_site_id
 _symmetry_equiv_pos_as_xyz
  1  'x, y, z'
loop_
 _atom_site_type_symbol
 _atom_site_label
 _atom_site_symmetry_multiplicity
 _atom_site_fract_x
 _atom_site_fract_y
 _atom_site_fract_z
 _atom_site_occupancy
  C  C0  1  0.65530700  0.15530700  0.50000000  1
  C  C1  1  0.34469300  0.84469300  0.50000000  1
  C  C2  1  0.84469300  0.65530700  0.50000000  1
  C  C3  1  0.15530700  0.34469300  0.50000000  1
  C  C4  1  0.50000000  0.50000000  0.78423100  1
  C  C5  1  0.00000000  0.00000000  0.78423100  1
  C  C6  1  0.50000000  0.50000000  0.21576900  1
  C  C7  1  0.00000000  0.00000000  0.21576900  1
  Ni  Ni8  1  0.17596300  0.67596300  0.89361000  1
  Ni  Ni9  1  0.82403700  0.32403700  0.89361000  1
  Ni  Ni10  1  0.32403700  0.17596300  0.89361000  1
  Ni  Ni11  1  0.67596300  0.82403700  0.89361000  1
  Ni  Ni12  1  0.82403700  0.32403700  0.10639000  1
  Ni  Ni13  1  0.17596300  0.67596300  0.10639000  1
  Ni  Ni14  1  0.67596300  0.82403700  0.10639000  1
  Ni  Ni15  1  0.32403700  0.17596300  0.10639000  1
  Ni  Ni16  1  0.62457300  0.12457300  0.82020600  1
  Ni  Ni17  1  0.37542700  0.87542700  0.82020600  1
  Ni  Ni18  1  0.87542700  0.62457300  0.82020600  1
  Ni  Ni19  1  0.12457300  0.37542700  0.82020600  1
  Ni  Ni20  1  0.37542700  0.87542700  0.17979400  1
  Ni  Ni21  1  0.62457300  0.12457300  0.17979400  1
  Ni  Ni22  1  0.12457300  0.37542700  0.17979400  1
  Ni  Ni23  1  0.87542700  0.62457300  0.17979400  1
  Ni  Ni24  1  0.70671300  0.56755300  0.00000000  1
  Ni  Ni25  1  0.29328700  0.43244700  0.00000000  1
  Ni  Ni26  1  0.79328700  0.06755300  0.00000000  1
  Ni  Ni27  1  0.20671300  0.93244700  0.00000000  1
  Ni  Ni28  1  0.56755300  0.29328700  0.00000000  1
  Ni  Ni29  1  0.43244700  0.70671300  0.00000000  1
  Ni  Ni30  1  0.06755300  0.20671300  0.00000000  1
  Ni  Ni31  1  0.93244700  0.79328700  0.00000000  1
  Ni  Ni32  1  0.00000000  0.50000000  0.00000000  1
  Ni  Ni33  1  0.50000000  0.00000000  0.00000000  1
  Cu  Cu34  1  0.14638900  0.64638900  0.68184100  1
  Cu  Cu35  1  0.85361100  0.35361100  0.68184100  1
  Cu  Cu36  1  0.35361100  0.14638900  0.68184100  1
  Cu  Cu37  1  0.64638900  0.85361100  0.68184100  1
  Cu  Cu38  1  0.85361100  0.35361100  0.31815900  1
  Cu  Cu39  1  0.14638900  0.64638900  0.31815900  1
  Cu  Cu40  1  0.64638900  0.85361100  0.31815900  1
  Cu  Cu41  1  0.35361100  0.14638900  0.31815900  1
  Cu  Cu42  1  0.50000000  0.50000000  0.50000000  1
  Cu  Cu43  1  0.00000000  0.00000000  0.50000000  1
