# generated using pymatgen
data_Cu4NiC3
_symmetry_space_group_name_H-M   'P 1'
_cell_length_a   7.88611332
_cell_length_b   7.88611332
_cell_length_c   7.88611378
_cell_angle_alpha   33.64612228
_cell_angle_beta   33.64612228
_cell_angle_gamma   33.64612302
_symmetry_Int_Tables_number   1
_chemical_formula_structural   Cu4NiC3
_chemical_formula_sum   'Cu4 Ni1 C3'
_cell_volume   134.12570550
_cell_formula_units_Z   1
loop_
 _symmetry_equiv_pos_site_id
 _symmetry_equiv_pos_as_xyz
  1  'x, y, z'
loop_
 _atom_site_type_symbol
 _atom_site_label
 _atom_site_symmetry_multiplicity
 _atom_site_fract_x
 _atom_site_fract_y
 _atom_site_fract_z
 _atom_site_occupancy
  C  C0  1  0.24948400  0.24948400  0.24948400  1
  C  C1  1  0.75051600  0.75051600  0.75051600  1
  Ni  Ni2  1  0.50000000  0.50000000  0.50000000  1
  C  C3  1  0.00000000  0.00000000  0.00000000  1
  Cu  Cu4  1  0.62467400  0.62467400  0.62467400  1
  Cu  Cu5  1  0.12505000  0.12505000  0.12505000  1
  Cu  Cu6  1  0.87495000  0.87495000  0.87495000  1
  Cu  Cu7  1  0.37532600  0.37532600  0.37532600  1
