# generated using pymatgen
data_CuNiC8
_symmetry_space_group_name_H-M   'P 1'
_cell_length_a   6.04268080
_cell_length_b   6.09320801
_cell_length_c   8.56641415
_cell_angle_alpha   90.34145535
_cell_angle_beta   89.61479910
_cell_angle_gamma   90.08638787
_symmetry_Int_Tables_number   1
_chemical_formula_structural   CuNiC8
_chemical_formula_sum   'Cu2 Ni2 C16'
_cell_volume   315.39639892
_cell_formula_units_Z   2
loop_
 _symmetry_equiv_pos_site_id
 _symmetry_equiv_pos_as_xyz
  1  'x, y, z'
loop_
 _atom_site_type_symbol
 _atom_site_label
 _atom_site_symmetry_multiplicity
 _atom_site_fract_x
 _atom_site_fract_y
 _atom_site_fract_z
 _atom_site_occupancy
  C  C0  1  0.99490304  0.02665797  0.25054419  1
  C  C1  1  0.00509696  0.97334203  0.74945581  1
  Ni  Ni2  1  0.50927796  0.53479185  0.25237649  1
  Ni  Ni3  1  0.49072204  0.46520815  0.74762351  1
  Cu  Cu4  1  0.50000000  -0.00000000  0.00000000  1
  Cu  Cu5  1  0.00000000  0.50000000  0.50000000  1
  C  C6  1  0.00000000  0.50000000  0.00000000  1
  C  C7  1  0.50000000  -0.00000000  0.50000000  1
  C  C8  1  0.19826724  0.23636834  0.96161472  1
  C  C9  1  0.31053829  0.72939699  0.54911565  1
  C  C10  1  0.80173276  0.76363166  0.03838528  1
  C  C11  1  0.68946171  0.27060301  0.45088435  1
  C  C12  1  0.26378011  0.69657346  0.95003402  1
  C  C13  1  0.23297062  0.19569636  0.52761404  1
  C  C14  1  0.73621989  0.30342654  0.04996598  1
  C  C15  1  0.76702938  0.80430364  0.47238596  1
  C  C16  1  0.43269432  0.95633561  0.26991897  1
  C  C17  1  0.08900912  0.49604925  0.23009709  1
  C  C18  1  0.56730568  0.04366439  0.73008103  1
  C  C19  1  0.91099088  0.50395075  0.76990291  1
