# generated using pymatgen
data_Cu4NiC2
_symmetry_space_group_name_H-M   'P 1'
_cell_length_a   7.89423996
_cell_length_b   8.33132756
_cell_length_c   13.00069400
_cell_angle_alpha   90.00000000
_cell_angle_beta   90.00000000
_cell_angle_gamma   90.34672558
_symmetry_Int_Tables_number   1
_chemical_formula_structural   Cu4NiC2
_chemical_formula_sum   'Cu32 Ni8 C16'
_cell_volume   855.03347416
_cell_formula_units_Z   8
loop_
 _symmetry_equiv_pos_site_id
 _symmetry_equiv_pos_as_xyz
  1  'x, y, z'
loop_
 _atom_site_type_symbol
 _atom_site_label
 _atom_site_symmetry_multiplicity
 _atom_site_fract_x
 _atom_site_fract_y
 _atom_site_fract_z
 _atom_site_occupancy
  C  C0  1  0.78423000  0.83615800  0.56807300  1
  C  C1  1  0.21577000  0.16384200  0.43192700  1
  C  C2  1  0.21577000  0.66384200  0.06807300  1
  C  C3  1  0.78423000  0.33615800  0.93192700  1
  C  C4  1  0.49239200  0.77052900  0.84107200  1
  C  C5  1  0.50760800  0.22947100  0.15892800  1
  C  C6  1  0.50760800  0.72947100  0.34107200  1
  C  C7  1  0.49239200  0.27052900  0.65892800  1
  C  C8  1  0.86948300  0.88728100  0.25310100  1
  C  C9  1  0.13051700  0.11271900  0.74689900  1
  C  C10  1  0.13051700  0.61271900  0.75310100  1
  C  C11  1  0.86948300  0.38728100  0.24689900  1
  C  C12  1  0.66980900  0.37711900  0.45314600  1
  C  C13  1  0.33019100  0.62288100  0.54685400  1
  C  C14  1  0.33019100  0.12288100  0.95314600  1
  C  C15  1  0.66980900  0.87711900  0.04685400  1
  Ni  Ni16  1  0.75254900  0.82907700  0.89281800  1
  Ni  Ni17  1  0.24745100  0.17092300  0.10718200  1
  Ni  Ni18  1  0.24745100  0.67092300  0.39281800  1
  Ni  Ni19  1  0.75254900  0.32907700  0.60718200  1
  Ni  Ni20  1  0.26192000  0.82703300  0.70029200  1
  Ni  Ni21  1  0.73808000  0.17296700  0.29970800  1
  Ni  Ni22  1  0.73808000  0.67296700  0.20029200  1
  Ni  Ni23  1  0.26192000  0.32703300  0.79970800  1
  Cu  Cu24  1  0.69897900  0.94420200  0.98331400  1
  Cu  Cu25  1  0.30102100  0.05579800  0.01668600  1
  Cu  Cu26  1  0.30102100  0.55579800  0.48331400  1
  Cu  Cu27  1  0.69897900  0.44420200  0.51668600  1
  Cu  Cu28  1  0.77888600  0.93376700  0.80628700  1
  Cu  Cu29  1  0.22111400  0.06623300  0.19371300  1
  Cu  Cu30  1  0.22111400  0.56623300  0.30628700  1
  Cu  Cu31  1  0.77888600  0.43376700  0.69371300  1
  Cu  Cu32  1  0.18429500  0.97654700  0.66407600  1
  Cu  Cu33  1  0.81570500  0.02345300  0.33592400  1
  Cu  Cu34  1  0.81570500  0.52345300  0.16407600  1
  Cu  Cu35  1  0.18429500  0.47654700  0.83592400  1
  Cu  Cu36  1  0.38405100  0.75968100  0.62652300  1
  Cu  Cu37  1  0.61594900  0.24031900  0.37347700  1
  Cu  Cu38  1  0.61594900  0.74031900  0.12652300  1
  Cu  Cu39  1  0.38405100  0.25968100  0.87347700  1
  Cu  Cu40  1  0.88709200  0.72443700  0.92617200  1
  Cu  Cu41  1  0.11290800  0.27556300  0.07382800  1
  Cu  Cu42  1  0.11290800  0.77556300  0.42617200  1
  Cu  Cu43  1  0.88709200  0.22443700  0.57382800  1
  Cu  Cu44  1  0.89403200  0.79211800  0.20648400  1
  Cu  Cu45  1  0.10596800  0.20788200  0.79351600  1
  Cu  Cu46  1  0.10596800  0.70788200  0.70648400  1
  Cu  Cu47  1  0.89403200  0.29211800  0.29351600  1
  Cu  Cu48  1  0.33485100  0.84311800  0.80413300  1
  Cu  Cu49  1  0.66514900  0.15688200  0.19586700  1
  Cu  Cu50  1  0.66514900  0.65688200  0.30413300  1
  Cu  Cu51  1  0.33485100  0.34311800  0.69586700  1
  Cu  Cu52  1  0.59690300  0.71535600  0.87559200  1
  Cu  Cu53  1  0.40309700  0.28464400  0.12440800  1
  Cu  Cu54  1  0.40309700  0.78464400  0.37559200  1
  Cu  Cu55  1  0.59690300  0.21535600  0.62440800  1
