# generated using pymatgen
data_Cu9(Ni3C4)4
_symmetry_space_group_name_H-M   'P 1'
_cell_length_a   11.67695100
_cell_length_b   10.20505400
_cell_length_c   18.99681053
_cell_angle_alpha   90.00000000
_cell_angle_beta   126.39602002
_cell_angle_gamma   90.00000000
_symmetry_Int_Tables_number   1
_chemical_formula_structural   Cu9(Ni3C4)4
_chemical_formula_sum   'Cu36 Ni48 C64'
_cell_volume   1822.15902652
_cell_formula_units_Z   4
loop_
 _symmetry_equiv_pos_site_id
 _symmetry_equiv_pos_as_xyz
  1  'x, y, z'
loop_
 _atom_site_type_symbol
 _atom_site_label
 _atom_site_symmetry_multiplicity
 _atom_site_fract_x
 _atom_site_fract_y
 _atom_site_fract_z
 _atom_site_occupancy
  C  C0  1  0.37454800  0.92733500  0.13117900  1
  C  C1  1  0.62545200  0.42733500  0.36882100  1
  C  C2  1  0.62545200  0.07266500  0.86882100  1
  C  C3  1  0.37454800  0.57266500  0.63117900  1
  C  C4  1  0.56341600  0.11891300  0.30550000  1
  C  C5  1  0.43658400  0.61891300  0.19450000  1
  C  C6  1  0.43658400  0.88108700  0.69450000  1
  C  C7  1  0.56341600  0.38108700  0.80550000  1
  C  C8  1  0.50000000  0.00000000  0.00000000  1
  C  C9  1  0.50000000  0.50000000  0.50000000  1
  C  C10  1  0.00000000  0.00000000  0.00000000  1
  C  C11  1  0.00000000  0.50000000  0.50000000  1
  Ni  Ni12  1  0.51385400  0.76112900  0.36910900  1
  Ni  Ni13  1  0.48614600  0.26112900  0.13089100  1
  Ni  Ni14  1  0.48614600  0.23887100  0.63089100  1
  Ni  Ni15  1  0.51385400  0.73887100  0.86910900  1
  Ni  Ni16  1  0.78398900  0.04999300  0.26247900  1
  Ni  Ni17  1  0.21601100  0.54999300  0.23752100  1
  Ni  Ni18  1  0.21601100  0.95000700  0.73752100  1
  Ni  Ni19  1  0.78398900  0.45000700  0.76247900  1
  Ni  Ni20  1  0.48752000  0.61605600  0.04813500  1
  Ni  Ni21  1  0.51248000  0.11605600  0.45186500  1
  Ni  Ni22  1  0.51248000  0.38394400  0.95186500  1
  Ni  Ni23  1  0.48752000  0.88394400  0.54813500  1
  Ni  Ni24  1  0.24606300  0.20849600  0.22445800  1
  Ni  Ni25  1  0.75393700  0.70849600  0.27554200  1
  Ni  Ni26  1  0.75393700  0.79150400  0.77554200  1
  Ni  Ni27  1  0.24606300  0.29150400  0.72445800  1
  Ni  Ni28  1  0.23652200  0.16403100  0.92841500  1
  Ni  Ni29  1  0.76347800  0.66403100  0.57158500  1
  Ni  Ni30  1  0.76347800  0.83596900  0.07158500  1
  Ni  Ni31  1  0.23652200  0.33596900  0.42841500  1
  Ni  Ni32  1  0.02028200  0.70826300  0.02080600  1
  Ni  Ni33  1  0.97971800  0.20826300  0.47919400  1
  Ni  Ni34  1  0.97971800  0.29173700  0.97919400  1
  Ni  Ni35  1  0.02028200  0.79173700  0.52080600  1
  Ni  Ni36  1  0.96281500  0.55851900  0.12191000  1
  Ni  Ni37  1  0.03718500  0.05851900  0.37809000  1
  Ni  Ni38  1  0.03718500  0.44148100  0.87809000  1
  Ni  Ni39  1  0.96281500  0.94148100  0.62191000  1
  Ni  Ni40  1  0.92838200  0.38708200  0.10118500  1
  Ni  Ni41  1  0.07161800  0.88708200  0.39881500  1
  Ni  Ni42  1  0.07161800  0.61291800  0.89881500  1
  Ni  Ni43  1  0.92838200  0.11291800  0.60118500  1
  Ni  Ni44  1  0.79147200  0.50520600  0.03432000  1
  Ni  Ni45  1  0.20852800  0.00520600  0.46568000  1
  Ni  Ni46  1  0.20852800  0.49479400  0.96568000  1
  Ni  Ni47  1  0.79147200  0.99479400  0.53432000  1
  Ni  Ni48  1  0.83841100  0.38138100  0.26033000  1
  Ni  Ni49  1  0.16158900  0.88138100  0.23967000  1
  Ni  Ni50  1  0.16158900  0.61861900  0.73967000  1
  Ni  Ni51  1  0.83841100  0.11861900  0.76033000  1
  Ni  Ni52  1  0.80667500  0.28049000  0.17217200  1
  Ni  Ni53  1  0.19332500  0.78049000  0.32782800  1
  Ni  Ni54  1  0.19332500  0.71951000  0.82782800  1
  Ni  Ni55  1  0.80667500  0.21951000  0.67217200  1
  Ni  Ni56  1  0.98003800  0.33613500  0.25311500  1
  Ni  Ni57  1  0.01996200  0.83613500  0.24688500  1
  Ni  Ni58  1  0.01996200  0.66386500  0.74688500  1
  Ni  Ni59  1  0.98003800  0.16386500  0.75311500  1
  Cu  Cu60  1  0.83851500  0.48387700  0.16146100  1
  Cu  Cu61  1  0.16148500  0.98387700  0.33853900  1
  Cu  Cu62  1  0.16148500  0.51612300  0.83853900  1
  Cu  Cu63  1  0.83851500  0.01612300  0.66146100  1
  Cu  Cu64  1  0.88320200  0.48111800  0.10124600  1
  Cu  Cu65  1  0.11679800  0.98111800  0.39875400  1
  Cu  Cu66  1  0.11679800  0.51888200  0.89875400  1
  Cu  Cu67  1  0.88320200  0.01888200  0.60124600  1
  Cu  Cu68  1  0.86717900  0.36385300  0.21578600  1
  Cu  Cu69  1  0.13282100  0.86385300  0.28421400  1
  Cu  Cu70  1  0.13282100  0.63614700  0.78421400  1
  Cu  Cu71  1  0.86717900  0.13614700  0.71578600  1
  Cu  Cu72  1  0.50419400  0.83973700  0.32585000  1
  Cu  Cu73  1  0.49580600  0.33973700  0.17415000  1
  Cu  Cu74  1  0.49580600  0.16026300  0.67415000  1
  Cu  Cu75  1  0.50419400  0.66026300  0.82585000  1
  Cu  Cu76  1  0.67813400  0.02425000  0.20260700  1
  Cu  Cu77  1  0.32186600  0.52425000  0.29739300  1
  Cu  Cu78  1  0.32186600  0.97575000  0.79739300  1
  Cu  Cu79  1  0.67813400  0.47575000  0.70260700  1
  Cu  Cu80  1  0.47440800  0.72150000  0.05444000  1
  Cu  Cu81  1  0.52559200  0.22150000  0.44556000  1
  Cu  Cu82  1  0.52559200  0.27850000  0.94556000  1
  Cu  Cu83  1  0.47440800  0.77850000  0.55444000  1
  Cu  Cu84  1  0.22895800  0.13501300  0.17657000  1
  Cu  Cu85  1  0.77104200  0.63501300  0.32343000  1
  Cu  Cu86  1  0.77104200  0.86498700  0.82343000  1
  Cu  Cu87  1  0.22895800  0.36498700  0.67657000  1
  Cu  Cu88  1  0.22674400  0.09839300  0.97076500  1
  Cu  Cu89  1  0.77325600  0.59839300  0.52923500  1
  Cu  Cu90  1  0.77325600  0.90160700  0.02923500  1
  Cu  Cu91  1  0.22674400  0.40160700  0.47076500  1
  Cu  Cu92  1  0.13544000  0.72911300  0.06439900  1
  Cu  Cu93  1  0.86456000  0.22911300  0.43560100  1
  Cu  Cu94  1  0.86456000  0.27088700  0.93560100  1
  Cu  Cu95  1  0.13544000  0.77088700  0.56439900  1
  C  C96  1  0.78065700  0.58171700  0.16506400  1
  C  C97  1  0.21934300  0.08171700  0.33493600  1
  C  C98  1  0.21934300  0.41828300  0.83493600  1
  C  C99  1  0.78065700  0.91828300  0.66506400  1
  C  C100  1  0.44431800  0.80870100  0.24567300  1
  C  C101  1  0.55568200  0.30870100  0.25432700  1
  C  C102  1  0.55568200  0.19129900  0.75432700  1
  C  C103  1  0.44431800  0.69129900  0.74567300  1
  C  C104  1  0.55211400  0.95054100  0.36020800  1
  C  C105  1  0.44788600  0.45054100  0.13979200  1
  C  C106  1  0.44788600  0.04945900  0.63979200  1
  C  C107  1  0.55211400  0.54945900  0.86020800  1
  C  C108  1  0.57811100  0.01683600  0.21188200  1
  C  C109  1  0.42188900  0.51683600  0.28811800  1
  C  C110  1  0.42188900  0.98316400  0.78811800  1
  C  C111  1  0.57811100  0.48316400  0.71188200  1
  C  C112  1  0.66782700  0.00531700  0.13384400  1
  C  C113  1  0.33217300  0.50531700  0.36615600  1
  C  C114  1  0.33217300  0.99468300  0.86615600  1
  C  C115  1  0.66782700  0.49468300  0.63384400  1
  C  C116  1  0.45413500  0.75193500  0.11208400  1
  C  C117  1  0.54586500  0.25193500  0.38791600  1
  C  C118  1  0.54586500  0.24806500  0.88791600  1
  C  C119  1  0.45413500  0.74806500  0.61208400  1
  C  C120  1  0.48015100  0.79873700  0.00519900  1
  C  C121  1  0.51984900  0.29873700  0.49480100  1
  C  C122  1  0.51984900  0.20126300  0.99480100  1
  C  C123  1  0.48015100  0.70126300  0.50519900  1
  C  C124  1  0.34224500  0.08322000  0.19206000  1
  C  C125  1  0.65775500  0.58322000  0.30794000  1
  C  C126  1  0.65775500  0.91678000  0.80794000  1
  C  C127  1  0.34224500  0.41678000  0.69206000  1
  C  C128  1  0.10261000  0.11071700  0.11342100  1
  C  C129  1  0.89739000  0.61071700  0.38657900  1
  C  C130  1  0.89739000  0.88928300  0.88657900  1
  C  C131  1  0.10261000  0.38928300  0.61342100  1
  C  C132  1  0.33701200  0.02713000  0.02410100  1
  C  C133  1  0.66298800  0.52713000  0.47589900  1
  C  C134  1  0.66298800  0.97287000  0.97589900  1
  C  C135  1  0.33701200  0.47287000  0.52410100  1
  C  C136  1  0.11259600  0.10157000  0.96315000  1
  C  C137  1  0.88740400  0.60157000  0.53685000  1
  C  C138  1  0.88740400  0.89843000  0.03685000  1
  C  C139  1  0.11259600  0.39843000  0.46315000  1
  C  C140  1  0.16979200  0.84969000  0.06679300  1
  C  C141  1  0.83020800  0.34969000  0.43320700  1
  C  C142  1  0.83020800  0.15031000  0.93320700  1
  C  C143  1  0.16979200  0.65031000  0.56679300  1
  C  C144  1  0.21713200  0.63417600  0.10564800  1
  C  C145  1  0.78286800  0.13417600  0.39435200  1
  C  C146  1  0.78286800  0.36582400  0.89435200  1
  C  C147  1  0.21713200  0.86582400  0.60564800  1
