# generated using pymatgen
data_Cu4NiC2
_symmetry_space_group_name_H-M   'P 1'
_cell_length_a   6.76032595
_cell_length_b   6.76032595
_cell_length_c   5.43243700
_cell_angle_alpha   90.00000000
_cell_angle_beta   90.00000000
_cell_angle_gamma   119.99999954
_symmetry_Int_Tables_number   1
_chemical_formula_structural   Cu4NiC2
_chemical_formula_sum   'Cu8 Ni2 C4'
_cell_volume   215.01096316
_cell_formula_units_Z   2
loop_
 _symmetry_equiv_pos_site_id
 _symmetry_equiv_pos_as_xyz
  1  'x, y, z'
loop_
 _atom_site_type_symbol
 _atom_site_label
 _atom_site_symmetry_multiplicity
 _atom_site_fract_x
 _atom_site_fract_y
 _atom_site_fract_z
 _atom_site_occupancy
  C  C0  1  0.50000000  0.00000000  0.50000000  1
  C  C1  1  0.00000000  0.50000000  0.50000000  1
  C  C2  1  0.00000000  0.00000000  0.00000000  1
  C  C3  1  0.50000000  0.50000000  0.50000000  1
  Ni  Ni4  1  0.66666700  0.33333300  0.91662900  1
  Ni  Ni5  1  0.33333300  0.66666700  0.08337100  1
  Cu  Cu6  1  0.33547600  0.16773800  0.74747100  1
  Cu  Cu7  1  0.66666700  0.33333300  0.31316600  1
  Cu  Cu8  1  0.83226200  0.66452400  0.74747100  1
  Cu  Cu9  1  0.83226200  0.16773800  0.74747100  1
  Cu  Cu10  1  0.16773800  0.33547600  0.25252900  1
  Cu  Cu11  1  0.16773800  0.83226200  0.25252900  1
  Cu  Cu12  1  0.33333300  0.66666700  0.68683400  1
  Cu  Cu13  1  0.66452400  0.83226200  0.25252900  1
