# generated using pymatgen
data_CuNiC14
_symmetry_space_group_name_H-M   'P 1'
_cell_length_a   7.83425200
_cell_length_b   7.83425200
_cell_length_c   5.54041700
_cell_angle_alpha   90.00000000
_cell_angle_beta   90.00000000
_cell_angle_gamma   90.00000000
_symmetry_Int_Tables_number   1
_chemical_formula_structural   CuNiC14
_chemical_formula_sum   'Cu1 Ni1 C14'
_cell_volume   340.04588796
_cell_formula_units_Z   1
loop_
 _symmetry_equiv_pos_site_id
 _symmetry_equiv_pos_as_xyz
  1  'x, y, z'
loop_
 _atom_site_type_symbol
 _atom_site_label
 _atom_site_symmetry_multiplicity
 _atom_site_fract_x
 _atom_site_fract_y
 _atom_site_fract_z
 _atom_site_occupancy
  Ni  Ni0  1  0.50000000  0.50000000  0.00000000  1
  Cu  Cu1  1  0.00000000  0.00000000  0.00000000  1
  C  C2  1  0.24963300  0.75036700  0.00000000  1
  C  C3  1  0.75036700  0.24963300  0.00000000  1
  C  C4  1  0.24963300  0.24963300  0.00000000  1
  C  C5  1  0.75036700  0.75036700  0.00000000  1
  C  C6  1  0.00000000  0.00000000  0.50000000  1
  C  C7  1  0.50000000  0.50000000  0.50000000  1
  C  C8  1  0.50000000  0.25876600  0.75876500  1
  C  C9  1  0.00000000  0.75783000  0.75794800  1
  C  C10  1  0.50000000  0.74123400  0.75876500  1
  C  C11  1  0.00000000  0.24217000  0.75794800  1
  C  C12  1  0.75783000  0.00000000  0.24205200  1
  C  C13  1  0.25876600  0.50000000  0.24123500  1
  C  C14  1  0.24217000  0.00000000  0.24205200  1
  C  C15  1  0.74123400  0.50000000  0.24123500  1
