# generated using pymatgen
data_CuNiC8
_symmetry_space_group_name_H-M   'P 1'
_cell_length_a   8.48713645
_cell_length_b   8.49307163
_cell_length_c   8.49950187
_cell_angle_alpha   90.00000000
_cell_angle_beta   90.00000000
_cell_angle_gamma   90.00000000
_symmetry_Int_Tables_number   1
_chemical_formula_structural   CuNiC8
_chemical_formula_sum   'Cu4 Ni4 C32'
_cell_volume   612.65988519
_cell_formula_units_Z   4
loop_
 _symmetry_equiv_pos_site_id
 _symmetry_equiv_pos_as_xyz
  1  'x, y, z'
loop_
 _atom_site_type_symbol
 _atom_site_label
 _atom_site_symmetry_multiplicity
 _atom_site_fract_x
 _atom_site_fract_y
 _atom_site_fract_z
 _atom_site_occupancy
  C  C0  1  -0.00000000  -0.00000000  -0.00000000  1
  C  C1  1  0.50000000  0.50000000  0.50000000  1
  C  C2  1  0.50000000  0.50000000  -0.00000000  1
  C  C3  1  0.50000000  -0.00000000  -0.00000000  1
  Ni  Ni4  1  -0.00000000  0.50000000  0.50000000  1
  Ni  Ni5  1  0.50000000  0.00000000  0.50000000  1
  Ni  Ni6  1  -0.00000000  0.50000000  -0.00000000  1
  Ni  Ni7  1  -0.00000000  0.00000000  0.50000000  1
  Cu  Cu8  1  0.75164908  0.75005114  0.74815871  1
  Cu  Cu9  1  0.24835092  0.24994886  0.74815871  1
  Cu  Cu10  1  0.24835092  0.75005114  0.25184129  1
  Cu  Cu11  1  0.75164908  0.24994886  0.25184129  1
  C  C12  1  0.24711764  0.24883481  0.25409644  1
  C  C13  1  0.75288236  0.75116519  0.25409644  1
  C  C14  1  0.75288236  0.24883481  0.74590356  1
  C  C15  1  0.24711764  0.75116519  0.74590356  1
  C  C16  1  0.01392058  0.22188496  0.28464102  1
  C  C17  1  0.98607942  0.77811504  0.28464102  1
  C  C18  1  0.98607942  0.22188496  0.71535898  1
  C  C19  1  0.01392058  0.77811504  0.71535898  1
  C  C20  1  0.26819038  0.01447703  0.22649034  1
  C  C21  1  0.26819038  0.98552297  0.77350966  1
  C  C22  1  0.73180962  0.98552297  0.22649034  1
  C  C23  1  0.73180962  0.01447703  0.77350966  1
  C  C24  1  0.21790768  0.27737201  0.01789824  1
  C  C25  1  0.78209232  0.27737201  0.98210176  1
  C  C26  1  0.21790768  0.72262799  0.98210176  1
  C  C27  1  0.78209232  0.72262799  0.01789824  1
  C  C28  1  0.48316934  0.27215758  0.22956621  1
  C  C29  1  0.51683066  0.72784242  0.22956621  1
  C  C30  1  0.51683066  0.27215758  0.77043379  1
  C  C31  1  0.48316934  0.72784242  0.77043379  1
  C  C32  1  0.22006408  0.48392047  0.28193998  1
  C  C33  1  0.22006408  0.51607953  0.71806002  1
  C  C34  1  0.77993592  0.51607953  0.28193998  1
  C  C35  1  0.77993592  0.48392047  0.71806002  1
  C  C36  1  0.27969362  0.22054262  0.48665811  1
  C  C37  1  0.72030638  0.22054262  0.51334189  1
  C  C38  1  0.27969362  0.77945738  0.51334189  1
  C  C39  1  0.72030638  0.77945738  0.48665811  1
