# generated using pymatgen
data_Cu2(Ni2C3)3
_symmetry_space_group_name_H-M   'P 1'
_cell_length_a   7.29702697
_cell_length_b   8.01011546
_cell_length_c   8.22688112
_cell_angle_alpha   129.50940072
_cell_angle_beta   105.67460344
_cell_angle_gamma   77.28919170
_symmetry_Int_Tables_number   1
_chemical_formula_structural   Cu2(Ni2C3)3
_chemical_formula_sum   'Cu2 Ni6 C9'
_cell_volume   356.44661226
_cell_formula_units_Z   1
loop_
 _symmetry_equiv_pos_site_id
 _symmetry_equiv_pos_as_xyz
  1  'x, y, z'
loop_
 _atom_site_type_symbol
 _atom_site_label
 _atom_site_symmetry_multiplicity
 _atom_site_fract_x
 _atom_site_fract_y
 _atom_site_fract_z
 _atom_site_occupancy
  C  C0  1  0.88136900  0.87083500  0.62462800  1
  C  C1  1  0.37332700  0.60725400  0.38636100  1
  C  C2  1  0.45672600  0.03567300  0.87314100  1
  C  C3  1  0.69958400  0.35441600  0.56514500  1
  C  C4  1  0.18004800  0.03981700  0.28037300  1
  C  C5  1  0.11457500  0.39427600  0.91860700  1
  C  C6  1  0.70495600  0.71990500  0.09597000  1
  C  C7  1  0.25889000  0.63429200  0.77823400  1
  C  C8  1  0.81355700  0.31458200  0.14861600  1
  Ni  Ni9  1  0.34370800  0.63744800  0.94234700  1
  Ni  Ni10  1  0.13958200  0.79682400  0.81117100  1
  Ni  Ni11  1  0.29392400  0.47401100  0.58792700  1
  Ni  Ni12  1  0.81968700  0.22127100  0.94998200  1
  Ni  Ni13  1  0.79546000  0.19569900  0.20013300  1
  Ni  Ni14  1  0.81952600  0.52422400  0.29142800  1
  Cu  Cu15  1  0.08433700  0.94674500  0.52738700  1
  Cu  Cu16  1  0.62699200  0.97439500  0.46855200  1
