# generated using pymatgen
data_Cu6NiC11
_symmetry_space_group_name_H-M   'P 1'
_cell_length_a   6.96890300
_cell_length_b   4.18419200
_cell_length_c   14.42855411
_cell_angle_alpha   90.00000000
_cell_angle_beta   101.06089281
_cell_angle_gamma   90.00000000
_symmetry_Int_Tables_number   1
_chemical_formula_structural   Cu6NiC11
_chemical_formula_sum   'Cu12 Ni2 C22'
_cell_volume   412.91003796
_cell_formula_units_Z   2
loop_
 _symmetry_equiv_pos_site_id
 _symmetry_equiv_pos_as_xyz
  1  'x, y, z'
loop_
 _atom_site_type_symbol
 _atom_site_label
 _atom_site_symmetry_multiplicity
 _atom_site_fract_x
 _atom_site_fract_y
 _atom_site_fract_z
 _atom_site_occupancy
  C  C0  1  0.42389600  0.34695800  0.29970700  1
  C  C1  1  0.42389600  0.65304200  0.79970700  1
  C  C2  1  0.40844800  0.57021200  0.45666600  1
  C  C3  1  0.40844800  0.42978800  0.95666600  1
  C  C4  1  0.03619600  0.72145800  0.37424100  1
  C  C5  1  0.03619600  0.27854200  0.87424100  1
  C  C6  1  0.90157500  0.82542800  0.26281400  1
  C  C7  1  0.90157500  0.17457200  0.76281400  1
  C  C8  1  0.07014800  0.74661200  0.12754400  1
  C  C9  1  0.07014800  0.25338800  0.62754400  1
  C  C10  1  0.28755900  0.52797100  0.14792800  1
  C  C11  1  0.28755900  0.47202900  0.64792800  1
  Ni  Ni12  1  0.17072800  0.61522500  0.26576400  1
  Ni  Ni13  1  0.17072800  0.38477500  0.76576400  1
  Cu  Cu14  1  0.32886800  0.49477400  0.32483800  1
  Cu  Cu15  1  0.32886800  0.50522600  0.82483800  1
  Cu  Cu16  1  0.76792800  0.03716400  0.10582600  1
  Cu  Cu17  1  0.76792800  0.96283600  0.60582600  1
  Cu  Cu18  1  0.79264800  0.11348500  0.01483300  1
  Cu  Cu19  1  0.79264800  0.88651500  0.51483300  1
  Cu  Cu20  1  0.60678400  0.15387500  0.13489200  1
  Cu  Cu21  1  0.60678400  0.84612500  0.63489200  1
  Cu  Cu22  1  0.02541000  0.73333700  0.30300200  1
  Cu  Cu23  1  0.02541000  0.26666300  0.80300200  1
  Cu  Cu24  1  0.17052000  0.61608100  0.17304800  1
  Cu  Cu25  1  0.17052000  0.38391900  0.67304800  1
  C  C26  1  0.67217000  0.25163300  0.95337500  1
  C  C27  1  0.67217000  0.74836700  0.45337500  1
  C  C28  1  0.95589100  0.01924200  0.00150200  1
  C  C29  1  0.95589100  0.98075800  0.50150200  1
  C  C30  1  0.47598000  0.32385600  0.08690000  1
  C  C31  1  0.47598000  0.67614400  0.58690000  1
  C  C32  1  0.60269300  0.07629000  0.21878000  1
  C  C33  1  0.60269300  0.92371000  0.71878000  1
  C  C34  1  0.30835600  0.43301000  0.41734100  1
  C  C35  1  0.30835600  0.56699000  0.91734100  1
