# generated using pymatgen
data_Cu2Ni3C13
_symmetry_space_group_name_H-M   'P 1'
_cell_length_a   9.26468127
_cell_length_b   17.22056005
_cell_length_c   21.86622575
_cell_angle_alpha   90.00000000
_cell_angle_beta   90.00000000
_cell_angle_gamma   90.00000000
_symmetry_Int_Tables_number   1
_chemical_formula_structural   Cu2Ni3C13
_chemical_formula_sum   'Cu32 Ni48 C208'
_cell_volume   3488.60325820
_cell_formula_units_Z   16
loop_
 _symmetry_equiv_pos_site_id
 _symmetry_equiv_pos_as_xyz
  1  'x, y, z'
loop_
 _atom_site_type_symbol
 _atom_site_label
 _atom_site_symmetry_multiplicity
 _atom_site_fract_x
 _atom_site_fract_y
 _atom_site_fract_z
 _atom_site_occupancy
  C  C0  1  0.58723670  0.75901502  0.47061331  1
  C  C1  1  0.08723670  0.74098498  0.52938669  1
  C  C2  1  0.41276330  0.25901502  0.02938669  1
  C  C3  1  0.91276330  0.24098498  0.97061331  1
  C  C4  1  0.41276330  0.24098498  0.52938669  1
  C  C5  1  0.91276330  0.25901502  0.47061331  1
  C  C6  1  0.58723670  0.74098498  0.97061331  1
  C  C7  1  0.08723670  0.75901502  0.02938669  1
  C  C8  1  0.46662612  0.75914905  0.67030711  1
  C  C9  1  0.96662612  0.74085095  0.32969289  1
  C  C10  1  0.53337388  0.25914905  0.82969289  1
  C  C11  1  0.03337388  0.24085095  0.17030711  1
  C  C12  1  0.53337388  0.24085095  0.32969289  1
  C  C13  1  0.03337388  0.25914905  0.67030711  1
  C  C14  1  0.46662612  0.74085095  0.17030711  1
  C  C15  1  0.96662612  0.75914905  0.82969289  1
  C  C16  1  0.43762336  0.58140627  0.74834582  1
  C  C17  1  0.93762336  0.91859373  0.25165418  1
  C  C18  1  0.56237664  0.08140627  0.75165418  1
  C  C19  1  0.06237664  0.41859373  0.24834582  1
  C  C20  1  0.56237664  0.41859373  0.25165418  1
  C  C21  1  0.06237664  0.08140627  0.74834582  1
  C  C22  1  0.43762336  0.91859373  0.24834582  1
  C  C23  1  0.93762336  0.58140627  0.75165418  1
  C  C24  1  0.56547840  0.55669636  0.68946280  1
  C  C25  1  0.06547840  0.94330364  0.31053720  1
  C  C26  1  0.43452160  0.05669636  0.81053720  1
  C  C27  1  0.93452160  0.44330364  0.18946280  1
  C  C28  1  0.43452160  0.44330364  0.31053720  1
  C  C29  1  0.93452160  0.05669636  0.68946280  1
  C  C30  1  0.56547840  0.94330364  0.18946280  1
  C  C31  1  0.06547840  0.55669636  0.81053720  1
  C  C32  1  0.60854732  0.53814266  0.76741424  1
  C  C33  1  0.10854732  0.96185734  0.23258576  1
  C  C34  1  0.39145268  0.03814266  0.73258576  1
  C  C35  1  0.89145268  0.46185734  0.26741424  1
  C  C36  1  0.39145268  0.46185734  0.23258576  1
  C  C37  1  0.89145268  0.03814266  0.76741424  1
  C  C38  1  0.60854732  0.96185734  0.26741424  1
  C  C39  1  0.10854732  0.53814266  0.73258576  1
  C  C40  1  0.56853838  0.77037160  0.80968732  1
  C  C41  1  0.06853838  0.72962840  0.19031268  1
  C  C42  1  0.43146162  0.27037160  0.69031268  1
  C  C43  1  0.93146162  0.22962840  0.30968732  1
  C  C44  1  0.43146162  0.22962840  0.19031268  1
  C  C45  1  0.93146162  0.27037160  0.80968732  1
  C  C46  1  0.56853838  0.72962840  0.30968732  1
  C  C47  1  0.06853838  0.77037160  0.69031268  1
  C  C48  1  0.48668330  0.67906053  0.82740361  1
  C  C49  1  0.98668330  0.82093947  0.17259639  1
  C  C50  1  0.51331670  0.17906053  0.67259639  1
  C  C51  1  0.01331670  0.32093947  0.32740361  1
  C  C52  1  0.51331670  0.32093947  0.17259639  1
  C  C53  1  0.01331670  0.17906053  0.82740361  1
  C  C54  1  0.48668330  0.82093947  0.32740361  1
  C  C55  1  0.98668330  0.67906053  0.67259639  1
  C  C56  1  0.62586537  0.95502781  0.54073356  1
  C  C57  1  0.12586537  0.54497219  0.45926644  1
  C  C58  1  0.37413463  0.45502781  0.95926644  1
  C  C59  1  0.87413463  0.04497219  0.04073356  1
  C  C60  1  0.37413463  0.04497219  0.45926644  1
  C  C61  1  0.87413463  0.45502781  0.54073356  1
  C  C62  1  0.62586537  0.54497219  0.04073356  1
  C  C63  1  0.12586537  0.95502781  0.95926644  1
  C  C64  1  0.44165792  0.93068490  0.55762210  1
  C  C65  1  0.94165792  0.56931510  0.44237790  1
  C  C66  1  0.55834208  0.43068490  0.94237790  1
  C  C67  1  0.05834208  0.06931510  0.05762210  1
  C  C68  1  0.55834208  0.06931510  0.44237790  1
  C  C69  1  0.05834208  0.43068490  0.55762210  1
  C  C70  1  0.44165792  0.56931510  0.05762210  1
  C  C71  1  0.94165792  0.93068490  0.94237790  1
  C  C72  1  0.56460805  0.95326544  0.61902991  1
  C  C73  1  0.06460805  0.54673456  0.38097009  1
  C  C74  1  0.43539195  0.45326544  0.88097009  1
  C  C75  1  0.93539195  0.04673456  0.11902991  1
  C  C76  1  0.43539195  0.04673456  0.38097009  1
  C  C77  1  0.93539195  0.45326544  0.61902991  1
  C  C78  1  0.56460805  0.54673456  0.11902991  1
  C  C79  1  0.06460805  0.95326544  0.88097009  1
  C  C80  1  0.56018984  0.58433840  0.38500806  1
  C  C81  1  0.06018984  0.91566160  0.61499194  1
  C  C82  1  0.43981016  0.08433840  0.11499194  1
  C  C83  1  0.93981016  0.41566160  0.88500806  1
  C  C84  1  0.43981016  0.41566160  0.61499194  1
  C  C85  1  0.93981016  0.08433840  0.38500806  1
  C  C86  1  0.56018984  0.91566160  0.88500806  1
  C  C87  1  0.06018984  0.58433840  0.11499194  1
  C  C88  1  0.59042956  0.55321227  0.46159067  1
  C  C89  1  0.09042956  0.94678773  0.53840933  1
  C  C90  1  0.40957044  0.05321227  0.03840933  1
  C  C91  1  0.90957044  0.44678773  0.96159067  1
  C  C92  1  0.40957044  0.44678773  0.53840933  1
  C  C93  1  0.90957044  0.05321227  0.46159067  1
  C  C94  1  0.59042956  0.94678773  0.96159067  1
  C  C95  1  0.09042956  0.55321227  0.03840933  1
  C  C96  1  0.43758074  0.51587762  0.42068377  1
  C  C97  1  0.93758074  0.98412238  0.57931623  1
  C  C98  1  0.56241926  0.01587762  0.07931623  1
  C  C99  1  0.06241926  0.48412238  0.92068377  1
  C  C100  1  0.56241926  0.48412238  0.57931623  1
  C  C101  1  0.06241926  0.01587762  0.42068377  1
  C  C102  1  0.43758074  0.98412238  0.92068377  1
  C  C103  1  0.93758074  0.51587762  0.07931623  1
  C  C104  1  0.29245046  0.62781651  0.36159004  1
  C  C105  1  0.79245046  0.87218349  0.63840996  1
  C  C106  1  0.70754954  0.12781651  0.13840996  1
  C  C107  1  0.20754954  0.37218349  0.86159004  1
  C  C108  1  0.70754954  0.37218349  0.63840996  1
  C  C109  1  0.20754954  0.12781651  0.36159004  1
  C  C110  1  0.29245046  0.87218349  0.86159004  1
  C  C111  1  0.79245046  0.62781651  0.13840996  1
  C  C112  1  0.30920579  0.72785099  0.38006769  1
  C  C113  1  0.80920579  0.77214901  0.61993231  1
  C  C114  1  0.69079421  0.22785099  0.11993231  1
  C  C115  1  0.19079421  0.27214901  0.88006769  1
  C  C116  1  0.69079421  0.27214901  0.61993231  1
  C  C117  1  0.19079421  0.22785099  0.38006769  1
  C  C118  1  0.30920579  0.77214901  0.88006769  1
  C  C119  1  0.80920579  0.72785099  0.11993231  1
  C  C120  1  0.62493936  0.93260304  0.38806331  1
  C  C121  1  0.12493936  0.56739696  0.61193669  1
  C  C122  1  0.37506064  0.43260304  0.11193669  1
  C  C123  1  0.87506064  0.06739696  0.88806331  1
  C  C124  1  0.37506064  0.06739696  0.61193669  1
  C  C125  1  0.87506064  0.43260304  0.38806331  1
  C  C126  1  0.62493936  0.56739696  0.88806331  1
  C  C127  1  0.12493936  0.93260304  0.11193669  1
  C  C128  1  0.80461425  0.92035947  0.41771579  1
  C  C129  1  0.30461425  0.57964053  0.58228421  1
  C  C130  1  0.19538575  0.42035947  0.08228421  1
  C  C131  1  0.69538575  0.07964053  0.91771579  1
  C  C132  1  0.19538575  0.07964053  0.58228421  1
  C  C133  1  0.69538575  0.42035947  0.41771579  1
  C  C134  1  0.80461425  0.57964053  0.91771579  1
  C  C135  1  0.30461425  0.92035947  0.08228421  1
  C  C136  1  0.77887241  0.93428572  0.33743663  1
  C  C137  1  0.27887241  0.56571428  0.66256337  1
  C  C138  1  0.22112759  0.43428572  0.16256337  1
  C  C139  1  0.72112759  0.06571428  0.83743663  1
  C  C140  1  0.22112759  0.06571428  0.66256337  1
  C  C141  1  0.72112759  0.43428572  0.33743663  1
  C  C142  1  0.77887241  0.56571428  0.83743663  1
  C  C143  1  0.27887241  0.93428572  0.16256337  1
  Ni  Ni144  1  0.58669581  0.70756233  0.81267416  1
  Ni  Ni145  1  0.08669581  0.79243767  0.18732584  1
  Ni  Ni146  1  0.41330419  0.20756233  0.68732584  1
  Ni  Ni147  1  0.91330419  0.29243767  0.31267416  1
  Ni  Ni148  1  0.41330419  0.29243767  0.18732584  1
  Ni  Ni149  1  0.91330419  0.20756233  0.81267416  1
  Ni  Ni150  1  0.58669581  0.79243767  0.31267416  1
  Ni  Ni151  1  0.08669581  0.70756233  0.68732584  1
  Ni  Ni152  1  0.28300784  0.67054477  0.39860094  1
  Ni  Ni153  1  0.78300784  0.82945523  0.60139906  1
  Ni  Ni154  1  0.71699216  0.17054477  0.10139906  1
  Ni  Ni155  1  0.21699216  0.32945523  0.89860094  1
  Ni  Ni156  1  0.71699216  0.32945523  0.60139906  1
  Ni  Ni157  1  0.21699216  0.17054477  0.39860094  1
  Ni  Ni158  1  0.28300784  0.82945523  0.89860094  1
  Ni  Ni159  1  0.78300784  0.67054477  0.10139906  1
  Ni  Ni160  1  0.55225286  0.57777441  0.73642249  1
  Ni  Ni161  1  0.05225286  0.92222559  0.26357751  1
  Ni  Ni162  1  0.44774714  0.07777441  0.76357751  1
  Ni  Ni163  1  0.94774714  0.42222559  0.23642249  1
  Ni  Ni164  1  0.44774714  0.42222559  0.26357751  1
  Ni  Ni165  1  0.94774714  0.07777441  0.73642249  1
  Ni  Ni166  1  0.55225286  0.92222559  0.23642249  1
  Ni  Ni167  1  0.05225286  0.57777441  0.76357751  1
  Ni  Ni168  1  0.55336480  0.92704052  0.57367067  1
  Ni  Ni169  1  0.05336480  0.57295948  0.42632933  1
  Ni  Ni170  1  0.44663520  0.42704052  0.92632933  1
  Ni  Ni171  1  0.94663520  0.07295948  0.07367067  1
  Ni  Ni172  1  0.44663520  0.07295948  0.42632933  1
  Ni  Ni173  1  0.94663520  0.42704052  0.57367067  1
  Ni  Ni174  1  0.55336480  0.57295948  0.07367067  1
  Ni  Ni175  1  0.05336480  0.92704052  0.92632933  1
  Ni  Ni176  1  0.50712829  0.56673722  0.42758273  1
  Ni  Ni177  1  0.00712829  0.93326278  0.57241727  1
  Ni  Ni178  1  0.49287171  0.06673722  0.07241727  1
  Ni  Ni179  1  0.99287171  0.43326278  0.92758273  1
  Ni  Ni180  1  0.49287171  0.43326278  0.57241727  1
  Ni  Ni181  1  0.99287171  0.06673722  0.42758273  1
  Ni  Ni182  1  0.50712829  0.93326278  0.92758273  1
  Ni  Ni183  1  0.00712829  0.56673722  0.07241727  1
  Ni  Ni184  1  0.73263707  0.90902420  0.37896875  1
  Ni  Ni185  1  0.23263707  0.59097580  0.62103125  1
  Ni  Ni186  1  0.26736293  0.40902420  0.12103125  1
  Ni  Ni187  1  0.76736293  0.09097580  0.87896875  1
  Ni  Ni188  1  0.26736293  0.09097580  0.62103125  1
  Ni  Ni189  1  0.76736293  0.40902420  0.37896875  1
  Ni  Ni190  1  0.73263707  0.59097580  0.87896875  1
  Ni  Ni191  1  0.23263707  0.90902420  0.12103125  1
  Cu  Cu192  1  0.63542038  0.67313752  0.73701768  1
  Cu  Cu193  1  0.13542038  0.82686248  0.26298232  1
  Cu  Cu194  1  0.36457962  0.17313752  0.76298232  1
  Cu  Cu195  1  0.86457962  0.32686248  0.23701768  1
  Cu  Cu196  1  0.36457962  0.32686248  0.26298232  1
  Cu  Cu197  1  0.86457962  0.17313752  0.73701768  1
  Cu  Cu198  1  0.63542038  0.82686248  0.23701768  1
  Cu  Cu199  1  0.13542038  0.67313752  0.76298232  1
  Cu  Cu200  1  0.59505444  0.82477337  0.57835282  1
  Cu  Cu201  1  0.09505444  0.67522663  0.42164718  1
  Cu  Cu202  1  0.40494556  0.32477337  0.92164718  1
  Cu  Cu203  1  0.90494556  0.17522663  0.07835282  1
  Cu  Cu204  1  0.40494556  0.17522663  0.42164718  1
  Cu  Cu205  1  0.90494556  0.32477337  0.57835282  1
  Cu  Cu206  1  0.59505444  0.67522663  0.07835282  1
  Cu  Cu207  1  0.09505444  0.82477337  0.92164718  1
  Cu  Cu208  1  0.40530712  0.64606803  0.46093120  1
  Cu  Cu209  1  0.90530712  0.85393197  0.53906880  1
  Cu  Cu210  1  0.59469288  0.14606803  0.03906880  1
  Cu  Cu211  1  0.09469288  0.35393197  0.96093120  1
  Cu  Cu212  1  0.59469288  0.35393197  0.53906880  1
  Cu  Cu213  1  0.09469288  0.14606803  0.46093120  1
  Cu  Cu214  1  0.40530712  0.85393197  0.96093120  1
  Cu  Cu215  1  0.90530712  0.64606803  0.03906880  1
  Cu  Cu216  1  0.72095042  0.80447418  0.37307363  1
  Cu  Cu217  1  0.22095042  0.69552582  0.62692637  1
  Cu  Cu218  1  0.27904958  0.30447418  0.12692637  1
  Cu  Cu219  1  0.77904958  0.19552582  0.87307363  1
  Cu  Cu220  1  0.27904958  0.19552582  0.62692637  1
  Cu  Cu221  1  0.77904958  0.30447418  0.37307363  1
  Cu  Cu222  1  0.72095042  0.69552582  0.87307363  1
  Cu  Cu223  1  0.22095042  0.80447418  0.12692637  1
  C  C224  1  0.27355034  0.88354123  0.73076911  1
  C  C225  1  0.77355034  0.61645877  0.26923089  1
  C  C226  1  0.72644966  0.38354123  0.76923089  1
  C  C227  1  0.22644966  0.11645877  0.23076911  1
  C  C228  1  0.72644966  0.11645877  0.26923089  1
  C  C229  1  0.22644966  0.38354123  0.73076911  1
  C  C230  1  0.27355034  0.61645877  0.23076911  1
  C  C231  1  0.77355034  0.88354123  0.76923089  1
  C  C232  1  0.76635873  0.63601093  0.56087956  1
  C  C233  1  0.26635873  0.86398907  0.43912044  1
  C  C234  1  0.23364127  0.13601093  0.93912044  1
  C  C235  1  0.73364127  0.36398907  0.06087956  1
  C  C236  1  0.23364127  0.36398907  0.43912044  1
  C  C237  1  0.73364127  0.13601093  0.56087956  1
  C  C238  1  0.76635873  0.86398907  0.06087956  1
  C  C239  1  0.26635873  0.63601093  0.93912044  1
  C  C240  1  0.34158626  0.82392023  0.75238213  1
  C  C241  1  0.84158626  0.67607977  0.24761787  1
  C  C242  1  0.65841374  0.32392023  0.74761787  1
  C  C243  1  0.15841374  0.17607977  0.25238213  1
  C  C244  1  0.65841374  0.17607977  0.24761787  1
  C  C245  1  0.15841374  0.32392023  0.75238213  1
  C  C246  1  0.34158626  0.67607977  0.25238213  1
  C  C247  1  0.84158626  0.82392023  0.74761787  1
  C  C248  1  0.27954032  0.89718019  0.67392683  1
  C  C249  1  0.77954032  0.60281981  0.32607317  1
  C  C250  1  0.72045968  0.39718019  0.82607317  1
  C  C251  1  0.22045968  0.10281981  0.17392683  1
  C  C252  1  0.72045968  0.10281981  0.32607317  1
  C  C253  1  0.22045968  0.39718019  0.67392683  1
  C  C254  1  0.27954032  0.60281981  0.17392683  1
  C  C255  1  0.77954032  0.89718019  0.82607317  1
  C  C256  1  0.20274978  0.92599840  0.76658207  1
  C  C257  1  0.70274978  0.57400160  0.23341793  1
  C  C258  1  0.79725022  0.42599840  0.73341793  1
  C  C259  1  0.29725022  0.07400160  0.26658207  1
  C  C260  1  0.79725022  0.07400160  0.23341793  1
  C  C261  1  0.29725022  0.42599840  0.76658207  1
  C  C262  1  0.20274978  0.57400160  0.26658207  1
  C  C263  1  0.70274978  0.92599840  0.73341793  1
  C  C264  1  0.79329683  0.67185998  0.51045079  1
  C  C265  1  0.29329683  0.82814002  0.48954921  1
  C  C266  1  0.20670317  0.17185998  0.98954921  1
  C  C267  1  0.70670317  0.32814002  0.01045079  1
  C  C268  1  0.20670317  0.32814002  0.48954921  1
  C  C269  1  0.70670317  0.17185998  0.51045079  1
  C  C270  1  0.79329683  0.82814002  0.01045079  1
  C  C271  1  0.29329683  0.67185998  0.98954921  1
  C  C272  1  0.63709113  0.62178801  0.57571781  1
  C  C273  1  0.13709113  0.87821199  0.42428219  1
  C  C274  1  0.36290887  0.12178801  0.92428219  1
  C  C275  1  0.86290887  0.37821199  0.07571781  1
  C  C276  1  0.36290887  0.37821199  0.42428219  1
  C  C277  1  0.86290887  0.12178801  0.57571781  1
  C  C278  1  0.63709113  0.87821199  0.07571781  1
  C  C279  1  0.13709113  0.62178801  0.92428219  1
  C  C280  1  0.87033974  0.61614681  0.59488336  1
  C  C281  1  0.37033974  0.88385319  0.40511664  1
  C  C282  1  0.12966026  0.11614681  0.90511664  1
  C  C283  1  0.62966026  0.38385319  0.09488336  1
  C  C284  1  0.12966026  0.38385319  0.40511664  1
  C  C285  1  0.62966026  0.11614681  0.59488336  1
  C  C286  1  0.87033974  0.88385319  0.09488336  1
  C  C287  1  0.37033974  0.61614681  0.90511664  1
