# generated using pymatgen
data_Cu4NiC46
_symmetry_space_group_name_H-M   'P 1'
_cell_length_a   10.78115900
_cell_length_b   10.78115900
_cell_length_c   6.52508000
_cell_angle_alpha   90.00000000
_cell_angle_beta   90.00000000
_cell_angle_gamma   90.00000000
_symmetry_Int_Tables_number   1
_chemical_formula_structural   Cu4NiC46
_chemical_formula_sum   'Cu4 Ni1 C46'
_cell_volume   758.43216440
_cell_formula_units_Z   1
loop_
 _symmetry_equiv_pos_site_id
 _symmetry_equiv_pos_as_xyz
  1  'x, y, z'
loop_
 _atom_site_type_symbol
 _atom_site_label
 _atom_site_symmetry_multiplicity
 _atom_site_fract_x
 _atom_site_fract_y
 _atom_site_fract_z
 _atom_site_occupancy
  C  C0  1  0.50000000  0.50000000  0.50000000  1
  C  C1  1  0.00000000  0.50000000  0.30017100  1
  C  C2  1  0.50000000  0.00000000  0.69982900  1
  C  C3  1  0.00000000  0.00000000  0.50000000  1
  C  C4  1  0.17795400  0.17795400  0.00000000  1
  C  C5  1  0.82204600  0.82204600  0.00000000  1
  C  C6  1  0.82204600  0.17795400  0.00000000  1
  C  C7  1  0.17795400  0.82204600  0.00000000  1
  C  C8  1  0.50000000  0.18661000  0.20218200  1
  C  C9  1  0.81339000  0.50000000  0.79781800  1
  C  C10  1  0.18661000  0.50000000  0.79781800  1
  C  C11  1  0.50000000  0.81339000  0.20218200  1
  Ni  Ni12  1  0.50000000  0.50000000  0.00000000  1
  Cu  Cu13  1  0.24016300  0.24016300  0.50000000  1
  Cu  Cu14  1  0.24016300  0.75983700  0.50000000  1
  Cu  Cu15  1  0.75983700  0.75983700  0.50000000  1
  Cu  Cu16  1  0.75983700  0.24016300  0.50000000  1
  C  C17  1  0.16112600  0.19636600  0.31323000  1
  C  C18  1  0.83887400  0.80363400  0.31323000  1
  C  C19  1  0.80363400  0.16112600  0.68677000  1
  C  C20  1  0.19636600  0.83887400  0.68677000  1
  C  C21  1  0.83887400  0.19636600  0.31323000  1
  C  C22  1  0.80363400  0.83887400  0.68677000  1
  C  C23  1  0.19636600  0.16112600  0.68677000  1
  C  C24  1  0.16112600  0.80363400  0.31323000  1
  C  C25  1  0.82455600  0.00000000  0.02817800  1
  C  C26  1  0.00000000  0.82455600  0.97182200  1
  C  C27  1  0.00000000  0.17544400  0.97182200  1
  C  C28  1  0.17544400  0.00000000  0.02817800  1
  C  C29  1  0.50000000  0.37460500  0.14864400  1
  C  C30  1  0.62539500  0.50000000  0.85135600  1
  C  C31  1  0.37460500  0.50000000  0.85135600  1
  C  C32  1  0.50000000  0.62539500  0.14864400  1
  C  C33  1  0.37805600  0.21439500  0.45924100  1
  C  C34  1  0.50000000  0.00000000  0.25363600  1
  C  C35  1  0.00000000  0.50000000  0.74636400  1
  C  C36  1  0.36306200  0.82752400  0.02160600  1
  C  C37  1  0.17247600  0.36306200  0.97839400  1
  C  C38  1  0.82752400  0.63693800  0.97839400  1
  C  C39  1  0.63693800  0.17247600  0.02160600  1
  C  C40  1  0.17247600  0.63693800  0.97839400  1
  C  C41  1  0.82752400  0.36306200  0.97839400  1
  C  C42  1  0.63693800  0.82752400  0.02160600  1
  C  C43  1  0.36306200  0.17247600  0.02160600  1
  C  C44  1  0.37805600  0.78560500  0.45924100  1
  C  C45  1  0.21439500  0.37805600  0.54075900  1
  C  C46  1  0.78560500  0.62194400  0.54075900  1
  C  C47  1  0.62194400  0.21439500  0.45924100  1
  C  C48  1  0.21439500  0.62194400  0.54075900  1
  C  C49  1  0.78560500  0.37805600  0.54075900  1
  C  C50  1  0.62194400  0.78560500  0.45924100  1
