# generated using pymatgen
data_Cu3NiC
_symmetry_space_group_name_H-M   'P 1'
_cell_length_a   7.87385300
_cell_length_b   12.01616900
_cell_length_c   12.49016500
_cell_angle_alpha   70.24963720
_cell_angle_beta   90.00000000
_cell_angle_gamma   90.00000000
_symmetry_Int_Tables_number   1
_chemical_formula_structural   Cu3NiC
_chemical_formula_sum   'Cu24 Ni8 C8'
_cell_volume   1112.22171446
_cell_formula_units_Z   8
loop_
 _symmetry_equiv_pos_site_id
 _symmetry_equiv_pos_as_xyz
  1  'x, y, z'
loop_
 _atom_site_type_symbol
 _atom_site_label
 _atom_site_symmetry_multiplicity
 _atom_site_fract_x
 _atom_site_fract_y
 _atom_site_fract_z
 _atom_site_occupancy
  C  C0  1  0.89584700  0.40515800  0.34877100  1
  C  C1  1  0.39584700  0.09484200  0.65122900  1
  C  C2  1  0.10415300  0.59484200  0.65122900  1
  C  C3  1  0.60415300  0.90515800  0.34877100  1
  C  C4  1  0.09010900  0.12461100  0.12942500  1
  C  C5  1  0.59010900  0.37538900  0.87057500  1
  C  C6  1  0.90989100  0.87538900  0.87057500  1
  C  C7  1  0.40989100  0.62461100  0.12942500  1
  Ni  Ni8  1  0.90186400  0.25252900  0.67949400  1
  Ni  Ni9  1  0.40186400  0.24747100  0.32050600  1
  Ni  Ni10  1  0.09813600  0.74747100  0.32050600  1
  Ni  Ni11  1  0.59813600  0.75252900  0.67949400  1
  Ni  Ni12  1  0.61752200  0.23370100  0.20713800  1
  Ni  Ni13  1  0.11752200  0.26629900  0.79286200  1
  Ni  Ni14  1  0.38247800  0.76629900  0.79286200  1
  Ni  Ni15  1  0.88247800  0.73370100  0.20713800  1
  Cu  Cu16  1  0.71232700  0.41587200  0.12567000  1
  Cu  Cu17  1  0.21232700  0.08412800  0.87433000  1
  Cu  Cu18  1  0.28767300  0.58412800  0.87433000  1
  Cu  Cu19  1  0.78767300  0.91587200  0.12567000  1
  Cu  Cu20  1  0.21012400  0.36225400  0.20841300  1
  Cu  Cu21  1  0.71012400  0.13774600  0.79158700  1
  Cu  Cu22  1  0.78987600  0.63774600  0.79158700  1
  Cu  Cu23  1  0.28987600  0.86225400  0.20841300  1
  Cu  Cu24  1  0.81144400  0.13407900  0.32898300  1
  Cu  Cu25  1  0.31144400  0.36592100  0.67101700  1
  Cu  Cu26  1  0.18855600  0.86592100  0.67101700  1
  Cu  Cu27  1  0.68855600  0.63407900  0.32898300  1
  Cu  Cu28  1  0.80783200  0.43432400  0.59111800  1
  Cu  Cu29  1  0.30783200  0.06567600  0.40888200  1
  Cu  Cu30  1  0.19216800  0.56567600  0.40888200  1
  Cu  Cu31  1  0.69216800  0.93432400  0.59111800  1
  Cu  Cu32  1  0.51894500  0.12890000  0.10777300  1
  Cu  Cu33  1  0.01894500  0.37110000  0.89222700  1
  Cu  Cu34  1  0.48105500  0.87110000  0.89222700  1
  Cu  Cu35  1  0.98105500  0.62890000  0.10777300  1
  Cu  Cu36  1  0.52379400  0.31781000  0.44565000  1
  Cu  Cu37  1  0.02379400  0.18219000  0.55435000  1
  Cu  Cu38  1  0.47620600  0.68219000  0.55435000  1
  Cu  Cu39  1  0.97620600  0.81781000  0.44565000  1
