# generated using pymatgen
data_Cu9NiC4
_symmetry_space_group_name_H-M   'P 1'
_cell_length_a   10.28539700
_cell_length_b   7.55274200
_cell_length_c   14.68110126
_cell_angle_alpha   59.21914964
_cell_angle_beta   90.00000000
_cell_angle_gamma   90.00000000
_symmetry_Int_Tables_number   1
_chemical_formula_structural   Cu9NiC4
_chemical_formula_sum   'Cu36 Ni4 C16'
_cell_volume   979.81419268
_cell_formula_units_Z   4
loop_
 _symmetry_equiv_pos_site_id
 _symmetry_equiv_pos_as_xyz
  1  'x, y, z'
loop_
 _atom_site_type_symbol
 _atom_site_label
 _atom_site_symmetry_multiplicity
 _atom_site_fract_x
 _atom_site_fract_y
 _atom_site_fract_z
 _atom_site_occupancy
  C  C0  1  0.01330700  0.52452700  0.21858600  1
  C  C1  1  0.51330700  0.47547300  0.28141400  1
  C  C2  1  0.98669300  0.47547300  0.78141400  1
  C  C3  1  0.48669300  0.52452700  0.71858600  1
  C  C4  1  0.74994400  0.90381000  0.66345500  1
  C  C5  1  0.24994400  0.09619000  0.83654500  1
  C  C6  1  0.25005600  0.09619000  0.33654500  1
  C  C7  1  0.75005600  0.90381000  0.16345500  1
  C  C8  1  0.74957200  0.32782300  0.63239800  1
  C  C9  1  0.24957200  0.67217700  0.86760200  1
  C  C10  1  0.25042800  0.67217700  0.36760200  1
  C  C11  1  0.75042800  0.32782300  0.13239800  1
  C  C12  1  0.78685100  0.26112800  0.45519000  1
  C  C13  1  0.28685100  0.73887200  0.04481000  1
  C  C14  1  0.21314900  0.73887200  0.54481000  1
  C  C15  1  0.71314900  0.26112800  0.95519000  1
  Ni  Ni16  1  0.40886800  0.14197900  0.58434500  1
  Ni  Ni17  1  0.90886800  0.85802100  0.91565500  1
  Ni  Ni18  1  0.59113200  0.85802100  0.41565500  1
  Ni  Ni19  1  0.09113200  0.14197900  0.08434500  1
  Cu  Cu20  1  0.81990200  0.02655300  0.54934100  1
  Cu  Cu21  1  0.31990200  0.97344700  0.95065900  1
  Cu  Cu22  1  0.18009800  0.97344700  0.45065900  1
  Cu  Cu23  1  0.68009800  0.02655300  0.04934100  1
  Cu  Cu24  1  0.71913200  0.08288400  0.68928600  1
  Cu  Cu25  1  0.21913200  0.91711600  0.81071400  1
  Cu  Cu26  1  0.28086800  0.91711600  0.31071400  1
  Cu  Cu27  1  0.78086800  0.08288400  0.18928600  1
  Cu  Cu28  1  0.80819200  0.38342800  0.51912600  1
  Cu  Cu29  1  0.30819200  0.61657200  0.98087400  1
  Cu  Cu30  1  0.19180800  0.61657200  0.48087400  1
  Cu  Cu31  1  0.69180800  0.38342800  0.01912600  1
  Cu  Cu32  1  0.84614200  0.75479000  0.74248100  1
  Cu  Cu33  1  0.34614200  0.24521000  0.75751900  1
  Cu  Cu34  1  0.15385800  0.24521000  0.25751900  1
  Cu  Cu35  1  0.65385800  0.75479000  0.24248100  1
  Cu  Cu36  1  0.62286600  0.81173900  0.65801300  1
  Cu  Cu37  1  0.12286600  0.18826100  0.84198700  1
  Cu  Cu38  1  0.37713400  0.18826100  0.34198700  1
  Cu  Cu39  1  0.87713400  0.81173900  0.15801300  1
  Cu  Cu40  1  0.85371900  0.36173900  0.69280800  1
  Cu  Cu41  1  0.35371900  0.63826100  0.80719200  1
  Cu  Cu42  1  0.14628100  0.63826100  0.30719200  1
  Cu  Cu43  1  0.64628100  0.36173900  0.19280800  1
  Cu  Cu44  1  0.62245700  0.43484400  0.61974100  1
  Cu  Cu45  1  0.12245700  0.56515600  0.88025900  1
  Cu  Cu46  1  0.37754300  0.56515600  0.38025900  1
  Cu  Cu47  1  0.87754300  0.43484400  0.11974100  1
  Cu  Cu48  1  0.64624300  0.27442500  0.42646200  1
  Cu  Cu49  1  0.14624300  0.72557500  0.07353800  1
  Cu  Cu50  1  0.35375700  0.72557500  0.57353800  1
  Cu  Cu51  1  0.85375700  0.27442500  0.92646200  1
  Cu  Cu52  1  0.88936200  0.32780600  0.37259200  1
  Cu  Cu53  1  0.38936200  0.67219400  0.12740800  1
  Cu  Cu54  1  0.11063800  0.67219400  0.62740800  1
  Cu  Cu55  1  0.61063800  0.32780600  0.87259200  1
