# generated using pymatgen
data_CuNiC4
_symmetry_space_group_name_H-M   'P 1'
_cell_length_a   3.18840995
_cell_length_b   3.18840995
_cell_length_c   22.37003200
_cell_angle_alpha   90.00000000
_cell_angle_beta   90.00000000
_cell_angle_gamma   119.99999896
_symmetry_Int_Tables_number   1
_chemical_formula_structural   CuNiC4
_chemical_formula_sum   'Cu1 Ni1 C4'
_cell_volume   196.94526919
_cell_formula_units_Z   1
loop_
 _symmetry_equiv_pos_site_id
 _symmetry_equiv_pos_as_xyz
  1  'x, y, z'
loop_
 _atom_site_type_symbol
 _atom_site_label
 _atom_site_symmetry_multiplicity
 _atom_site_fract_x
 _atom_site_fract_y
 _atom_site_fract_z
 _atom_site_occupancy
  Ni  Ni0  1  0.00000000  0.00000000  0.15044500  1
  Cu  Cu1  1  0.33333300  0.66666700  0.45141800  1
  C  C2  1  0.00000000  0.00000000  0.52177200  1
  C  C3  1  0.33333300  0.66666700  0.08040100  1
  C  C4  1  0.33333300  0.66666700  0.22048100  1
  C  C5  1  0.00000000  0.00000000  0.38108700  1
