# generated using pymatgen
data_CuNi11C
_symmetry_space_group_name_H-M   'P 1'
_cell_length_a   4.71303800
_cell_length_b   6.47023057
_cell_length_c   6.47023057
_cell_angle_alpha   98.13079017
_cell_angle_beta   111.35893788
_cell_angle_gamma   68.64106212
_symmetry_Int_Tables_number   1
_chemical_formula_structural   CuNi11C
_chemical_formula_sum   'Cu1 Ni11 C1'
_cell_volume   171.12494003
_cell_formula_units_Z   1
loop_
 _symmetry_equiv_pos_site_id
 _symmetry_equiv_pos_as_xyz
  1  'x, y, z'
loop_
 _atom_site_type_symbol
 _atom_site_label
 _atom_site_symmetry_multiplicity
 _atom_site_fract_x
 _atom_site_fract_y
 _atom_site_fract_z
 _atom_site_occupancy
  C  C0  1  0.00607700  0.99392300  0.00607700  1
  Ni  Ni1  1  0.72960800  0.77039200  0.22960800  1
  Ni  Ni2  1  0.27207600  0.22792400  0.77207600  1
  Ni  Ni3  1  0.49866800  0.77862700  0.77596200  1
  Ni  Ni4  1  0.49866800  0.22403800  0.22137300  1
  Ni  Ni5  1  0.50093900  0.99836100  0.50093200  1
  Ni  Ni6  1  0.00163100  0.99836100  0.50093200  1
  Ni  Ni7  1  0.50093900  0.49906800  0.00163900  1
  Ni  Ni8  1  0.00163100  0.49906800  0.00163900  1
  Ni  Ni9  1  0.35726600  0.64273400  0.35726600  1
  Ni  Ni10  1  0.99976600  0.35909500  0.35862700  1
  Ni  Ni11  1  0.99976600  0.64137300  0.64090500  1
  Cu  Cu12  1  0.63296600  0.36703400  0.63296600  1
