# generated using pymatgen
data_CuNi2C13
_symmetry_space_group_name_H-M   'P 1'
_cell_length_a   2.89366735
_cell_length_b   7.79764057
_cell_length_c   12.59550604
_cell_angle_alpha   91.53869801
_cell_angle_beta   90.11609794
_cell_angle_gamma   79.93942801
_symmetry_Int_Tables_number   1
_chemical_formula_structural   CuNi2C13
_chemical_formula_sum   'Cu2 Ni4 C26'
_cell_volume   279.73027346
_cell_formula_units_Z   2
loop_
 _symmetry_equiv_pos_site_id
 _symmetry_equiv_pos_as_xyz
  1  'x, y, z'
loop_
 _atom_site_type_symbol
 _atom_site_label
 _atom_site_symmetry_multiplicity
 _atom_site_fract_x
 _atom_site_fract_y
 _atom_site_fract_z
 _atom_site_occupancy
  C  C0  1  0.87730200  0.24662400  0.37631800  1
  C  C1  1  0.37269800  0.25337800  0.87368500  1
  C  C2  1  0.81412000  0.37559600  0.05296200  1
  C  C3  1  0.31371300  0.37493800  0.55288900  1
  C  C4  1  0.43588600  0.12440900  0.19703800  1
  C  C5  1  0.93628900  0.12506500  0.69711100  1
  C  C6  1  0.04485200  0.88863500  0.31566800  1
  C  C7  1  0.54550500  0.88926700  0.81216200  1
  C  C8  1  0.70450100  0.61073900  0.43783800  1
  C  C9  1  0.20513900  0.61137200  0.93432900  1
  Ni  Ni10  1  0.49638100  0.00329200  0.49839400  1
  Ni  Ni11  1  0.98830000  0.00825800  0.99342700  1
  Ni  Ni12  1  0.26173300  0.49172900  0.25657600  1
  Ni  Ni13  1  0.75361800  0.49670600  0.75160400  1
  Cu  Cu14  1  0.12498800  0.75000400  0.62499800  1
  Cu  Cu15  1  0.62500700  0.74999800  0.12500300  1
  C  C16  1  0.41272100  0.16626800  0.02928100  1
  C  C17  1  0.92098100  0.16221900  0.53277300  1
  C  C18  1  0.83730200  0.33372600  0.22072100  1
  C  C19  1  0.32898200  0.33778200  0.71722400  1
  C  C20  1  0.68080200  0.66462300  0.27689800  1
  C  C21  1  0.17043800  0.67072100  0.76937100  1
  C  C22  1  0.07953200  0.82928000  0.48062500  1
  C  C23  1  0.56922200  0.83537000  0.97310500  1
  C  C24  1  0.28438100  0.44232900  0.39715500  1
  C  C25  1  0.78044300  0.44854100  0.89335600  1
  C  C26  1  0.46953500  0.05146100  0.35664400  1
  C  C27  1  0.96563400  0.05767100  0.85284700  1
  C  C28  1  0.01327100  0.92719600  0.14896300  1
  C  C29  1  0.54437800  0.91705600  0.64893500  1
  C  C30  1  0.23674300  0.57280100  0.10104000  1
  C  C31  1  0.70560300  0.58294600  0.60106200  1
