# generated using pymatgen
data_CuNiC
_symmetry_space_group_name_H-M   'P 1'
_cell_length_a   4.92452700
_cell_length_b   8.63979800
_cell_length_c   9.06976300
_cell_angle_alpha   90.00000000
_cell_angle_beta   90.00000000
_cell_angle_gamma   90.00000000
_symmetry_Int_Tables_number   1
_chemical_formula_structural   CuNiC
_chemical_formula_sum   'Cu12 Ni12 C12'
_cell_volume   385.89046741
_cell_formula_units_Z   12
loop_
 _symmetry_equiv_pos_site_id
 _symmetry_equiv_pos_as_xyz
  1  'x, y, z'
loop_
 _atom_site_type_symbol
 _atom_site_label
 _atom_site_symmetry_multiplicity
 _atom_site_fract_x
 _atom_site_fract_y
 _atom_site_fract_z
 _atom_site_occupancy
  C  C0  1  0.06088000  0.92703400  0.13251400  1
  C  C1  1  0.06088000  0.57296600  0.13251400  1
  C  C2  1  0.12532700  0.25000000  0.57558100  1
  C  C3  1  0.37467300  0.25000000  0.07558100  1
  C  C4  1  0.43912000  0.57296600  0.63251400  1
  C  C5  1  0.43912000  0.92703400  0.63251400  1
  C  C6  1  0.56088000  0.07296600  0.36748600  1
  C  C7  1  0.56088000  0.42703400  0.36748600  1
  C  C8  1  0.62532700  0.75000000  0.92441900  1
  C  C9  1  0.87467300  0.75000000  0.42441900  1
  C  C10  1  0.93912000  0.42703400  0.86748600  1
  C  C11  1  0.93912000  0.07296600  0.86748600  1
  Ni  Ni12  1  0.03721300  0.25000000  0.76560100  1
  Ni  Ni13  1  0.19283500  0.08657700  0.01684200  1
  Ni  Ni14  1  0.19283500  0.41342300  0.01684200  1
  Ni  Ni15  1  0.30716500  0.08657700  0.51684200  1
  Ni  Ni16  1  0.30716500  0.41342300  0.51684200  1
  Ni  Ni17  1  0.46278700  0.25000000  0.26560100  1
  Ni  Ni18  1  0.53721300  0.75000000  0.73439900  1
  Ni  Ni19  1  0.69283500  0.58657700  0.48315800  1
  Ni  Ni20  1  0.69283500  0.91342300  0.48315800  1
  Ni  Ni21  1  0.80716500  0.58657700  0.98315800  1
  Ni  Ni22  1  0.80716500  0.91342300  0.98315800  1
  Ni  Ni23  1  0.96278700  0.75000000  0.23439900  1
  Cu  Cu24  1  0.12753400  0.94420800  0.74553700  1
  Cu  Cu25  1  0.12753400  0.55579200  0.74553700  1
  Cu  Cu26  1  0.19523000  0.75000000  0.51993700  1
  Cu  Cu27  1  0.30477000  0.75000000  0.01993700  1
  Cu  Cu28  1  0.37246600  0.55579200  0.24553700  1
  Cu  Cu29  1  0.37246600  0.94420800  0.24553700  1
  Cu  Cu30  1  0.62753400  0.05579200  0.75446300  1
  Cu  Cu31  1  0.62753400  0.44420800  0.75446300  1
  Cu  Cu32  1  0.69523000  0.25000000  0.98006300  1
  Cu  Cu33  1  0.80477000  0.25000000  0.48006300  1
  Cu  Cu34  1  0.87246600  0.44420800  0.25446300  1
  Cu  Cu35  1  0.87246600  0.05579200  0.25446300  1
