# generated using pymatgen
data_Cu2Ni2C
_symmetry_space_group_name_H-M   'P 1'
_cell_length_a   2.77820379
_cell_length_b   2.77820379
_cell_length_c   22.48244000
_cell_angle_alpha   90.00000000
_cell_angle_beta   90.00000000
_cell_angle_gamma   119.99999503
_symmetry_Int_Tables_number   1
_chemical_formula_structural   Cu2Ni2C
_chemical_formula_sum   'Cu4 Ni4 C2'
_cell_volume   150.28038390
_cell_formula_units_Z   2
loop_
 _symmetry_equiv_pos_site_id
 _symmetry_equiv_pos_as_xyz
  1  'x, y, z'
loop_
 _atom_site_type_symbol
 _atom_site_label
 _atom_site_symmetry_multiplicity
 _atom_site_fract_x
 _atom_site_fract_y
 _atom_site_fract_z
 _atom_site_occupancy
  Ni  Ni0  1  0.00000000  0.00000000  0.54833300  1
  Ni  Ni1  1  0.00000000  0.00000000  0.74875100  1
  Ni  Ni2  1  0.00000000  0.00000000  0.94534500  1
  Ni  Ni3  1  0.66666700  0.33333300  0.05247800  1
  C  C4  1  0.00000000  0.00000000  0.15031600  1
  C  C5  1  0.00000000  0.00000000  0.35096800  1
  Cu  Cu6  1  0.66666700  0.33333300  0.25166500  1
  Cu  Cu7  1  0.66666700  0.33333300  0.45430900  1
  Cu  Cu8  1  0.66666700  0.33333300  0.65005900  1
  Cu  Cu9  1  0.66666700  0.33333300  0.84777800  1
