# generated using pymatgen
data_Cu14NiC42
_symmetry_space_group_name_H-M   'P 1'
_cell_length_a   12.95563776
_cell_length_b   12.95563776
_cell_length_c   12.95563776
_cell_angle_alpha   127.00734550
_cell_angle_beta   127.00734550
_cell_angle_gamma   78.23870146
_symmetry_Int_Tables_number   1
_chemical_formula_structural   Cu14NiC42
_chemical_formula_sum   'Cu14 Ni1 C42'
_cell_volume   1343.22270766
_cell_formula_units_Z   1
loop_
 _symmetry_equiv_pos_site_id
 _symmetry_equiv_pos_as_xyz
  1  'x, y, z'
loop_
 _atom_site_type_symbol
 _atom_site_label
 _atom_site_symmetry_multiplicity
 _atom_site_fract_x
 _atom_site_fract_y
 _atom_site_fract_z
 _atom_site_occupancy
  C  C0  1  0.50000000  0.00000000  0.50000000  1
  C  C1  1  0.00000000  0.50000000  0.50000000  1
  Ni  Ni2  1  0.50000000  0.50000000  0.00000000  1
  Cu  Cu3  1  0.28287300  0.28287300  0.00000000  1
  Cu  Cu4  1  0.71712700  0.71712700  0.00000000  1
  Cu  Cu5  1  0.70137100  0.29862900  0.00000000  1
  Cu  Cu6  1  0.29862900  0.70137100  0.00000000  1
  Cu  Cu7  1  0.70137100  0.70137100  0.40274100  1
  Cu  Cu8  1  0.29862900  0.29862900  0.59725900  1
  Cu  Cu9  1  0.39227200  0.19318900  0.80091700  1
  Cu  Cu10  1  0.39227200  0.59135500  0.19908300  1
  Cu  Cu11  1  0.19318900  0.39227200  0.80091700  1
  Cu  Cu12  1  0.59135500  0.39227200  0.19908300  1
  Cu  Cu13  1  0.60772800  0.80681100  0.19908300  1
  Cu  Cu14  1  0.60772800  0.40864500  0.80091700  1
  Cu  Cu15  1  0.80681100  0.60772800  0.19908300  1
  Cu  Cu16  1  0.40864500  0.60772800  0.80091700  1
  C  C17  1  0.57231600  0.24604300  0.00000000  1
  C  C18  1  0.24604300  0.57231600  0.00000000  1
  C  C19  1  0.57231600  0.57231600  0.32627300  1
  C  C20  1  0.24604300  0.24604300  0.67372700  1
  C  C21  1  0.42768400  0.75395700  0.00000000  1
  C  C22  1  0.75395700  0.42768400  0.00000000  1
  C  C23  1  0.42768400  0.42768400  0.67372700  1
  C  C24  1  0.75395700  0.75395700  0.32627300  1
  C  C25  1  0.50000000  0.66889900  0.16889900  1
  C  C26  1  0.50000000  0.33110100  0.83110100  1
  C  C27  1  0.66889900  0.50000000  0.16889900  1
  C  C28  1  0.33110100  0.50000000  0.83110100  1
  C  C29  1  0.20297000  0.20297000  0.00000000  1
  C  C30  1  0.79703000  0.79703000  0.00000000  1
  C  C31  1  0.30798500  0.14723500  0.83925000  1
  C  C32  1  0.30798500  0.46873400  0.16075000  1
  C  C33  1  0.14723500  0.30798500  0.83925000  1
  C  C34  1  0.46873400  0.30798500  0.16075000  1
  C  C35  1  0.69201500  0.85276500  0.16075000  1
  C  C36  1  0.69201500  0.53126600  0.83925000  1
  C  C37  1  0.85276500  0.69201500  0.16075000  1
  C  C38  1  0.53126600  0.69201500  0.83925000  1
  C  C39  1  0.39630200  0.05651500  0.66021300  1
  C  C40  1  0.39630200  0.73608800  0.33978700  1
  C  C41  1  0.05651500  0.39630200  0.66021300  1
  C  C42  1  0.73608800  0.39630200  0.33978700  1
  C  C43  1  0.60369800  0.94348500  0.33978700  1
  C  C44  1  0.60369800  0.26391200  0.66021300  1
  C  C45  1  0.94348500  0.60369800  0.33978700  1
  C  C46  1  0.26391200  0.60369800  0.66021300  1
  C  C47  1  0.40675600  0.40675600  0.00000000  1
  C  C48  1  0.59324400  0.59324400  0.00000000  1
  C  C49  1  0.84595200  0.31015800  0.15611000  1
  C  C50  1  0.15404800  0.68984200  0.84389000  1
  C  C51  1  0.84595200  0.68984200  0.53579400  1
  C  C52  1  0.15404800  0.31015800  0.46420600  1
  C  C53  1  0.31015800  0.15404800  0.46420600  1
  C  C54  1  0.68984200  0.84595200  0.53579400  1
  C  C55  1  0.31015800  0.84595200  0.15611000  1
  C  C56  1  0.68984200  0.15404800  0.84389000  1
