# generated using pymatgen
data_CuNiC16
_symmetry_space_group_name_H-M   'P 1'
_cell_length_a   8.59506338
_cell_length_b   8.59506400
_cell_length_c   8.59506357
_cell_angle_alpha   61.56946107
_cell_angle_beta   61.56946463
_cell_angle_gamma   61.56946982
_symmetry_Int_Tables_number   1
_chemical_formula_structural   CuNiC16
_chemical_formula_sum   'Cu2 Ni2 C32'
_cell_volume   464.79572909
_cell_formula_units_Z   2
loop_
 _symmetry_equiv_pos_site_id
 _symmetry_equiv_pos_as_xyz
  1  'x, y, z'
loop_
 _atom_site_type_symbol
 _atom_site_label
 _atom_site_symmetry_multiplicity
 _atom_site_fract_x
 _atom_site_fract_y
 _atom_site_fract_z
 _atom_site_occupancy
  Ni  Ni0  1  0.00406400  0.00406400  0.00406400  1
  Ni  Ni1  1  0.50406400  0.50406400  0.50406400  1
  Cu  Cu2  1  0.35613900  0.35613900  0.35613900  1
  Cu  Cu3  1  0.85613900  0.85613900  0.85613900  1
  C  C4  1  0.14489600  0.14489600  0.14489600  1
  C  C5  1  0.64489600  0.64489600  0.64489600  1
  C  C6  1  0.04530100  0.44955000  0.75150400  1
  C  C7  1  0.44955000  0.75150400  0.04530100  1
  C  C8  1  0.75150400  0.04530100  0.44955000  1
  C  C9  1  0.25150400  0.94955000  0.54530100  1
  C  C10  1  0.54530100  0.25150400  0.94955000  1
  C  C11  1  0.94955000  0.54530100  0.25150400  1
  C  C12  1  0.10860400  0.50782100  0.31636600  1
  C  C13  1  0.31636600  0.10860400  0.50782100  1
  C  C14  1  0.05966000  0.25793900  0.90806000  1
  C  C15  1  0.50782100  0.31636600  0.10860400  1
  C  C16  1  0.00782100  0.60860400  0.81636600  1
  C  C17  1  0.24097200  0.43972900  0.59253300  1
  C  C18  1  0.25793900  0.90806000  0.05966000  1
  C  C19  1  0.43972900  0.59253300  0.24097200  1
  C  C20  1  0.18144100  0.99420700  0.39121300  1
  C  C21  1  0.59253300  0.24097200  0.43972900  1
  C  C22  1  0.09253300  0.93972900  0.74097200  1
  C  C23  1  0.39121300  0.18144100  0.99420700  1
  C  C24  1  0.60860400  0.81636600  0.00782100  1
  C  C25  1  0.90806000  0.05966000  0.25793900  1
  C  C26  1  0.40806000  0.75793900  0.55966000  1
  C  C27  1  0.81636600  0.00782100  0.60860400  1
  C  C28  1  0.55966000  0.40806000  0.75793900  1
  C  C29  1  0.74097200  0.09253300  0.93972900  1
  C  C30  1  0.75793900  0.55966000  0.40806000  1
  C  C31  1  0.99420700  0.39121300  0.18144100  1
  C  C32  1  0.49420700  0.68144100  0.89121300  1
  C  C33  1  0.93972900  0.74097200  0.09253300  1
  C  C34  1  0.68144100  0.89121300  0.49420700  1
  C  C35  1  0.89121300  0.49420700  0.68144100  1
