# generated using pymatgen
data_CuNi3C32
_symmetry_space_group_name_H-M   'P 1'
_cell_length_a   5.96276031
_cell_length_b   5.96276031
_cell_length_c   25.11016000
_cell_angle_alpha   90.00000000
_cell_angle_beta   90.00000000
_cell_angle_gamma   120.00000349
_symmetry_Int_Tables_number   1
_chemical_formula_structural   CuNi3C32
_chemical_formula_sum   'Cu1 Ni3 C32'
_cell_volume   773.16965573
_cell_formula_units_Z   1
loop_
 _symmetry_equiv_pos_site_id
 _symmetry_equiv_pos_as_xyz
  1  'x, y, z'
loop_
 _atom_site_type_symbol
 _atom_site_label
 _atom_site_symmetry_multiplicity
 _atom_site_fract_x
 _atom_site_fract_y
 _atom_site_fract_z
 _atom_site_occupancy
  C  C0  1  0.33333300  0.66666700  0.32982800  1
  C  C1  1  0.66666700  0.33333300  0.67150300  1
  C  C2  1  0.66666700  0.33333300  0.82889000  1
  C  C3  1  0.33333300  0.66666700  0.16911200  1
  C  C4  1  0.66666700  0.33333300  0.24400500  1
  C  C5  1  0.33333300  0.66666700  0.75031900  1
  C  C6  1  0.66666700  0.33333300  0.41783400  1
  C  C7  1  0.33333300  0.66666700  0.58299600  1
  C  C8  1  0.33333300  0.66666700  0.91830200  1
  C  C9  1  0.66666700  0.33333300  0.08277500  1
  Ni  Ni10  1  0.00000000  0.00000000  0.69334400  1
  Ni  Ni11  1  0.00000000  0.00000000  0.80685900  1
  Ni  Ni12  1  0.00000000  0.00000000  0.19596600  1
  Cu  Cu13  1  0.00000000  0.00000000  0.30391200  1
  C  C14  1  0.33333300  0.66666700  0.45343400  1
  C  C15  1  0.66666700  0.33333300  0.54503100  1
  C  C16  1  0.66666700  0.33333300  0.95368500  1
  C  C17  1  0.33333300  0.66666700  0.04534900  1
  C  C18  1  0.31426700  0.15713400  0.34370800  1
  C  C19  1  0.84286600  0.15713400  0.34370800  1
  C  C20  1  0.84286600  0.68573300  0.34370800  1
  C  C21  1  0.68155200  0.84077600  0.65485200  1
  C  C22  1  0.15922400  0.84077600  0.65485200  1
  C  C23  1  0.15922400  0.31844800  0.65485200  1
  C  C24  1  0.68109100  0.84054500  0.84488200  1
  C  C25  1  0.15945500  0.84054500  0.84488200  1
  C  C26  1  0.15945500  0.31890900  0.84488200  1
  C  C27  1  0.31925900  0.15962900  0.15627900  1
  C  C28  1  0.84037100  0.15962900  0.15627900  1
  C  C29  1  0.84037100  0.68074100  0.15627900  1
  C  C30  1  0.15672000  0.31344000  0.25270400  1
  C  C31  1  0.68656000  0.84328000  0.25270400  1
  C  C32  1  0.15672000  0.84328000  0.25270400  1
  C  C33  1  0.84962100  0.69924200  0.74985800  1
  C  C34  1  0.30075800  0.15037900  0.74985800  1
  C  C35  1  0.84962100  0.15037900  0.74985800  1
