# generated using pymatgen
data_Cu6Ni3C5
_symmetry_space_group_name_H-M   'P 1'
_cell_length_a   7.88601006
_cell_length_b   7.88601006
_cell_length_c   9.07196648
_cell_angle_alpha   55.08203686
_cell_angle_beta   55.08203686
_cell_angle_gamma   70.58718052
_symmetry_Int_Tables_number   1
_chemical_formula_structural   Cu6Ni3C5
_chemical_formula_sum   'Cu12 Ni6 C10'
_cell_volume   379.31838049
_cell_formula_units_Z   2
loop_
 _symmetry_equiv_pos_site_id
 _symmetry_equiv_pos_as_xyz
  1  'x, y, z'
loop_
 _atom_site_type_symbol
 _atom_site_label
 _atom_site_symmetry_multiplicity
 _atom_site_fract_x
 _atom_site_fract_y
 _atom_site_fract_z
 _atom_site_occupancy
  C  C0  1  0.67666100  0.50083300  0.06742400  1
  C  C1  1  0.49916700  0.32333900  0.93257600  1
  C  C2  1  0.81567400  0.00331300  0.75238700  1
  C  C3  1  0.99668700  0.18432600  0.24761300  1
  C  C4  1  0.50168900  0.49831100  0.50000000  1
  C  C5  1  0.26930900  0.75383100  0.73935900  1
  C  C6  1  0.22983500  0.23677600  0.53302300  1
  C  C7  1  0.03012000  0.96988000  0.00000000  1
  C  C8  1  0.76322400  0.77016500  0.46697700  1
  C  C9  1  0.24616900  0.73069100  0.26064100  1
  Ni  Ni10  1  0.62391100  0.37608900  0.50000000  1
  Ni  Ni11  1  0.13301600  0.64976600  0.86008700  1
  Ni  Ni12  1  0.23318500  0.24329800  0.40556100  1
  Ni  Ni13  1  0.90812800  0.09187200  0.00000000  1
  Ni  Ni14  1  0.75670200  0.76681500  0.59443900  1
  Ni  Ni15  1  0.35023400  0.86698400  0.13991300  1
  Cu  Cu16  1  0.73382300  0.36317900  0.33681200  1
  Cu  Cu17  1  0.16753600  0.46516900  0.97579400  1
  Cu  Cu18  1  0.07518400  0.16723900  0.45579100  1
  Cu  Cu19  1  0.87583200  0.18985400  0.08633700  1
  Cu  Cu20  1  0.95916900  0.72351900  0.87025600  1
  Cu  Cu21  1  0.67774400  0.61404000  0.77069500  1
  Cu  Cu22  1  0.81014600  0.12416800  0.91366300  1
  Cu  Cu23  1  0.27648100  0.04083100  0.12974400  1
  Cu  Cu24  1  0.38596000  0.32225600  0.22930500  1
  Cu  Cu25  1  0.63682100  0.26617700  0.66318800  1
  Cu  Cu26  1  0.53483100  0.83246400  0.02420600  1
  Cu  Cu27  1  0.83276100  0.92481600  0.54420900  1
