# generated using pymatgen
data_Cu5Ni2C3
_symmetry_space_group_name_H-M   'P 1'
_cell_length_a   10.12726000
_cell_length_b   11.50315081
_cell_length_c   12.10927743
_cell_angle_alpha   70.87472285
_cell_angle_beta   67.92606239
_cell_angle_gamma   67.69635223
_symmetry_Int_Tables_number   1
_chemical_formula_structural   Cu5Ni2C3
_chemical_formula_sum   'Cu20 Ni8 C12'
_cell_volume   1180.97389743
_cell_formula_units_Z   4
loop_
 _symmetry_equiv_pos_site_id
 _symmetry_equiv_pos_as_xyz
  1  'x, y, z'
loop_
 _atom_site_type_symbol
 _atom_site_label
 _atom_site_symmetry_multiplicity
 _atom_site_fract_x
 _atom_site_fract_y
 _atom_site_fract_z
 _atom_site_occupancy
  C  C0  1  0.45720500  0.37001500  0.65842500  1
  C  C1  1  0.54279500  0.62998500  0.34157500  1
  Ni  Ni2  1  0.47944900  0.17476900  0.23746300  1
  Ni  Ni3  1  0.52055100  0.82523100  0.76253700  1
  Ni  Ni4  1  0.19412500  0.14821600  0.16147600  1
  Ni  Ni5  1  0.80587500  0.85178400  0.83852400  1
  Ni  Ni6  1  0.19938300  0.44799600  0.16227500  1
  Ni  Ni7  1  0.80061700  0.55200400  0.83772500  1
  Ni  Ni8  1  0.11978600  0.22917000  0.43501600  1
  Ni  Ni9  1  0.88021400  0.77083000  0.56498400  1
  Cu  Cu10  1  0.34980800  0.15396500  0.42295100  1
  Cu  Cu11  1  0.65019200  0.84603500  0.57704900  1
  Cu  Cu12  1  0.15452100  0.62709200  0.08336400  1
  Cu  Cu13  1  0.84547900  0.37290800  0.91663600  1
  Cu  Cu14  1  0.99474900  0.78965700  0.39621400  1
  Cu  Cu15  1  0.00525100  0.21034300  0.60378600  1
  Cu  Cu16  1  0.14697300  0.05647400  0.08122400  1
  Cu  Cu17  1  0.85302700  0.94352600  0.91877600  1
  Cu  Cu18  1  0.07176500  0.42673800  0.34809100  1
  Cu  Cu19  1  0.92823500  0.57326200  0.65190900  1
  Cu  Cu20  1  0.42898400  0.37294800  0.15147300  1
  Cu  Cu21  1  0.57101600  0.62705200  0.84852700  1
  Cu  Cu22  1  0.42422800  0.07425100  0.14994000  1
  Cu  Cu23  1  0.57577200  0.92574900  0.85006000  1
  Cu  Cu24  1  0.06591500  0.12823900  0.34728800  1
  Cu  Cu25  1  0.93408500  0.87176100  0.65271200  1
  Cu  Cu26  1  0.68759500  0.10627500  0.22690400  1
  Cu  Cu27  1  0.31240500  0.89372500  0.77309600  1
  Cu  Cu28  1  0.14577400  0.34621000  0.07535100  1
  Cu  Cu29  1  0.85422600  0.65379000  0.92464900  1
  C  C30  1  0.36677100  0.48793200  0.46660400  1
  C  C31  1  0.63322900  0.51206800  0.53339600  1
  C  C32  1  0.62750100  0.21917100  0.54504100  1
  C  C33  1  0.37249900  0.78082900  0.45495900  1
  C  C34  1  0.28136400  0.26456800  0.73458500  1
  C  C35  1  0.71863600  0.73543200  0.26541500  1
  C  C36  1  0.42676500  0.70873100  0.19235100  1
  C  C37  1  0.57323500  0.29126900  0.80764900  1
  C  C38  1  0.70350900  0.45144200  0.26173900  1
  C  C39  1  0.29649100  0.54855800  0.73826100  1
