# generated using pymatgen
data_Cu5Ni4C7
_symmetry_space_group_name_H-M   'P 1'
_cell_length_a   7.96795598
_cell_length_b   7.96795598
_cell_length_c   14.60267904
_cell_angle_alpha   93.52859756
_cell_angle_beta   104.21068853
_cell_angle_gamma   115.93202435
_symmetry_Int_Tables_number   1
_chemical_formula_structural   Cu5Ni4C7
_chemical_formula_sum   'Cu20 Ni16 C28'
_cell_volume   792.92646464
_cell_formula_units_Z   4
loop_
 _symmetry_equiv_pos_site_id
 _symmetry_equiv_pos_as_xyz
  1  'x, y, z'
loop_
 _atom_site_type_symbol
 _atom_site_label
 _atom_site_symmetry_multiplicity
 _atom_site_fract_x
 _atom_site_fract_y
 _atom_site_fract_z
 _atom_site_occupancy
  C  C0  1  0.98843000  0.62777500  0.45775700  1
  C  C1  1  0.67001800  0.53067300  0.04224300  1
  C  C2  1  0.01157000  0.37222500  0.54224300  1
  C  C3  1  0.32998200  0.46932700  0.95775700  1
  C  C4  1  0.36507500  0.27217900  0.38831000  1
  C  C5  1  0.38386900  0.97676500  0.11169000  1
  C  C6  1  0.63492500  0.72782100  0.61169000  1
  C  C7  1  0.61613100  0.02323500  0.88831000  1
  C  C8  1  0.37674900  0.09209900  0.43923300  1
  C  C9  1  0.15286600  0.93751600  0.06076700  1
  C  C10  1  0.62325100  0.90790100  0.56076700  1
  C  C11  1  0.84713400  0.06248400  0.93923300  1
  C  C12  1  0.06322200  0.94815200  0.78421500  1
  C  C13  1  0.66393700  0.27900700  0.71578500  1
  C  C14  1  0.93677800  0.05184800  0.21578500  1
  C  C15  1  0.33606300  0.72099300  0.28421500  1
  C  C16  1  0.07180000  0.76100200  0.83898900  1
  C  C17  1  0.42201300  0.23281100  0.66101100  1
  C  C18  1  0.92820000  0.23899800  0.16101100  1
  C  C19  1  0.57798700  0.76718900  0.33898900  1
  C  C20  1  0.96934600  0.95943000  0.38199000  1
  C  C21  1  0.07744000  0.58735600  0.11801000  1
  C  C22  1  0.03065400  0.04057000  0.61801000  1
  C  C23  1  0.92256000  0.41264400  0.88199000  1
  C  C24  1  0.84782600  0.76889500  0.30557600  1
  C  C25  1  0.96332000  0.54225000  0.19442400  1
  C  C26  1  0.15217400  0.23110500  0.69442400  1
  C  C27  1  0.03668000  0.45775000  0.80557600  1
  Ni  Ni28  1  0.43850900  0.19382300  0.40106000  1
  Ni  Ni29  1  0.29276300  0.03744900  0.09894000  1
  Ni  Ni30  1  0.56149100  0.80617700  0.59894000  1
  Ni  Ni31  1  0.70723700  0.96255100  0.90106000  1
  Ni  Ni32  1  0.01649000  0.80582900  0.78035000  1
  Ni  Ni33  1  0.52547900  0.23614000  0.71965000  1
  Ni  Ni34  1  0.98351000  0.19417100  0.21965000  1
  Ni  Ni35  1  0.47452100  0.76386000  0.28035000  1
  Ni  Ni36  1  0.62988400  0.32009500  0.45907100  1
  Ni  Ni37  1  0.36102400  0.17081200  0.04092900  1
  Ni  Ni38  1  0.37011600  0.67990500  0.54092900  1
  Ni  Ni39  1  0.63897600  0.82918800  0.95907100  1
  Ni  Ni40  1  0.01277800  0.71640100  0.69633400  1
  Ni  Ni41  1  0.52006700  0.31644500  0.80366600  1
  Ni  Ni42  1  0.98722200  0.28359900  0.30366600  1
  Ni  Ni43  1  0.47993300  0.68355500  0.19633400  1
  Cu  Cu44  1  0.71008300  0.47901400  0.42810300  1
  Cu  Cu45  1  0.55091100  0.28198000  0.07189700  1
  Cu  Cu46  1  0.28991700  0.52098600  0.57189700  1
  Cu  Cu47  1  0.44908900  0.71802000  0.92810300  1
  Cu  Cu48  1  0.27077800  0.76493700  0.50027100  1
  Cu  Cu49  1  0.76466600  0.77050700  0.99972900  1
  Cu  Cu50  1  0.72922200  0.23506300  0.49972900  1
  Cu  Cu51  1  0.23533400  0.22949300  0.00027100  1
  Cu  Cu52  1  0.00269700  0.79423500  0.62371900  1
  Cu  Cu53  1  0.67051600  0.37897900  0.87628100  1
  Cu  Cu54  1  0.99730300  0.20576500  0.37628100  1
  Cu  Cu55  1  0.32948400  0.62102100  0.12371900  1
  Cu  Cu56  1  0.99672300  0.44646300  0.30533900  1
  Cu  Cu57  1  0.64112400  0.69138300  0.19466100  1
  Cu  Cu58  1  0.00327700  0.55353700  0.69466100  1
  Cu  Cu59  1  0.35887600  0.30861700  0.80533900  1
  Cu  Cu60  1  0.95750000  0.83215200  0.36589900  1
  Cu  Cu61  1  0.96625300  0.59160200  0.13410100  1
  Cu  Cu62  1  0.04250000  0.16784800  0.63410100  1
  Cu  Cu63  1  0.03374700  0.40839800  0.86589900  1
