# generated using pymatgen
data_Cu5NiC24
_symmetry_space_group_name_H-M   'P 1'
_cell_length_a   7.18458800
_cell_length_b   7.18458800
_cell_length_c   13.97907800
_cell_angle_alpha   90.00000000
_cell_angle_beta   90.00000000
_cell_angle_gamma   96.31623573
_symmetry_Int_Tables_number   1
_chemical_formula_structural   Cu5NiC24
_chemical_formula_sum   'Cu10 Ni2 C48'
_cell_volume   717.19621114
_cell_formula_units_Z   2
loop_
 _symmetry_equiv_pos_site_id
 _symmetry_equiv_pos_as_xyz
  1  'x, y, z'
loop_
 _atom_site_type_symbol
 _atom_site_label
 _atom_site_symmetry_multiplicity
 _atom_site_fract_x
 _atom_site_fract_y
 _atom_site_fract_z
 _atom_site_occupancy
  C  C0  1  0.61917200  0.08426800  0.15626500  1
  C  C1  1  0.08426800  0.61917200  0.84373500  1
  C  C2  1  0.38082800  0.91573200  0.65626500  1
  C  C3  1  0.91573200  0.38082800  0.34373500  1
  Ni  Ni4  1  0.37221800  0.37221800  0.50000000  1
  Ni  Ni5  1  0.62778200  0.62778200  0.00000000  1
  Cu  Cu6  1  0.20062500  0.79937500  0.25000000  1
  Cu  Cu7  1  0.79937500  0.20062500  0.75000000  1
  Cu  Cu8  1  0.30565500  0.74153100  0.41822700  1
  Cu  Cu9  1  0.74153100  0.30565500  0.58177200  1
  Cu  Cu10  1  0.69434500  0.25846900  0.91822700  1
  Cu  Cu11  1  0.25846900  0.69434500  0.08177300  1
  Cu  Cu12  1  0.28373100  0.06337100  0.36873000  1
  Cu  Cu13  1  0.06337100  0.28373100  0.63127000  1
  Cu  Cu14  1  0.71626900  0.93662900  0.86873000  1
  Cu  Cu15  1  0.93662900  0.71626900  0.13127000  1
  C  C16  1  0.56513200  0.56467600  0.21625800  1
  C  C17  1  0.56467600  0.56513200  0.78374200  1
  C  C18  1  0.43486800  0.43532400  0.71625800  1
  C  C19  1  0.43532400  0.43486800  0.28374200  1
  C  C20  1  0.10197900  0.14141900  0.20308400  1
  C  C21  1  0.14141900  0.10197900  0.79691600  1
  C  C22  1  0.89802100  0.85858100  0.70308400  1
  C  C23  1  0.85858100  0.89802100  0.29691600  1
  C  C24  1  0.08931500  0.24284100  0.10560700  1
  C  C25  1  0.24284100  0.08931500  0.89439300  1
  C  C26  1  0.91068500  0.75715900  0.60560700  1
  C  C27  1  0.75715900  0.91068500  0.39439300  1
  C  C28  1  0.38780600  0.25569900  0.01615800  1
  C  C29  1  0.25569900  0.38780600  0.98384200  1
  C  C30  1  0.61219400  0.74430100  0.51615800  1
  C  C31  1  0.74430100  0.61219400  0.48384200  1
  C  C32  1  0.23790800  0.00065100  0.27747300  1
  C  C33  1  0.00065100  0.23790800  0.72252700  1
  C  C34  1  0.76209200  0.99934900  0.77747300  1
  C  C35  1  0.99934900  0.76209200  0.22252700  1
  C  C36  1  0.23783500  0.67755500  0.33143800  1
  C  C37  1  0.67755500  0.23783500  0.66856200  1
  C  C38  1  0.76216500  0.32244500  0.83143800  1
  C  C39  1  0.32244500  0.76216500  0.16856200  1
  C  C40  1  0.32464000  0.93489100  0.43937800  1
  C  C41  1  0.93489100  0.32464000  0.56062200  1
  C  C42  1  0.67536000  0.06510900  0.93937800  1
  C  C43  1  0.06510900  0.67536000  0.06062200  1
  C  C44  1  0.28895500  0.24971300  0.38924100  1
  C  C45  1  0.24971300  0.28895500  0.61075900  1
  C  C46  1  0.71104500  0.75028700  0.88924100  1
  C  C47  1  0.75028700  0.71104500  0.11075900  1
  C  C48  1  0.35854800  0.62919100  0.49014500  1
  C  C49  1  0.62919100  0.35854800  0.50985500  1
  C  C50  1  0.64145200  0.37080900  0.99014500  1
  C  C51  1  0.37080900  0.64145200  0.00985500  1
  C  C52  1  0.55540600  0.44459400  0.25000000  1
  C  C53  1  0.44459400  0.55540600  0.75000000  1
  C  C54  1  0.25352400  0.25352400  0.00000000  1
  C  C55  1  0.74647600  0.74647600  0.50000000  1
  C  C56  1  0.02081400  0.21860100  0.16597600  1
  C  C57  1  0.21860100  0.02081400  0.83402400  1
  C  C58  1  0.97918600  0.78139900  0.66597600  1
  C  C59  1  0.78139900  0.97918600  0.33402500  1
