# generated using pymatgen
data_Cu4Ni2C17
_symmetry_space_group_name_H-M   'P 1'
_cell_length_a   12.59612143
_cell_length_b   12.59612143
_cell_length_c   11.38516914
_cell_angle_alpha   64.27272172
_cell_angle_beta   64.27272172
_cell_angle_gamma   26.36563969
_symmetry_Int_Tables_number   1
_chemical_formula_structural   Cu4Ni2C17
_chemical_formula_sum   'Cu8 Ni4 C34'
_cell_volume   718.07589142
_cell_formula_units_Z   2
loop_
 _symmetry_equiv_pos_site_id
 _symmetry_equiv_pos_as_xyz
  1  'x, y, z'
loop_
 _atom_site_type_symbol
 _atom_site_label
 _atom_site_symmetry_multiplicity
 _atom_site_fract_x
 _atom_site_fract_y
 _atom_site_fract_z
 _atom_site_occupancy
  C  C0  1  0.80165700  0.69706300  0.36667300  1
  C  C1  1  0.30293700  0.19834300  0.13332700  1
  C  C2  1  0.19834300  0.30293700  0.63332700  1
  C  C3  1  0.69706300  0.80165700  0.86667300  1
  Ni  Ni4  1  0.88001500  0.80344800  0.02269200  1
  Ni  Ni5  1  0.19655200  0.11998500  0.47730800  1
  Ni  Ni6  1  0.11998500  0.19655200  0.97730800  1
  Ni  Ni7  1  0.80344800  0.88001500  0.52269200  1
  Cu  Cu8  1  0.60471800  0.52092200  0.55174800  1
  Cu  Cu9  1  0.47907800  0.39528200  0.94825200  1
  Cu  Cu10  1  0.39528200  0.47907800  0.44825200  1
  Cu  Cu11  1  0.52092200  0.60471800  0.05174800  1
  Cu  Cu12  1  0.97089400  0.90395500  0.17435300  1
  Cu  Cu13  1  0.09604500  0.02910600  0.32564700  1
  Cu  Cu14  1  0.02910600  0.09604500  0.82564700  1
  Cu  Cu15  1  0.90395500  0.97089400  0.67435300  1
  C  C16  1  0.68459700  0.61636900  0.21846200  1
  C  C17  1  0.38363100  0.31540300  0.28153800  1
  C  C18  1  0.31540300  0.38363100  0.78153800  1
  C  C19  1  0.61636900  0.68459700  0.71846200  1
  C  C20  1  0.90866300  0.35403900  0.35899400  1
  C  C21  1  0.64596100  0.09133700  0.14100600  1
  C  C22  1  0.09133700  0.64596100  0.64100600  1
  C  C23  1  0.35403900  0.90866300  0.85899400  1
  C  C24  1  0.86024500  0.40729000  0.62360200  1
  C  C25  1  0.59271000  0.13975500  0.87639800  1
  C  C26  1  0.13975500  0.59271000  0.37639800  1
  C  C27  1  0.40729000  0.86024500  0.12360200  1
  C  C28  1  0.18123700  0.55937300  0.13672300  1
  C  C29  1  0.44062700  0.81876300  0.36327700  1
  C  C30  1  0.81876300  0.44062700  0.86327700  1
  C  C31  1  0.55937300  0.18123700  0.63672300  1
  C  C32  1  0.79856900  0.67167300  0.12406200  1
  C  C33  1  0.32832700  0.20143100  0.37593800  1
  C  C34  1  0.20143100  0.32832700  0.87593800  1
  C  C35  1  0.67167300  0.79856900  0.62406200  1
  C  C36  1  0.24123500  0.75876500  0.25000000  1
  C  C37  1  0.75876500  0.24123500  0.75000000  1
  C  C38  1  0.37012300  0.83162800  0.65937600  1
  C  C39  1  0.16837200  0.62987700  0.84062400  1
  C  C40  1  0.62987700  0.16837200  0.34062400  1
  C  C41  1  0.83162800  0.37012300  0.15937700  1
  C  C42  1  0.75072200  0.24744100  0.47878500  1
  C  C43  1  0.75255900  0.24927800  0.02121500  1
  C  C44  1  0.24927800  0.75255900  0.52121500  1
  C  C45  1  0.24744100  0.75072200  0.97878500  1
