# generated using pymatgen
data_Cu2NiC7
_symmetry_space_group_name_H-M   'P 1'
_cell_length_a   5.32575200
_cell_length_b   5.48107300
_cell_length_c   7.73348800
_cell_angle_alpha   90.00000000
_cell_angle_beta   90.00000000
_cell_angle_gamma   90.00000000
_symmetry_Int_Tables_number   1
_chemical_formula_structural   Cu2NiC7
_chemical_formula_sum   'Cu4 Ni2 C14'
_cell_volume   225.74697599
_cell_formula_units_Z   2
loop_
 _symmetry_equiv_pos_site_id
 _symmetry_equiv_pos_as_xyz
  1  'x, y, z'
loop_
 _atom_site_type_symbol
 _atom_site_label
 _atom_site_symmetry_multiplicity
 _atom_site_fract_x
 _atom_site_fract_y
 _atom_site_fract_z
 _atom_site_occupancy
  C  C0  1  0.01113000  0.70861400  0.00000000  1
  C  C1  1  0.51113000  0.29138600  0.50000000  1
  Ni  Ni2  1  0.48587300  0.22199400  0.00000000  1
  Ni  Ni3  1  0.98587300  0.77800600  0.50000000  1
  Cu  Cu4  1  0.99998000  0.24401800  0.75014600  1
  Cu  Cu5  1  0.99998000  0.24401800  0.24985400  1
  Cu  Cu6  1  0.49998000  0.75598200  0.25014600  1
  Cu  Cu7  1  0.49998000  0.75598200  0.74985400  1
  C  C8  1  0.07906400  0.21072400  0.50000000  1
  C  C9  1  0.22026500  0.97191700  0.80306700  1
  C  C10  1  0.22026500  0.97191700  0.19693300  1
  C  C11  1  0.30753900  0.44586700  0.19132800  1
  C  C12  1  0.30753900  0.44586700  0.80867200  1
  C  C13  1  0.36840500  0.72679000  0.50000000  1
  C  C14  1  0.57906400  0.78927600  0.00000000  1
  C  C15  1  0.72026500  0.02808300  0.69693300  1
  C  C16  1  0.72026500  0.02808300  0.30306700  1
  C  C17  1  0.80753900  0.55413300  0.69132800  1
  C  C18  1  0.80753900  0.55413300  0.30867200  1
  C  C19  1  0.86840500  0.27321000  0.00000000  1
