# generated using pymatgen
data_Cu4Ni8C23
_symmetry_space_group_name_H-M   'P 1'
_cell_length_a   8.63190940
_cell_length_b   8.63190940
_cell_length_c   9.63836795
_cell_angle_alpha   67.47951641
_cell_angle_beta   67.47951641
_cell_angle_gamma   41.00835665
_symmetry_Int_Tables_number   1
_chemical_formula_structural   Cu4Ni8C23
_chemical_formula_sum   'Cu4 Ni8 C23'
_cell_volume   430.03052654
_cell_formula_units_Z   1
loop_
 _symmetry_equiv_pos_site_id
 _symmetry_equiv_pos_as_xyz
  1  'x, y, z'
loop_
 _atom_site_type_symbol
 _atom_site_label
 _atom_site_symmetry_multiplicity
 _atom_site_fract_x
 _atom_site_fract_y
 _atom_site_fract_z
 _atom_site_occupancy
  C  C0  1  0.00000000  0.50000000  0.50000000  1
  C  C1  1  0.50000000  0.00000000  0.50000000  1
  Ni  Ni2  1  0.36997800  0.36997800  0.63571300  1
  Ni  Ni3  1  0.63002200  0.63002200  0.36428700  1
  Ni  Ni4  1  0.46802000  0.46802000  0.31505800  1
  Ni  Ni5  1  0.53198000  0.53198000  0.68494200  1
  Ni  Ni6  1  0.14038300  0.62682000  0.95057300  1
  Ni  Ni7  1  0.62682000  0.14038300  0.95057300  1
  Ni  Ni8  1  0.85961700  0.37318000  0.04942700  1
  Ni  Ni9  1  0.37318000  0.85961700  0.04942700  1
  Cu  Cu10  1  0.91835300  0.91835300  0.21210000  1
  Cu  Cu11  1  0.08164700  0.08164700  0.78790000  1
  Cu  Cu12  1  0.77026100  0.77026100  0.77918900  1
  Cu  Cu13  1  0.22973900  0.22973900  0.22081100  1
  C  C14  1  0.87788200  0.87788200  0.08904500  1
  C  C15  1  0.12211800  0.12211800  0.91095500  1
  C  C16  1  0.83971500  0.83971500  0.37694700  1
  C  C17  1  0.16028500  0.16028500  0.62305300  1
  C  C18  1  0.18705900  0.76211300  0.19235800  1
  C  C19  1  0.76211300  0.18705900  0.19235800  1
  C  C20  1  0.81294100  0.23788700  0.80764200  1
  C  C21  1  0.23788700  0.81294100  0.80764200  1
  C  C22  1  0.83551800  0.83551800  0.85752100  1
  C  C23  1  0.16448200  0.16448200  0.14247900  1
  C  C24  1  0.66843100  0.66843100  0.89550400  1
  C  C25  1  0.33156900  0.33156900  0.10449600  1
  C  C26  1  0.99460100  0.57614200  0.67803700  1
  C  C27  1  0.57614200  0.99460100  0.67803700  1
  C  C28  1  0.00539900  0.42385800  0.32196300  1
  C  C29  1  0.42385800  0.00539900  0.32196300  1
  C  C30  1  0.33905000  0.33905000  0.44912700  1
  C  C31  1  0.66095000  0.66095000  0.55087300  1
  C  C32  1  0.40000700  0.40000700  0.80753200  1
  C  C33  1  0.59999300  0.59999300  0.19246800  1
  C  C34  1  0.50000000  0.50000000  0.50000000  1
