# generated using pymatgen
data_CuNi2C
_symmetry_space_group_name_H-M   'P 1'
_cell_length_a   4.05004600
_cell_length_b   5.45974657
_cell_length_c   6.86845400
_cell_angle_alpha   90.00000000
_cell_angle_beta   90.00000000
_cell_angle_gamma   111.77116718
_symmetry_Int_Tables_number   1
_chemical_formula_structural   CuNi2C
_chemical_formula_sum   'Cu2 Ni4 C2'
_cell_volume   141.04382023
_cell_formula_units_Z   2
loop_
 _symmetry_equiv_pos_site_id
 _symmetry_equiv_pos_as_xyz
  1  'x, y, z'
loop_
 _atom_site_type_symbol
 _atom_site_label
 _atom_site_symmetry_multiplicity
 _atom_site_fract_x
 _atom_site_fract_y
 _atom_site_fract_z
 _atom_site_occupancy
  C  C0  1  0.93831700  0.87663400  0.25000000  1
  C  C1  1  0.06168300  0.12336600  0.75000000  1
  Ni  Ni2  1  0.34421300  0.68842600  0.94578200  1
  Ni  Ni3  1  0.65578700  0.31157400  0.05421800  1
  Ni  Ni4  1  0.65578700  0.31157400  0.44578200  1
  Ni  Ni5  1  0.34421300  0.68842600  0.55421800  1
  Cu  Cu6  1  0.21580900  0.43161800  0.25000000  1
  Cu  Cu7  1  0.78419100  0.56838200  0.75000000  1
