# generated using pymatgen
data_Cu5Ni2C25
_symmetry_space_group_name_H-M   'P 1'
_cell_length_a   5.86410500
_cell_length_b   5.00219600
_cell_length_c   9.81018241
_cell_angle_alpha   79.26865896
_cell_angle_beta   90.00000000
_cell_angle_gamma   90.00000000
_symmetry_Int_Tables_number   1
_chemical_formula_structural   Cu5Ni2C25
_chemical_formula_sum   'Cu5 Ni2 C25'
_cell_volume   282.73331539
_cell_formula_units_Z   1
loop_
 _symmetry_equiv_pos_site_id
 _symmetry_equiv_pos_as_xyz
  1  'x, y, z'
loop_
 _atom_site_type_symbol
 _atom_site_label
 _atom_site_symmetry_multiplicity
 _atom_site_fract_x
 _atom_site_fract_y
 _atom_site_fract_z
 _atom_site_occupancy
  C  C0  1  0.24740400  0.73820800  0.75223400  1
  C  C1  1  0.50000000  0.74121200  0.24727900  1
  C  C2  1  0.75259600  0.73820800  0.75223400  1
  C  C3  1  0.50000000  0.25878800  0.75272100  1
  C  C4  1  0.75259600  0.26179200  0.24776600  1
  C  C5  1  0.00000000  0.25988600  0.75343200  1
  C  C6  1  0.00000000  0.74011400  0.24656800  1
  C  C7  1  0.24740400  0.26179200  0.24776600  1
  C  C8  1  0.00000000  0.50000000  0.00000000  1
  Ni  Ni9  1  0.24650200  0.00000000  0.00000000  1
  Ni  Ni10  1  0.75349800  0.00000000  0.00000000  1
  Cu  Cu11  1  0.50000000  0.00000000  0.50000000  1
  Cu  Cu12  1  0.00000000  0.00000000  0.50000000  1
  Cu  Cu13  1  0.75050600  0.50000000  0.50000000  1
  Cu  Cu14  1  0.24949400  0.50000000  0.50000000  1
  Cu  Cu15  1  0.50000000  0.50000000  0.00000000  1
  C  C16  1  0.00000000  0.89993100  0.88837100  1
  C  C17  1  0.25316900  0.86339300  0.38391600  1
  C  C18  1  0.50000000  0.86922000  0.89279900  1
  C  C19  1  0.26452700  0.35892000  0.88946900  1
  C  C20  1  0.50000000  0.36299200  0.38369600  1
  C  C21  1  0.73547300  0.35892000  0.88946900  1
  C  C22  1  0.74683100  0.86339300  0.38391600  1
  C  C23  1  0.00000000  0.36793200  0.38173800  1
  C  C24  1  0.50000000  0.63700800  0.61630400  1
  C  C25  1  0.73547300  0.64108000  0.11053100  1
  C  C26  1  0.00000000  0.63206800  0.61826200  1
  C  C27  1  0.74683100  0.13660700  0.61608400  1
  C  C28  1  0.00000000  0.10006900  0.11162900  1
  C  C29  1  0.25316900  0.13660700  0.61608400  1
  C  C30  1  0.26452700  0.64108000  0.11053100  1
  C  C31  1  0.50000000  0.13078000  0.10720100  1
