# generated using pymatgen
data_CuNi5C38
_symmetry_space_group_name_H-M   'P 1'
_cell_length_a   5.68003000
_cell_length_b   8.97631300
_cell_length_c   10.26444000
_cell_angle_alpha   64.68913386
_cell_angle_beta   90.00000000
_cell_angle_gamma   90.00000000
_symmetry_Int_Tables_number   1
_chemical_formula_structural   CuNi5C38
_chemical_formula_sum   'Cu1 Ni5 C38'
_cell_volume   473.10008005
_cell_formula_units_Z   1
loop_
 _symmetry_equiv_pos_site_id
 _symmetry_equiv_pos_as_xyz
  1  'x, y, z'
loop_
 _atom_site_type_symbol
 _atom_site_label
 _atom_site_symmetry_multiplicity
 _atom_site_fract_x
 _atom_site_fract_y
 _atom_site_fract_z
 _atom_site_occupancy
  C  C0  1  0.50000000  0.23981100  0.15665000  1
  C  C1  1  0.00000000  0.75928400  0.84638200  1
  C  C2  1  0.50000000  0.39059100  0.42301100  1
  C  C3  1  0.00000000  0.60798300  0.57806900  1
  Ni  Ni4  1  0.75014900  0.99653200  0.00166500  1
  Ni  Ni5  1  0.24985100  0.99653200  0.00166500  1
  Ni  Ni6  1  0.75056100  0.00092900  0.49956000  1
  Ni  Ni7  1  0.24943900  0.00092900  0.49956000  1
  Ni  Ni8  1  0.00000000  0.71091100  0.22549400  1
  Cu  Cu9  1  0.50000000  0.29066800  0.77915200  1
  C  C10  1  0.00000000  0.32240600  0.27393000  1
  C  C11  1  0.50000000  0.68557400  0.72453100  1
  C  C12  1  0.50000000  0.81690700  0.31582400  1
  C  C13  1  0.00000000  0.18138500  0.68304200  1
  C  C14  1  0.50000000  0.66062700  0.04879900  1
  C  C15  1  0.00000000  0.33724900  0.95302700  1
  C  C16  1  0.00000000  0.93947700  0.32591600  1
  C  C17  1  0.50000000  0.06133000  0.67330800  1
  C  C18  1  0.50000000  0.48234600  0.17993800  1
  C  C19  1  0.00000000  0.51484400  0.82095300  1
  C  C20  1  0.73726900  0.70062700  0.34961400  1
  C  C21  1  0.23153500  0.30232600  0.64359200  1
  C  C22  1  0.76846500  0.30232600  0.64359200  1
  C  C23  1  0.26273100  0.70062700  0.34961400  1
  C  C24  1  0.74687700  0.76321900  0.04515600  1
  C  C25  1  0.24411400  0.23078500  0.95998700  1
  C  C26  1  0.75588600  0.23078500  0.95998700  1
  C  C27  1  0.25312300  0.76321900  0.04515600  1
  C  C28  1  0.00000000  0.93979600  0.13194600  1
  C  C29  1  0.50000000  0.04622100  0.87228300  1
  C  C30  1  0.00000000  0.36583400  0.10114300  1
  C  C31  1  0.50000000  0.63306800  0.89924800  1
  C  C32  1  0.00000000  0.49038200  0.29474300  1
  C  C33  1  0.50000000  0.52553400  0.69153000  1
  C  C34  1  0.50000000  0.96034600  0.14407400  1
  C  C35  1  0.00000000  0.03983300  0.85609600  1
  C  C36  1  0.50000000  0.93668800  0.40342000  1
  C  C37  1  0.00000000  0.06169700  0.59669900  1
  C  C38  1  0.00000000  0.91922400  0.42774200  1
  C  C39  1  0.50000000  0.08187500  0.57124300  1
  C  C40  1  0.76500200  0.21037900  0.34376100  1
  C  C41  1  0.26228500  0.79426000  0.65756800  1
  C  C42  1  0.73771500  0.79426000  0.65756800  1
  C  C43  1  0.23499800  0.21037900  0.34376100  1
