# generated using pymatgen
data_Cu8Ni9C22
_symmetry_space_group_name_H-M   'P 1'
_cell_length_a   14.23098601
_cell_length_b   14.23098601
_cell_length_c   14.23098600
_cell_angle_alpha   40.76842827
_cell_angle_beta   40.76842827
_cell_angle_gamma   40.76843003
_symmetry_Int_Tables_number   1
_chemical_formula_structural   Cu8Ni9C22
_chemical_formula_sum   'Cu16 Ni18 C44'
_cell_volume   1108.97126707
_cell_formula_units_Z   2
loop_
 _symmetry_equiv_pos_site_id
 _symmetry_equiv_pos_as_xyz
  1  'x, y, z'
loop_
 _atom_site_type_symbol
 _atom_site_label
 _atom_site_symmetry_multiplicity
 _atom_site_fract_x
 _atom_site_fract_y
 _atom_site_fract_z
 _atom_site_occupancy
  Ni  Ni0  1  0.59855300  0.75000000  0.90144700  1
  Ni  Ni1  1  0.90144700  0.59855300  0.75000000  1
  Ni  Ni2  1  0.75000000  0.90144700  0.59855300  1
  Ni  Ni3  1  0.40144700  0.25000000  0.09855300  1
  Ni  Ni4  1  0.09855300  0.40144700  0.25000000  1
  Ni  Ni5  1  0.25000000  0.09855300  0.40144700  1
  Ni  Ni6  1  0.43054600  0.88577400  0.07758600  1
  Ni  Ni7  1  0.07758600  0.43054600  0.88577400  1
  Ni  Ni8  1  0.88577400  0.07758600  0.43054600  1
  Ni  Ni9  1  0.57758600  0.38577400  0.93054600  1
  Ni  Ni10  1  0.93054600  0.57758600  0.38577400  1
  Ni  Ni11  1  0.38577400  0.93054600  0.57758600  1
  Ni  Ni12  1  0.56945400  0.11422600  0.92241400  1
  Ni  Ni13  1  0.92241400  0.56945400  0.11422600  1
  Ni  Ni14  1  0.11422600  0.92241400  0.56945400  1
  Ni  Ni15  1  0.42241400  0.61422600  0.06945400  1
  Ni  Ni16  1  0.06945400  0.42241400  0.61422600  1
  Ni  Ni17  1  0.61422600  0.06945400  0.42241400  1
  Cu  Cu18  1  0.20127000  0.71011100  0.46911900  1
  Cu  Cu19  1  0.46911900  0.20127000  0.71011100  1
  Cu  Cu20  1  0.71011100  0.46911900  0.20127000  1
  Cu  Cu21  1  0.96911900  0.21011100  0.70127000  1
  Cu  Cu22  1  0.70127000  0.96911900  0.21011100  1
  Cu  Cu23  1  0.21011100  0.70127000  0.96911900  1
  Cu  Cu24  1  0.79873000  0.28988900  0.53088100  1
  Cu  Cu25  1  0.53088100  0.79873000  0.28988900  1
  Cu  Cu26  1  0.28988900  0.53088100  0.79873000  1
  Cu  Cu27  1  0.03088100  0.78988900  0.29873000  1
  Cu  Cu28  1  0.29873000  0.03088100  0.78988900  1
  Cu  Cu29  1  0.78988900  0.29873000  0.03088100  1
  Cu  Cu30  1  0.16355400  0.16355400  0.16355400  1
  Cu  Cu31  1  0.66355400  0.66355400  0.66355400  1
  Cu  Cu32  1  0.83644600  0.83644600  0.83644600  1
  Cu  Cu33  1  0.33644600  0.33644600  0.33644600  1
  C  C34  1  0.38684300  0.84730400  0.22720500  1
  C  C35  1  0.22720500  0.38684300  0.84730400  1
  C  C36  1  0.84730400  0.22720500  0.38684300  1
  C  C37  1  0.72720500  0.34730400  0.88684300  1
  C  C38  1  0.88684300  0.72720500  0.34730400  1
  C  C39  1  0.34730400  0.88684300  0.72720500  1
  C  C40  1  0.61315700  0.15269600  0.77279500  1
  C  C41  1  0.77279500  0.61315700  0.15269600  1
  C  C42  1  0.15269600  0.77279500  0.61315700  1
  C  C43  1  0.27279500  0.65269600  0.11315700  1
  C  C44  1  0.11315700  0.27279500  0.65269600  1
  C  C45  1  0.65269600  0.11315700  0.27279500  1
  C  C46  1  0.54733700  0.76398200  0.03122500  1
  C  C47  1  0.03122500  0.54733700  0.76398200  1
  C  C48  1  0.76398200  0.03122500  0.54733700  1
  C  C49  1  0.53122500  0.26398200  0.04733700  1
  C  C50  1  0.04733700  0.53122500  0.26398200  1
  C  C51  1  0.26398200  0.04733700  0.53122500  1
  C  C52  1  0.45266300  0.23601800  0.96877500  1
  C  C53  1  0.96877500  0.45266300  0.23601800  1
  C  C54  1  0.23601800  0.96877500  0.45266300  1
  C  C55  1  0.46877500  0.73601800  0.95266300  1
  C  C56  1  0.95266300  0.46877500  0.73601800  1
  C  C57  1  0.73601800  0.95266300  0.46877500  1
  C  C58  1  0.75000000  0.60679900  0.89320100  1
  C  C59  1  0.89320100  0.75000000  0.60679900  1
  C  C60  1  0.60679900  0.89320100  0.75000000  1
  C  C61  1  0.39320100  0.10679900  0.25000000  1
  C  C62  1  0.25000000  0.39320100  0.10679900  1
  C  C63  1  0.10679900  0.25000000  0.39320100  1
  C  C64  1  0.35390200  0.04015200  0.98741100  1
  C  C65  1  0.98741100  0.35390200  0.04015200  1
  C  C66  1  0.04015200  0.98741100  0.35390200  1
  C  C67  1  0.48741100  0.54015200  0.85390200  1
  C  C68  1  0.85390200  0.48741100  0.54015200  1
  C  C69  1  0.54015200  0.85390200  0.48741100  1
  C  C70  1  0.64609800  0.95984800  0.01258900  1
  C  C71  1  0.01258900  0.64609800  0.95984800  1
  C  C72  1  0.95984800  0.01258900  0.64609800  1
  C  C73  1  0.51258900  0.45984800  0.14609800  1
  C  C74  1  0.14609800  0.51258900  0.45984800  1
  C  C75  1  0.45984800  0.14609800  0.51258900  1
  C  C76  1  0.50000000  0.50000000  0.50000000  1
  C  C77  1  0.00000000  0.00000000  0.00000000  1
