# generated using pymatgen
data_Cu(NiC)4
_symmetry_space_group_name_H-M   'P 1'
_cell_length_a   5.42330400
_cell_length_b   5.43843579
_cell_length_c   7.44815057
_cell_angle_alpha   106.93873821
_cell_angle_beta   106.75918891
_cell_angle_gamma   95.27448538
_symmetry_Int_Tables_number   1
_chemical_formula_structural   Cu(NiC)4
_chemical_formula_sum   'Cu2 Ni8 C8'
_cell_volume   197.47490818
_cell_formula_units_Z   2
loop_
 _symmetry_equiv_pos_site_id
 _symmetry_equiv_pos_as_xyz
  1  'x, y, z'
loop_
 _atom_site_type_symbol
 _atom_site_label
 _atom_site_symmetry_multiplicity
 _atom_site_fract_x
 _atom_site_fract_y
 _atom_site_fract_z
 _atom_site_occupancy
  C  C0  1  0.41727500  0.76294300  0.84797100  1
  C  C1  1  0.87151400  0.53895400  0.15092800  1
  C  C2  1  0.00989900  0.50313200  0.52394600  1
  C  C3  1  0.55149000  0.19116200  0.16596300  1
  C  C4  1  0.99908300  0.00329300  0.99425100  1
  C  C5  1  0.00711900  0.01158200  0.50347800  1
  C  C6  1  0.62564600  0.34388300  0.75793400  1
  C  C7  1  0.37817300  0.66031900  0.23433100  1
  Ni  Ni8  1  0.21383500  0.72595900  0.37559200  1
  Ni  Ni9  1  0.77144400  0.27304300  0.60702000  1
  Ni  Ni10  1  0.67627300  0.67222500  0.33785900  1
  Ni  Ni11  1  0.35029300  0.85519000  0.11352600  1
  Ni  Ni12  1  0.65527600  0.16113100  0.88916700  1
  Ni  Ni13  1  0.74428900  0.62971000  0.91039000  1
  Ni  Ni14  1  0.33192100  0.34488000  0.65658000  1
  Ni  Ni15  1  0.26303700  0.37509900  0.09256800  1
  Cu  Cu16  1  0.91397400  0.17749000  0.26821500  1
  Cu  Cu17  1  0.08782700  0.84212200  0.72887000  1
