# generated using pymatgen
data_Cu9NiC5
_symmetry_space_group_name_H-M   'P 1'
_cell_length_a   10.36929100
_cell_length_b   10.36929100
_cell_length_c   28.44829700
_cell_angle_alpha   90.00000000
_cell_angle_beta   90.00000000
_cell_angle_gamma   90.00000000
_symmetry_Int_Tables_number   1
_chemical_formula_structural   Cu9NiC5
_chemical_formula_sum   'Cu72 Ni8 C40'
_cell_volume   3058.82336142
_cell_formula_units_Z   8
loop_
 _symmetry_equiv_pos_site_id
 _symmetry_equiv_pos_as_xyz
  1  'x, y, z'
loop_
 _atom_site_type_symbol
 _atom_site_label
 _atom_site_symmetry_multiplicity
 _atom_site_fract_x
 _atom_site_fract_y
 _atom_site_fract_z
 _atom_site_occupancy
  C  C0  1  0.72425200  0.05958400  0.66159000  1
  C  C1  1  0.27574800  0.94041600  0.16159000  1
  C  C2  1  0.55958400  0.77574800  0.41159000  1
  C  C3  1  0.44041600  0.22425200  0.91159000  1
  C  C4  1  0.94041600  0.27574800  0.83841000  1
  C  C5  1  0.05958400  0.72425200  0.33841000  1
  C  C6  1  0.77574800  0.55958400  0.58841000  1
  C  C7  1  0.22425200  0.44041600  0.08841000  1
  C  C8  1  0.98964600  0.35137300  0.69766800  1
  C  C9  1  0.01035400  0.64862700  0.19766800  1
  C  C10  1  0.85137300  0.51035400  0.44766800  1
  C  C11  1  0.14862700  0.48964600  0.94766800  1
  C  C12  1  0.64862700  0.01035400  0.80233200  1
  C  C13  1  0.35137300  0.98964600  0.30233200  1
  C  C14  1  0.51035400  0.85137300  0.55233200  1
  C  C15  1  0.48964600  0.14862700  0.05233200  1
  C  C16  1  0.99723600  0.23174000  0.55089700  1
  C  C17  1  0.00276400  0.76826000  0.05089700  1
  C  C18  1  0.73174000  0.50276400  0.30089700  1
  C  C19  1  0.26826000  0.49723600  0.80089700  1
  C  C20  1  0.76826000  0.00276400  0.94910300  1
  C  C21  1  0.23174000  0.99723600  0.44910300  1
  C  C22  1  0.50276400  0.73174000  0.69910300  1
  C  C23  1  0.49723600  0.26826000  0.19910300  1
  C  C24  1  0.55568100  0.22904600  0.40795500  1
  C  C25  1  0.44431900  0.77095400  0.90795500  1
  C  C26  1  0.72904600  0.94431900  0.15795500  1
  C  C27  1  0.27095400  0.05568100  0.65795500  1
  C  C28  1  0.77095400  0.44431900  0.09204500  1
  C  C29  1  0.22904600  0.55568100  0.59204500  1
  C  C30  1  0.94431900  0.72904600  0.84204500  1
  C  C31  1  0.05568100  0.27095400  0.34204500  1
  C  C32  1  0.51338100  0.29776200  0.54708600  1
  C  C33  1  0.48661900  0.70223800  0.04708600  1
  C  C34  1  0.79776200  0.98661900  0.29708600  1
  C  C35  1  0.20223800  0.01338100  0.79708600  1
  C  C36  1  0.70223800  0.48661900  0.95291400  1
  C  C37  1  0.29776200  0.51338100  0.45291400  1
  C  C38  1  0.98661900  0.79776200  0.70291400  1
  C  C39  1  0.01338100  0.20223800  0.20291400  1
  Ni  Ni40  1  0.86122100  0.00742900  0.44416100  1
  Ni  Ni41  1  0.13877900  0.99257100  0.94416100  1
  Ni  Ni42  1  0.50742900  0.63877900  0.19416100  1
  Ni  Ni43  1  0.49257100  0.36122100  0.69416100  1
  Ni  Ni44  1  0.99257100  0.13877900  0.05583900  1
  Ni  Ni45  1  0.00742900  0.86122100  0.55583900  1
  Ni  Ni46  1  0.63877900  0.50742900  0.80583900  1
  Ni  Ni47  1  0.36122100  0.49257100  0.30583900  1
  Cu  Cu48  1  0.82421800  0.00904700  0.53788200  1
  Cu  Cu49  1  0.17578200  0.99095300  0.03788200  1
  Cu  Cu50  1  0.50904700  0.67578200  0.28788200  1
  Cu  Cu51  1  0.49095300  0.32421800  0.78788200  1
  Cu  Cu52  1  0.99095300  0.17578200  0.96211800  1
  Cu  Cu53  1  0.00904700  0.82421800  0.46211800  1
  Cu  Cu54  1  0.67578200  0.50904700  0.71211800  1
  Cu  Cu55  1  0.32421800  0.49095300  0.21211800  1
  Cu  Cu56  1  0.51845300  0.31416100  0.29994000  1
  Cu  Cu57  1  0.48154700  0.68583900  0.79994000  1
  Cu  Cu58  1  0.81416100  0.98154700  0.04994000  1
  Cu  Cu59  1  0.18583900  0.01845300  0.54994000  1
  Cu  Cu60  1  0.68583900  0.48154700  0.20006000  1
  Cu  Cu61  1  0.31416100  0.51845300  0.70006000  1
  Cu  Cu62  1  0.98154700  0.81416100  0.95006000  1
  Cu  Cu63  1  0.01845300  0.18583900  0.45006000  1
  Cu  Cu64  1  0.50564500  0.48612300  0.60266800  1
  Cu  Cu65  1  0.49435500  0.51387700  0.10266800  1
  Cu  Cu66  1  0.98612300  0.99435500  0.35266800  1
  Cu  Cu67  1  0.01387700  0.00564500  0.85266800  1
  Cu  Cu68  1  0.51387700  0.49435500  0.89733200  1
  Cu  Cu69  1  0.48612300  0.50564500  0.39733200  1
  Cu  Cu70  1  0.99435500  0.98612300  0.64733200  1
  Cu  Cu71  1  0.00564500  0.01387700  0.14733200  1
  Cu  Cu72  1  0.50217400  0.10455200  0.59908600  1
  Cu  Cu73  1  0.49782600  0.89544800  0.09908600  1
  Cu  Cu74  1  0.60455200  0.99782600  0.34908600  1
  Cu  Cu75  1  0.39544800  0.00217400  0.84908600  1
  Cu  Cu76  1  0.89544800  0.49782600  0.90091400  1
  Cu  Cu77  1  0.10455200  0.50217400  0.40091400  1
  Cu  Cu78  1  0.99782600  0.60455200  0.65091400  1
  Cu  Cu79  1  0.00217400  0.39544800  0.15091400  1
  Cu  Cu80  1  0.19016100  0.80983900  0.75000000  1
  Cu  Cu81  1  0.80983900  0.19016100  0.25000000  1
  Cu  Cu82  1  0.30983900  0.30983900  0.50000000  1
  Cu  Cu83  1  0.69016100  0.69016100  0.00000000  1
  Cu  Cu84  1  0.70597400  0.30610500  0.49586200  1
  Cu  Cu85  1  0.29402600  0.69389500  0.99586200  1
  Cu  Cu86  1  0.80610500  0.79402600  0.24586200  1
  Cu  Cu87  1  0.19389500  0.20597400  0.74586200  1
  Cu  Cu88  1  0.69389500  0.29402600  0.00413800  1
  Cu  Cu89  1  0.30610500  0.70597400  0.50413800  1
  Cu  Cu90  1  0.79402600  0.80610500  0.75413800  1
  Cu  Cu91  1  0.20597400  0.19389500  0.25413800  1
  Cu  Cu92  1  0.50298700  0.00213900  0.46784800  1
  Cu  Cu93  1  0.49701300  0.99786100  0.96784800  1
  Cu  Cu94  1  0.50213900  0.99701300  0.21784800  1
  Cu  Cu95  1  0.49786100  0.00298700  0.71784800  1
  Cu  Cu96  1  0.99786100  0.49701300  0.03215200  1
  Cu  Cu97  1  0.00213900  0.50298700  0.53215200  1
  Cu  Cu98  1  0.99701300  0.50213900  0.78215200  1
  Cu  Cu99  1  0.00298700  0.49786100  0.28215200  1
  Cu  Cu100  1  0.79746800  0.32539800  0.37368700  1
  Cu  Cu101  1  0.20253200  0.67460200  0.87368700  1
  Cu  Cu102  1  0.82539800  0.70253200  0.12368700  1
  Cu  Cu103  1  0.17460200  0.29746800  0.62368700  1
  Cu  Cu104  1  0.67460200  0.20253200  0.12631300  1
  Cu  Cu105  1  0.32539800  0.79746800  0.62631300  1
  Cu  Cu106  1  0.70253200  0.82539800  0.87631300  1
  Cu  Cu107  1  0.29746800  0.17460200  0.37631300  1
  Cu  Cu108  1  0.81155600  0.29875400  0.62267400  1
  Cu  Cu109  1  0.18844400  0.70124600  0.12267400  1
  Cu  Cu110  1  0.79875400  0.68844400  0.37267400  1
  Cu  Cu111  1  0.20124600  0.31155600  0.87267400  1
  Cu  Cu112  1  0.70124600  0.18844400  0.87732600  1
  Cu  Cu113  1  0.29875400  0.81155600  0.37732600  1
  Cu  Cu114  1  0.68844400  0.79875400  0.62732600  1
  Cu  Cu115  1  0.31155600  0.20124600  0.12732600  1
  Cu  Cu116  1  0.81689000  0.18311000  0.75000000  1
  Cu  Cu117  1  0.18311000  0.81689000  0.25000000  1
  Cu  Cu118  1  0.68311000  0.68311000  0.50000000  1
  Cu  Cu119  1  0.31689000  0.31689000  0.00000000  1
