# generated using pymatgen
data_CuNi4C3
_symmetry_space_group_name_H-M   'P 1'
_cell_length_a   7.56973985
_cell_length_b   7.56973985
_cell_length_c   10.24181264
_cell_angle_alpha   63.13126003
_cell_angle_beta   63.13126003
_cell_angle_gamma   51.70285447
_symmetry_Int_Tables_number   1
_chemical_formula_structural   CuNi4C3
_chemical_formula_sum   'Cu4 Ni16 C12'
_cell_volume   398.28288990
_cell_formula_units_Z   4
loop_
 _symmetry_equiv_pos_site_id
 _symmetry_equiv_pos_as_xyz
  1  'x, y, z'
loop_
 _atom_site_type_symbol
 _atom_site_label
 _atom_site_symmetry_multiplicity
 _atom_site_fract_x
 _atom_site_fract_y
 _atom_site_fract_z
 _atom_site_occupancy
  C  C0  1  0.21115900  0.67698800  0.99503500  1
  C  C1  1  0.32301200  0.78884100  0.50496500  1
  C  C2  1  0.78884100  0.32301200  0.00496500  1
  C  C3  1  0.67698800  0.21115900  0.49503500  1
  C  C4  1  0.05123400  0.26012300  0.64888200  1
  C  C5  1  0.73987700  0.94876600  0.85111800  1
  C  C6  1  0.94876600  0.73987700  0.35111800  1
  C  C7  1  0.26012300  0.05123400  0.14888200  1
  C  C8  1  0.22975500  0.41825300  0.80624500  1
  C  C9  1  0.58174700  0.77024500  0.69375500  1
  C  C10  1  0.77024500  0.58174700  0.19375500  1
  C  C11  1  0.41825300  0.22975500  0.30624500  1
  Ni  Ni12  1  0.77459600  0.61233800  0.58287600  1
  Ni  Ni13  1  0.38766200  0.22540400  0.91712400  1
  Ni  Ni14  1  0.22540400  0.38766200  0.41712400  1
  Ni  Ni15  1  0.61233800  0.77459600  0.08287600  1
  Ni  Ni16  1  0.93443000  0.64457500  0.18777500  1
  Ni  Ni17  1  0.35542500  0.06557000  0.31222500  1
  Ni  Ni18  1  0.06557000  0.35542500  0.81222500  1
  Ni  Ni19  1  0.64457500  0.93443000  0.68777500  1
  Ni  Ni20  1  0.62149300  0.54837500  0.35759800  1
  Ni  Ni21  1  0.45162500  0.37850700  0.14240200  1
  Ni  Ni22  1  0.37850700  0.45162500  0.64240200  1
  Ni  Ni23  1  0.54837500  0.62149300  0.85759800  1
  Ni  Ni24  1  0.91403700  0.35076100  0.14516500  1
  Ni  Ni25  1  0.64923900  0.08596300  0.35483500  1
  Ni  Ni26  1  0.08596300  0.64923900  0.85483500  1
  Ni  Ni27  1  0.35076100  0.91403700  0.64516500  1
  Cu  Cu28  1  0.08260800  0.88928300  0.39198200  1
  Cu  Cu29  1  0.11071700  0.91739200  0.10801800  1
  Cu  Cu30  1  0.91739200  0.11071700  0.60801800  1
  Cu  Cu31  1  0.88928300  0.08260800  0.89198200  1
