# generated using pymatgen
data_Cu6NiC45
_symmetry_space_group_name_H-M   'P 1'
_cell_length_a   8.91792560
_cell_length_b   8.91792560
_cell_length_c   23.38825200
_cell_angle_alpha   90.00000000
_cell_angle_beta   90.00000000
_cell_angle_gamma   119.99999701
_symmetry_Int_Tables_number   1
_chemical_formula_structural   Cu6NiC45
_chemical_formula_sum   'Cu12 Ni2 C90'
_cell_volume   1610.85369898
_cell_formula_units_Z   2
loop_
 _symmetry_equiv_pos_site_id
 _symmetry_equiv_pos_as_xyz
  1  'x, y, z'
loop_
 _atom_site_type_symbol
 _atom_site_label
 _atom_site_symmetry_multiplicity
 _atom_site_fract_x
 _atom_site_fract_y
 _atom_site_fract_z
 _atom_site_occupancy
  Ni  Ni0  1  0.00000000  0.00000000  0.50000000  1
  Ni  Ni1  1  0.00000000  0.00000000  0.00000000  1
  Cu  Cu2  1  0.33333300  0.66666700  0.52488000  1
  Cu  Cu3  1  0.66666700  0.33333300  0.47512000  1
  Cu  Cu4  1  0.66666700  0.33333300  0.97512000  1
  Cu  Cu5  1  0.33333300  0.66666700  0.02488000  1
  Cu  Cu6  1  0.00000000  0.00000000  0.65069300  1
  Cu  Cu7  1  0.00000000  0.00000000  0.34930700  1
  Cu  Cu8  1  0.00000000  0.00000000  0.84930700  1
  Cu  Cu9  1  0.00000000  0.00000000  0.15069300  1
  Cu  Cu10  1  0.33333300  0.66666700  0.81305400  1
  Cu  Cu11  1  0.66666700  0.33333300  0.18694600  1
  Cu  Cu12  1  0.66666700  0.33333300  0.68694600  1
  Cu  Cu13  1  0.33333300  0.66666700  0.31305400  1
  C  C14  1  0.37482200  0.32288700  0.57977100  1
  C  C15  1  0.62517800  0.67711300  0.42022900  1
  C  C16  1  0.67711300  0.05193500  0.57977100  1
  C  C17  1  0.32288700  0.37482200  0.92022900  1
  C  C18  1  0.32288700  0.94806600  0.42022900  1
  C  C19  1  0.67711300  0.62517800  0.07977100  1
  C  C20  1  0.94806600  0.62517800  0.57977100  1
  C  C21  1  0.05193500  0.67711300  0.92022900  1
  C  C22  1  0.05193500  0.37482200  0.42022900  1
  C  C23  1  0.94806600  0.32288700  0.07977100  1
  C  C24  1  0.62517800  0.94806600  0.92022900  1
  C  C25  1  0.37482200  0.05193500  0.07977100  1
  C  C26  1  0.29234900  0.00000000  0.75000000  1
  C  C27  1  0.70765100  0.00000000  0.25000000  1
  C  C28  1  0.00000000  0.29234900  0.75000000  1
  C  C29  1  0.00000000  0.70765100  0.25000000  1
  C  C30  1  0.70765100  0.70765100  0.75000000  1
  C  C31  1  0.29234900  0.29234900  0.25000000  1
  C  C32  1  0.44999600  0.27819100  0.52739500  1
  C  C33  1  0.55000400  0.72180900  0.47260500  1
  C  C34  1  0.72180900  0.17180500  0.52739500  1
  C  C35  1  0.27819100  0.44999600  0.97260500  1
  C  C36  1  0.27819100  0.82819500  0.47260500  1
  C  C37  1  0.72180900  0.55000400  0.02739500  1
  C  C38  1  0.82819500  0.55000400  0.52739500  1
  C  C39  1  0.17180500  0.72180900  0.97260500  1
  C  C40  1  0.17180500  0.44999600  0.47260500  1
  C  C41  1  0.82819500  0.27819100  0.02739500  1
  C  C42  1  0.55000400  0.82819500  0.97260500  1
  C  C43  1  0.44999600  0.17180500  0.02739500  1
  C  C44  1  0.37832100  0.49569800  0.57138800  1
  C  C45  1  0.62167900  0.50430200  0.42861200  1
  C  C46  1  0.50430200  0.88262300  0.57138800  1
  C  C47  1  0.49569800  0.37832100  0.92861200  1
  C  C48  1  0.49569800  0.11737700  0.42861200  1
  C  C49  1  0.50430200  0.62167900  0.07138800  1
  C  C50  1  0.11737700  0.62167900  0.57138800  1
  C  C51  1  0.88262300  0.50430200  0.92861200  1
  C  C52  1  0.88262300  0.37832100  0.42861200  1
  C  C53  1  0.11737700  0.49569800  0.07138800  1
  C  C54  1  0.62167900  0.11737700  0.92861200  1
  C  C55  1  0.37832100  0.88262300  0.07138800  1
  C  C56  1  0.17830600  0.17370900  0.58245400  1
  C  C57  1  0.82169400  0.82629100  0.41754600  1
  C  C58  1  0.82629100  0.00459600  0.58245400  1
  C  C59  1  0.17370900  0.17830600  0.91754600  1
  C  C60  1  0.17370900  0.99540400  0.41754600  1
  C  C61  1  0.82629100  0.82169400  0.08245400  1
  C  C62  1  0.99540400  0.82169400  0.58245400  1
  C  C63  1  0.00459600  0.82629100  0.91754600  1
  C  C64  1  0.00459600  0.17830600  0.41754600  1
  C  C65  1  0.99540400  0.17370900  0.08245400  1
  C  C66  1  0.82169400  0.99540400  0.91754600  1
  C  C67  1  0.17830600  0.00459600  0.08245400  1
  C  C68  1  0.03030500  0.20515300  0.69692800  1
  C  C69  1  0.96969500  0.79484700  0.30307200  1
  C  C70  1  0.79484700  0.82515200  0.69692800  1
  C  C71  1  0.20515300  0.03030500  0.80307200  1
  C  C72  1  0.20515300  0.17484800  0.30307200  1
  C  C73  1  0.79484700  0.96969500  0.19692800  1
  C  C74  1  0.17484800  0.96969500  0.69692800  1
  C  C75  1  0.82515200  0.79484700  0.80307200  1
  C  C76  1  0.82515200  0.03030500  0.30307200  1
  C  C77  1  0.17484800  0.20515300  0.19692800  1
  C  C78  1  0.96969500  0.17484800  0.80307200  1
  C  C79  1  0.03030500  0.82515200  0.19692800  1
  C  C80  1  0.46931800  0.32784600  0.63478600  1
  C  C81  1  0.53068200  0.67215400  0.36521400  1
  C  C82  1  0.67215400  0.14147300  0.63478600  1
  C  C83  1  0.32784600  0.46931800  0.86521400  1
  C  C84  1  0.32784600  0.85852700  0.36521400  1
  C  C85  1  0.67215400  0.53068200  0.13478600  1
  C  C86  1  0.85852700  0.53068200  0.63478600  1
  C  C87  1  0.14147300  0.67215400  0.86521400  1
  C  C88  1  0.14147300  0.46931800  0.36521400  1
  C  C89  1  0.85852700  0.32784600  0.13478600  1
  C  C90  1  0.53068200  0.85852700  0.86521400  1
  C  C91  1  0.46931800  0.14147300  0.13478600  1
  C  C92  1  0.46919300  0.15946600  0.73958200  1
  C  C93  1  0.53080700  0.84053400  0.26041800  1
  C  C94  1  0.84053400  0.30972700  0.73958200  1
  C  C95  1  0.15946600  0.46919300  0.76041800  1
  C  C96  1  0.15946600  0.69027300  0.26041800  1
  C  C97  1  0.84053400  0.53080700  0.23958200  1
  C  C98  1  0.69027300  0.53080700  0.73958200  1
  C  C99  1  0.30972700  0.84053400  0.76041800  1
  C  C100  1  0.30972700  0.46919300  0.26041800  1
  C  C101  1  0.69027300  0.15946600  0.23958200  1
  C  C102  1  0.53080700  0.69027300  0.76041800  1
  C  C103  1  0.46919300  0.30972700  0.23958200  1
