# generated using pymatgen
data_Cu2Ni6C19
_symmetry_space_group_name_H-M   'P 1'
_cell_length_a   6.06106300
_cell_length_b   8.08409500
_cell_length_c   18.51297302
_cell_angle_alpha   89.18976870
_cell_angle_beta   90.00000000
_cell_angle_gamma   90.00000000
_symmetry_Int_Tables_number   1
_chemical_formula_structural   Cu2Ni6C19
_chemical_formula_sum   'Cu4 Ni12 C38'
_cell_volume   907.01182630
_cell_formula_units_Z   2
loop_
 _symmetry_equiv_pos_site_id
 _symmetry_equiv_pos_as_xyz
  1  'x, y, z'
loop_
 _atom_site_type_symbol
 _atom_site_label
 _atom_site_symmetry_multiplicity
 _atom_site_fract_x
 _atom_site_fract_y
 _atom_site_fract_z
 _atom_site_occupancy
  Ni  Ni0  1  0.28370800  0.00000000  0.25000000  1
  Ni  Ni1  1  0.71629200  0.00000000  0.75000000  1
  Ni  Ni2  1  0.32629500  0.50000000  0.25000000  1
  Ni  Ni3  1  0.67370500  0.50000000  0.75000000  1
  Ni  Ni4  1  0.74930300  0.97989900  0.08848600  1
  Ni  Ni5  1  0.74930300  0.02010100  0.41151400  1
  Ni  Ni6  1  0.25069700  0.02010100  0.91151400  1
  Ni  Ni7  1  0.25069700  0.97989900  0.58848600  1
  Ni  Ni8  1  0.25007900  0.49691200  0.57790100  1
  Ni  Ni9  1  0.25007900  0.50308800  0.92209900  1
  Ni  Ni10  1  0.74992100  0.50308800  0.42209900  1
  Ni  Ni11  1  0.74992100  0.49691200  0.07790100  1
  Cu  Cu12  1  0.25134900  0.75357000  0.41083000  1
  Cu  Cu13  1  0.25134900  0.24643000  0.08917000  1
  Cu  Cu14  1  0.74865100  0.24643000  0.58917000  1
  Cu  Cu15  1  0.74865100  0.75357000  0.91083000  1
  C  C16  1  0.25238800  0.75320000  0.06273700  1
  C  C17  1  0.25238800  0.24680000  0.43726300  1
  C  C18  1  0.74761200  0.24680000  0.93726300  1
  C  C19  1  0.74761200  0.75320000  0.56273700  1
  C  C20  1  0.77289200  0.76852000  0.26351100  1
  C  C21  1  0.77289200  0.23148000  0.23648900  1
  C  C22  1  0.22710800  0.23148000  0.73648900  1
  C  C23  1  0.22710800  0.76852000  0.76351100  1
  C  C24  1  0.80735600  0.00000000  0.25000000  1
  C  C25  1  0.19264400  0.00000000  0.75000000  1
  C  C26  1  0.76665100  0.95763600  0.60643500  1
  C  C27  1  0.76665100  0.04236400  0.89356500  1
  C  C28  1  0.23334900  0.04236400  0.39356500  1
  C  C29  1  0.23334900  0.95763600  0.10643500  1
  C  C30  1  0.24601100  0.53285800  0.08970600  1
  C  C31  1  0.24601100  0.46714200  0.41029400  1
  C  C32  1  0.75398900  0.46714200  0.91029400  1
  C  C33  1  0.75398900  0.53285800  0.58970600  1
  C  C34  1  0.03409200  0.72022100  0.31029200  1
  C  C35  1  0.03409200  0.27977900  0.18970800  1
  C  C36  1  0.96590800  0.27977900  0.68970800  1
  C  C37  1  0.96590800  0.72022100  0.81029200  1
  C  C38  1  0.54162600  0.74963000  0.33528200  1
  C  C39  1  0.54162600  0.25037000  0.16471800  1
  C  C40  1  0.45837400  0.25037000  0.66471800  1
  C  C41  1  0.45837400  0.74963000  0.83528200  1
  C  C42  1  0.49114200  0.76431300  0.50216700  1
  C  C43  1  0.49114200  0.23568700  0.99783300  1
  C  C44  1  0.50885800  0.23568700  0.49783300  1
  C  C45  1  0.50885800  0.76431300  0.00216700  1
  C  C46  1  0.01298500  0.76351800  0.99393000  1
  C  C47  1  0.01298500  0.23648200  0.50607000  1
  C  C48  1  0.98701500  0.23648200  0.00607000  1
  C  C49  1  0.98701500  0.76351800  0.49393000  1
  C  C50  1  0.35095900  0.69826500  0.68126900  1
  C  C51  1  0.35095900  0.30173500  0.81873100  1
  C  C52  1  0.64904100  0.30173500  0.31873100  1
  C  C53  1  0.64904100  0.69826500  0.18126900  1
