# generated using pymatgen
data_CuNiC14
_symmetry_space_group_name_H-M   'P 1'
_cell_length_a   9.86384100
_cell_length_b   7.76797300
_cell_length_c   10.81247001
_cell_angle_alpha   89.29737124
_cell_angle_beta   90.00000000
_cell_angle_gamma   90.00000000
_symmetry_Int_Tables_number   1
_chemical_formula_structural   CuNiC14
_chemical_formula_sum   'Cu4 Ni4 C56'
_cell_volume   828.41132934
_cell_formula_units_Z   4
loop_
 _symmetry_equiv_pos_site_id
 _symmetry_equiv_pos_as_xyz
  1  'x, y, z'
loop_
 _atom_site_type_symbol
 _atom_site_label
 _atom_site_symmetry_multiplicity
 _atom_site_fract_x
 _atom_site_fract_y
 _atom_site_fract_z
 _atom_site_occupancy
  C  C0  1  0.15844600  0.49990200  0.12992300  1
  C  C1  1  0.65844600  0.50009800  0.37007700  1
  C  C2  1  0.34155400  0.49990200  0.62992300  1
  C  C3  1  0.84155400  0.50009800  0.87007700  1
  Ni  Ni4  1  0.16670500  0.45020600  0.84565800  1
  Ni  Ni5  1  0.83329500  0.54979400  0.15434200  1
  Ni  Ni6  1  0.33329500  0.45020600  0.34565800  1
  Ni  Ni7  1  0.66670500  0.54979400  0.65434200  1
  C  C8  1  0.66479100  0.00661600  0.32072600  1
  C  C9  1  0.91945600  0.38870300  0.31758200  1
  C  C10  1  0.16479100  0.99338400  0.17927400  1
  C  C11  1  0.84851900  0.72789000  0.55737000  1
  C  C12  1  0.84351300  0.27591000  0.08824500  1
  C  C13  1  0.65148100  0.72789000  0.05737000  1
  C  C14  1  0.47476700  0.83430300  0.89086600  1
  C  C15  1  0.08054400  0.61129700  0.68241800  1
  C  C16  1  0.34351300  0.72409000  0.41175500  1
  C  C17  1  0.02523300  0.83430300  0.39086600  1
  C  C18  1  0.41945600  0.61129700  0.18241800  1
  C  C19  1  0.52523300  0.16569700  0.10913400  1
  C  C20  1  0.15648700  0.72409000  0.91175500  1
  C  C21  1  0.15148100  0.27211000  0.44263000  1
  C  C22  1  0.83520900  0.00661600  0.82072600  1
  C  C23  1  0.58054400  0.38870300  0.81758200  1
  C  C24  1  0.34851900  0.27211000  0.94263000  1
  C  C25  1  0.65648700  0.27591000  0.58824500  1
  C  C26  1  0.33520900  0.99338400  0.67927400  1
  C  C27  1  0.97476700  0.16569700  0.60913400  1
  Cu  Cu28  1  0.98060300  0.97768100  0.93316100  1
  Cu  Cu29  1  0.01939700  0.02231900  0.06683900  1
  Cu  Cu30  1  0.51939700  0.97768100  0.43316100  1
  Cu  Cu31  1  0.48060300  0.02231900  0.56683900  1
  C  C32  1  0.30819500  0.26749000  0.02744600  1
  C  C33  1  0.86167800  0.04671200  0.90310200  1
  C  C34  1  0.68827100  0.39035000  0.55621200  1
  C  C35  1  0.83362200  0.69037400  0.01213100  1
  C  C36  1  0.98161600  0.60522900  0.17232400  1
  C  C37  1  0.51838400  0.60522900  0.67232400  1
  C  C38  1  0.20314500  0.36157900  0.29800000  1
  C  C39  1  0.33362200  0.30962600  0.48786900  1
  C  C40  1  0.66637800  0.69037400  0.51213100  1
  C  C41  1  0.16637800  0.30962600  0.98786900  1
  C  C42  1  0.70314500  0.63842100  0.20200000  1
  C  C43  1  0.05178100  0.89200900  0.86420700  1
  C  C44  1  0.81172900  0.39035000  0.05621200  1
  C  C45  1  0.82974400  0.40337400  0.28139000  1
  C  C46  1  0.67025600  0.40337400  0.78139000  1
  C  C47  1  0.32974400  0.59662600  0.21861000  1
  C  C48  1  0.17025600  0.59662600  0.71861000  1
  C  C49  1  0.44821900  0.89200900  0.36420700  1
  C  C50  1  0.69180500  0.73251000  0.97255400  1
  C  C51  1  0.13832200  0.95328800  0.09689800  1
  C  C52  1  0.55178100  0.10799100  0.63579300  1
  C  C53  1  0.79685500  0.63842100  0.70200000  1
  C  C54  1  0.31172900  0.60965000  0.44378800  1
  C  C55  1  0.63832200  0.04671200  0.40310200  1
  C  C56  1  0.29685500  0.36157900  0.79800000  1
  C  C57  1  0.36167800  0.95328800  0.59689800  1
  C  C58  1  0.80819500  0.73251000  0.47255400  1
  C  C59  1  0.18827100  0.60965000  0.94378800  1
  C  C60  1  0.48161600  0.39477100  0.32767600  1
  C  C61  1  0.94821900  0.10799100  0.13579300  1
  C  C62  1  0.01838400  0.39477100  0.82767600  1
  C  C63  1  0.19180500  0.26749000  0.52744600  1
