# generated using pymatgen
data_Cu2NiC
_symmetry_space_group_name_H-M   'P 1'
_cell_length_a   10.83169800
_cell_length_b   5.27818800
_cell_length_c   8.95305247
_cell_angle_alpha   75.00315027
_cell_angle_beta   90.00000000
_cell_angle_gamma   90.00000000
_symmetry_Int_Tables_number   1
_chemical_formula_structural   Cu2NiC
_chemical_formula_sum   'Cu16 Ni8 C8'
_cell_volume   494.42759695
_cell_formula_units_Z   8
loop_
 _symmetry_equiv_pos_site_id
 _symmetry_equiv_pos_as_xyz
  1  'x, y, z'
loop_
 _atom_site_type_symbol
 _atom_site_label
 _atom_site_symmetry_multiplicity
 _atom_site_fract_x
 _atom_site_fract_y
 _atom_site_fract_z
 _atom_site_occupancy
  C  C0  1  0.30740300  0.87274600  0.54639400  1
  C  C1  1  0.80740300  0.12725400  0.95360600  1
  C  C2  1  0.69259700  0.12725400  0.45360600  1
  C  C3  1  0.19259700  0.87274600  0.04639400  1
  C  C4  1  0.02746700  0.20109400  0.29435000  1
  C  C5  1  0.52746700  0.79890600  0.20565000  1
  C  C6  1  0.97253300  0.79890600  0.70565000  1
  C  C7  1  0.47253300  0.20109400  0.79435000  1
  Ni  Ni8  1  0.97208600  0.89003500  0.47923700  1
  Ni  Ni9  1  0.47208600  0.10996500  0.02076300  1
  Ni  Ni10  1  0.02791400  0.10996500  0.52076300  1
  Ni  Ni11  1  0.52791400  0.89003500  0.97923700  1
  Ni  Ni12  1  0.28701000  0.39818000  0.48541100  1
  Ni  Ni13  1  0.78701000  0.60182000  0.01458900  1
  Ni  Ni14  1  0.71299000  0.60182000  0.51458900  1
  Ni  Ni15  1  0.21299000  0.39818000  0.98541100  1
  Cu  Cu16  1  0.09716700  0.50530200  0.23252900  1
  Cu  Cu17  1  0.59716700  0.49469800  0.26747100  1
  Cu  Cu18  1  0.90283300  0.49469800  0.76747100  1
  Cu  Cu19  1  0.40283300  0.50530200  0.73252900  1
  Cu  Cu20  1  0.17324200  0.02319700  0.30631100  1
  Cu  Cu21  1  0.67324200  0.97680300  0.19368900  1
  Cu  Cu22  1  0.82675800  0.97680300  0.69368900  1
  Cu  Cu23  1  0.32675800  0.02319700  0.80631100  1
  Cu  Cu24  1  0.87573700  0.31848000  0.30571100  1
  Cu  Cu25  1  0.37573700  0.68152000  0.19428900  1
  Cu  Cu26  1  0.12426300  0.68152000  0.69428900  1
  Cu  Cu27  1  0.62426300  0.31848000  0.80571100  1
  Cu  Cu28  1  0.99033400  0.09109300  0.12964500  1
  Cu  Cu29  1  0.49033400  0.90890700  0.37035500  1
  Cu  Cu30  1  0.00966600  0.90890700  0.87035500  1
  Cu  Cu31  1  0.50966600  0.09109300  0.62964500  1
