# generated using pymatgen
data_CuNi3
_symmetry_space_group_name_H-M   'P 1'
_cell_length_a   7.12090427
_cell_length_b   7.12090427
_cell_length_c   7.12090427
_cell_angle_alpha   109.47122063
_cell_angle_beta   109.47122063
_cell_angle_gamma   109.47122063
_symmetry_Int_Tables_number   1
_chemical_formula_structural   CuNi3
_chemical_formula_sum   'Cu4 Ni12'
_cell_volume   277.96079954
_cell_formula_units_Z   4
loop_
 _symmetry_equiv_pos_site_id
 _symmetry_equiv_pos_as_xyz
  1  'x, y, z'
loop_
 _atom_site_type_symbol
 _atom_site_label
 _atom_site_symmetry_multiplicity
 _atom_site_fract_x
 _atom_site_fract_y
 _atom_site_fract_z
 _atom_site_occupancy
  Ni  Ni0  1  0.86510500  0.63567500  0.50078000  1
  Ni  Ni1  1  0.13489500  0.36432500  0.49922000  1
  Ni  Ni2  1  0.13489500  0.63567500  0.77057000  1
  Ni  Ni3  1  0.86510500  0.36432500  0.22943000  1
  Ni  Ni4  1  0.63567500  0.50078000  0.86510500  1
  Ni  Ni5  1  0.36432500  0.49922000  0.13489500  1
  Ni  Ni6  1  0.63567500  0.77057000  0.13489500  1
  Ni  Ni7  1  0.36432500  0.22943000  0.86510500  1
  Ni  Ni8  1  0.50078000  0.86510500  0.63567500  1
  Ni  Ni9  1  0.49922000  0.13489500  0.36432500  1
  Ni  Ni10  1  0.77057000  0.13489500  0.63567500  1
  Ni  Ni11  1  0.22943000  0.86510500  0.36432500  1
  Cu  Cu12  1  0.50000000  0.50000000  0.50000000  1
  Cu  Cu13  1  0.50000000  0.00000000  0.00000000  1
  Cu  Cu14  1  0.00000000  0.50000000  0.00000000  1
  Cu  Cu15  1  0.00000000  0.00000000  0.50000000  1
