# generated using pymatgen
data_Cu7Ni3C4
_symmetry_space_group_name_H-M   'P 1'
_cell_length_a   13.73040600
_cell_length_b   7.03250700
_cell_length_c   10.86329616
_cell_angle_alpha   52.03943159
_cell_angle_beta   90.00000000
_cell_angle_gamma   90.00000000
_symmetry_Int_Tables_number   1
_chemical_formula_structural   Cu7Ni3C4
_chemical_formula_sum   'Cu28 Ni12 C16'
_cell_volume   827.02886228
_cell_formula_units_Z   4
loop_
 _symmetry_equiv_pos_site_id
 _symmetry_equiv_pos_as_xyz
  1  'x, y, z'
loop_
 _atom_site_type_symbol
 _atom_site_label
 _atom_site_symmetry_multiplicity
 _atom_site_fract_x
 _atom_site_fract_y
 _atom_site_fract_z
 _atom_site_occupancy
  C  C0  1  0.01841400  0.01184900  0.23282800  1
  C  C1  1  0.48158600  0.01184900  0.73282800  1
  C  C2  1  0.98158600  0.98815100  0.76717200  1
  C  C3  1  0.51841400  0.98815100  0.26717200  1
  C  C4  1  0.83959200  0.23037000  0.97836200  1
  C  C5  1  0.66040800  0.23037000  0.47836200  1
  C  C6  1  0.16040800  0.76963000  0.02163800  1
  C  C7  1  0.33959200  0.76963000  0.52163800  1
  C  C8  1  0.58090200  0.55595500  0.76815800  1
  C  C9  1  0.91909800  0.55595500  0.26815800  1
  C  C10  1  0.41909800  0.44404500  0.23184200  1
  C  C11  1  0.08090200  0.44404500  0.73184200  1
  C  C12  1  0.73365000  0.50585600  0.81641700  1
  C  C13  1  0.76635000  0.50585600  0.31641700  1
  C  C14  1  0.26635000  0.49414400  0.18358300  1
  C  C15  1  0.23365000  0.49414400  0.68358300  1
  Ni  Ni16  1  0.79445700  0.28418600  0.88408700  1
  Ni  Ni17  1  0.70554300  0.28418600  0.38408700  1
  Ni  Ni18  1  0.20554300  0.71581400  0.11591300  1
  Ni  Ni19  1  0.29445700  0.71581400  0.61591300  1
  Ni  Ni20  1  0.63694300  0.44194800  0.78460500  1
  Ni  Ni21  1  0.86305700  0.44194800  0.28460500  1
  Ni  Ni22  1  0.36305700  0.55805200  0.21539500  1
  Ni  Ni23  1  0.13694300  0.55805200  0.71539500  1
  Ni  Ni24  1  0.73309800  0.61519300  0.89039900  1
  Ni  Ni25  1  0.76690200  0.61519300  0.39039900  1
  Ni  Ni26  1  0.26690200  0.38480700  0.10960100  1
  Ni  Ni27  1  0.23309800  0.38480700  0.60960100  1
  Cu  Cu28  1  0.89282200  0.12619600  0.11987500  1
  Cu  Cu29  1  0.60717800  0.12619600  0.61987500  1
  Cu  Cu30  1  0.10717800  0.87380400  0.88012500  1
  Cu  Cu31  1  0.39282200  0.87380400  0.38012500  1
  Cu  Cu32  1  0.99220800  0.70625100  0.26803700  1
  Cu  Cu33  1  0.50779200  0.70625100  0.76803700  1
  Cu  Cu34  1  0.00779200  0.29374900  0.73196300  1
  Cu  Cu35  1  0.49220800  0.29374900  0.23196300  1
  Cu  Cu36  1  0.13859200  0.88256100  0.34158300  1
  Cu  Cu37  1  0.36140800  0.88256100  0.84158300  1
  Cu  Cu38  1  0.86140800  0.11743900  0.65841700  1
  Cu  Cu39  1  0.63859200  0.11743900  0.15841700  1
  Cu  Cu40  1  0.94955100  0.88649300  0.41946200  1
  Cu  Cu41  1  0.55044900  0.88649300  0.91946200  1
  Cu  Cu42  1  0.05044900  0.11350700  0.58053800  1
  Cu  Cu43  1  0.44955100  0.11350700  0.08053800  1
  Cu  Cu44  1  0.03742700  0.31590600  0.19011000  1
  Cu  Cu45  1  0.46257300  0.31590600  0.69011000  1
  Cu  Cu46  1  0.96257300  0.68409400  0.80989000  1
  Cu  Cu47  1  0.53742700  0.68409400  0.30989000  1
  Cu  Cu48  1  0.07942700  0.12155400  0.04224100  1
  Cu  Cu49  1  0.42057300  0.12155400  0.54224100  1
  Cu  Cu50  1  0.92057300  0.87844600  0.95775900  1
  Cu  Cu51  1  0.57942700  0.87844600  0.45775900  1
  Cu  Cu52  1  0.77753600  0.68162000  0.64948200  1
  Cu  Cu53  1  0.72246400  0.68162000  0.14948200  1
  Cu  Cu54  1  0.22246400  0.31838000  0.35051800  1
  Cu  Cu55  1  0.27753600  0.31838000  0.85051800  1
