# generated using pymatgen
data_Cu9(NiC3)2
_symmetry_space_group_name_H-M   'P 1'
_cell_length_a   7.20924429
_cell_length_b   7.20924429
_cell_length_c   32.19815000
_cell_angle_alpha   90.00000000
_cell_angle_beta   90.00000000
_cell_angle_gamma   146.55559222
_symmetry_Int_Tables_number   1
_chemical_formula_structural   Cu9(NiC3)2
_chemical_formula_sum   'Cu18 Ni4 C12'
_cell_volume   922.27957366
_cell_formula_units_Z   2
loop_
 _symmetry_equiv_pos_site_id
 _symmetry_equiv_pos_as_xyz
  1  'x, y, z'
loop_
 _atom_site_type_symbol
 _atom_site_label
 _atom_site_symmetry_multiplicity
 _atom_site_fract_x
 _atom_site_fract_y
 _atom_site_fract_z
 _atom_site_occupancy
  Ni  Ni0  1  0.54303100  0.45696900  0.11622600  1
  Ni  Ni1  1  0.45696900  0.54303100  0.88377400  1
  Ni  Ni2  1  0.45696900  0.54303100  0.61622600  1
  Ni  Ni3  1  0.54303100  0.45696900  0.38377400  1
  C  C4  1  0.72934900  0.27065100  0.55740500  1
  C  C5  1  0.27065100  0.72934900  0.44259500  1
  C  C6  1  0.27065100  0.72934900  0.05740500  1
  C  C7  1  0.72934900  0.27065100  0.94259500  1
  C  C8  1  0.07355400  0.92644600  0.25000000  1
  C  C9  1  0.92644600  0.07355400  0.75000000  1
  C  C10  1  0.00000000  0.00000000  0.00000000  1
  C  C11  1  0.00000000  0.00000000  0.50000000  1
  C  C12  1  0.81654500  0.18345500  0.17461700  1
  C  C13  1  0.18345500  0.81654500  0.82538300  1
  C  C14  1  0.18345500  0.81654500  0.67461700  1
  C  C15  1  0.81654500  0.18345500  0.32538300  1
  Cu  Cu16  1  0.63755000  0.36245000  0.02912300  1
  Cu  Cu17  1  0.36245000  0.63755000  0.97087700  1
  Cu  Cu18  1  0.36245000  0.63755000  0.52912300  1
  Cu  Cu19  1  0.63755000  0.36245000  0.47087700  1
  Cu  Cu20  1  0.91565700  0.08434300  0.08514800  1
  Cu  Cu21  1  0.08434300  0.91565700  0.91485200  1
  Cu  Cu22  1  0.08434300  0.91565700  0.58514800  1
  Cu  Cu23  1  0.91565700  0.08434300  0.41485200  1
  Cu  Cu24  1  0.71448800  0.28551200  0.25000000  1
  Cu  Cu25  1  0.28551200  0.71448800  0.75000000  1
  Cu  Cu26  1  0.45865300  0.54134700  0.19104700  1
  Cu  Cu27  1  0.54134700  0.45865300  0.80895300  1
  Cu  Cu28  1  0.54134700  0.45865300  0.69104700  1
  Cu  Cu29  1  0.45865300  0.54134700  0.30895300  1
  Cu  Cu30  1  0.82781100  0.17218900  0.63792800  1
  Cu  Cu31  1  0.17218900  0.82781100  0.36207200  1
  Cu  Cu32  1  0.17218900  0.82781100  0.13792800  1
  Cu  Cu33  1  0.82781100  0.17218900  0.86207200  1
