# generated using pymatgen
data_CuNiC
_symmetry_space_group_name_H-M   'P 1'
_cell_length_a   4.68138900
_cell_length_b   7.40474100
_cell_length_c   7.97810400
_cell_angle_alpha   90.00000000
_cell_angle_beta   90.00000000
_cell_angle_gamma   90.00000000
_symmetry_Int_Tables_number   1
_chemical_formula_structural   CuNiC
_chemical_formula_sum   'Cu4 Ni4 C4'
_cell_volume   276.55677122
_cell_formula_units_Z   4
loop_
 _symmetry_equiv_pos_site_id
 _symmetry_equiv_pos_as_xyz
  1  'x, y, z'
loop_
 _atom_site_type_symbol
 _atom_site_label
 _atom_site_symmetry_multiplicity
 _atom_site_fract_x
 _atom_site_fract_y
 _atom_site_fract_z
 _atom_site_occupancy
  C  C0  1  0.25000000  0.49481700  0.20262900  1
  C  C1  1  0.75000000  0.50518300  0.79737100  1
  C  C2  1  0.75000000  0.00518300  0.70262900  1
  C  C3  1  0.25000000  0.99481700  0.29737100  1
  Ni  Ni4  1  0.25000000  0.80102300  0.90571400  1
  Ni  Ni5  1  0.75000000  0.19897700  0.09428600  1
  Ni  Ni6  1  0.75000000  0.69897700  0.40571400  1
  Ni  Ni7  1  0.25000000  0.30102300  0.59428600  1
  Cu  Cu8  1  0.25000000  0.68428600  0.57900800  1
  Cu  Cu9  1  0.75000000  0.31571400  0.42099200  1
  Cu  Cu10  1  0.75000000  0.81571400  0.07900800  1
  Cu  Cu11  1  0.25000000  0.18428600  0.92099200  1
