# generated using pymatgen
data_Cu6NiC10
_symmetry_space_group_name_H-M   'P 1'
_cell_length_a   11.61269300
_cell_length_b   10.70087100
_cell_length_c   10.76122805
_cell_angle_alpha   74.24591505
_cell_angle_beta   90.00000000
_cell_angle_gamma   90.00000000
_symmetry_Int_Tables_number   1
_chemical_formula_structural   Cu6NiC10
_chemical_formula_sum   'Cu24 Ni4 C40'
_cell_volume   1287.02124035
_cell_formula_units_Z   4
loop_
 _symmetry_equiv_pos_site_id
 _symmetry_equiv_pos_as_xyz
  1  'x, y, z'
loop_
 _atom_site_type_symbol
 _atom_site_label
 _atom_site_symmetry_multiplicity
 _atom_site_fract_x
 _atom_site_fract_y
 _atom_site_fract_z
 _atom_site_occupancy
  Ni  Ni0  1  0.61978800  0.18146600  0.20493100  1
  Ni  Ni1  1  0.11978800  0.31853400  0.79506900  1
  Ni  Ni2  1  0.38021200  0.81853400  0.79506900  1
  Ni  Ni3  1  0.88021200  0.68146600  0.20493100  1
  Cu  Cu4  1  0.62401800  0.88487900  0.07709600  1
  Cu  Cu5  1  0.12401800  0.61512100  0.92290400  1
  Cu  Cu6  1  0.37598200  0.11512100  0.92290400  1
  Cu  Cu7  1  0.87598200  0.38487900  0.07709600  1
  Cu  Cu8  1  0.63773800  0.45648100  0.36263700  1
  Cu  Cu9  1  0.13773800  0.04351900  0.63736300  1
  Cu  Cu10  1  0.36226200  0.54351900  0.63736300  1
  Cu  Cu11  1  0.86226200  0.95648100  0.36263700  1
  Cu  Cu12  1  0.61441300  0.02810100  0.63393900  1
  Cu  Cu13  1  0.11441300  0.47189900  0.36606100  1
  Cu  Cu14  1  0.38558700  0.97189900  0.36606100  1
  Cu  Cu15  1  0.88558700  0.52810100  0.63393900  1
  Cu  Cu16  1  0.62320100  0.60853400  0.91103400  1
  Cu  Cu17  1  0.12320100  0.89146600  0.08896600  1
  Cu  Cu18  1  0.37679900  0.39146600  0.08896600  1
  Cu  Cu19  1  0.87679900  0.10853400  0.91103400  1
  Cu  Cu20  1  0.62383700  0.30317000  0.83561300  1
  Cu  Cu21  1  0.12383700  0.19683000  0.16438700  1
  Cu  Cu22  1  0.37616300  0.69683000  0.16438700  1
  Cu  Cu23  1  0.87616300  0.80317000  0.83561300  1
  Cu  Cu24  1  0.36625800  0.28104500  0.48073200  1
  Cu  Cu25  1  0.86625800  0.21895500  0.51926800  1
  Cu  Cu26  1  0.63374200  0.71895500  0.51926800  1
  Cu  Cu27  1  0.13374200  0.78104500  0.48073200  1
  C  C28  1  0.62021100  0.32284200  0.13498700  1
  C  C29  1  0.12021100  0.17715800  0.86501300  1
  C  C30  1  0.37978900  0.67715800  0.86501300  1
  C  C31  1  0.87978900  0.82284200  0.13498700  1
  C  C32  1  0.72577300  0.13307700  0.15523800  1
  C  C33  1  0.22577300  0.36692300  0.84476200  1
  C  C34  1  0.27422700  0.86692300  0.84476200  1
  C  C35  1  0.77422700  0.63307700  0.15523800  1
  C  C36  1  0.51455100  0.11623200  0.17215400  1
  C  C37  1  0.01455100  0.38376800  0.82784600  1
  C  C38  1  0.48544900  0.88376800  0.82784600  1
  C  C39  1  0.98544900  0.61623200  0.17215400  1
  C  C40  1  0.61839900  0.15767700  0.34535700  1
  C  C41  1  0.11839900  0.34232300  0.65464300  1
  C  C42  1  0.38160100  0.84232300  0.65464300  1
  C  C43  1  0.88160100  0.65767700  0.34535700  1
  C  C44  1  0.53105300  0.36286800  0.83432600  1
  C  C45  1  0.03105300  0.13713200  0.16567400  1
  C  C46  1  0.46894700  0.63713200  0.16567400  1
  C  C47  1  0.96894700  0.86286800  0.83432600  1
  C  C48  1  0.62260600  0.18545000  0.83676000  1
  C  C49  1  0.12260600  0.31455000  0.16324000  1
  C  C50  1  0.37739400  0.81455000  0.16324000  1
  C  C51  1  0.87739400  0.68545000  0.83676000  1
  C  C52  1  0.71783900  0.35988000  0.83644400  1
  C  C53  1  0.21783900  0.14012000  0.16355600  1
  C  C54  1  0.28216100  0.64012000  0.16355600  1
  C  C55  1  0.78216100  0.85988000  0.83644400  1
  C  C56  1  0.38191800  0.39826700  0.42138100  1
  C  C57  1  0.88191800  0.10173300  0.57861900  1
  C  C58  1  0.61808200  0.60173300  0.57861900  1
  C  C59  1  0.11808200  0.89826700  0.42138100  1
  C  C60  1  0.29786400  0.21438000  0.43491300  1
  C  C61  1  0.79786400  0.28562000  0.56508700  1
  C  C62  1  0.70213600  0.78562000  0.56508700  1
  C  C63  1  0.20213600  0.71438000  0.43491300  1
  C  C64  1  0.41764600  0.23130000  0.58379200  1
  C  C65  1  0.91764600  0.26870000  0.41620800  1
  C  C66  1  0.58235400  0.76870000  0.41620800  1
  C  C67  1  0.08235400  0.73130000  0.58379200  1
