# generated using pymatgen
data_Cu4Ni2C7
_symmetry_space_group_name_H-M   'P 1'
_cell_length_a   6.52680500
_cell_length_b   6.52680500
_cell_length_c   10.34603200
_cell_angle_alpha   90.00000000
_cell_angle_beta   90.00000000
_cell_angle_gamma   90.00000000
_symmetry_Int_Tables_number   1
_chemical_formula_structural   Cu4Ni2C7
_chemical_formula_sum   'Cu8 Ni4 C14'
_cell_volume   440.73251575
_cell_formula_units_Z   2
loop_
 _symmetry_equiv_pos_site_id
 _symmetry_equiv_pos_as_xyz
  1  'x, y, z'
loop_
 _atom_site_type_symbol
 _atom_site_label
 _atom_site_symmetry_multiplicity
 _atom_site_fract_x
 _atom_site_fract_y
 _atom_site_fract_z
 _atom_site_occupancy
  Ni  Ni0  1  0.30359800  0.30359800  0.00000000  1
  Ni  Ni1  1  0.19640200  0.80359800  0.50000000  1
  Ni  Ni2  1  0.80359800  0.19640200  0.50000000  1
  Ni  Ni3  1  0.69640200  0.69640200  0.00000000  1
  Cu  Cu4  1  0.00000000  0.50000000  0.75000000  1
  Cu  Cu5  1  0.50000000  0.00000000  0.75000000  1
  Cu  Cu6  1  0.00000000  0.00000000  0.77746500  1
  Cu  Cu7  1  0.50000000  0.00000000  0.25000000  1
  Cu  Cu8  1  0.50000000  0.50000000  0.27746500  1
  Cu  Cu9  1  0.50000000  0.50000000  0.72253500  1
  Cu  Cu10  1  0.00000000  0.00000000  0.22253500  1
  Cu  Cu11  1  0.00000000  0.50000000  0.25000000  1
  C  C12  1  0.71002600  0.71002600  0.50000000  1
  C  C13  1  0.78997400  0.21002600  0.00000000  1
  C  C14  1  0.21002600  0.78997400  0.00000000  1
  C  C15  1  0.28997400  0.28997400  0.50000000  1
  C  C16  1  0.50000000  0.50000000  0.50000000  1
  C  C17  1  0.00000000  0.00000000  0.00000000  1
  C  C18  1  0.71835300  0.28164700  0.83572900  1
  C  C19  1  0.28164700  0.71835300  0.83572900  1
  C  C20  1  0.21835300  0.21835300  0.33572900  1
  C  C21  1  0.78164700  0.78164700  0.66427100  1
  C  C22  1  0.21835300  0.21835300  0.66427100  1
  C  C23  1  0.71835300  0.28164700  0.16427100  1
  C  C24  1  0.78164700  0.78164700  0.33572900  1
  C  C25  1  0.28164700  0.71835300  0.16427100  1
