# generated using pymatgen
data_Cu16NiC11
_symmetry_space_group_name_H-M   'P 1'
_cell_length_a   10.06844599
_cell_length_b   10.06844599
_cell_length_c   14.50282300
_cell_angle_alpha   90.00000000
_cell_angle_beta   90.00000000
_cell_angle_gamma   119.99999993
_symmetry_Int_Tables_number   1
_chemical_formula_structural   Cu16NiC11
_chemical_formula_sum   'Cu48 Ni3 C33'
_cell_volume   1273.23353293
_cell_formula_units_Z   3
loop_
 _symmetry_equiv_pos_site_id
 _symmetry_equiv_pos_as_xyz
  1  'x, y, z'
loop_
 _atom_site_type_symbol
 _atom_site_label
 _atom_site_symmetry_multiplicity
 _atom_site_fract_x
 _atom_site_fract_y
 _atom_site_fract_z
 _atom_site_occupancy
  C  C0  1  0.66666700  0.33333300  0.00019500  1
  C  C1  1  0.66666700  0.33333300  0.50060900  1
  C  C2  1  0.33333300  0.66666700  0.74997600  1
  C  C3  1  0.33333300  0.66666700  0.25065500  1
  C  C4  1  0.33333300  0.66666700  0.99980500  1
  C  C5  1  0.33333300  0.66666700  0.49939100  1
  C  C6  1  0.66666700  0.33333300  0.25002400  1
  C  C7  1  0.66666700  0.33333300  0.74934500  1
  C  C8  1  0.74221900  0.73899300  0.12494300  1
  C  C9  1  0.74988300  0.74844100  0.62073500  1
  C  C10  1  0.26100700  0.00322600  0.12494300  1
  C  C11  1  0.25155900  0.00144100  0.62073500  1
  C  C12  1  0.99677400  0.25778100  0.12494300  1
  C  C13  1  0.99855900  0.25011700  0.62073500  1
  C  C14  1  0.25778100  0.26100700  0.87505700  1
  C  C15  1  0.25011700  0.25155900  0.37926500  1
  C  C16  1  0.73899300  0.99677400  0.87505700  1
  C  C17  1  0.74844100  0.99855900  0.37926500  1
  C  C18  1  0.00322600  0.74221900  0.87505700  1
  C  C19  1  0.00144100  0.74988300  0.37926500  1
  C  C20  1  0.03372700  0.62524000  0.12561400  1
  C  C21  1  0.03300500  0.62424900  0.62521300  1
  C  C22  1  0.37476000  0.40848700  0.12561400  1
  C  C23  1  0.37575100  0.40875600  0.62521300  1
  C  C24  1  0.59151300  0.96627300  0.12561400  1
  C  C25  1  0.59124400  0.96699500  0.62521300  1
  C  C26  1  0.96627300  0.37476000  0.87438600  1
  C  C27  1  0.96699500  0.37575100  0.37478700  1
  C  C28  1  0.62524000  0.59151300  0.87438600  1
  C  C29  1  0.62424900  0.59124400  0.37478700  1
  C  C30  1  0.40848700  0.03372700  0.87438600  1
  C  C31  1  0.40875600  0.03300500  0.37478700  1
  Ni  Ni32  1  0.00000000  0.00000000  0.74674500  1
  Ni  Ni33  1  0.00000000  0.00000000  0.25325500  1
  Ni  Ni34  1  0.00000000  0.00000000  0.00000000  1
  Cu  Cu35  1  0.85771600  0.51000700  0.12510700  1
  Cu  Cu36  1  0.85711300  0.51056800  0.62449400  1
  Cu  Cu37  1  0.48999300  0.34770900  0.12510700  1
  Cu  Cu38  1  0.48943200  0.34654500  0.62449400  1
  Cu  Cu39  1  0.65229100  0.14228400  0.12510700  1
  Cu  Cu40  1  0.65345500  0.14288700  0.62449400  1
  Cu  Cu41  1  0.14228400  0.48999300  0.87489300  1
  Cu  Cu42  1  0.14288700  0.48943200  0.37550600  1
  Cu  Cu43  1  0.51000700  0.65229100  0.87489300  1
  Cu  Cu44  1  0.51056800  0.65345500  0.37550600  1
  Cu  Cu45  1  0.34770900  0.85771600  0.87489300  1
  Cu  Cu46  1  0.34654500  0.85711300  0.37550600  1
  Cu  Cu47  1  0.08495500  0.72961400  0.03868800  1
  Cu  Cu48  1  0.08332100  0.73193400  0.53935100  1
  Cu  Cu49  1  0.27038600  0.35534200  0.03868800  1
  Cu  Cu50  1  0.26806600  0.35138800  0.53935100  1
  Cu  Cu51  1  0.64465800  0.91504500  0.03868800  1
  Cu  Cu52  1  0.64861200  0.91667900  0.53935100  1
  Cu  Cu53  1  0.91589200  0.27045700  0.78756600  1
  Cu  Cu54  1  0.91506000  0.27141800  0.28805900  1
  Cu  Cu55  1  0.72954300  0.64543500  0.78756600  1
  Cu  Cu56  1  0.72858200  0.64364200  0.28805900  1
  Cu  Cu57  1  0.35456500  0.08410800  0.78756600  1
  Cu  Cu58  1  0.35635800  0.08494000  0.28805900  1
  Cu  Cu59  1  0.91504500  0.27038600  0.96131200  1
  Cu  Cu60  1  0.91667900  0.26806600  0.46064900  1
  Cu  Cu61  1  0.72961400  0.64465800  0.96131200  1
  Cu  Cu62  1  0.73193400  0.64861200  0.46064900  1
  Cu  Cu63  1  0.35534200  0.08495500  0.96131200  1
  Cu  Cu64  1  0.35138800  0.08332100  0.46064900  1
  Cu  Cu65  1  0.08410800  0.72954300  0.21243400  1
  Cu  Cu66  1  0.08494000  0.72858200  0.71194100  1
  Cu  Cu67  1  0.27045700  0.35456500  0.21243400  1
  Cu  Cu68  1  0.27141800  0.35635800  0.71194100  1
  Cu  Cu69  1  0.64543500  0.91589200  0.21243400  1
  Cu  Cu70  1  0.64364200  0.91506000  0.71194100  1
  Cu  Cu71  1  0.12413800  0.53591100  0.12532400  1
  Cu  Cu72  1  0.12253600  0.53429600  0.62365500  1
  Cu  Cu73  1  0.46408900  0.58822700  0.12532400  1
  Cu  Cu74  1  0.46570400  0.58824000  0.62365500  1
  Cu  Cu75  1  0.41177300  0.87586200  0.12532400  1
  Cu  Cu76  1  0.41176000  0.87746400  0.62365500  1
  Cu  Cu77  1  0.87586200  0.46408900  0.87467600  1
  Cu  Cu78  1  0.87746400  0.46570400  0.37634500  1
  Cu  Cu79  1  0.53591100  0.41177300  0.87467600  1
  Cu  Cu80  1  0.53429600  0.41176000  0.37634500  1
  Cu  Cu81  1  0.58822700  0.12413800  0.87467600  1
  Cu  Cu82  1  0.58824000  0.12253600  0.37634500  1
  C  C83  1  0.00000000  0.00000000  0.50000000  1
