# generated using pymatgen
data_Cu6Ni6C5
_symmetry_space_group_name_H-M   'P 1'
_cell_length_a   7.28289108
_cell_length_b   7.28289108
_cell_length_c   8.04272400
_cell_angle_alpha   90.00000000
_cell_angle_beta   90.00000000
_cell_angle_gamma   120.00000981
_symmetry_Int_Tables_number   1
_chemical_formula_structural   Cu6Ni6C5
_chemical_formula_sum   'Cu6 Ni6 C5'
_cell_volume   369.43784638
_cell_formula_units_Z   1
loop_
 _symmetry_equiv_pos_site_id
 _symmetry_equiv_pos_as_xyz
  1  'x, y, z'
loop_
 _atom_site_type_symbol
 _atom_site_label
 _atom_site_symmetry_multiplicity
 _atom_site_fract_x
 _atom_site_fract_y
 _atom_site_fract_z
 _atom_site_occupancy
  C  C0  1  0.33333300  0.66666700  0.00000000  1
  C  C1  1  0.00000000  0.00000000  0.00000000  1
  C  C2  1  0.50449400  0.00898900  0.50000000  1
  C  C3  1  0.50449400  0.49550600  0.50000000  1
  C  C4  1  0.99101100  0.49550600  0.50000000  1
  Ni  Ni5  1  0.99578100  0.35200200  0.70901100  1
  Ni  Ni6  1  0.35622200  0.00421900  0.70901100  1
  Ni  Ni7  1  0.35622200  0.35200200  0.29098900  1
  Ni  Ni8  1  0.64799800  0.64377800  0.70901100  1
  Ni  Ni9  1  0.64799800  0.00421900  0.29098900  1
  Ni  Ni10  1  0.99578100  0.64377800  0.29098900  1
  Cu  Cu11  1  0.00422000  0.26638000  0.82986700  1
  Cu  Cu12  1  0.26216000  0.99578000  0.82986700  1
  Cu  Cu13  1  0.26216000  0.26638000  0.17013300  1
  Cu  Cu14  1  0.73362000  0.73784000  0.82986700  1
  Cu  Cu15  1  0.73362000  0.99578000  0.17013300  1
  Cu  Cu16  1  0.00422000  0.73784000  0.17013300  1
