# generated using pymatgen
data_CuNiC16
_symmetry_space_group_name_H-M   'P 1'
_cell_length_a   13.20063300
_cell_length_b   7.25063700
_cell_length_c   12.11043404
_cell_angle_alpha   53.74139022
_cell_angle_beta   90.00000000
_cell_angle_gamma   90.00000000
_symmetry_Int_Tables_number   1
_chemical_formula_structural   CuNiC16
_chemical_formula_sum   'Cu4 Ni4 C64'
_cell_volume   934.66786272
_cell_formula_units_Z   4
loop_
 _symmetry_equiv_pos_site_id
 _symmetry_equiv_pos_as_xyz
  1  'x, y, z'
loop_
 _atom_site_type_symbol
 _atom_site_label
 _atom_site_symmetry_multiplicity
 _atom_site_fract_x
 _atom_site_fract_y
 _atom_site_fract_z
 _atom_site_occupancy
  Ni  Ni0  1  0.22354200  0.56090700  0.93949900  1
  Ni  Ni1  1  0.27645800  0.56090700  0.43949900  1
  Ni  Ni2  1  0.77645800  0.43909300  0.06050100  1
  Ni  Ni3  1  0.72354200  0.43909300  0.56050100  1
  Cu  Cu4  1  0.72213300  0.03322100  0.47831500  1
  Cu  Cu5  1  0.22213300  0.96677900  0.02168500  1
  Cu  Cu6  1  0.27786700  0.96677900  0.52168500  1
  Cu  Cu7  1  0.77786700  0.03322100  0.97831500  1
  C  C8  1  0.11501400  0.39109900  0.23554200  1
  C  C9  1  0.39601500  0.49529300  0.25524300  1
  C  C10  1  0.10398500  0.49529300  0.75524300  1
  C  C11  1  0.60398500  0.50470700  0.74475700  1
  C  C12  1  0.61501400  0.60890100  0.26445800  1
  C  C13  1  0.89601500  0.50470700  0.24475700  1
  C  C14  1  0.38498600  0.39109900  0.73554200  1
  C  C15  1  0.88498600  0.60890100  0.76445800  1
  C  C16  1  0.62717900  0.84547700  0.80118600  1
  C  C17  1  0.09331700  0.94033900  0.29293200  1
  C  C18  1  0.40668300  0.94033900  0.79293200  1
  C  C19  1  0.90668300  0.05966100  0.70706800  1
  C  C20  1  0.12717900  0.15452300  0.69881400  1
  C  C21  1  0.37282100  0.15452300  0.19881400  1
  C  C22  1  0.87282100  0.84547700  0.30118600  1
  C  C23  1  0.59331700  0.05966100  0.20706800  1
  C  C24  1  0.65065500  0.39549100  0.39677800  1
  C  C25  1  0.15065500  0.60450900  0.10322200  1
  C  C26  1  0.34934500  0.60450900  0.60322200  1
  C  C27  1  0.84934500  0.39549100  0.89677800  1
  C  C28  1  0.66371000  0.14882400  0.08817500  1
  C  C29  1  0.16371000  0.85117600  0.41182500  1
  C  C30  1  0.33629000  0.85117600  0.91182500  1
  C  C31  1  0.83629000  0.14882400  0.58817500  1
  C  C32  1  0.83362900  0.29171000  0.30145900  1
  C  C33  1  0.33362900  0.70829000  0.19854100  1
  C  C34  1  0.16637100  0.70829000  0.69854100  1
  C  C35  1  0.66637100  0.29171000  0.80145900  1
  C  C36  1  0.88502300  0.69107300  0.09388400  1
  C  C37  1  0.38502300  0.30892700  0.40611600  1
  C  C38  1  0.11497700  0.30892700  0.90611600  1
  C  C39  1  0.61497700  0.69107300  0.59388400  1
  C  C40  1  0.61473100  0.12169500  0.30313800  1
  C  C41  1  0.79264700  0.83297200  0.39324700  1
  C  C42  1  0.11473100  0.87830500  0.19686200  1
  C  C43  1  0.88526900  0.12169500  0.80313800  1
  C  C44  1  0.86579900  0.02089800  0.14917200  1
  C  C45  1  0.36579900  0.97910200  0.35082800  1
  C  C46  1  0.13420100  0.97910200  0.85082800  1
  C  C47  1  0.63420100  0.02089800  0.64917200  1
  C  C48  1  0.51893900  0.85746000  0.85797000  1
  C  C49  1  0.01893900  0.14254000  0.64203000  1
  C  C50  1  0.48106100  0.14254000  0.14203000  1
  C  C51  1  0.98106100  0.85746000  0.35797000  1
  C  C52  1  0.98799500  0.56945600  0.71207300  1
  C  C53  1  0.48799500  0.43054400  0.78792700  1
  C  C54  1  0.01200500  0.43054400  0.28792700  1
  C  C55  1  0.51200500  0.56945600  0.21207300  1
  C  C56  1  0.62603700  0.59240800  0.83715400  1
  C  C57  1  0.12603700  0.40759200  0.66284600  1
  C  C58  1  0.37396300  0.40759200  0.16284600  1
  C  C59  1  0.87396300  0.59240800  0.33715400  1
  C  C60  1  0.91816500  0.78425200  0.79886300  1
  C  C61  1  0.41816500  0.21574800  0.70113700  1
  C  C62  1  0.08183500  0.21574800  0.20113700  1
  C  C63  1  0.58183500  0.78425200  0.29886300  1
  C  C64  1  0.81410700  0.72372500  0.64505900  1
  C  C65  1  0.31410700  0.27627500  0.85494100  1
  C  C66  1  0.18589300  0.27627500  0.35494100  1
  C  C67  1  0.68589300  0.72372500  0.14505900  1
  C  C68  1  0.70735300  0.83297200  0.89324700  1
  C  C69  1  0.20735300  0.16702800  0.60675300  1
  C  C70  1  0.29264700  0.16702800  0.10675300  1
  C  C71  1  0.38526900  0.87830500  0.69686200  1
