# generated using pymatgen
data_Cu49(Ni4C23)2
_symmetry_space_group_name_H-M   'P 1'
_cell_length_a   10.19935100
_cell_length_b   10.25572548
_cell_length_c   11.40722859
_cell_angle_alpha   95.42321724
_cell_angle_beta   108.84264066
_cell_angle_gamma   111.33017715
_symmetry_Int_Tables_number   1
_chemical_formula_structural   Cu49(Ni4C23)2
_chemical_formula_sum   'Cu49 Ni8 C46'
_cell_volume   1021.04966506
_cell_formula_units_Z   1
loop_
 _symmetry_equiv_pos_site_id
 _symmetry_equiv_pos_as_xyz
  1  'x, y, z'
loop_
 _atom_site_type_symbol
 _atom_site_label
 _atom_site_symmetry_multiplicity
 _atom_site_fract_x
 _atom_site_fract_y
 _atom_site_fract_z
 _atom_site_occupancy
  C  C0  1  0.73588800  0.47635100  0.61587600  1
  C  C1  1  0.26411200  0.52364900  0.38412400  1
  C  C2  1  0.65168500  0.75870900  0.52179500  1
  C  C3  1  0.34831500  0.24129100  0.47820500  1
  C  C4  1  0.48138400  0.56622700  0.70687400  1
  C  C5  1  0.51861600  0.43377300  0.29312600  1
  C  C6  1  0.80672100  0.73915900  0.78819200  1
  C  C7  1  0.19327900  0.26084100  0.21180800  1
  C  C8  1  0.84254100  0.64605400  0.44677100  1
  C  C9  1  0.15745900  0.35394600  0.55322900  1
  C  C10  1  0.40995500  0.78755200  0.59072000  1
  C  C11  1  0.59004500  0.21244800  0.40928000  1
  C  C12  1  0.55408500  0.32348900  0.75365600  1
  C  C13  1  0.44591500  0.67651100  0.24634400  1
  C  C14  1  0.96576900  0.54328000  0.86967700  1
  C  C15  1  0.03423100  0.45672000  0.13032300  1
  C  C16  1  0.83469100  0.40044900  0.87331400  1
  C  C17  1  0.16530900  0.59955100  0.12668600  1
  C  C18  1  0.00872400  0.75784200  0.70036300  1
  C  C19  1  0.99127600  0.24215800  0.29963700  1
  C  C20  1  0.08718200  0.64783100  0.70548800  1
  C  C21  1  0.91281800  0.35216900  0.29451200  1
  C  C22  1  0.95535100  0.98279700  0.69133000  1
  C  C23  1  0.04464900  0.01720300  0.30867000  1
  C  C24  1  0.01695500  0.93916700  0.59339400  1
  C  C25  1  0.98304500  0.06083300  0.40660600  1
  C  C26  1  0.73773500  0.06141300  0.68742400  1
  C  C27  1  0.26226500  0.93858700  0.31257600  1
  C  C28  1  0.68187100  0.93740200  0.75881000  1
  C  C29  1  0.31812900  0.06259800  0.24119000  1
  C  C30  1  0.48787400  0.83969700  0.85801700  1
  C  C31  1  0.51212600  0.16030300  0.14198300  1
  C  C32  1  0.64528400  0.83887100  0.93338500  1
  C  C33  1  0.35471600  0.16112900  0.06661500  1
  C  C34  1  0.64375200  0.57904100  0.99533100  1
  C  C35  1  0.35624800  0.42095900  0.00466900  1
  C  C36  1  0.74835700  0.58114900  0.91918700  1
  C  C37  1  0.25164300  0.41885100  0.08081300  1
  C  C38  1  0.73034900  0.99416300  0.11080200  1
  C  C39  1  0.26965100  0.00583700  0.88919800  1
  C  C40  1  0.74175000  0.85630200  0.14972400  1
  C  C41  1  0.25825000  0.14369800  0.85027600  1
  C  C42  1  0.02712600  0.80151600  0.98694300  1
  C  C43  1  0.97287400  0.19848400  0.01305700  1
  C  C44  1  0.03829000  0.93042100  0.92601000  1
  C  C45  1  0.96171000  0.06957900  0.07399000  1
  Ni  Ni46  1  0.88921200  0.27945200  0.60165400  1
  Ni  Ni47  1  0.11078800  0.72054800  0.39834600  1
  Ni  Ni48  1  0.67945300  0.97836500  0.37187700  1
  Ni  Ni49  1  0.32054700  0.02163500  0.62812300  1
  Ni  Ni50  1  0.24446100  0.50422800  0.81545400  1
  Ni  Ni51  1  0.75553900  0.49577200  0.18454600  1
  Ni  Ni52  1  0.67678100  0.21556000  0.95888500  1
  Ni  Ni53  1  0.32321900  0.78444000  0.04111500  1
  Cu  Cu54  1  0.50000000  0.50000000  0.50000000  1
  Cu  Cu55  1  0.72031500  0.67881400  0.70618400  1
  Cu  Cu56  1  0.27968500  0.32118600  0.29381600  1
  Cu  Cu57  1  0.74548000  0.60470200  0.45735700  1
  Cu  Cu58  1  0.25452000  0.39529800  0.54264300  1
  Cu  Cu59  1  0.43350000  0.70773200  0.56560600  1
  Cu  Cu60  1  0.56650000  0.29226800  0.43439400  1
  Cu  Cu61  1  0.53607300  0.36691100  0.67977000  1
  Cu  Cu62  1  0.46392700  0.63308900  0.32023000  1
  Cu  Cu63  1  0.85533900  0.49345800  0.84533900  1
  Cu  Cu64  1  0.14466100  0.50654200  0.15466100  1
  Cu  Cu65  1  0.99558400  0.65916100  0.70595100  1
  Cu  Cu66  1  0.00441600  0.34083900  0.29404900  1
  Cu  Cu67  1  0.94175500  0.89946100  0.63138300  1
  Cu  Cu68  1  0.05824500  0.10053900  0.36861700  1
  Cu  Cu69  1  0.73146400  0.96498100  0.69803300  1
  Cu  Cu70  1  0.26853600  0.03501900  0.30196700  1
  Cu  Cu71  1  0.56807500  0.81637900  0.84460600  1
  Cu  Cu72  1  0.43192500  0.18362100  0.15539400  1
  Cu  Cu73  1  0.65758000  0.59628600  0.91583000  1
  Cu  Cu74  1  0.34242000  0.40371400  0.08417000  1
  Cu  Cu75  1  0.76753100  0.92103100  0.09509000  1
  Cu  Cu76  1  0.23246900  0.07896900  0.90491000  1
  Cu  Cu77  1  0.96325700  0.84324900  0.93455400  1
  Cu  Cu78  1  0.03674300  0.15675100  0.06544600  1
  Cu  Cu79  1  0.90896400  0.39110400  0.55646200  1
  Cu  Cu80  1  0.09103600  0.60889600  0.44353800  1
  Cu  Cu81  1  0.78847600  0.24459500  0.65097800  1
  Cu  Cu82  1  0.21152400  0.75540500  0.34902200  1
  Cu  Cu83  1  0.96548200  0.20854000  0.59816300  1
  Cu  Cu84  1  0.03451800  0.79146000  0.40183700  1
  Cu  Cu85  1  0.58862200  0.94931400  0.43019600  1
  Cu  Cu86  1  0.41137800  0.05068600  0.56980400  1
  Cu  Cu87  1  0.75839100  0.90327500  0.37859000  1
  Cu  Cu88  1  0.24160900  0.09672500  0.62141000  1
  Cu  Cu89  1  0.69292700  0.07510200  0.31254600  1
  Cu  Cu90  1  0.30707300  0.92489800  0.68745400  1
  Cu  Cu91  1  0.34437000  0.45087000  0.84139900  1
  Cu  Cu92  1  0.65563000  0.54913000  0.15860100  1
  Cu  Cu93  1  0.25551700  0.59075800  0.74202400  1
  Cu  Cu94  1  0.74448300  0.40924200  0.25797600  1
  Cu  Cu95  1  0.14406600  0.47206000  0.86013300  1
  Cu  Cu96  1  0.85593400  0.52794000  0.13986700  1
  Cu  Cu97  1  0.57331100  0.25425200  0.90249200  1
  Cu  Cu98  1  0.42668900  0.74574800  0.09750800  1
  Cu  Cu99  1  0.66508500  0.14567800  0.04277900  1
  Cu  Cu100  1  0.33491500  0.85432200  0.95722100  1
  Cu  Cu101  1  0.79542500  0.24909700  0.93040700  1
  Cu  Cu102  1  0.20457500  0.75090300  0.06959300  1
