# generated using pymatgen
data_CuNi7C16
_symmetry_space_group_name_H-M   'P 1'
_cell_length_a   6.62905395
_cell_length_b   6.62905395
_cell_length_c   6.62905395
_cell_angle_alpha   60.00000000
_cell_angle_beta   60.00000000
_cell_angle_gamma   60.00000000
_symmetry_Int_Tables_number   1
_chemical_formula_structural   CuNi7C16
_chemical_formula_sum   'Cu1 Ni7 C16'
_cell_volume   205.98692878
_cell_formula_units_Z   1
loop_
 _symmetry_equiv_pos_site_id
 _symmetry_equiv_pos_as_xyz
  1  'x, y, z'
loop_
 _atom_site_type_symbol
 _atom_site_label
 _atom_site_symmetry_multiplicity
 _atom_site_fract_x
 _atom_site_fract_y
 _atom_site_fract_z
 _atom_site_occupancy
  Ni  Ni0  1  0.00000000  0.00000000  0.50000000  1
  Ni  Ni1  1  0.50000000  0.00000000  0.50000000  1
  Ni  Ni2  1  0.00000000  0.50000000  0.50000000  1
  Ni  Ni3  1  0.50000000  0.50000000  0.00000000  1
  Ni  Ni4  1  0.00000000  0.50000000  0.00000000  1
  Ni  Ni5  1  0.50000000  0.00000000  0.00000000  1
  Ni  Ni6  1  0.50000000  0.50000000  0.50000000  1
  Cu  Cu7  1  0.00000000  0.00000000  0.00000000  1
  C  C8  1  0.87993500  0.87993500  0.36019600  1
  C  C9  1  0.87993500  0.36019600  0.87993500  1
  C  C10  1  0.36019600  0.87993500  0.87993500  1
  C  C11  1  0.87993500  0.87993500  0.87993500  1
  C  C12  1  0.12006500  0.12006500  0.63980400  1
  C  C13  1  0.12006500  0.63980400  0.12006500  1
  C  C14  1  0.63980400  0.12006500  0.12006500  1
  C  C15  1  0.12006500  0.12006500  0.12006500  1
  C  C16  1  0.62753600  0.62753600  0.11739100  1
  C  C17  1  0.62753600  0.11739100  0.62753600  1
  C  C18  1  0.11739100  0.62753600  0.62753600  1
  C  C19  1  0.62753600  0.62753600  0.62753600  1
  C  C20  1  0.37246400  0.37246400  0.88260900  1
  C  C21  1  0.37246400  0.88260900  0.37246400  1
  C  C22  1  0.88260900  0.37246400  0.37246400  1
  C  C23  1  0.37246400  0.37246400  0.37246400  1
