# generated using pymatgen
data_CuNiC6
_symmetry_space_group_name_H-M   'P 1'
_cell_length_a   5.35296400
_cell_length_b   5.27436200
_cell_length_c   9.19281560
_cell_angle_alpha   54.99111570
_cell_angle_beta   90.00000000
_cell_angle_gamma   90.00000000
_symmetry_Int_Tables_number   1
_chemical_formula_structural   CuNiC6
_chemical_formula_sum   'Cu2 Ni2 C12'
_cell_volume   212.58379875
_cell_formula_units_Z   2
loop_
 _symmetry_equiv_pos_site_id
 _symmetry_equiv_pos_as_xyz
  1  'x, y, z'
loop_
 _atom_site_type_symbol
 _atom_site_label
 _atom_site_symmetry_multiplicity
 _atom_site_fract_x
 _atom_site_fract_y
 _atom_site_fract_z
 _atom_site_occupancy
  Ni  Ni0  1  0.50000000  0.00000000  0.00000000  1
  Ni  Ni1  1  0.00000000  0.00000000  0.50000000  1
  Cu  Cu2  1  0.50000000  0.50000000  0.50000000  1
  Cu  Cu3  1  0.00000000  0.50000000  0.00000000  1
  C  C4  1  0.49289700  0.68775100  0.25136100  1
  C  C5  1  0.21280200  0.81683400  0.96941200  1
  C  C6  1  0.21573100  0.25775500  0.53053900  1
  C  C7  1  0.71573100  0.74224500  0.96946100  1
  C  C8  1  0.71280200  0.18316600  0.53058800  1
  C  C9  1  0.99289700  0.31224900  0.24863900  1
  C  C10  1  0.00710300  0.68775100  0.75136100  1
  C  C11  1  0.28719800  0.81683400  0.46941200  1
  C  C12  1  0.28426900  0.25775500  0.03053900  1
  C  C13  1  0.78719800  0.18316600  0.03058800  1
  C  C14  1  0.78426900  0.74224500  0.46946100  1
  C  C15  1  0.50710300  0.31224900  0.74863900  1
