# generated using pymatgen
data_Cu(NiC2)2
_symmetry_space_group_name_H-M   'P 1'
_cell_length_a   12.11601349
_cell_length_b   12.11601349
_cell_length_c   12.11601355
_cell_angle_alpha   16.89026504
_cell_angle_beta   16.89026504
_cell_angle_gamma   16.89026572
_symmetry_Int_Tables_number   1
_chemical_formula_structural   Cu(NiC2)2
_chemical_formula_sum   'Cu1 Ni2 C4'
_cell_volume   130.96460038
_cell_formula_units_Z   1
loop_
 _symmetry_equiv_pos_site_id
 _symmetry_equiv_pos_as_xyz
  1  'x, y, z'
loop_
 _atom_site_type_symbol
 _atom_site_label
 _atom_site_symmetry_multiplicity
 _atom_site_fract_x
 _atom_site_fract_y
 _atom_site_fract_z
 _atom_site_occupancy
  Ni  Ni0  1  0.75911800  0.75911800  0.75911800  1
  Ni  Ni1  1  0.24088200  0.24088200  0.24088200  1
  Cu  Cu2  1  0.00000000  0.00000000  0.00000000  1
  C  C3  1  0.87950300  0.87950300  0.87950300  1
  C  C4  1  0.12049700  0.12049700  0.12049700  1
  C  C5  1  0.30421600  0.30421600  0.30421600  1
  C  C6  1  0.69578400  0.69578400  0.69578400  1
