# generated using pymatgen
data_Cu2Ni4C9
_symmetry_space_group_name_H-M   'P 1'
_cell_length_a   8.48358457
_cell_length_b   8.48358457
_cell_length_c   11.42324323
_cell_angle_alpha   48.90178661
_cell_angle_beta   48.90178661
_cell_angle_gamma   39.21361069
_symmetry_Int_Tables_number   1
_chemical_formula_structural   Cu2Ni4C9
_chemical_formula_sum   'Cu4 Ni8 C18'
_cell_volume   372.30163666
_cell_formula_units_Z   2
loop_
 _symmetry_equiv_pos_site_id
 _symmetry_equiv_pos_as_xyz
  1  'x, y, z'
loop_
 _atom_site_type_symbol
 _atom_site_label
 _atom_site_symmetry_multiplicity
 _atom_site_fract_x
 _atom_site_fract_y
 _atom_site_fract_z
 _atom_site_occupancy
  Ni  Ni0  1  0.00524600  0.00524600  0.86170000  1
  Ni  Ni1  1  0.99475400  0.99475400  0.13830000  1
  Ni  Ni2  1  0.00000000  0.50000000  0.00000000  1
  Ni  Ni3  1  0.50000000  0.00000000  0.00000000  1
  Ni  Ni4  1  0.00000000  0.50000000  0.50000000  1
  Ni  Ni5  1  0.50000000  0.00000000  0.50000000  1
  Ni  Ni6  1  0.74431300  0.74431300  0.26048500  1
  Ni  Ni7  1  0.25568700  0.25568700  0.73951500  1
  Cu  Cu8  1  0.20506500  0.20506500  0.29196300  1
  Cu  Cu9  1  0.79493500  0.79493500  0.70803700  1
  Cu  Cu10  1  0.50326400  0.50326400  0.78266300  1
  Cu  Cu11  1  0.49673600  0.49673600  0.21733700  1
  C  C12  1  0.22902400  0.65852200  0.85126800  1
  C  C13  1  0.34147800  0.77097600  0.14873200  1
  C  C14  1  0.77097600  0.34147800  0.14873200  1
  C  C15  1  0.65852200  0.22902400  0.85126800  1
  C  C16  1  0.98981900  0.40505700  0.36489000  1
  C  C17  1  0.59494300  0.01018100  0.63511000  1
  C  C18  1  0.01018100  0.59494300  0.63511000  1
  C  C19  1  0.40505700  0.98981900  0.36489000  1
  C  C20  1  0.71618200  0.71618200  0.12834400  1
  C  C21  1  0.28381800  0.28381800  0.87165600  1
  C  C22  1  0.15887300  0.15887300  0.63377500  1
  C  C23  1  0.84112700  0.84112700  0.36622500  1
  C  C24  1  0.62424900  0.62424900  0.64497100  1
  C  C25  1  0.37575100  0.37575100  0.35502900  1
  C  C26  1  0.21920300  0.21920300  0.15729700  1
  C  C27  1  0.78079700  0.78079700  0.84270300  1
  C  C28  1  0.89959200  0.89959200  0.09465200  1
  C  C29  1  0.10040800  0.10040800  0.90534800  1
