# generated using pymatgen
data_Cu3Ni9C4
_symmetry_space_group_name_H-M   'P 1'
_cell_length_a   9.67268300
_cell_length_b   7.55614600
_cell_length_c   10.68142135
_cell_angle_alpha   47.39106846
_cell_angle_beta   90.00000000
_cell_angle_gamma   90.00000000
_symmetry_Int_Tables_number   1
_chemical_formula_structural   Cu3Ni9C4
_chemical_formula_sum   'Cu12 Ni36 C16'
_cell_volume   574.57824565
_cell_formula_units_Z   4
loop_
 _symmetry_equiv_pos_site_id
 _symmetry_equiv_pos_as_xyz
  1  'x, y, z'
loop_
 _atom_site_type_symbol
 _atom_site_label
 _atom_site_symmetry_multiplicity
 _atom_site_fract_x
 _atom_site_fract_y
 _atom_site_fract_z
 _atom_site_occupancy
  C  C0  1  0.24996300  0.23024600  0.14215100  1
  C  C1  1  0.25003700  0.23024600  0.64215100  1
  C  C2  1  0.75003700  0.76975400  0.85784900  1
  C  C3  1  0.74996300  0.76975400  0.35784900  1
  Ni  Ni4  1  0.20954700  0.78725900  0.25698100  1
  Ni  Ni5  1  0.29045300  0.78725900  0.75698100  1
  Ni  Ni6  1  0.79045300  0.21274100  0.74301900  1
  Ni  Ni7  1  0.70954700  0.21274100  0.24301900  1
  Ni  Ni8  1  0.17167400  0.98381100  0.05147300  1
  Ni  Ni9  1  0.32832600  0.98381100  0.55147300  1
  Ni  Ni10  1  0.82832600  0.01618900  0.94852700  1
  Ni  Ni11  1  0.67167400  0.01618900  0.44852700  1
  Ni  Ni12  1  0.05761300  0.93289200  0.18670900  1
  Ni  Ni13  1  0.44238700  0.93289200  0.68670900  1
  Ni  Ni14  1  0.94238700  0.06710800  0.81329100  1
  Ni  Ni15  1  0.55761300  0.06710800  0.31329100  1
  Ni  Ni16  1  0.09080900  0.23862100  0.34865000  1
  Ni  Ni17  1  0.40919100  0.23862100  0.84865000  1
  Ni  Ni18  1  0.90919100  0.76137900  0.65135000  1
  Ni  Ni19  1  0.59080900  0.76137900  0.15135000  1
  Ni  Ni20  1  0.01767700  0.05678700  0.33349200  1
  Ni  Ni21  1  0.48232300  0.05678700  0.83349200  1
  Ni  Ni22  1  0.98232300  0.94321300  0.66650800  1
  Ni  Ni23  1  0.51767700  0.94321300  0.16650800  1
  Ni  Ni24  1  0.99853900  0.34999100  0.17857300  1
  Ni  Ni25  1  0.50146100  0.34999100  0.67857300  1
  Ni  Ni26  1  0.00146100  0.65000900  0.82142700  1
  Ni  Ni27  1  0.49853900  0.65000900  0.32142700  1
  Ni  Ni28  1  0.31972800  0.47498600  0.23553400  1
  Ni  Ni29  1  0.18027200  0.47498600  0.73553400  1
  Ni  Ni30  1  0.68027200  0.52501400  0.76446600  1
  Ni  Ni31  1  0.81972800  0.52501400  0.26446600  1
  Ni  Ni32  1  0.25257100  0.66627000  0.04125500  1
  Ni  Ni33  1  0.24742900  0.66627000  0.54125500  1
  Ni  Ni34  1  0.74742900  0.33373000  0.95874500  1
  Ni  Ni35  1  0.75257100  0.33373000  0.45874500  1
  Ni  Ni36  1  0.41514700  0.57833400  0.06952500  1
  Ni  Ni37  1  0.08485300  0.57833400  0.56952500  1
  Ni  Ni38  1  0.58485300  0.42166600  0.93047500  1
  Ni  Ni39  1  0.91514700  0.42166600  0.43047500  1
  Cu  Cu40  1  0.16202800  0.94946900  0.16212500  1
  Cu  Cu41  1  0.33797200  0.94946900  0.66212500  1
  Cu  Cu42  1  0.83797200  0.05053100  0.83787500  1
  Cu  Cu43  1  0.66202800  0.05053100  0.33787500  1
  Cu  Cu44  1  0.06922700  0.21827900  0.26465900  1
  Cu  Cu45  1  0.43077300  0.21827900  0.76465900  1
  Cu  Cu46  1  0.93077300  0.78172100  0.73534100  1
  Cu  Cu47  1  0.56922700  0.78172100  0.23534100  1
  Cu  Cu48  1  0.31711200  0.51998400  0.12048300  1
  Cu  Cu49  1  0.18288800  0.51998400  0.62048300  1
  Cu  Cu50  1  0.68288800  0.48001600  0.87951700  1
  Cu  Cu51  1  0.81711200  0.48001600  0.37951700  1
  C  C52  1  0.33635400  0.99390900  0.36646900  1
  C  C53  1  0.16364600  0.99390900  0.86646900  1
  C  C54  1  0.66364600  0.00609100  0.63353100  1
  C  C55  1  0.83635400  0.00609100  0.13353100  1
  C  C56  1  0.41833800  0.23838400  0.03542600  1
  C  C57  1  0.08166200  0.23838400  0.53542600  1
  C  C58  1  0.58166200  0.76161600  0.96457400  1
  C  C59  1  0.91833800  0.76161600  0.46457400  1
  C  C60  1  0.16316300  0.46752700  0.91856900  1
  C  C61  1  0.33683700  0.46752700  0.41856900  1
  C  C62  1  0.83683700  0.53247300  0.08143100  1
  C  C63  1  0.66316300  0.53247300  0.58143100  1
