# generated using pymatgen
data_Cu5(NiC6)2
_symmetry_space_group_name_H-M   'P 1'
_cell_length_a   4.37052400
_cell_length_b   6.73763500
_cell_length_c   25.94868700
_cell_angle_alpha   90.00000000
_cell_angle_beta   90.00000000
_cell_angle_gamma   90.00000000
_symmetry_Int_Tables_number   1
_chemical_formula_structural   Cu5(NiC6)2
_chemical_formula_sum   'Cu20 Ni8 C48'
_cell_volume   764.11086856
_cell_formula_units_Z   4
loop_
 _symmetry_equiv_pos_site_id
 _symmetry_equiv_pos_as_xyz
  1  'x, y, z'
loop_
 _atom_site_type_symbol
 _atom_site_label
 _atom_site_symmetry_multiplicity
 _atom_site_fract_x
 _atom_site_fract_y
 _atom_site_fract_z
 _atom_site_occupancy
  C  C0  1  0.36103900  0.04983000  0.91965000  1
  C  C1  1  0.63896100  0.54983000  0.08035000  1
  C  C2  1  0.86103900  0.54983000  0.58035000  1
  C  C3  1  0.13896100  0.04983000  0.41965000  1
  Ni  Ni4  1  0.16945300  0.91018700  0.79255800  1
  Ni  Ni5  1  0.83054700  0.41018700  0.20744200  1
  Ni  Ni6  1  0.66945300  0.41018700  0.70744200  1
  Ni  Ni7  1  0.33054700  0.91018700  0.29255800  1
  Ni  Ni8  1  0.67247500  0.13314300  0.79058200  1
  Ni  Ni9  1  0.32752500  0.63314300  0.20941800  1
  Ni  Ni10  1  0.17247500  0.63314300  0.70941800  1
  Ni  Ni11  1  0.82752500  0.13314300  0.29058200  1
  Cu  Cu12  1  0.87808200  0.72008500  0.86847100  1
  Cu  Cu13  1  0.12191800  0.22008500  0.13152900  1
  Cu  Cu14  1  0.37808200  0.22008500  0.63152900  1
  Cu  Cu15  1  0.62191800  0.72008500  0.36847100  1
  Cu  Cu16  1  0.53203500  0.61990600  0.94207300  1
  Cu  Cu17  1  0.46796500  0.11990600  0.05792700  1
  Cu  Cu18  1  0.03203500  0.11990600  0.55792700  1
  Cu  Cu19  1  0.96796500  0.61990600  0.44207300  1
  Cu  Cu20  1  0.65183400  0.39039500  0.86983600  1
  Cu  Cu21  1  0.34816600  0.89039500  0.13016400  1
  Cu  Cu22  1  0.15183400  0.89039500  0.63016400  1
  Cu  Cu23  1  0.84816600  0.39039500  0.36983600  1
  Cu  Cu24  1  0.04285000  0.64018900  0.99636600  1
  Cu  Cu25  1  0.95715000  0.14018900  0.00363400  1
  Cu  Cu26  1  0.54285000  0.14018900  0.50363400  1
  Cu  Cu27  1  0.45715000  0.64018900  0.49636600  1
  Cu  Cu28  1  0.18379200  0.26930000  0.74842300  1
  Cu  Cu29  1  0.81620800  0.76930000  0.25157700  1
  Cu  Cu30  1  0.68379200  0.76930000  0.75157700  1
  Cu  Cu31  1  0.31620800  0.26930000  0.24842300  1
  C  C32  1  0.85607000  0.52688200  0.84879600  1
  C  C33  1  0.14393000  0.02688200  0.15120400  1
  C  C34  1  0.35607000  0.02688200  0.65120400  1
  C  C35  1  0.64393000  0.52688200  0.34879600  1
  C  C36  1  0.59371100  0.20851200  0.84903300  1
  C  C37  1  0.40628900  0.70851200  0.15096700  1
  C  C38  1  0.09371100  0.70851200  0.65096700  1
  C  C39  1  0.90628900  0.20851200  0.34903300  1
  C  C40  1  0.72763400  0.60761800  0.98893700  1
  C  C41  1  0.27236600  0.10761800  0.01106300  1
  C  C42  1  0.22763400  0.10761800  0.51106300  1
  C  C43  1  0.77236600  0.60761800  0.48893700  1
  C  C44  1  0.49887400  0.42688100  0.91607500  1
  C  C45  1  0.50112600  0.92688100  0.08392500  1
  C  C46  1  0.99887400  0.92688100  0.58392500  1
  C  C47  1  0.00112600  0.42688100  0.41607500  1
  C  C48  1  0.66268100  0.76754700  0.90641900  1
  C  C49  1  0.33731900  0.26754700  0.09358100  1
  C  C50  1  0.16268100  0.26754700  0.59358100  1
  C  C51  1  0.83731900  0.76754700  0.40641900  1
  C  C52  1  0.13597800  0.60776500  0.04542700  1
  C  C53  1  0.86402200  0.10776500  0.95457300  1
  C  C54  1  0.63597800  0.10776500  0.45457300  1
  C  C55  1  0.36402200  0.60776500  0.54542700  1
  C  C56  1  0.08212800  0.85918900  0.85272400  1
  C  C57  1  0.91787200  0.35918900  0.14727600  1
  C  C58  1  0.58212800  0.35918900  0.64727600  1
  C  C59  1  0.41787200  0.85918900  0.35272400  1
  C  C60  1  0.22899300  0.70075800  0.95587900  1
  C  C61  1  0.77100700  0.20075800  0.04412100  1
  C  C62  1  0.72899300  0.20075800  0.54412100  1
  C  C63  1  0.27100700  0.70075800  0.45587900  1
  C  C64  1  0.03459900  0.40466300  0.71712900  1
  C  C65  1  0.96540100  0.90466300  0.28287100  1
  C  C66  1  0.53459900  0.90466300  0.78287100  1
  C  C67  1  0.46540100  0.40466300  0.21712900  1
  C  C68  1  0.49833100  0.26804700  0.74824100  1
  C  C69  1  0.50166900  0.76804700  0.25175900  1
  C  C70  1  0.99833100  0.76804700  0.75175900  1
  C  C71  1  0.00166900  0.26804700  0.24824100  1
  C  C72  1  0.03370800  0.13537100  0.77925900  1
  C  C73  1  0.96629200  0.63537100  0.22074100  1
  C  C74  1  0.53370800  0.63537100  0.72074100  1
  C  C75  1  0.46629200  0.13537100  0.27925900  1
