# generated using pymatgen
data_Cu7Ni2C3
_symmetry_space_group_name_H-M   'P 1'
_cell_length_a   9.87571300
_cell_length_b   8.71462500
_cell_length_c   9.68410432
_cell_angle_alpha   67.87870237
_cell_angle_beta   90.00000000
_cell_angle_gamma   90.00000000
_symmetry_Int_Tables_number   1
_chemical_formula_structural   Cu7Ni2C3
_chemical_formula_sum   'Cu28 Ni8 C12'
_cell_volume   772.09347317
_cell_formula_units_Z   4
loop_
 _symmetry_equiv_pos_site_id
 _symmetry_equiv_pos_as_xyz
  1  'x, y, z'
loop_
 _atom_site_type_symbol
 _atom_site_label
 _atom_site_symmetry_multiplicity
 _atom_site_fract_x
 _atom_site_fract_y
 _atom_site_fract_z
 _atom_site_occupancy
  C  C0  1  0.76125400  0.18464300  0.36907900  1
  C  C1  1  0.73874600  0.18464300  0.86907900  1
  C  C2  1  0.23874600  0.81535700  0.63092100  1
  C  C3  1  0.26125400  0.81535700  0.13092100  1
  C  C4  1  0.51173500  0.48659300  0.18959000  1
  C  C5  1  0.98826500  0.48659300  0.68959000  1
  C  C6  1  0.48826500  0.51340700  0.81041000  1
  C  C7  1  0.01173500  0.51340700  0.31041000  1
  C  C8  1  0.58043600  0.78707700  0.36947500  1
  C  C9  1  0.91956400  0.78707700  0.86947500  1
  C  C10  1  0.41956400  0.21292300  0.63052500  1
  C  C11  1  0.08043600  0.21292300  0.13052500  1
  Ni  Ni12  1  0.69595100  0.50792700  0.49894100  1
  Ni  Ni13  1  0.80404900  0.50792700  0.99894100  1
  Ni  Ni14  1  0.30404900  0.49207300  0.50105900  1
  Ni  Ni15  1  0.19595100  0.49207300  0.00105900  1
  Ni  Ni16  1  0.92811700  0.94798900  0.20175700  1
  Ni  Ni17  1  0.57188300  0.94798900  0.70175700  1
  Ni  Ni18  1  0.07188300  0.05201100  0.79824300  1
  Ni  Ni19  1  0.42811700  0.05201100  0.29824300  1
  Cu  Cu20  1  0.63995400  0.40027800  0.42303500  1
  Cu  Cu21  1  0.86004600  0.40027800  0.92303500  1
  Cu  Cu22  1  0.36004600  0.59972200  0.57696500  1
  Cu  Cu23  1  0.13995400  0.59972200  0.07696500  1
  Cu  Cu24  1  0.84403900  0.44171900  0.16053300  1
  Cu  Cu25  1  0.65596100  0.44171900  0.66053300  1
  Cu  Cu26  1  0.15596100  0.55828100  0.83946700  1
  Cu  Cu27  1  0.34403900  0.55828100  0.33946700  1
  Cu  Cu28  1  0.85424700  0.96952200  0.06185800  1
  Cu  Cu29  1  0.64575300  0.96952200  0.56185800  1
  Cu  Cu30  1  0.14575300  0.03047800  0.93814200  1
  Cu  Cu31  1  0.35424700  0.03047800  0.43814200  1
  Cu  Cu32  1  0.83448800  0.94253700  0.32268400  1
  Cu  Cu33  1  0.66551200  0.94253700  0.82268400  1
  Cu  Cu34  1  0.16551200  0.05746300  0.67731600  1
  Cu  Cu35  1  0.33448800  0.05746300  0.17731600  1
  Cu  Cu36  1  0.84523800  0.52193100  0.48322600  1
  Cu  Cu37  1  0.65476200  0.52193100  0.98322600  1
  Cu  Cu38  1  0.15476200  0.47806900  0.51677400  1
  Cu  Cu39  1  0.34523800  0.47806900  0.01677400  1
  Cu  Cu40  1  0.52824900  0.18749400  0.25573500  1
  Cu  Cu41  1  0.97175100  0.18749400  0.75573500  1
  Cu  Cu42  1  0.47175100  0.81250600  0.74426500  1
  Cu  Cu43  1  0.02824900  0.81250600  0.24426500  1
  Cu  Cu44  1  0.50463600  0.77018800  0.15572300  1
  Cu  Cu45  1  0.99536400  0.77018800  0.65572300  1
  Cu  Cu46  1  0.49536400  0.22981200  0.84427700  1
  Cu  Cu47  1  0.00463600  0.22981200  0.34427700  1
