# generated using pymatgen
data_Cu2(NiC)7
_symmetry_space_group_name_H-M   'P 1'
_cell_length_a   7.15737300
_cell_length_b   9.25416671
_cell_length_c   14.46434914
_cell_angle_alpha   79.73464619
_cell_angle_beta   75.67491355
_cell_angle_gamma   67.24827818
_symmetry_Int_Tables_number   1
_chemical_formula_structural   Cu2(NiC)7
_chemical_formula_sum   'Cu8 Ni28 C28'
_cell_volume   852.37806488
_cell_formula_units_Z   4
loop_
 _symmetry_equiv_pos_site_id
 _symmetry_equiv_pos_as_xyz
  1  'x, y, z'
loop_
 _atom_site_type_symbol
 _atom_site_label
 _atom_site_symmetry_multiplicity
 _atom_site_fract_x
 _atom_site_fract_y
 _atom_site_fract_z
 _atom_site_occupancy
  C  C0  1  0.73356600  0.64965000  0.88321500  1
  C  C1  1  0.73356600  0.14965000  0.38321500  1
  C  C2  1  0.23356500  0.64965000  0.88321500  1
  C  C3  1  0.23356400  0.14965000  0.38321500  1
  C  C4  1  0.26643500  0.35034900  0.11678500  1
  C  C5  1  0.26643400  0.85035000  0.61678500  1
  C  C6  1  0.76643500  0.35035000  0.11678500  1
  C  C7  1  0.76643600  0.85035000  0.61678500  1
  C  C8  1  0.86120700  0.68389400  0.09365900  1
  C  C9  1  0.86120900  0.18389400  0.59366000  1
  C  C10  1  0.36122200  0.48245500  0.29511100  1
  C  C11  1  0.36122600  0.98245500  0.79511100  1
  C  C12  1  0.13879300  0.31610600  0.90634100  1
  C  C13  1  0.13878900  0.81610700  0.40634100  1
  C  C14  1  0.63877700  0.51754400  0.70488900  1
  C  C15  1  0.63877300  0.01754400  0.20488900  1
  C  C16  1  0.00000100  0.49999800  0.49999900  1
  C  C17  1  0.49999800  0.00000200  0.00000100  1
  C  C18  1  0.00000000  0.00000000  0.00000100  1
  C  C19  1  0.49999900  0.50000100  0.50000100  1
  C  C20  1  0.15286300  0.50569300  0.68855800  1
  C  C21  1  0.15287000  0.00569400  0.18855900  1
  C  C22  1  0.65287500  0.28568900  0.90857000  1
  C  C23  1  0.65288400  0.78568900  0.40857000  1
  C  C24  1  0.84713700  0.49430700  0.31144200  1
  C  C25  1  0.84713000  0.99430600  0.81144100  1
  C  C26  1  0.34712500  0.71431100  0.09143000  1
  C  C27  1  0.34711600  0.21431100  0.59143000  1
  Ni  Ni28  1  0.25000100  0.31090400  0.68910200  1
  Ni  Ni29  1  0.24999500  0.81090400  0.18910200  1
  Ni  Ni30  1  0.75000000  0.68909600  0.31089800  1
  Ni  Ni31  1  0.75000500  0.18909600  0.81089800  1
  Ni  Ni32  1  0.41447300  0.54170100  0.12934600  1
  Ni  Ni33  1  0.41447200  0.04170100  0.62934500  1
  Ni  Ni34  1  0.91446800  0.46486700  0.20618300  1
  Ni  Ni35  1  0.91447400  0.96486700  0.70618300  1
  Ni  Ni36  1  0.58552700  0.45829900  0.87065400  1
  Ni  Ni37  1  0.58552800  0.95829900  0.37065500  1
  Ni  Ni38  1  0.08553200  0.53513200  0.79381600  1
  Ni  Ni39  1  0.08552700  0.03513300  0.29381700  1
  Ni  Ni40  1  0.97077200  0.56462300  0.63570900  1
  Ni  Ni41  1  0.97077700  0.06463400  0.13570900  1
  Ni  Ni42  1  0.82888300  0.23588700  0.96446000  1
  Ni  Ni43  1  0.82889700  0.73588400  0.46445700  1
  Ni  Ni44  1  0.47077700  0.23588800  0.96445600  1
  Ni  Ni45  1  0.47078500  0.73589100  0.46446000  1
  Ni  Ni46  1  0.32887300  0.56462700  0.63571400  1
  Ni  Ni47  1  0.32888700  0.06461900  0.13571300  1
  Ni  Ni48  1  0.02922800  0.43537700  0.36429100  1
  Ni  Ni49  1  0.02922300  0.93536600  0.86429100  1
  Ni  Ni50  1  0.17111700  0.76411200  0.03554000  1
  Ni  Ni51  1  0.17110300  0.26411600  0.53554300  1
  Ni  Ni52  1  0.52922300  0.76411300  0.03554400  1
  Ni  Ni53  1  0.52921500  0.26410900  0.53554000  1
  Ni  Ni54  1  0.67112700  0.43537300  0.36428600  1
  Ni  Ni55  1  0.67111300  0.93538100  0.86428600  1
  Cu  Cu56  1  0.25001100  0.55806800  0.44193300  1
  Cu  Cu57  1  0.24999900  0.05806700  0.94193300  1
  Cu  Cu58  1  0.74998900  0.44193200  0.55806700  1
  Cu  Cu59  1  0.75000100  0.94193300  0.05806700  1
  Cu  Cu60  1  0.00000000  0.50000000  0.00000000  1
  Cu  Cu61  1  0.00000000  0.00000000  0.50000000  1
  Cu  Cu62  1  0.50000500  0.25000000  0.25000000  1
  Cu  Cu63  1  0.49999500  0.75000000  0.74999900  1
