# generated using pymatgen
data_Cu(NiC13)2
_symmetry_space_group_name_H-M   'P 1'
_cell_length_a   12.00705965
_cell_length_b   12.00705965
_cell_length_c   19.59786879
_cell_angle_alpha   90.00000000
_cell_angle_beta   90.00000000
_cell_angle_gamma   120.00000345
_symmetry_Int_Tables_number   1
_chemical_formula_structural   Cu(NiC13)2
_chemical_formula_sum   'Cu6 Ni12 C156'
_cell_volume   2446.88071674
_cell_formula_units_Z   6
loop_
 _symmetry_equiv_pos_site_id
 _symmetry_equiv_pos_as_xyz
  1  'x, y, z'
loop_
 _atom_site_type_symbol
 _atom_site_label
 _atom_site_symmetry_multiplicity
 _atom_site_fract_x
 _atom_site_fract_y
 _atom_site_fract_z
 _atom_site_occupancy
  Ni  Ni0  1  0.99870834  0.33606092  0.96026833  1
  Ni  Ni1  1  0.00129166  0.66393908  0.03973167  1
  Ni  Ni2  1  0.33735258  0.00129166  0.96026833  1
  Ni  Ni3  1  0.66264742  0.66393908  0.53973167  1
  Ni  Ni4  1  0.66264742  0.99870834  0.03973167  1
  Ni  Ni5  1  0.33735258  0.33606092  0.46026833  1
  Ni  Ni6  1  0.66393908  0.66264742  0.96026833  1
  Ni  Ni7  1  0.33606092  0.99870834  0.53973167  1
  Ni  Ni8  1  0.33606092  0.33735258  0.03973167  1
  Ni  Ni9  1  0.66393908  0.00129166  0.46026833  1
  Ni  Ni10  1  0.00129166  0.33735258  0.53973167  1
  Ni  Ni11  1  0.99870834  0.66264742  0.46026833  1
  Cu  Cu12  1  0.66478201  0.66478201  0.75000000  1
  Cu  Cu13  1  0.33521799  0.33521799  0.25000000  1
  Cu  Cu14  1  0.00000000  0.33521799  0.75000000  1
  Cu  Cu15  1  1.00000000  0.66478201  0.25000000  1
  Cu  Cu16  1  0.33521799  0.00000000  0.75000000  1
  Cu  Cu17  1  0.66478201  1.00000000  0.25000000  1
  C  C18  1  0.66666700  0.33333300  0.97787086  1
  C  C19  1  0.33333300  0.66666700  0.02212914  1
  C  C20  1  0.33333300  0.66666700  0.52212914  1
  C  C21  1  0.66666700  0.33333300  0.47787086  1
  C  C22  1  0.66666700  0.33333300  0.72809128  1
  C  C23  1  0.33333300  0.66666700  0.27190872  1
  C  C24  1  0.33333300  0.66666700  0.77190872  1
  C  C25  1  0.66666700  0.33333300  0.22809128  1
  C  C26  1  -0.00000000  0.00000000  0.00000000  1
  C  C27  1  -0.00000000  0.00000000  0.50000000  1
  C  C28  1  0.82497381  0.00347282  0.87237005  1
  C  C29  1  0.17502619  0.99652718  0.12762995  1
  C  C30  1  0.17849901  0.17502619  0.87237005  1
  C  C31  1  0.82150099  0.99652718  0.62762995  1
  C  C32  1  0.82150099  0.82497381  0.12762995  1
  C  C33  1  0.17849901  0.00347282  0.37237005  1
  C  C34  1  0.99652718  0.82150099  0.87237005  1
  C  C35  1  0.00347282  0.82497381  0.62762995  1
  C  C36  1  0.00347282  0.17849901  0.12762995  1
  C  C37  1  0.99652718  0.17502619  0.37237005  1
  C  C38  1  0.17502619  0.17849901  0.62762995  1
  C  C39  1  0.82497381  0.82150099  0.37237005  1
  C  C40  1  0.66152615  0.14419545  0.85072395  1
  C  C41  1  0.33847385  0.85580455  0.14927605  1
  C  C42  1  0.48266930  0.33847385  0.85072395  1
  C  C43  1  0.51733070  0.85580455  0.64927605  1
  C  C44  1  0.51733070  0.66152615  0.14927605  1
  C  C45  1  0.48266930  0.14419545  0.35072395  1
  C  C46  1  0.85580455  0.51733070  0.85072395  1
  C  C47  1  0.14419545  0.66152615  0.64927605  1
  C  C48  1  0.14419545  0.48266930  0.14927605  1
  C  C49  1  0.85580455  0.33847385  0.35072395  1
  C  C50  1  0.33847385  0.48266930  0.64927605  1
  C  C51  1  0.66152615  0.51733070  0.35072395  1
  C  C52  1  0.51212021  0.84551453  0.89092518  1
  C  C53  1  0.48787979  0.15448547  0.10907482  1
  C  C54  1  0.33339432  0.48787979  0.89092518  1
  C  C55  1  0.66660568  0.15448547  0.60907482  1
  C  C56  1  0.66660568  0.51212021  0.10907482  1
  C  C57  1  0.33339432  0.84551453  0.39092518  1
  C  C58  1  0.15448547  0.66660568  0.89092518  1
  C  C59  1  0.84551453  0.51212021  0.60907482  1
  C  C60  1  0.84551453  0.33339432  0.10907482  1
  C  C61  1  0.15448547  0.48787979  0.39092518  1
  C  C62  1  0.48787979  0.33339432  0.60907482  1
  C  C63  1  0.51212021  0.66660568  0.39092518  1
  C  C64  1  -0.00000000  0.00000000  0.75000000  1
  C  C65  1  -0.00000000  0.00000000  0.25000000  1
  C  C66  1  0.72572898  0.24036973  0.92348216  1
  C  C67  1  0.27427102  0.75963027  0.07651784  1
  C  C68  1  0.51464075  0.27427102  0.92348216  1
  C  C69  1  0.48535925  0.75963027  0.57651784  1
  C  C70  1  0.48535925  0.72572898  0.07651784  1
  C  C71  1  0.51464075  0.24036973  0.42348216  1
  C  C72  1  0.75963027  0.48535925  0.92348216  1
  C  C73  1  0.24036973  0.72572898  0.57651784  1
  C  C74  1  0.24036973  0.51464075  0.07651784  1
  C  C75  1  0.75963027  0.27427102  0.42348216  1
  C  C76  1  0.27427102  0.51464075  0.57651784  1
  C  C77  1  0.72572898  0.48535925  0.42348216  1
  C  C78  1  0.67551341  0.89365136  0.91415615  1
  C  C79  1  0.32448659  0.10634864  0.08584385  1
  C  C80  1  0.21813796  0.32448659  0.91415615  1
  C  C81  1  0.78186204  0.10634864  0.58584385  1
  C  C82  1  0.78186204  0.67551341  0.08584385  1
  C  C83  1  0.21813796  0.89365136  0.41415615  1
  C  C84  1  0.10634864  0.78186204  0.91415615  1
  C  C85  1  0.89365136  0.67551341  0.58584385  1
  C  C86  1  0.89365136  0.21813796  0.08584385  1
  C  C87  1  0.10634864  0.32448659  0.41415615  1
  C  C88  1  0.32448659  0.21813796  0.58584385  1
  C  C89  1  0.67551341  0.78186204  0.41415615  1
  C  C90  1  0.81667798  0.40705796  0.78269088  1
  C  C91  1  0.18332202  0.59294204  0.21730912  1
  C  C92  1  0.59037999  0.18332202  0.78269088  1
  C  C93  1  0.40962001  0.59294204  0.71730912  1
  C  C94  1  0.40962001  0.81667798  0.21730912  1
  C  C95  1  0.59037999  0.40705796  0.28269088  1
  C  C96  1  0.59294204  0.40962001  0.78269088  1
  C  C97  1  0.40705796  0.81667798  0.71730912  1
  C  C98  1  0.40705796  0.59037999  0.21730912  1
  C  C99  1  0.59294204  0.18332202  0.28269088  1
  C  C100  1  0.18332202  0.59037999  0.71730912  1
  C  C101  1  0.81667798  0.40962001  0.28269088  1
  C  C102  1  0.93090871  0.08115917  0.94127546  1
  C  C103  1  0.06909129  0.91884083  0.05872454  1
  C  C104  1  0.15025045  0.06909129  0.94127546  1
  C  C105  1  0.84974955  0.91884083  0.55872454  1
  C  C106  1  0.84974955  0.93090871  0.05872454  1
  C  C107  1  0.15025045  0.08115917  0.44127546  1
  C  C108  1  0.91884083  0.84974955  0.94127546  1
  C  C109  1  0.08115917  0.93090871  0.55872454  1
  C  C110  1  0.08115917  0.15025045  0.05872454  1
  C  C111  1  0.91884083  0.06909129  0.44127546  1
  C  C112  1  0.06909129  0.15025045  0.55872454  1
  C  C113  1  0.93090871  0.84974955  0.44127546  1
  C  C114  1  0.79454275  0.12032729  0.82805566  1
  C  C115  1  0.20545725  0.87967271  0.17194434  1
  C  C116  1  0.32578455  0.20545725  0.82805566  1
  C  C117  1  0.67421545  0.87967271  0.67194434  1
  C  C118  1  0.67421545  0.79454275  0.17194434  1
  C  C119  1  0.32578455  0.12032729  0.32805566  1
  C  C120  1  0.87967271  0.67421545  0.82805566  1
  C  C121  1  0.12032729  0.79454275  0.67194434  1
  C  C122  1  0.12032729  0.32578455  0.17194434  1
  C  C123  1  0.87967271  0.20545725  0.32805566  1
  C  C124  1  0.20545725  0.32578455  0.67194434  1
  C  C125  1  0.79454275  0.67421545  0.32805566  1
  C  C126  1  0.47362654  0.48260992  0.86386554  1
  C  C127  1  0.52637346  0.51739008  0.13613446  1
  C  C128  1  0.00898338  0.52637346  0.86386554  1
  C  C129  1  0.99101662  0.51739008  0.63613446  1
  C  C130  1  0.99101662  0.47362654  0.13613446  1
  C  C131  1  0.00898338  0.48260992  0.36386554  1
  C  C132  1  0.51739008  0.99101662  0.86386554  1
  C  C133  1  0.48260992  0.47362654  0.63613446  1
  C  C134  1  0.48260992  0.00898338  0.13613446  1
  C  C135  1  0.51739008  0.52637346  0.36386554  1
  C  C136  1  0.52637346  0.00898338  0.63613446  1
  C  C137  1  0.47362654  0.99101662  0.36386554  1
  C  C138  1  0.84952475  0.91334214  0.80800237  1
  C  C139  1  0.15047525  0.08665786  0.19199763  1
  C  C140  1  0.06381740  0.15047525  0.80800237  1
  C  C141  1  0.93618260  0.08665786  0.69199763  1
  C  C142  1  0.93618260  0.84952475  0.19199763  1
  C  C143  1  0.06381740  0.91334214  0.30800237  1
  C  C144  1  0.08665786  0.93618260  0.80800237  1
  C  C145  1  0.91334214  0.84952475  0.69199763  1
  C  C146  1  0.91334214  0.06381740  0.19199763  1
  C  C147  1  0.08665786  0.15047525  0.30800237  1
  C  C148  1  0.15047525  0.06381740  0.69199763  1
  C  C149  1  0.84952475  0.93618260  0.30800237  1
  C  C150  1  0.39294396  0.57569155  0.96680029  1
  C  C151  1  0.60705604  0.42430845  0.03319971  1
  C  C152  1  0.18274760  0.60705604  0.96680029  1
  C  C153  1  0.81725240  0.42430845  0.53319971  1
  C  C154  1  0.81725240  0.39294396  0.03319971  1
  C  C155  1  0.18274760  0.57569155  0.46680029  1
  C  C156  1  0.42430845  0.81725240  0.96680029  1
  C  C157  1  0.57569155  0.39294396  0.53319971  1
  C  C158  1  0.57569155  0.18274760  0.03319971  1
  C  C159  1  0.42430845  0.60705604  0.46680029  1
  C  C160  1  0.60705604  0.18274760  0.53319971  1
  C  C161  1  0.39294396  0.81725240  0.46680029  1
  C  C162  1  0.48279812  0.72700849  0.82895108  1
  C  C163  1  0.51720188  0.27299151  0.17104892  1
  C  C164  1  0.24421036  0.51720188  0.82895108  1
  C  C165  1  0.75578964  0.27299151  0.67104892  1
  C  C166  1  0.75578964  0.48279812  0.17104892  1
  C  C167  1  0.24421036  0.72700849  0.32895108  1
  C  C168  1  0.27299151  0.75578964  0.82895108  1
  C  C169  1  0.72700849  0.48279812  0.67104892  1
  C  C170  1  0.72700849  0.24421036  0.17104892  1
  C  C171  1  0.27299151  0.51720188  0.32895108  1
  C  C172  1  0.51720188  0.24421036  0.67104892  1
  C  C173  1  0.48279812  0.75578964  0.32895108  1
