# generated using pymatgen
data_Cu4NiC9
_symmetry_space_group_name_H-M   'P 1'
_cell_length_a   3.58732400
_cell_length_b   10.52631500
_cell_length_c   12.46070000
_cell_angle_alpha   90.00000000
_cell_angle_beta   90.00000000
_cell_angle_gamma   90.00000000
_symmetry_Int_Tables_number   1
_chemical_formula_structural   Cu4NiC9
_chemical_formula_sum   'Cu8 Ni2 C18'
_cell_volume   470.53226120
_cell_formula_units_Z   2
loop_
 _symmetry_equiv_pos_site_id
 _symmetry_equiv_pos_as_xyz
  1  'x, y, z'
loop_
 _atom_site_type_symbol
 _atom_site_label
 _atom_site_symmetry_multiplicity
 _atom_site_fract_x
 _atom_site_fract_y
 _atom_site_fract_z
 _atom_site_occupancy
  C  C0  1  0.75000000  0.74854400  0.14984100  1
  C  C1  1  0.75000000  0.24854400  0.35015900  1
  Ni  Ni2  1  0.25000000  0.25559800  0.85152700  1
  Ni  Ni3  1  0.25000000  0.75559800  0.64847300  1
  Cu  Cu4  1  0.75000000  0.07553900  0.61333100  1
  Cu  Cu5  1  0.75000000  0.57553900  0.88666900  1
  Cu  Cu6  1  0.25000000  0.92222800  0.39334900  1
  Cu  Cu7  1  0.25000000  0.42222800  0.10665100  1
  Cu  Cu8  1  0.75000000  0.07945500  0.10773200  1
  Cu  Cu9  1  0.75000000  0.57945500  0.39226800  1
  Cu  Cu10  1  0.25000000  0.92547200  0.88468700  1
  Cu  Cu11  1  0.25000000  0.42547200  0.61531300  1
  C  C12  1  0.75000000  0.28567100  0.67718100  1
  C  C13  1  0.75000000  0.78567100  0.82281900  1
  C  C14  1  0.25000000  0.71448300  0.33173300  1
  C  C15  1  0.25000000  0.21448300  0.16826700  1
  C  C16  1  0.75000000  0.37265100  0.97564300  1
  C  C17  1  0.75000000  0.87265100  0.52435700  1
  C  C18  1  0.25000000  0.61869300  0.01547700  1
  C  C19  1  0.25000000  0.11869300  0.48452300  1
  C  C20  1  0.75000000  0.98832500  0.28542500  1
  C  C21  1  0.75000000  0.48832500  0.21457500  1
  C  C22  1  0.25000000  0.00204500  0.71280200  1
  C  C23  1  0.25000000  0.50204500  0.78719800  1
  C  C24  1  0.75000000  0.08229400  0.91707900  1
  C  C25  1  0.75000000  0.58229400  0.58292100  1
  C  C26  1  0.25000000  0.92900100  0.07245200  1
  C  C27  1  0.25000000  0.42900100  0.42754800  1
