# generated using pymatgen
data_Cu3NiC36
_symmetry_space_group_name_H-M   'P 1'
_cell_length_a   8.58742400
_cell_length_b   8.65575937
_cell_length_c   8.66300790
_cell_angle_alpha   61.26686503
_cell_angle_beta   61.34677604
_cell_angle_gamma   61.37858266
_symmetry_Int_Tables_number   1
_chemical_formula_structural   Cu3NiC36
_chemical_formula_sum   'Cu3 Ni1 C36'
_cell_volume   468.94180451
_cell_formula_units_Z   1
loop_
 _symmetry_equiv_pos_site_id
 _symmetry_equiv_pos_as_xyz
  1  'x, y, z'
loop_
 _atom_site_type_symbol
 _atom_site_label
 _atom_site_symmetry_multiplicity
 _atom_site_fract_x
 _atom_site_fract_y
 _atom_site_fract_z
 _atom_site_occupancy
  C  C0  1  0.74983900  0.15121700  0.34932100  1
  C  C1  1  0.25054400  0.84436000  0.65211500  1
  C  C2  1  0.65199800  0.25040400  0.84546700  1
  C  C3  1  0.84418200  0.65102700  0.25100500  1
  Ni  Ni4  1  0.85509100  0.85180200  0.85627300  1
  Cu  Cu5  1  0.14642600  0.14243300  0.13821100  1
  Cu  Cu6  1  0.35282400  0.36127000  0.35654000  1
  Cu  Cu7  1  0.64766500  0.64582900  0.65133000  1
  C  C8  1  0.02097200  0.00182300  0.99154800  1
  C  C9  1  0.48018600  0.50997700  0.49900400  1
  C  C10  1  0.04756500  0.74914100  0.45622500  1
  C  C11  1  0.45429300  0.04582400  0.74957100  1
  C  C12  1  0.74954400  0.45404700  0.04792300  1
  C  C13  1  0.24942000  0.53943500  0.95967300  1
  C  C14  1  0.54477500  0.96005600  0.25109000  1
  C  C15  1  0.95433300  0.24746100  0.53914400  1
  C  C16  1  0.12364100  0.29364200  0.49710900  1
  C  C17  1  0.30402700  0.50664300  0.11848000  1
  C  C18  1  0.04511600  0.92104300  0.27615600  1
  C  C19  1  0.52944600  0.11649500  0.29959200  1
  C  C20  1  0.01870100  0.80049700  0.61859500  1
  C  C21  1  0.23827400  0.59146300  0.43063400  1
  C  C22  1  0.26383100  0.06855200  0.90797500  1
  C  C23  1  0.45355600  0.22603500  0.57779400  1
  C  C24  1  0.19330700  0.38136800  0.99339200  1
  C  C25  1  0.59229000  0.42806100  0.24030700  1
  C  C26  1  0.08795600  0.73374900  0.93521000  1
  C  C27  1  0.37599900  0.00284900  0.20412200  1
  C  C28  1  0.61502500  0.01293700  0.80787100  1
  C  C29  1  0.90687900  0.26146200  0.07169000  1
  C  C30  1  0.41097100  0.56425100  0.76656400  1
  C  C31  1  0.80468900  0.61362400  0.01860700  1
  C  C32  1  0.56592400  0.76718700  0.41248200  1
  C  C33  1  0.73610100  0.93033600  0.08766100  1
  C  C34  1  0.76390600  0.41003900  0.57037100  1
  C  C35  1  0.97027500  0.19839900  0.38311400  1
  C  C36  1  0.48605700  0.88310800  0.69686100  1
  C  C37  1  0.93451200  0.08519400  0.73254200  1
  C  C38  1  0.69263100  0.48570300  0.88889500  1
  C  C39  1  0.88722700  0.68825400  0.49253400  1
