# generated using pymatgen
data_Cu14Ni4C5
_symmetry_space_group_name_H-M   'P 1'
_cell_length_a   7.82492400
_cell_length_b   7.74797900
_cell_length_c   12.33925338
_cell_angle_alpha   81.16019527
_cell_angle_beta   90.00000000
_cell_angle_gamma   90.00000000
_symmetry_Int_Tables_number   1
_chemical_formula_structural   Cu14Ni4C5
_chemical_formula_sum   'Cu28 Ni8 C10'
_cell_volume   739.21020289
_cell_formula_units_Z   2
loop_
 _symmetry_equiv_pos_site_id
 _symmetry_equiv_pos_as_xyz
  1  'x, y, z'
loop_
 _atom_site_type_symbol
 _atom_site_label
 _atom_site_symmetry_multiplicity
 _atom_site_fract_x
 _atom_site_fract_y
 _atom_site_fract_z
 _atom_site_occupancy
  C  C0  1  0.00000000  0.00000000  0.50000000  1
  C  C1  1  0.50000000  0.50000000  0.50000000  1
  C  C2  1  0.25165800  0.15808400  0.86470400  1
  C  C3  1  0.75165800  0.34191600  0.13529600  1
  C  C4  1  0.74834200  0.84191600  0.13529600  1
  C  C5  1  0.24834200  0.65808400  0.86470400  1
  C  C6  1  0.24910000  0.83946900  0.13510500  1
  C  C7  1  0.74910000  0.66053100  0.86489500  1
  C  C8  1  0.75090000  0.16053100  0.86489500  1
  C  C9  1  0.25090000  0.33946900  0.13510500  1
  Ni  Ni10  1  0.37248900  0.87123500  0.49956700  1
  Ni  Ni11  1  0.87248900  0.62876500  0.50043300  1
  Ni  Ni12  1  0.62751100  0.12876500  0.50043300  1
  Ni  Ni13  1  0.12751100  0.37123500  0.49956700  1
  Ni  Ni14  1  0.99989400  0.93872000  0.74928800  1
  Ni  Ni15  1  0.49989400  0.56128000  0.25071200  1
  Ni  Ni16  1  0.00010600  0.06128000  0.25071200  1
  Ni  Ni17  1  0.50010600  0.43872000  0.74928800  1
  Cu  Cu18  1  0.66604400  0.83460100  0.49988000  1
  Cu  Cu19  1  0.16604400  0.66539900  0.50012000  1
  Cu  Cu20  1  0.33395600  0.16539900  0.50012000  1
  Cu  Cu21  1  0.83395600  0.33460100  0.49988000  1
  Cu  Cu22  1  0.49963000  0.88821600  0.94098200  1
  Cu  Cu23  1  0.99963000  0.61178400  0.05901800  1
  Cu  Cu24  1  0.50037000  0.11178400  0.05901800  1
  Cu  Cu25  1  0.00037000  0.38821600  0.94098200  1
  Cu  Cu26  1  0.99441700  0.76885200  0.32270100  1
  Cu  Cu27  1  0.49441700  0.73114800  0.67729900  1
  Cu  Cu28  1  0.00558300  0.23114800  0.67729900  1
  Cu  Cu29  1  0.50558300  0.26885200  0.32270100  1
  Cu  Cu30  1  0.99429700  0.68204900  0.67796000  1
  Cu  Cu31  1  0.49429700  0.81795100  0.32204000  1
  Cu  Cu32  1  0.00570300  0.31795100  0.32204000  1
  Cu  Cu33  1  0.50570300  0.18204900  0.67796000  1
  Cu  Cu34  1  0.27372500  0.94965000  0.67739800  1
  Cu  Cu35  1  0.77372500  0.55035000  0.32260200  1
  Cu  Cu36  1  0.72627500  0.05035000  0.32260200  1
  Cu  Cu37  1  0.22627500  0.44965000  0.67739800  1
  Cu  Cu38  1  0.72615500  0.96159700  0.67720600  1
  Cu  Cu39  1  0.22615500  0.53840300  0.32279400  1
  Cu  Cu40  1  0.27384500  0.03840300  0.32279400  1
  Cu  Cu41  1  0.77384500  0.46159700  0.67720600  1
  Cu  Cu42  1  0.00024900  0.89009100  0.93957900  1
  Cu  Cu43  1  0.50024900  0.60990900  0.06042100  1
  Cu  Cu44  1  0.99975100  0.10990900  0.06042100  1
  Cu  Cu45  1  0.49975100  0.39009100  0.93957900  1
