# generated using pymatgen
data_CuNiC8
_symmetry_space_group_name_H-M   'P 1'
_cell_length_a   8.06351425
_cell_length_b   8.08721944
_cell_length_c   8.08171926
_cell_angle_alpha   90.53587572
_cell_angle_beta   90.10491822
_cell_angle_gamma   90.11195044
_symmetry_Int_Tables_number   1
_chemical_formula_structural   CuNiC8
_chemical_formula_sum   'Cu4 Ni4 C32'
_cell_volume   526.99534361
_cell_formula_units_Z   4
loop_
 _symmetry_equiv_pos_site_id
 _symmetry_equiv_pos_as_xyz
  1  'x, y, z'
loop_
 _atom_site_type_symbol
 _atom_site_label
 _atom_site_symmetry_multiplicity
 _atom_site_fract_x
 _atom_site_fract_y
 _atom_site_fract_z
 _atom_site_occupancy
  C  C0  1  0.74959300  0.48891300  0.01680900  1
  C  C1  1  0.74959800  0.98891400  0.51680600  1
  C  C2  1  0.24960300  0.01678400  0.98894000  1
  C  C3  1  0.24959200  0.51678600  0.48893800  1
  C  C4  1  0.75033800  0.97329900  0.01498900  1
  C  C5  1  0.75034600  0.47329600  0.51499300  1
  C  C6  1  0.25034000  0.51505500  0.97322400  1
  C  C7  1  0.25032700  0.01505900  0.47323300  1
  Ni  Ni8  1  0.99950500  0.24847900  0.75071800  1
  Ni  Ni9  1  0.49951000  0.75071700  0.74847900  1
  Ni  Ni10  1  0.99951300  0.74847800  0.25071500  1
  Ni  Ni11  1  0.49951000  0.25071500  0.24848300  1
  Cu  Cu12  1  0.49981800  0.74770000  0.25170700  1
  Cu  Cu13  1  0.49982100  0.24769600  0.75170400  1
  Cu  Cu14  1  0.99983300  0.25170900  0.24769600  1
  Cu  Cu15  1  0.99983100  0.75170800  0.74770200  1
  C  C16  1  0.74743900  0.21295600  0.19662800  1
  C  C17  1  0.74744000  0.71295700  0.69662700  1
  C  C18  1  0.24743500  0.69662400  0.21290300  1
  C  C19  1  0.24743400  0.19662600  0.71290800  1
  C  C20  1  0.75314800  0.29758300  0.77247800  1
  C  C21  1  0.75314700  0.79758300  0.27247500  1
  C  C22  1  0.25314000  0.77249200  0.79760800  1
  C  C23  1  0.25313900  0.27249000  0.29760900  1
  C  C24  1  0.95450000  0.50308100  0.29176200  1
  C  C25  1  0.95449700  0.00308300  0.79176200  1
  C  C26  1  0.45457300  0.29167600  0.00306200  1
  C  C27  1  0.45457100  0.79167600  0.50306400  1
  C  C28  1  0.54106300  0.72167100  0.99749300  1
  C  C29  1  0.54106400  0.22167200  0.49749700  1
  C  C30  1  0.04114300  0.49750900  0.72164000  1
  C  C31  1  0.04114400  0.99750900  0.22164500  1
  C  C32  1  0.45927500  0.50218200  0.72233000  1
  C  C33  1  0.45927300  0.00218200  0.22233200  1
  C  C34  1  0.95938600  0.72234800  0.00219400  1
  C  C35  1  0.95938900  0.22234700  0.50219800  1
  C  C36  1  0.04514600  0.29198700  0.99723500  1
  C  C37  1  0.04514300  0.79198400  0.49723600  1
  C  C38  1  0.54521900  0.49723700  0.29209000  1
  C  C39  1  0.54521500  0.99723700  0.79209100  1
