# generated using pymatgen
data_Cu31Ni40C13
_symmetry_space_group_name_H-M   'P 1'
_cell_length_a   17.15123146
_cell_length_b   17.15123146
_cell_length_c   7.86891300
_cell_angle_alpha   90.00000000
_cell_angle_beta   90.00000000
_cell_angle_gamma   119.99999793
_symmetry_Int_Tables_number   1
_chemical_formula_structural   Cu31Ni40C13
_chemical_formula_sum   'Cu62 Ni80 C26'
_cell_volume   2004.63819310
_cell_formula_units_Z   2
loop_
 _symmetry_equiv_pos_site_id
 _symmetry_equiv_pos_as_xyz
  1  'x, y, z'
loop_
 _atom_site_type_symbol
 _atom_site_label
 _atom_site_symmetry_multiplicity
 _atom_site_fract_x
 _atom_site_fract_y
 _atom_site_fract_z
 _atom_site_occupancy
  C  C0  1  0.72741300  0.72741300  0.70268600  1
  C  C1  1  0.27258700  0.00000000  0.70268600  1
  C  C2  1  0.00000000  0.27258700  0.70268600  1
  C  C3  1  0.27258700  0.27258700  0.70268600  1
  C  C4  1  0.72741300  0.00000000  0.70268600  1
  C  C5  1  0.00000000  0.72741300  0.70268600  1
  C  C6  1  0.27258700  0.27258700  0.29731400  1
  C  C7  1  0.72741300  0.00000000  0.29731400  1
  C  C8  1  0.00000000  0.72741300  0.29731400  1
  C  C9  1  0.72741300  0.72741300  0.29731400  1
  C  C10  1  0.27258700  0.00000000  0.29731400  1
  C  C11  1  0.00000000  0.27258700  0.29731400  1
  C  C12  1  0.42330700  0.57669300  0.50000000  1
  C  C13  1  0.42330700  0.84661400  0.50000000  1
  C  C14  1  0.15338600  0.57669300  0.50000000  1
  C  C15  1  0.57669300  0.42330700  0.50000000  1
  C  C16  1  0.84661400  0.42330700  0.50000000  1
  C  C17  1  0.57669300  0.15338600  0.50000000  1
  C  C18  1  0.75617000  0.24383000  0.00000000  1
  C  C19  1  0.75617000  0.51234000  0.00000000  1
  C  C20  1  0.48766000  0.24383000  0.00000000  1
  C  C21  1  0.24383000  0.75617000  0.00000000  1
  C  C22  1  0.51234000  0.75617000  0.00000000  1
  C  C23  1  0.24383000  0.48766000  0.00000000  1
  C  C24  1  0.00000000  0.00000000  0.80016100  1
  C  C25  1  0.00000000  0.00000000  0.19983900  1
  Ni  Ni26  1  0.89750000  0.34243900  0.77048600  1
  Ni  Ni27  1  0.65756100  0.55506200  0.77048600  1
  Ni  Ni28  1  0.44493800  0.10250000  0.77048600  1
  Ni  Ni29  1  0.34243900  0.89750000  0.77048600  1
  Ni  Ni30  1  0.55506200  0.65756100  0.77048600  1
  Ni  Ni31  1  0.10250000  0.44493800  0.77048600  1
  Ni  Ni32  1  0.10250000  0.65756100  0.77048600  1
  Ni  Ni33  1  0.34243900  0.44493800  0.77048600  1
  Ni  Ni34  1  0.55506200  0.89750000  0.77048600  1
  Ni  Ni35  1  0.65756100  0.10250000  0.77048600  1
  Ni  Ni36  1  0.44493800  0.34243900  0.77048600  1
  Ni  Ni37  1  0.89750000  0.55506200  0.77048600  1
  Ni  Ni38  1  0.10250000  0.65756100  0.22951400  1
  Ni  Ni39  1  0.34243900  0.44493800  0.22951400  1
  Ni  Ni40  1  0.55506200  0.89750000  0.22951400  1
  Ni  Ni41  1  0.65756100  0.10250000  0.22951400  1
  Ni  Ni42  1  0.44493800  0.34243900  0.22951400  1
  Ni  Ni43  1  0.89750000  0.55506200  0.22951400  1
  Ni  Ni44  1  0.89750000  0.34243900  0.22951400  1
  Ni  Ni45  1  0.65756100  0.55506200  0.22951400  1
  Ni  Ni46  1  0.44493800  0.10250000  0.22951400  1
  Ni  Ni47  1  0.34243900  0.89750000  0.22951400  1
  Ni  Ni48  1  0.55506200  0.65756100  0.22951400  1
  Ni  Ni49  1  0.10250000  0.44493800  0.22951400  1
  Ni  Ni50  1  0.91444000  0.23573300  0.00000000  1
  Ni  Ni51  1  0.76426700  0.67870700  0.00000000  1
  Ni  Ni52  1  0.32129300  0.08556000  0.00000000  1
  Ni  Ni53  1  0.23573300  0.91444000  0.00000000  1
  Ni  Ni54  1  0.67870700  0.76426700  0.00000000  1
  Ni  Ni55  1  0.08556000  0.32129300  0.00000000  1
  Ni  Ni56  1  0.08556000  0.76426700  0.00000000  1
  Ni  Ni57  1  0.23573300  0.32129300  0.00000000  1
  Ni  Ni58  1  0.67870700  0.91444000  0.00000000  1
  Ni  Ni59  1  0.76426700  0.08556000  0.00000000  1
  Ni  Ni60  1  0.32129300  0.23573300  0.00000000  1
  Ni  Ni61  1  0.91444000  0.67870700  0.00000000  1
  Ni  Ni62  1  0.91104200  0.08895800  0.75709900  1
  Ni  Ni63  1  0.91104200  0.82208500  0.75709900  1
  Ni  Ni64  1  0.17791500  0.08895800  0.75709900  1
  Ni  Ni65  1  0.08895800  0.91104200  0.75709900  1
  Ni  Ni66  1  0.82208500  0.91104200  0.75709900  1
  Ni  Ni67  1  0.08895800  0.17791500  0.75709900  1
  Ni  Ni68  1  0.08895800  0.91104200  0.24290100  1
  Ni  Ni69  1  0.08895800  0.17791500  0.24290100  1
  Ni  Ni70  1  0.82208500  0.91104200  0.24290100  1
  Ni  Ni71  1  0.91104200  0.08895800  0.24290100  1
  Ni  Ni72  1  0.17791500  0.08895800  0.24290100  1
  Ni  Ni73  1  0.91104200  0.82208500  0.24290100  1
  Ni  Ni74  1  0.73783500  0.26216500  0.65786000  1
  Ni  Ni75  1  0.73783500  0.47566900  0.65786000  1
  Ni  Ni76  1  0.52433100  0.26216500  0.65786000  1
  Ni  Ni77  1  0.26216500  0.73783500  0.65786000  1
  Ni  Ni78  1  0.47566900  0.73783500  0.65786000  1
  Ni  Ni79  1  0.26216500  0.52433100  0.65786000  1
  Ni  Ni80  1  0.26216500  0.73783500  0.34214000  1
  Ni  Ni81  1  0.26216500  0.52433100  0.34214000  1
  Ni  Ni82  1  0.47566900  0.73783500  0.34214000  1
  Ni  Ni83  1  0.73783500  0.26216500  0.34214000  1
  Ni  Ni84  1  0.52433100  0.26216500  0.34214000  1
  Ni  Ni85  1  0.73783500  0.47566900  0.34214000  1
  Ni  Ni86  1  0.85826000  0.14174000  0.50000000  1
  Ni  Ni87  1  0.85826000  0.71652000  0.50000000  1
  Ni  Ni88  1  0.28348000  0.14174000  0.50000000  1
  Ni  Ni89  1  0.14174000  0.85826000  0.50000000  1
  Ni  Ni90  1  0.71652000  0.85826000  0.50000000  1
  Ni  Ni91  1  0.14174000  0.28348000  0.50000000  1
  Ni  Ni92  1  0.45611900  0.54388100  0.00000000  1
  Ni  Ni93  1  0.45611900  0.91223700  0.00000000  1
  Ni  Ni94  1  0.08776300  0.54388100  0.00000000  1
  Ni  Ni95  1  0.54388100  0.45611900  0.00000000  1
  Ni  Ni96  1  0.91223700  0.45611900  0.00000000  1
  Ni  Ni97  1  0.54388100  0.08776300  0.00000000  1
  Ni  Ni98  1  0.58227300  0.58227300  0.50000000  1
  Ni  Ni99  1  0.41772700  0.00000000  0.50000000  1
  Ni  Ni100  1  0.00000000  0.41772700  0.50000000  1
  Ni  Ni101  1  0.41772700  0.41772700  0.50000000  1
  Ni  Ni102  1  0.58227300  0.00000000  0.50000000  1
  Ni  Ni103  1  0.00000000  0.58227300  0.50000000  1
  Ni  Ni104  1  0.66666700  0.33333300  0.00000000  1
  Ni  Ni105  1  0.33333300  0.66666700  0.00000000  1
  Cu  Cu106  1  0.87086500  0.28189600  0.50000000  1
  Cu  Cu107  1  0.71810400  0.58896900  0.50000000  1
  Cu  Cu108  1  0.41103100  0.12913500  0.50000000  1
  Cu  Cu109  1  0.28189600  0.87086500  0.50000000  1
  Cu  Cu110  1  0.58896900  0.71810400  0.50000000  1
  Cu  Cu111  1  0.12913500  0.41103100  0.50000000  1
  Cu  Cu112  1  0.12913500  0.71810400  0.50000000  1
  Cu  Cu113  1  0.28189600  0.41103100  0.50000000  1
  Cu  Cu114  1  0.58896900  0.87086500  0.50000000  1
  Cu  Cu115  1  0.71810400  0.12913500  0.50000000  1
  Cu  Cu116  1  0.41103100  0.28189600  0.50000000  1
  Cu  Cu117  1  0.87086500  0.58896900  0.50000000  1
  Cu  Cu118  1  0.82134300  0.17865700  0.76536200  1
  Cu  Cu119  1  0.82134300  0.64268600  0.76536200  1
  Cu  Cu120  1  0.35731400  0.17865700  0.76536200  1
  Cu  Cu121  1  0.17865700  0.82134300  0.76536200  1
  Cu  Cu122  1  0.64268600  0.82134300  0.76536200  1
  Cu  Cu123  1  0.17865700  0.35731400  0.76536200  1
  Cu  Cu124  1  0.17865700  0.82134300  0.23463800  1
  Cu  Cu125  1  0.17865700  0.35731400  0.23463800  1
  Cu  Cu126  1  0.64268600  0.82134300  0.23463800  1
  Cu  Cu127  1  0.82134300  0.17865700  0.23463800  1
  Cu  Cu128  1  0.35731400  0.17865700  0.23463800  1
  Cu  Cu129  1  0.82134300  0.64268600  0.23463800  1
  Cu  Cu130  1  0.39545300  0.60454700  0.81981900  1
  Cu  Cu131  1  0.39545300  0.79090600  0.81981900  1
  Cu  Cu132  1  0.20909400  0.60454700  0.81981900  1
  Cu  Cu133  1  0.60454700  0.39545300  0.81981900  1
  Cu  Cu134  1  0.79090600  0.39545300  0.81981900  1
  Cu  Cu135  1  0.60454700  0.20909400  0.81981900  1
  Cu  Cu136  1  0.60454700  0.39545300  0.18018100  1
  Cu  Cu137  1  0.60454700  0.20909400  0.18018100  1
  Cu  Cu138  1  0.79090600  0.39545300  0.18018100  1
  Cu  Cu139  1  0.39545300  0.60454700  0.18018100  1
  Cu  Cu140  1  0.20909400  0.60454700  0.18018100  1
  Cu  Cu141  1  0.39545300  0.79090600  0.18018100  1
  Cu  Cu142  1  0.85498800  0.85498800  0.50000000  1
  Cu  Cu143  1  0.14501200  0.00000000  0.50000000  1
  Cu  Cu144  1  0.00000000  0.14501200  0.50000000  1
  Cu  Cu145  1  0.14501200  0.14501200  0.50000000  1
  Cu  Cu146  1  0.85498800  0.00000000  0.50000000  1
  Cu  Cu147  1  0.00000000  0.85498800  0.50000000  1
  Cu  Cu148  1  0.83855900  0.83855900  0.00000000  1
  Cu  Cu149  1  0.16144100  0.00000000  0.00000000  1
  Cu  Cu150  1  0.00000000  0.16144100  0.00000000  1
  Cu  Cu151  1  0.16144100  0.16144100  0.00000000  1
  Cu  Cu152  1  0.83855900  0.00000000  0.00000000  1
  Cu  Cu153  1  0.00000000  0.83855900  0.00000000  1
  Cu  Cu154  1  0.61208800  0.61208800  0.00000000  1
  Cu  Cu155  1  0.38791200  0.00000000  0.00000000  1
  Cu  Cu156  1  0.00000000  0.38791200  0.00000000  1
  Cu  Cu157  1  0.38791200  0.38791200  0.00000000  1
  Cu  Cu158  1  0.61208800  0.00000000  0.00000000  1
  Cu  Cu159  1  0.00000000  0.61208800  0.00000000  1
  Cu  Cu160  1  0.50000000  0.50000000  0.73742300  1
  Cu  Cu161  1  0.50000000  0.00000000  0.73742300  1
  Cu  Cu162  1  0.00000000  0.50000000  0.73742300  1
  Cu  Cu163  1  0.50000000  0.50000000  0.26257700  1
  Cu  Cu164  1  0.50000000  0.00000000  0.26257700  1
  Cu  Cu165  1  0.00000000  0.50000000  0.26257700  1
  Cu  Cu166  1  0.66666700  0.33333300  0.50000000  1
  Cu  Cu167  1  0.33333300  0.66666700  0.50000000  1
