# generated using pymatgen
data_Cu4(Ni2C3)3
_symmetry_space_group_name_H-M   'P 1'
_cell_length_a   8.68033200
_cell_length_b   9.16279000
_cell_length_c   10.89655800
_cell_angle_alpha   90.00000000
_cell_angle_beta   90.00000000
_cell_angle_gamma   90.00000000
_symmetry_Int_Tables_number   1
_chemical_formula_structural   Cu4(Ni2C3)3
_chemical_formula_sum   'Cu16 Ni24 C36'
_cell_volume   866.66928267
_cell_formula_units_Z   4
loop_
 _symmetry_equiv_pos_site_id
 _symmetry_equiv_pos_as_xyz
  1  'x, y, z'
loop_
 _atom_site_type_symbol
 _atom_site_label
 _atom_site_symmetry_multiplicity
 _atom_site_fract_x
 _atom_site_fract_y
 _atom_site_fract_z
 _atom_site_occupancy
  C  C0  1  0.00000000  0.50000000  0.50000000  1
  C  C1  1  0.50000000  0.50000000  0.00000000  1
  C  C2  1  0.50000000  0.00000000  0.50000000  1
  C  C3  1  0.00000000  0.00000000  0.00000000  1
  Ni  Ni4  1  0.09364900  0.14413400  0.78347300  1
  Ni  Ni5  1  0.23025800  0.81582100  0.57204700  1
  Ni  Ni6  1  0.90635100  0.85586600  0.21652700  1
  Ni  Ni7  1  0.11648600  0.03419800  0.35601400  1
  Ni  Ni8  1  0.09364900  0.35586600  0.28347300  1
  Ni  Ni9  1  0.90635100  0.64413400  0.71652700  1
  Ni  Ni10  1  0.59364900  0.35586600  0.21652700  1
  Ni  Ni11  1  0.11648600  0.46580200  0.85601400  1
  Ni  Ni12  1  0.73025800  0.81582100  0.92795300  1
  Ni  Ni13  1  0.38351400  0.53419800  0.35601400  1
  Ni  Ni14  1  0.26974200  0.18417900  0.07204700  1
  Ni  Ni15  1  0.76974200  0.31582100  0.92795300  1
  Ni  Ni16  1  0.40635100  0.85586600  0.28347300  1
  Ni  Ni17  1  0.61648600  0.03419800  0.14398600  1
  Ni  Ni18  1  0.88351400  0.53419800  0.14398600  1
  Ni  Ni19  1  0.88351400  0.96580200  0.64398600  1
  Ni  Ni20  1  0.23025800  0.68417900  0.07204700  1
  Ni  Ni21  1  0.26974200  0.31582100  0.57204700  1
  Ni  Ni22  1  0.40635100  0.64413400  0.78347300  1
  Ni  Ni23  1  0.59364900  0.14413400  0.71652700  1
  Ni  Ni24  1  0.73025800  0.68417900  0.42795300  1
  Ni  Ni25  1  0.76974200  0.18417900  0.42795300  1
  Ni  Ni26  1  0.38351400  0.96580200  0.85601400  1
  Ni  Ni27  1  0.61648600  0.46580200  0.64398600  1
  Cu  Cu28  1  0.05497100  0.50795500  0.77477600  1
  Cu  Cu29  1  0.77020500  0.76458800  0.01394100  1
  Cu  Cu30  1  0.55497100  0.99204500  0.22522400  1
  Cu  Cu31  1  0.94502900  0.49204500  0.22522400  1
  Cu  Cu32  1  0.94502900  0.00795500  0.72522400  1
  Cu  Cu33  1  0.27020500  0.76458800  0.48605900  1
  Cu  Cu34  1  0.72979500  0.26458800  0.01394100  1
  Cu  Cu35  1  0.22979500  0.26458800  0.48605900  1
  Cu  Cu36  1  0.72979500  0.23541200  0.51394100  1
  Cu  Cu37  1  0.22979500  0.23541200  0.98605900  1
  Cu  Cu38  1  0.44502900  0.49204500  0.27477600  1
  Cu  Cu39  1  0.05497100  0.99204500  0.27477600  1
  Cu  Cu40  1  0.55497100  0.50795500  0.72522400  1
  Cu  Cu41  1  0.44502900  0.00795500  0.77477600  1
  Cu  Cu42  1  0.77020500  0.73541200  0.51394100  1
  Cu  Cu43  1  0.27020500  0.73541200  0.98605900  1
  C  C44  1  0.40864800  0.96154400  0.67113100  1
  C  C45  1  0.38133700  0.83291900  0.42955400  1
  C  C46  1  0.40864800  0.53845600  0.17113100  1
  C  C47  1  0.94889800  0.60618700  0.79796500  1
  C  C48  1  0.59135200  0.03845600  0.32886900  1
  C  C49  1  0.44889800  0.89381300  0.20203500  1
  C  C50  1  0.55110200  0.39381300  0.29796500  1
  C  C51  1  0.11866300  0.33291900  0.42955400  1
  C  C52  1  0.94889800  0.89381300  0.29796500  1
  C  C53  1  0.28768700  0.35066000  0.94626400  1
  C  C54  1  0.28768700  0.14934000  0.44626400  1
  C  C55  1  0.55110200  0.10618700  0.79796500  1
  C  C56  1  0.44889800  0.60618700  0.70203500  1
  C  C57  1  0.90864800  0.53845600  0.32886900  1
  C  C58  1  0.05110200  0.10618700  0.70203500  1
  C  C59  1  0.05110200  0.39381300  0.20203500  1
  C  C60  1  0.61866300  0.16708100  0.57044600  1
  C  C61  1  0.90864800  0.96154400  0.82886900  1
  C  C62  1  0.59135200  0.46154400  0.82886900  1
  C  C63  1  0.11866300  0.16708100  0.92955400  1
  C  C64  1  0.88133700  0.66708100  0.57044600  1
  C  C65  1  0.88133700  0.83291900  0.07044600  1
  C  C66  1  0.78768700  0.35066000  0.55373600  1
  C  C67  1  0.71231300  0.64934000  0.05373600  1
  C  C68  1  0.38133700  0.66708100  0.92955400  1
  C  C69  1  0.61866300  0.33291900  0.07044600  1
  C  C70  1  0.09135200  0.03845600  0.17113100  1
  C  C71  1  0.21231300  0.85066000  0.94626400  1
  C  C72  1  0.71231300  0.85066000  0.55373600  1
  C  C73  1  0.09135200  0.46154400  0.67113100  1
  C  C74  1  0.78768700  0.14934000  0.05373600  1
  C  C75  1  0.21231300  0.64934000  0.44626400  1
