# generated using pymatgen
data_Cu4NiC11
_symmetry_space_group_name_H-M   'P 1'
_cell_length_a   5.87448225
_cell_length_b   5.87448225
_cell_length_c   5.96575970
_cell_angle_alpha   60.35990012
_cell_angle_beta   60.35990012
_cell_angle_gamma   60.99039884
_symmetry_Int_Tables_number   1
_chemical_formula_structural   Cu4NiC11
_chemical_formula_sum   'Cu4 Ni1 C11'
_cell_volume   147.43896521
_cell_formula_units_Z   1
loop_
 _symmetry_equiv_pos_site_id
 _symmetry_equiv_pos_as_xyz
  1  'x, y, z'
loop_
 _atom_site_type_symbol
 _atom_site_label
 _atom_site_symmetry_multiplicity
 _atom_site_fract_x
 _atom_site_fract_y
 _atom_site_fract_z
 _atom_site_occupancy
  C  C0  1  0.50000000  0.00000000  0.50000000  1
  C  C1  1  0.00000000  0.00000000  0.50000000  1
  C  C2  1  0.00000000  0.50000000  0.50000000  1
  Ni  Ni3  1  0.50000000  0.50000000  0.00000000  1
  Cu  Cu4  1  0.50000000  0.50000000  0.50000000  1
  Cu  Cu5  1  0.00000000  0.00000000  0.00000000  1
  Cu  Cu6  1  0.50000000  0.00000000  0.00000000  1
  Cu  Cu7  1  0.00000000  0.50000000  0.00000000  1
  C  C8  1  0.26205400  0.26205400  0.22675200  1
  C  C9  1  0.74692400  0.27105200  0.22997900  1
  C  C10  1  0.27105200  0.74692400  0.22997900  1
  C  C11  1  0.75162300  0.75162300  0.23352300  1
  C  C12  1  0.24837700  0.24837700  0.76647700  1
  C  C13  1  0.72894800  0.25307600  0.77002100  1
  C  C14  1  0.25307600  0.72894800  0.77002100  1
  C  C15  1  0.73794600  0.73794600  0.77324800  1
