# generated using pymatgen
data_Cu26Ni4C37
_symmetry_space_group_name_H-M   'P 1'
_cell_length_a   7.02434500
_cell_length_b   16.68563500
_cell_length_c   13.55024014
_cell_angle_alpha   90.00000000
_cell_angle_beta   93.50582759
_cell_angle_gamma   90.00000000
_symmetry_Int_Tables_number   1
_chemical_formula_structural   Cu26Ni4C37
_chemical_formula_sum   'Cu52 Ni8 C74'
_cell_volume   1585.19267774
_cell_formula_units_Z   2
loop_
 _symmetry_equiv_pos_site_id
 _symmetry_equiv_pos_as_xyz
  1  'x, y, z'
loop_
 _atom_site_type_symbol
 _atom_site_label
 _atom_site_symmetry_multiplicity
 _atom_site_fract_x
 _atom_site_fract_y
 _atom_site_fract_z
 _atom_site_occupancy
  C  C0  1  0.50244200  0.19065000  0.64918500  1
  C  C1  1  0.49755800  0.69065000  0.85081500  1
  C  C2  1  0.49755800  0.80935000  0.35081500  1
  C  C3  1  0.50244200  0.30935000  0.14918500  1
  C  C4  1  0.28906100  0.33894300  0.93511300  1
  C  C5  1  0.71093900  0.83894300  0.56488700  1
  C  C6  1  0.71093900  0.66105700  0.06488700  1
  C  C7  1  0.28906100  0.16105700  0.43511300  1
  C  C8  1  0.19392900  0.25940400  0.97581400  1
  C  C9  1  0.80607100  0.75940400  0.52418600  1
  C  C10  1  0.80607100  0.74059600  0.02418600  1
  C  C11  1  0.19392900  0.24059600  0.47581400  1
  C  C12  1  0.90111100  0.09912300  0.70108200  1
  C  C13  1  0.09888900  0.59912300  0.79891800  1
  C  C14  1  0.09888900  0.90087700  0.29891800  1
  C  C15  1  0.90111100  0.40087700  0.20108200  1
  C  C16  1  0.75979500  0.06663900  0.77907900  1
  C  C17  1  0.24020500  0.56663900  0.72092100  1
  C  C18  1  0.24020500  0.93336100  0.22092100  1
  C  C19  1  0.75979500  0.43336100  0.27907900  1
  C  C20  1  0.11515000  0.28101900  0.68192800  1
  C  C21  1  0.88485000  0.78101900  0.81807200  1
  C  C22  1  0.88485000  0.71898100  0.31807200  1
  C  C23  1  0.11515000  0.21898100  0.18192800  1
  C  C24  1  0.27456400  0.33494500  0.73575500  1
  C  C25  1  0.72543600  0.83494500  0.76424500  1
  C  C26  1  0.72543600  0.66505500  0.26424500  1
  C  C27  1  0.27456400  0.16505500  0.23575500  1
  C  C28  1  0.48427400  0.15575700  0.88525600  1
  C  C29  1  0.51572600  0.65575700  0.61474400  1
  C  C30  1  0.51572600  0.84424300  0.11474400  1
  C  C31  1  0.48427400  0.34424300  0.38525600  1
  C  C32  1  0.32059200  0.10197200  0.83612800  1
  C  C33  1  0.67940800  0.60197200  0.66387200  1
  C  C34  1  0.67940800  0.89802800  0.16387200  1
  C  C35  1  0.32059200  0.39802800  0.33612800  1
  C  C36  1  0.76035800  0.09853500  0.48826600  1
  C  C37  1  0.23964200  0.59853500  0.01173400  1
  C  C38  1  0.23964200  0.90146500  0.51173400  1
  C  C39  1  0.76035800  0.40146500  0.98826600  1
  C  C40  1  0.69112400  0.17937400  0.44184400  1
  C  C41  1  0.30887600  0.67937400  0.05815600  1
  C  C42  1  0.30887600  0.82062600  0.55815600  1
  C  C43  1  0.69112400  0.32062600  0.94184400  1
  C  C44  1  0.68771800  0.34980900  0.55518200  1
  C  C45  1  0.31228200  0.84980900  0.94481800  1
  C  C46  1  0.31228200  0.65019100  0.44481800  1
  C  C47  1  0.68771800  0.15019100  0.05518200  1
  C  C48  1  0.47111700  0.36946300  0.56270300  1
  C  C49  1  0.52888300  0.86946300  0.93729700  1
  C  C50  1  0.52888300  0.63053700  0.43729700  1
  C  C51  1  0.47111700  0.13053700  0.06270300  1
  C  C52  1  0.40806900  0.44633700  0.85436800  1
  C  C53  1  0.59193100  0.94633700  0.64563200  1
  C  C54  1  0.59193100  0.55366300  0.14563200  1
  C  C55  1  0.40806900  0.05366300  0.35436800  1
  C  C56  1  0.18751400  0.44007000  0.83746700  1
  C  C57  1  0.81248600  0.94007000  0.66253300  1
  C  C58  1  0.81248600  0.55993000  0.16253300  1
  C  C59  1  0.18751400  0.05993000  0.33746700  1
  C  C60  1  0.00000000  0.50000000  0.50000000  1
  C  C61  1  0.00000000  0.00000000  0.00000000  1
  Ni  Ni62  1  0.21930600  0.45567000  0.12165700  1
  Ni  Ni63  1  0.78069400  0.95567000  0.37834300  1
  Ni  Ni64  1  0.78069400  0.54433000  0.87834300  1
  Ni  Ni65  1  0.21930600  0.04433000  0.62165700  1
  Ni  Ni66  1  0.82107100  0.28385400  0.77478700  1
  Ni  Ni67  1  0.17892900  0.78385400  0.72521300  1
  Ni  Ni68  1  0.17892900  0.71614600  0.22521300  1
  Ni  Ni69  1  0.82107100  0.21614600  0.27478700  1
  C  C70  1  0.98841200  0.36283200  0.45973500  1
  C  C71  1  0.01158800  0.86283200  0.04026500  1
  C  C72  1  0.01158800  0.63716800  0.54026500  1
  C  C73  1  0.98841200  0.13716800  0.95973500  1
  C  C74  1  0.29864500  0.48575400  0.58590300  1
  C  C75  1  0.70135500  0.98575400  0.91409700  1
  C  C76  1  0.70135500  0.51424600  0.41409700  1
  C  C77  1  0.29864500  0.01424600  0.08590300  1
  C  C78  1  0.15280500  0.52524400  0.35392500  1
  C  C79  1  0.84719500  0.02524400  0.14607500  1
  C  C80  1  0.84719500  0.47475600  0.64607500  1
  C  C81  1  0.15280500  0.97475600  0.85392500  1
  Cu  Cu82  1  0.28716400  0.30144900  0.99250900  1
  Cu  Cu83  1  0.71283600  0.80144900  0.50749100  1
  Cu  Cu84  1  0.71283600  0.69855100  0.00749100  1
  Cu  Cu85  1  0.28716400  0.19855100  0.49250900  1
  Cu  Cu86  1  0.76513100  0.09136900  0.71335600  1
  Cu  Cu87  1  0.23486900  0.59136900  0.78664400  1
  Cu  Cu88  1  0.23486900  0.90863100  0.28664400  1
  Cu  Cu89  1  0.76513100  0.40863100  0.21335600  1
  Cu  Cu90  1  0.25398600  0.29180000  0.68624600  1
  Cu  Cu91  1  0.74601400  0.79180000  0.81375400  1
  Cu  Cu92  1  0.74601400  0.70820000  0.31375400  1
  Cu  Cu93  1  0.25398600  0.20820000  0.18624600  1
  Cu  Cu94  1  0.41887600  0.14141600  0.82182100  1
  Cu  Cu95  1  0.58112400  0.64141600  0.67817900  1
  Cu  Cu96  1  0.58112400  0.85858400  0.17817900  1
  Cu  Cu97  1  0.41887600  0.35858400  0.32182100  1
  Cu  Cu98  1  0.69441900  0.14848700  0.50373900  1
  Cu  Cu99  1  0.30558100  0.64848700  0.99626100  1
  Cu  Cu100  1  0.30558100  0.85151300  0.49626100  1
  Cu  Cu101  1  0.69441900  0.35151300  0.00373900  1
  Cu  Cu102  1  0.55990100  0.32566300  0.54890900  1
  Cu  Cu103  1  0.44009900  0.82566300  0.95109100  1
  Cu  Cu104  1  0.44009900  0.67433700  0.45109100  1
  Cu  Cu105  1  0.55990100  0.17433700  0.04890900  1
  Cu  Cu106  1  0.15442100  0.39242000  0.16042100  1
  Cu  Cu107  1  0.84557900  0.89242000  0.33957900  1
  Cu  Cu108  1  0.84557900  0.60758000  0.83957900  1
  Cu  Cu109  1  0.15442100  0.10758000  0.66042100  1
  Cu  Cu110  1  0.39985200  0.45763000  0.10977200  1
  Cu  Cu111  1  0.60014800  0.95763000  0.39022800  1
  Cu  Cu112  1  0.60014800  0.54237000  0.89022800  1
  Cu  Cu113  1  0.39985200  0.04237000  0.60977200  1
  Cu  Cu114  1  0.11489700  0.51309600  0.09579800  1
  Cu  Cu115  1  0.88510300  0.01309600  0.40420200  1
  Cu  Cu116  1  0.88510300  0.48690400  0.90420200  1
  Cu  Cu117  1  0.11489700  0.98690400  0.59579800  1
  Cu  Cu118  1  0.85679100  0.25870000  0.68845600  1
  Cu  Cu119  1  0.14320900  0.75870000  0.81154400  1
  Cu  Cu120  1  0.14320900  0.74130000  0.31154400  1
  Cu  Cu121  1  0.85679100  0.24130000  0.18845600  1
  Cu  Cu122  1  0.64856500  0.27622700  0.80081400  1
  Cu  Cu123  1  0.35143500  0.77622700  0.69918600  1
  Cu  Cu124  1  0.35143500  0.72377300  0.19918600  1
  Cu  Cu125  1  0.64856500  0.22377300  0.30081400  1
  Cu  Cu126  1  0.94537800  0.31395100  0.83166600  1
  Cu  Cu127  1  0.05462200  0.81395100  0.66833400  1
  Cu  Cu128  1  0.05462200  0.68604900  0.16833400  1
  Cu  Cu129  1  0.94537800  0.18604900  0.33166600  1
  Cu  Cu130  1  0.30376900  0.40763700  0.84245300  1
  Cu  Cu131  1  0.69623100  0.90763700  0.65754700  1
  Cu  Cu132  1  0.69623100  0.59236300  0.15754700  1
  Cu  Cu133  1  0.30376900  0.09236300  0.34245300  1
