# generated using pymatgen
data_Cu3Ni2C5
_symmetry_space_group_name_H-M   'P 1'
_cell_length_a   8.90846700
_cell_length_b   5.60825600
_cell_length_c   11.07387087
_cell_angle_alpha   68.76826875
_cell_angle_beta   90.00000000
_cell_angle_gamma   90.00000000
_symmetry_Int_Tables_number   1
_chemical_formula_structural   Cu3Ni2C5
_chemical_formula_sum   'Cu12 Ni8 C20'
_cell_volume   515.70775693
_cell_formula_units_Z   4
loop_
 _symmetry_equiv_pos_site_id
 _symmetry_equiv_pos_as_xyz
  1  'x, y, z'
loop_
 _atom_site_type_symbol
 _atom_site_label
 _atom_site_symmetry_multiplicity
 _atom_site_fract_x
 _atom_site_fract_y
 _atom_site_fract_z
 _atom_site_occupancy
  Ni  Ni0  1  0.99278600  0.29104800  0.86268600  1
  Ni  Ni1  1  0.49278600  0.70895200  0.63731400  1
  Ni  Ni2  1  0.00721400  0.70895200  0.13731400  1
  Ni  Ni3  1  0.50721400  0.29104800  0.36268600  1
  Ni  Ni4  1  0.72786600  0.27991200  0.60921100  1
  Ni  Ni5  1  0.22786600  0.72008800  0.89078900  1
  Ni  Ni6  1  0.27213400  0.72008800  0.39078900  1
  Ni  Ni7  1  0.77213400  0.27991200  0.10921100  1
  Cu  Cu8  1  0.26147000  0.38275600  0.20098700  1
  Cu  Cu9  1  0.76147000  0.61724400  0.29901300  1
  Cu  Cu10  1  0.73853000  0.61724400  0.79901300  1
  Cu  Cu11  1  0.23853000  0.38275600  0.70098700  1
  Cu  Cu12  1  0.03528300  0.09337100  0.29723400  1
  Cu  Cu13  1  0.53528300  0.90662900  0.20276600  1
  Cu  Cu14  1  0.96471700  0.90662900  0.70276600  1
  Cu  Cu15  1  0.46471700  0.09337100  0.79723400  1
  Cu  Cu16  1  0.49102800  0.62849400  0.06985700  1
  Cu  Cu17  1  0.99102800  0.37150600  0.43014300  1
  Cu  Cu18  1  0.50897200  0.37150600  0.93014300  1
  Cu  Cu19  1  0.00897200  0.62849400  0.56985700  1
  C  C20  1  0.28855900  0.10278600  0.06350800  1
  C  C21  1  0.78855900  0.89721400  0.43649200  1
  C  C22  1  0.71144100  0.89721400  0.93649200  1
  C  C23  1  0.21144100  0.10278600  0.56350800  1
  C  C24  1  0.32222400  0.74948100  0.14243000  1
  C  C25  1  0.82222400  0.25051900  0.35757000  1
  C  C26  1  0.67777600  0.25051900  0.85757000  1
  C  C27  1  0.17777600  0.74948100  0.64243000  1
  C  C28  1  0.18989400  0.23247600  0.38176200  1
  C  C29  1  0.68989400  0.76752400  0.11823800  1
  C  C30  1  0.81010600  0.76752400  0.61823800  1
  C  C31  1  0.31010600  0.23247600  0.88176200  1
  C  C32  1  0.10904000  0.21747000  0.11503900  1
  C  C33  1  0.60904000  0.78253000  0.38496100  1
  C  C34  1  0.89096000  0.78253000  0.88496100  1
  C  C35  1  0.39096000  0.21747000  0.61503900  1
  C  C36  1  0.05136700  0.25835200  0.62349200  1
  C  C37  1  0.55136700  0.74164800  0.87650800  1
  C  C38  1  0.94863300  0.74164800  0.37650800  1
  C  C39  1  0.44863300  0.25835200  0.12349200  1
