# generated using pymatgen
data_Cu5(Ni3C4)2
_symmetry_space_group_name_H-M   'P 1'
_cell_length_a   10.02182600
_cell_length_b   9.62480900
_cell_length_c   18.22168187
_cell_angle_alpha   72.23961394
_cell_angle_beta   90.00000000
_cell_angle_gamma   90.00000000
_symmetry_Int_Tables_number   1
_chemical_formula_structural   Cu5(Ni3C4)2
_chemical_formula_sum   'Cu20 Ni24 C32'
_cell_volume   1673.86219795
_cell_formula_units_Z   4
loop_
 _symmetry_equiv_pos_site_id
 _symmetry_equiv_pos_as_xyz
  1  'x, y, z'
loop_
 _atom_site_type_symbol
 _atom_site_label
 _atom_site_symmetry_multiplicity
 _atom_site_fract_x
 _atom_site_fract_y
 _atom_site_fract_z
 _atom_site_occupancy
  C  C0  1  0.71912600  0.22390000  0.53988700  1
  C  C1  1  0.78087400  0.22390000  0.03988700  1
  C  C2  1  0.28087400  0.77610000  0.46011300  1
  C  C3  1  0.21912600  0.77610000  0.96011300  1
  C  C4  1  0.95285300  0.14298400  0.66792600  1
  C  C5  1  0.54714700  0.14298400  0.16792600  1
  C  C6  1  0.04714700  0.85701600  0.33207400  1
  C  C7  1  0.45285300  0.85701600  0.83207400  1
  C  C8  1  0.99166000  0.26927000  0.50598400  1
  C  C9  1  0.50834000  0.26927000  0.00598400  1
  C  C10  1  0.00834000  0.73073000  0.49401600  1
  C  C11  1  0.49166000  0.73073000  0.99401600  1
  C  C12  1  0.71367700  0.53187600  0.67954700  1
  C  C13  1  0.78632300  0.53187600  0.17954700  1
  C  C14  1  0.28632300  0.46812400  0.32045300  1
  C  C15  1  0.21367700  0.46812400  0.82045300  1
  C  C16  1  0.83676400  0.50320900  0.60691100  1
  C  C17  1  0.66323600  0.50320900  0.10691100  1
  C  C18  1  0.16323600  0.49679100  0.39308900  1
  C  C19  1  0.33676400  0.49679100  0.89308900  1
  Ni  Ni20  1  0.93648000  0.11651400  0.79889000  1
  Ni  Ni21  1  0.56352000  0.11651400  0.29889000  1
  Ni  Ni22  1  0.06352000  0.88348600  0.20111000  1
  Ni  Ni23  1  0.43648000  0.88348600  0.70111000  1
  Ni  Ni24  1  0.73673700  0.35765400  0.40954700  1
  Ni  Ni25  1  0.76326300  0.35765400  0.90954700  1
  Ni  Ni26  1  0.26326300  0.64234600  0.59045300  1
  Ni  Ni27  1  0.23673700  0.64234600  0.09045300  1
  Ni  Ni28  1  0.17798100  0.20804000  0.65126300  1
  Ni  Ni29  1  0.32201900  0.20804000  0.15126300  1
  Ni  Ni30  1  0.82201900  0.79196000  0.34873700  1
  Ni  Ni31  1  0.67798100  0.79196000  0.84873700  1
  Ni  Ni32  1  0.69567800  0.99715000  0.51992000  1
  Ni  Ni33  1  0.80432200  0.99715000  0.01992000  1
  Ni  Ni34  1  0.30432200  0.00285000  0.48008000  1
  Ni  Ni35  1  0.19567800  0.00285000  0.98008000  1
  Ni  Ni36  1  0.49452800  0.27205200  0.55616700  1
  Ni  Ni37  1  0.00547200  0.27205200  0.05616700  1
  Ni  Ni38  1  0.50547200  0.72794800  0.44383300  1
  Ni  Ni39  1  0.99452800  0.72794800  0.94383300  1
  Ni  Ni40  1  0.98312000  0.89906000  0.67572500  1
  Ni  Ni41  1  0.51688000  0.89906000  0.17572500  1
  Ni  Ni42  1  0.01688000  0.10094000  0.32427500  1
  Ni  Ni43  1  0.48312000  0.10094000  0.82427500  1
  Cu  Cu44  1  0.75736500  0.15179600  0.65173600  1
  Cu  Cu45  1  0.74263500  0.15179600  0.15173600  1
  Cu  Cu46  1  0.24263500  0.84820400  0.34826400  1
  Cu  Cu47  1  0.25736500  0.84820400  0.84826400  1
  Cu  Cu48  1  0.92918500  0.21068000  0.54613700  1
  Cu  Cu49  1  0.57081500  0.21068000  0.04613700  1
  Cu  Cu50  1  0.07081500  0.78932000  0.45386300  1
  Cu  Cu51  1  0.42918500  0.78932000  0.95386300  1
  Cu  Cu52  1  0.75425400  0.45030700  0.55299600  1
  Cu  Cu53  1  0.74574600  0.45030700  0.05299600  1
  Cu  Cu54  1  0.24574600  0.54969300  0.44700400  1
  Cu  Cu55  1  0.25425400  0.54969300  0.94700400  1
  Cu  Cu56  1  0.93122900  0.39101200  0.65257100  1
  Cu  Cu57  1  0.56877100  0.39101200  0.15257100  1
  Cu  Cu58  1  0.06877100  0.60898800  0.34742900  1
  Cu  Cu59  1  0.43122900  0.60898800  0.84742900  1
  Cu  Cu60  1  0.89621500  0.64420300  0.57168500  1
  Cu  Cu61  1  0.60378500  0.64420300  0.07168500  1
  Cu  Cu62  1  0.10378500  0.35579700  0.42831500  1
  Cu  Cu63  1  0.39621500  0.35579700  0.92831500  1
  C  C64  1  0.65335200  0.40481900  0.71636100  1
  C  C65  1  0.84664800  0.40481900  0.21636100  1
  C  C66  1  0.34664800  0.59518100  0.28363900  1
  C  C67  1  0.15335200  0.59518100  0.78363900  1
  C  C68  1  0.62188400  0.63023800  0.64278500  1
  C  C69  1  0.87811600  0.63023800  0.14278500  1
  C  C70  1  0.37811600  0.36976200  0.35721500  1
  C  C71  1  0.12188400  0.36976200  0.85721500  1
  C  C72  1  0.77980400  0.58147500  0.73087200  1
  C  C73  1  0.72019600  0.58147500  0.23087200  1
  C  C74  1  0.22019600  0.41852500  0.26912800  1
  C  C75  1  0.27980400  0.41852500  0.76912800  1
