# generated using pymatgen
data_Cu(NiC2)3
_symmetry_space_group_name_H-M   'P 1'
_cell_length_a   7.07046808
_cell_length_b   7.07046808
_cell_length_c   17.32027600
_cell_angle_alpha   90.00000000
_cell_angle_beta   90.00000000
_cell_angle_gamma   120.00000077
_symmetry_Int_Tables_number   1
_chemical_formula_structural   Cu(NiC2)3
_chemical_formula_sum   'Cu4 Ni12 C24'
_cell_volume   749.86273030
_cell_formula_units_Z   4
loop_
 _symmetry_equiv_pos_site_id
 _symmetry_equiv_pos_as_xyz
  1  'x, y, z'
loop_
 _atom_site_type_symbol
 _atom_site_label
 _atom_site_symmetry_multiplicity
 _atom_site_fract_x
 _atom_site_fract_y
 _atom_site_fract_z
 _atom_site_occupancy
  Ni  Ni0  1  0.16962700  0.83037300  0.20940700  1
  Ni  Ni1  1  0.84321200  0.15678800  0.53982000  1
  Ni  Ni2  1  0.50450700  0.49549300  0.87136800  1
  Ni  Ni3  1  0.16962700  0.33925400  0.20940700  1
  Ni  Ni4  1  0.84321200  0.68642400  0.53982000  1
  Ni  Ni5  1  0.50450700  0.00901400  0.87136800  1
  Ni  Ni6  1  0.33333300  0.66666700  0.04067200  1
  Ni  Ni7  1  0.00000000  0.00000000  0.38342800  1
  Ni  Ni8  1  0.66666700  0.33333300  0.71416100  1
  Ni  Ni9  1  0.66074600  0.83037300  0.20940700  1
  Ni  Ni10  1  0.31357600  0.15678800  0.53982000  1
  Ni  Ni11  1  0.99098600  0.49549300  0.87136800  1
  Cu  Cu12  1  0.00000000  0.00000000  0.99968600  1
  Cu  Cu13  1  0.66666700  0.33333300  0.33559100  1
  Cu  Cu14  1  0.33333300  0.66666700  0.66442400  1
  Cu  Cu15  1  0.66666700  0.33333300  0.08276000  1
  C  C16  1  0.17958900  0.82041100  0.95528400  1
  C  C17  1  0.84658700  0.15341300  0.28840200  1
  C  C18  1  0.51303500  0.48696500  0.62158700  1
  C  C19  1  0.17958900  0.35917800  0.95528400  1
  C  C20  1  0.84658700  0.69317300  0.28840200  1
  C  C21  1  0.51303500  0.02606900  0.62158700  1
  C  C22  1  0.33333300  0.66666700  0.80111700  1
  C  C23  1  0.00000000  0.00000000  0.13489800  1
  C  C24  1  0.66666700  0.33333300  0.46853400  1
  C  C25  1  0.64082200  0.82041100  0.95528400  1
  C  C26  1  0.30682700  0.15341300  0.28840200  1
  C  C27  1  0.97393100  0.48696500  0.62158700  1
  C  C28  1  0.82035100  0.17964900  0.79597200  1
  C  C29  1  0.48659300  0.51340700  0.12777400  1
  C  C30  1  0.15446100  0.84553900  0.46087600  1
  C  C31  1  0.82035100  0.64070200  0.79597200  1
  C  C32  1  0.48659300  0.97318500  0.12777400  1
  C  C33  1  0.15446100  0.30892300  0.46087600  1
  C  C34  1  0.66666700  0.33333300  0.94913600  1
  C  C35  1  0.33333300  0.66666700  0.28099800  1
  C  C36  1  0.00000000  0.00000000  0.61646000  1
  C  C37  1  0.35929800  0.17964900  0.79597200  1
  C  C38  1  0.02681500  0.51340700  0.12777400  1
  C  C39  1  0.69107700  0.84553900  0.46087600  1
