# generated using pymatgen
data_Cu4NiC11
_symmetry_space_group_name_H-M   'P 1'
_cell_length_a   7.34538900
_cell_length_b   7.34538900
_cell_length_c   14.94235600
_cell_angle_alpha   90.00000000
_cell_angle_beta   90.00000000
_cell_angle_gamma   90.00000000
_symmetry_Int_Tables_number   1
_chemical_formula_structural   Cu4NiC11
_chemical_formula_sum   'Cu16 Ni4 C44'
_cell_volume   806.21092641
_cell_formula_units_Z   4
loop_
 _symmetry_equiv_pos_site_id
 _symmetry_equiv_pos_as_xyz
  1  'x, y, z'
loop_
 _atom_site_type_symbol
 _atom_site_label
 _atom_site_symmetry_multiplicity
 _atom_site_fract_x
 _atom_site_fract_y
 _atom_site_fract_z
 _atom_site_occupancy
  Ni  Ni0  1  0.50000000  0.50000000  0.50000000  1
  Ni  Ni1  1  0.00000000  0.00000000  0.50000000  1
  Ni  Ni2  1  0.00000000  0.00000000  0.00000000  1
  Ni  Ni3  1  0.50000000  0.50000000  0.00000000  1
  C  C4  1  0.50000000  0.00000000  0.56886600  1
  C  C5  1  0.00000000  0.50000000  0.93113400  1
  C  C6  1  0.00000000  0.50000000  0.43113400  1
  C  C7  1  0.50000000  0.00000000  0.06886600  1
  Cu  Cu8  1  0.15820600  0.24036100  0.64528100  1
  Cu  Cu9  1  0.84179400  0.75963900  0.64528100  1
  Cu  Cu10  1  0.24036100  0.15820600  0.85471900  1
  Cu  Cu11  1  0.74036100  0.34179400  0.64528100  1
  Cu  Cu12  1  0.25963900  0.65820600  0.64528100  1
  Cu  Cu13  1  0.34179400  0.74036100  0.85471900  1
  Cu  Cu14  1  0.65820600  0.25963900  0.85471900  1
  Cu  Cu15  1  0.75963900  0.84179400  0.85471900  1
  Cu  Cu16  1  0.34179400  0.25963900  0.35471900  1
  Cu  Cu17  1  0.65820600  0.74036100  0.35471900  1
  Cu  Cu18  1  0.25963900  0.34179400  0.14528100  1
  Cu  Cu19  1  0.75963900  0.15820600  0.35471900  1
  Cu  Cu20  1  0.24036100  0.84179400  0.35471900  1
  Cu  Cu21  1  0.15820600  0.75963900  0.14528100  1
  Cu  Cu22  1  0.84179400  0.24036100  0.14528100  1
  Cu  Cu23  1  0.74036100  0.65820600  0.14528100  1
  C  C24  1  0.22929300  0.08611500  0.57556000  1
  C  C25  1  0.77070700  0.91388500  0.57556000  1
  C  C26  1  0.08611500  0.22929300  0.92444000  1
  C  C27  1  0.58611500  0.27070700  0.57556000  1
  C  C28  1  0.41388500  0.72929300  0.57556000  1
  C  C29  1  0.27070700  0.58611500  0.92444000  1
  C  C30  1  0.72929300  0.41388500  0.92444000  1
  C  C31  1  0.91388500  0.77070700  0.92444000  1
  C  C32  1  0.27070700  0.41388500  0.42444000  1
  C  C33  1  0.72929300  0.58611500  0.42444000  1
  C  C34  1  0.41388500  0.27070700  0.07556000  1
  C  C35  1  0.91388500  0.22929300  0.42444000  1
  C  C36  1  0.08611500  0.77070700  0.42444000  1
  C  C37  1  0.22929300  0.91388500  0.07556000  1
  C  C38  1  0.77070700  0.08611500  0.07556000  1
  C  C39  1  0.25318300  0.06025700  0.37365300  1
  C  C40  1  0.58611500  0.72929300  0.07556000  1
  C  C41  1  0.75318300  0.56025700  0.62634700  1
  C  C42  1  0.43974300  0.24681700  0.87365300  1
  C  C43  1  0.93974300  0.25318300  0.62634700  1
  C  C44  1  0.06025700  0.74681700  0.62634700  1
  C  C45  1  0.25318300  0.93974300  0.87365300  1
  C  C46  1  0.74681700  0.06025700  0.87365300  1
  C  C47  1  0.56025700  0.75318300  0.87365300  1
  C  C48  1  0.69248600  0.69248600  0.25000000  1
  C  C49  1  0.80751400  0.19248600  0.25000000  1
  C  C50  1  0.19248600  0.80751400  0.25000000  1
  C  C51  1  0.30751400  0.30751400  0.25000000  1
  C  C52  1  0.80751400  0.80751400  0.75000000  1
  C  C53  1  0.69248600  0.30751400  0.75000000  1
  C  C54  1  0.30751400  0.69248600  0.75000000  1
  C  C55  1  0.19248600  0.19248600  0.75000000  1
  C  C56  1  0.93974300  0.74681700  0.12634700  1
  C  C57  1  0.75318300  0.43974300  0.12634700  1
  C  C58  1  0.24681700  0.56025700  0.12634700  1
  C  C59  1  0.43974300  0.75318300  0.37365300  1
  C  C60  1  0.56025700  0.24681700  0.37365300  1
  C  C61  1  0.06025700  0.25318300  0.12634700  1
  C  C62  1  0.74681700  0.93974300  0.37365300  1
  C  C63  1  0.24681700  0.43974300  0.62634700  1
