# generated using pymatgen
data_Cu3Ni3C17
_symmetry_space_group_name_H-M   'P 1'
_cell_length_a   5.27856726
_cell_length_b   15.26840695
_cell_length_c   16.33745156
_cell_angle_alpha   90.00000000
_cell_angle_beta   90.00000000
_cell_angle_gamma   90.00000000
_symmetry_Int_Tables_number   1
_chemical_formula_structural   Cu3Ni3C17
_chemical_formula_sum   'Cu12 Ni12 C68'
_cell_volume   1316.72202273
_cell_formula_units_Z   4
loop_
 _symmetry_equiv_pos_site_id
 _symmetry_equiv_pos_as_xyz
  1  'x, y, z'
loop_
 _atom_site_type_symbol
 _atom_site_label
 _atom_site_symmetry_multiplicity
 _atom_site_fract_x
 _atom_site_fract_y
 _atom_site_fract_z
 _atom_site_occupancy
  C  C0  1  0.96367930  0.24554400  0.91981079  1
  C  C1  1  0.46367930  0.75445600  0.08018921  1
  C  C2  1  0.46367930  0.74554400  0.58018921  1
  C  C3  1  0.96367930  0.25445600  0.41981079  1
  C  C4  1  0.45822438  0.25526717  0.59322713  1
  C  C5  1  0.95822438  0.74473283  0.40677287  1
  C  C6  1  0.95822438  0.75526717  0.90677287  1
  C  C7  1  0.45822438  0.24473283  0.09322713  1
  C  C8  1  0.54356194  0.48852925  0.77885195  1
  C  C9  1  0.04356194  0.51147075  0.22114805  1
  C  C10  1  0.04356194  0.98852925  0.72114805  1
  C  C11  1  0.54356194  0.01147075  0.27885195  1
  Ni  Ni12  1  0.98058043  0.24581447  0.70481685  1
  Ni  Ni13  1  0.48058043  0.75418553  0.29518315  1
  Ni  Ni14  1  0.48058043  0.74581447  0.79518315  1
  Ni  Ni15  1  0.98058043  0.25418553  0.20481685  1
  Ni  Ni16  1  0.49034827  0.39158201  0.95283686  1
  Ni  Ni17  1  0.99034827  0.60841799  0.04716314  1
  Ni  Ni18  1  0.99034827  0.89158201  0.54716314  1
  Ni  Ni19  1  0.49034827  0.10841799  0.45283686  1
  Ni  Ni20  1  0.50409290  0.10474680  0.94950894  1
  Ni  Ni21  1  0.00409290  0.89525320  0.05049106  1
  Ni  Ni22  1  0.00409290  0.60474680  0.55049106  1
  Ni  Ni23  1  0.50409290  0.39525320  0.44950894  1
  Cu  Cu24  1  0.48374840  0.25341929  0.80819530  1
  Cu  Cu25  1  0.98374840  0.74658071  0.19180470  1
  Cu  Cu26  1  0.98374840  0.75341929  0.69180470  1
  Cu  Cu27  1  0.48374840  0.24658071  0.30819530  1
  Cu  Cu28  1  0.00788593  0.39157197  0.56152678  1
  Cu  Cu29  1  0.50788593  0.60842803  0.43847322  1
  Cu  Cu30  1  0.50788593  0.89157197  0.93847322  1
  Cu  Cu31  1  0.00788593  0.10842803  0.06152678  1
  Cu  Cu32  1  0.99127581  0.11137380  0.55894768  1
  Cu  Cu33  1  0.49127581  0.88862620  0.44105232  1
  Cu  Cu34  1  0.49127581  0.61137380  0.94105232  1
  Cu  Cu35  1  0.99127581  0.38862620  0.05894768  1
  C  C36  1  0.15040638  0.48412676  0.85113617  1
  C  C37  1  0.65040638  0.51587324  0.14886383  1
  C  C38  1  0.65040638  0.98412676  0.64886383  1
  C  C39  1  0.15040638  0.01587324  0.35113617  1
  C  C40  1  0.58309224  0.17563913  0.86863108  1
  C  C41  1  0.08309224  0.82436087  0.13136892  1
  C  C42  1  0.08309224  0.67563913  0.63136892  1
  C  C43  1  0.58309224  0.32436087  0.36863108  1
  C  C44  1  0.17805184  0.24593555  0.79186047  1
  C  C45  1  0.67805184  0.75406445  0.20813953  1
  C  C46  1  0.67805184  0.74593555  0.70813953  1
  C  C47  1  0.17805184  0.25406445  0.29186047  1
  C  C48  1  0.07834511  0.33243196  0.64148003  1
  C  C49  1  0.57834511  0.66756804  0.35851997  1
  C  C50  1  0.57834511  0.83243196  0.85851997  1
  C  C51  1  0.07834511  0.16756804  0.14148003  1
  C  C52  1  0.72117444  0.14628006  0.52251554  1
  C  C53  1  0.22117444  0.85371994  0.47748446  1
  C  C54  1  0.22117444  0.64628006  0.97748446  1
  C  C55  1  0.72117444  0.35371994  0.02251554  1
  C  C56  1  0.20831639  0.14798659  0.49590033  1
  C  C57  1  0.70831639  0.85201341  0.50409967  1
  C  C58  1  0.70831639  0.64798659  0.00409967  1
  C  C59  1  0.20831639  0.35201341  0.99590033  1
  C  C60  1  0.04428090  0.14671618  0.65147067  1
  C  C61  1  0.54428090  0.85328382  0.34852933  1
  C  C62  1  0.54428090  0.64671618  0.84852933  1
  C  C63  1  0.04428090  0.35328382  0.15147067  1
  C  C64  1  0.65152414  0.25203058  0.72381384  1
  C  C65  1  0.15152414  0.74796942  0.27618616  1
  C  C66  1  0.15152414  0.75203058  0.77618616  1
  C  C67  1  0.65152414  0.24796942  0.22381384  1
  C  C68  1  0.20838424  0.36293103  0.48941794  1
  C  C69  1  0.70838424  0.63706897  0.51058206  1
  C  C70  1  0.70838424  0.86293103  0.01058206  1
  C  C71  1  0.20838424  0.13706897  0.98941794  1
  C  C72  1  0.54438996  0.34761016  0.85487551  1
  C  C73  1  0.04438996  0.65238984  0.14512449  1
  C  C74  1  0.04438996  0.84761016  0.64512449  1
  C  C75  1  0.54438996  0.15238984  0.35487551  1
  C  C76  1  0.59967910  0.48638182  0.63008394  1
  C  C77  1  0.09967910  0.51361818  0.36991606  1
  C  C78  1  0.09967910  0.98638182  0.86991606  1
  C  C79  1  0.59967910  0.01361818  0.13008394  1
  C  C80  1  0.72267859  0.36544940  0.52836478  1
  C  C81  1  0.22267859  0.63455060  0.47163522  1
  C  C82  1  0.22267859  0.86544940  0.97163522  1
  C  C83  1  0.72267859  0.13455060  0.02836478  1
  C  C84  1  0.00201738  0.00435285  0.56483741  1
  C  C85  1  0.50201738  0.99564715  0.43516259  1
  C  C86  1  0.50201738  0.50435285  0.93516259  1
  C  C87  1  0.00201738  0.49564715  0.06483741  1
  C  C88  1  0.02446194  0.49594768  0.58283217  1
  C  C89  1  0.52446194  0.50405232  0.41716783  1
  C  C90  1  0.52446194  0.99594768  0.91716783  1
  C  C91  1  0.02446194  0.00405232  0.08283217  1
