# generated using pymatgen
data_Cu9(Ni6C19)2
_symmetry_space_group_name_H-M   'P 1'
_cell_length_a   6.44198712
_cell_length_b   10.49992900
_cell_length_c   10.49992900
_cell_angle_alpha   60.00000000
_cell_angle_beta   90.00000000
_cell_angle_gamma   90.00000000
_symmetry_Int_Tables_number   1
_chemical_formula_structural   Cu9(Ni6C19)2
_chemical_formula_sum   'Cu9 Ni12 C38'
_cell_volume   615.06810833
_cell_formula_units_Z   1
loop_
 _symmetry_equiv_pos_site_id
 _symmetry_equiv_pos_as_xyz
  1  'x, y, z'
loop_
 _atom_site_type_symbol
 _atom_site_label
 _atom_site_symmetry_multiplicity
 _atom_site_fract_x
 _atom_site_fract_y
 _atom_site_fract_z
 _atom_site_occupancy
  C  C0  1  0.00493200  0.00000000  0.00000000  1
  C  C1  1  0.66173500  0.33333300  0.33333300  1
  Ni  Ni2  1  0.83333300  0.16666700  0.16666700  1
  Ni  Ni3  1  0.49683000  0.50572400  0.50796200  1
  Ni  Ni4  1  0.16983700  0.82760900  0.82537100  1
  Ni  Ni5  1  0.17368800  0.33333300  0.33333300  1
  Ni  Ni6  1  0.83333300  0.66666700  0.66666700  1
  Ni  Ni7  1  0.49297900  0.00000000  0.00000000  1
  Ni  Ni8  1  0.83333300  0.16666700  0.66666700  1
  Ni  Ni9  1  0.49683000  0.50796200  0.98631400  1
  Ni  Ni10  1  0.16983700  0.82537100  0.34701900  1
  Ni  Ni11  1  0.16983700  0.34701900  0.82760900  1
  Ni  Ni12  1  0.83333300  0.66666700  0.16666700  1
  Ni  Ni13  1  0.49683000  0.98631400  0.50572400  1
  Cu  Cu14  1  0.33333300  0.16666700  0.16666700  1
  Cu  Cu15  1  0.99564200  0.49870300  0.49896100  1
  Cu  Cu16  1  0.67102500  0.83463000  0.83437200  1
  Cu  Cu17  1  0.67102500  0.33099600  0.83463000  1
  Cu  Cu18  1  0.33333300  0.66666700  0.16666700  1
  Cu  Cu19  1  0.99564200  0.00233700  0.49870300  1
  Cu  Cu20  1  0.99564200  0.49896100  0.00233700  1
  Cu  Cu21  1  0.67102500  0.83437200  0.33099600  1
  Cu  Cu22  1  0.33333300  0.16666700  0.66666700  1
  C  C23  1  0.24539800  0.44207700  0.62266000  1
  C  C24  1  0.91883000  0.78524700  0.95947600  1
  C  C25  1  0.58410600  0.11863400  0.29198600  1
  C  C26  1  0.35208700  0.34973500  0.17671500  1
  C  C27  1  0.00440900  0.68374200  0.50244800  1
  C  C28  1  0.68701100  0.01660600  0.84333800  1
  C  C29  1  0.97965600  0.31672700  0.48999500  1
  C  C30  1  0.66225700  0.64959200  0.83088600  1
  C  C31  1  0.31458000  0.98359900  0.15661800  1
  C  C32  1  0.08256000  0.21469900  0.04134700  1
  C  C33  1  0.74783700  0.54808600  0.37385700  1
  C  C34  1  0.42126800  0.89125700  0.71067400  1
  C  C35  1  0.42126800  0.39807000  0.89125700  1
  C  C36  1  0.08256000  0.74395400  0.21469900  1
  C  C37  1  0.74783700  0.07805500  0.54808600  1
  C  C38  1  0.66225700  0.51952300  0.64959200  1
  C  C39  1  0.31458000  0.85978400  0.98359900  1
  C  C40  1  0.97965600  0.19327700  0.31672700  1
  C  C41  1  0.68701100  0.14005600  0.01660600  1
  C  C42  1  0.35208700  0.47354900  0.34973500  1
  C  C43  1  0.00440900  0.81381100  0.68374200  1
  C  C44  1  0.91883000  0.25527800  0.78524700  1
  C  C45  1  0.58410600  0.58937900  0.11863400  1
  C  C46  1  0.24539800  0.93526400  0.44207700  1
  C  C47  1  0.00440900  0.50244800  0.81381100  1
  C  C48  1  0.68701100  0.84333800  0.14005600  1
  C  C49  1  0.35208700  0.17671500  0.47354900  1
  C  C50  1  0.58410600  0.29198600  0.58937900  1
  C  C51  1  0.24539800  0.62266000  0.93526400  1
  C  C52  1  0.91883000  0.95947600  0.25527800  1
  C  C53  1  0.74783700  0.37385700  0.07805500  1
  C  C54  1  0.42126800  0.71067400  0.39807000  1
  C  C55  1  0.08256000  0.04134700  0.74395400  1
  C  C56  1  0.31458000  0.15661800  0.85978400  1
  C  C57  1  0.97965600  0.48999500  0.19327700  1
  C  C58  1  0.66225700  0.83088600  0.51952300  1
