# generated using pymatgen
data_Cu(NiC)3
_symmetry_space_group_name_H-M   'P 1'
_cell_length_a   7.62292669
_cell_length_b   7.62292669
_cell_length_c   7.62292669
_cell_angle_alpha   120.18918775
_cell_angle_beta   119.82572425
_cell_angle_gamma   89.98737459
_symmetry_Int_Tables_number   1
_chemical_formula_structural   Cu(NiC)3
_chemical_formula_sum   'Cu2 Ni6 C6'
_cell_volume   313.18129082
_cell_formula_units_Z   2
loop_
 _symmetry_equiv_pos_site_id
 _symmetry_equiv_pos_as_xyz
  1  'x, y, z'
loop_
 _atom_site_type_symbol
 _atom_site_label
 _atom_site_symmetry_multiplicity
 _atom_site_fract_x
 _atom_site_fract_y
 _atom_site_fract_z
 _atom_site_occupancy
  C  C0  1  0.75478400  0.00456200  0.24977900  1
  C  C1  1  0.75478400  0.50500500  0.75022100  1
  C  C2  1  0.75902200  0.00000700  0.75901500  1
  C  C3  1  0.24099100  0.00000700  0.24098500  1
  C  C4  1  0.11482600  0.61482600  0.50000000  1
  C  C5  1  0.37709900  0.37709900  0.00000000  1
  Ni  Ni6  1  0.98429100  0.76477900  0.21951300  1
  Ni  Ni7  1  0.54526600  0.76477900  0.78048700  1
  Ni  Ni8  1  0.51863400  0.23299400  0.71436000  1
  Ni  Ni9  1  0.51863400  0.80427400  0.28564000  1
  Ni  Ni10  1  0.51589900  0.23516400  0.28073500  1
  Ni  Ni11  1  0.95442900  0.23516400  0.71926500  1
  Cu  Cu12  1  0.98067000  0.76823400  0.78756400  1
  Cu  Cu13  1  0.98067000  0.19310600  0.21243600  1
