# generated using pymatgen
data_Cu5NiC36
_symmetry_space_group_name_H-M   'P 1'
_cell_length_a   7.41771250
_cell_length_b   7.86381601
_cell_length_c   10.23421030
_cell_angle_alpha   107.46449630
_cell_angle_beta   86.38250235
_cell_angle_gamma   94.32004239
_symmetry_Int_Tables_number   1
_chemical_formula_structural   Cu5NiC36
_chemical_formula_sum   'Cu5 Ni1 C36'
_cell_volume   567.32573880
_cell_formula_units_Z   1
loop_
 _symmetry_equiv_pos_site_id
 _symmetry_equiv_pos_as_xyz
  1  'x, y, z'
loop_
 _atom_site_type_symbol
 _atom_site_label
 _atom_site_symmetry_multiplicity
 _atom_site_fract_x
 _atom_site_fract_y
 _atom_site_fract_z
 _atom_site_occupancy
  Ni  Ni0  1  0.84029945  0.45221972  0.73389489  1
  Cu  Cu1  1  0.24748127  0.86378349  0.58442170  1
  Cu  Cu2  1  0.25804035  0.84787187  0.06717765  1
  Cu  Cu3  1  0.50093422  0.50065067  0.99489571  1
  Cu  Cu4  1  0.73063251  0.14501202  0.95008609  1
  Cu  Cu5  1  0.73861158  0.13093432  0.38333107  1
  C  C6  1  0.16141871  0.20783615  0.02282155  1
  C  C7  1  0.15753645  0.18222888  0.30748066  1
  C  C8  1  0.28144625  0.55965003  0.74881335  1
  C  C9  1  0.47089659  0.75599263  0.30612438  1
  C  C10  1  0.52058800  0.24471346  0.67944489  1
  C  C11  1  0.69299176  0.44331261  0.25010224  1
  C  C12  1  0.85579987  0.82488683  0.71236336  1
  C  C13  1  0.85610119  0.79536215  0.98562366  1
  C  C14  1  0.01460012  0.77393465  0.07020848  1
  C  C15  1  0.98057512  0.10024242  0.36271511  1
  C  C16  1  0.09978993  0.46080589  0.74831639  1
  C  C17  1  0.09177571  0.24137770  0.17910641  1
  C  C18  1  0.29248241  0.36699465  0.01640270  1
  C  C19  1  0.23383251  0.33668473  0.41622640  1
  C  C20  1  0.30193754  0.69892052  0.67209132  1
  C  C21  1  0.29765943  0.79182594  0.39798729  1
  C  C22  1  0.35343143  0.64389131  0.89695350  1
  C  C23  1  0.38962291  0.08465171  0.64319388  1
  C  C24  1  0.26602727  0.03429027  0.97783088  1
  C  C25  1  0.42739315  0.71737435  0.15120632  1
  C  C26  1  0.28355930  0.02889284  0.24143965  1
  C  C27  1  0.42779944  0.41735050  0.67150425  1
  C  C28  1  0.52679861  0.57054071  0.31691581  1
  C  C29  1  0.71009368  0.95691110  0.76573644  1
  C  C30  1  0.59790523  0.30076939  0.82606061  1
  C  C31  1  0.74597281  0.95658629  0.05134826  1
  C  C32  1  0.62137312  0.89808792  0.35072716  1
  C  C33  1  0.64623299  0.37010788  0.09300706  1
  C  C34  1  0.69471220  0.23992580  0.58600971  1
  C  C35  1  0.64246888  0.28487012  0.30892962  1
  C  C36  1  0.79487815  0.63310101  0.64232917  1
  C  C37  1  0.74163810  0.61548540  0.93755971  1
  C  C38  1  0.95972304  0.81635185  0.84805288  1
  C  C39  1  0.87032959  0.54119820  0.27895277  1
  C  C40  1  0.00747307  0.90050867  0.63085418  1
  C  C41  1  0.99749206  0.20553039  0.94175286  1
