# generated using pymatgen
data_Cu3NiC24
_symmetry_space_group_name_H-M   'P 1'
_cell_length_a   4.12216600
_cell_length_b   4.12216600
_cell_length_c   16.49663300
_cell_angle_alpha   90.00000000
_cell_angle_beta   90.00000000
_cell_angle_gamma   90.00000000
_symmetry_Int_Tables_number   1
_chemical_formula_structural   Cu3NiC24
_chemical_formula_sum   'Cu3 Ni1 C24'
_cell_volume   280.31495386
_cell_formula_units_Z   1
loop_
 _symmetry_equiv_pos_site_id
 _symmetry_equiv_pos_as_xyz
  1  'x, y, z'
loop_
 _atom_site_type_symbol
 _atom_site_label
 _atom_site_symmetry_multiplicity
 _atom_site_fract_x
 _atom_site_fract_y
 _atom_site_fract_z
 _atom_site_occupancy
  Ni  Ni0  1  0.00000000  0.00000000  0.00000000  1
  Cu  Cu1  1  0.00000000  0.00000000  0.25057600  1
  Cu  Cu2  1  0.00000000  0.00000000  0.50000000  1
  Cu  Cu3  1  0.00000000  0.00000000  0.74942400  1
  C  C4  1  0.50000000  0.50000000  0.20044100  1
  C  C5  1  0.50000000  0.50000000  0.45026100  1
  C  C6  1  0.50000000  0.50000000  0.70025600  1
  C  C7  1  0.50000000  0.50000000  0.94994900  1
  C  C8  1  0.50000000  0.19944000  0.12535800  1
  C  C9  1  0.50000000  0.19885800  0.37498300  1
  C  C10  1  0.50000000  0.19885800  0.62501700  1
  C  C11  1  0.50000000  0.19944000  0.87464200  1
  C  C12  1  0.19944000  0.50000000  0.12535800  1
  C  C13  1  0.19885800  0.50000000  0.37498300  1
  C  C14  1  0.19885800  0.50000000  0.62501700  1
  C  C15  1  0.19944000  0.50000000  0.87464200  1
  C  C16  1  0.50000000  0.50000000  0.05005100  1
  C  C17  1  0.50000000  0.50000000  0.29974400  1
  C  C18  1  0.50000000  0.50000000  0.54973900  1
  C  C19  1  0.50000000  0.50000000  0.79955900  1
  C  C20  1  0.50000000  0.80056000  0.12535800  1
  C  C21  1  0.50000000  0.80114200  0.37498300  1
  C  C22  1  0.50000000  0.80114200  0.62501700  1
  C  C23  1  0.50000000  0.80056000  0.87464200  1
  C  C24  1  0.80056000  0.50000000  0.12535800  1
  C  C25  1  0.80114200  0.50000000  0.37498300  1
  C  C26  1  0.80114200  0.50000000  0.62501700  1
  C  C27  1  0.80056000  0.50000000  0.87464200  1
