# generated using pymatgen
data_Cu3NiC2
_symmetry_space_group_name_H-M   'P 1'
_cell_length_a   8.44293700
_cell_length_b   8.44293700
_cell_length_c   20.49105200
_cell_angle_alpha   90.00000000
_cell_angle_beta   90.00000000
_cell_angle_gamma   90.00000000
_symmetry_Int_Tables_number   1
_chemical_formula_structural   Cu3NiC2
_chemical_formula_sum   'Cu24 Ni8 C16'
_cell_volume   1460.66745437
_cell_formula_units_Z   8
loop_
 _symmetry_equiv_pos_site_id
 _symmetry_equiv_pos_as_xyz
  1  'x, y, z'
loop_
 _atom_site_type_symbol
 _atom_site_label
 _atom_site_symmetry_multiplicity
 _atom_site_fract_x
 _atom_site_fract_y
 _atom_site_fract_z
 _atom_site_occupancy
  C  C0  1  0.00000000  0.00000000  0.40502600  1
  C  C1  1  0.00000000  0.00000000  0.90502600  1
  C  C2  1  0.00000000  0.00000000  0.59552700  1
  C  C3  1  0.00000000  0.00000000  0.09552700  1
  C  C4  1  0.50000000  0.50000000  0.24638100  1
  C  C5  1  0.50000000  0.50000000  0.74638100  1
  C  C6  1  0.50000000  0.50000000  0.44813700  1
  C  C7  1  0.50000000  0.50000000  0.94813700  1
  C  C8  1  0.31514900  0.00119400  0.24956700  1
  C  C9  1  0.68485100  0.99880600  0.24956700  1
  C  C10  1  0.99880600  0.31514900  0.24956700  1
  C  C11  1  0.00119400  0.68485100  0.24956700  1
  C  C12  1  0.68485100  0.00119400  0.74956700  1
  C  C13  1  0.31514900  0.99880600  0.74956700  1
  C  C14  1  0.00119400  0.31514900  0.74956700  1
  C  C15  1  0.99880600  0.68485100  0.74956700  1
  Ni  Ni16  1  0.50000000  0.00000000  0.41285300  1
  Ni  Ni17  1  0.00000000  0.50000000  0.41285300  1
  Ni  Ni18  1  0.50000000  0.00000000  0.91285300  1
  Ni  Ni19  1  0.00000000  0.50000000  0.91285300  1
  Ni  Ni20  1  0.50000000  0.00000000  0.58840200  1
  Ni  Ni21  1  0.00000000  0.50000000  0.58840200  1
  Ni  Ni22  1  0.50000000  0.00000000  0.08840200  1
  Ni  Ni23  1  0.00000000  0.50000000  0.08840200  1
  Cu  Cu24  1  0.33126500  0.84572100  0.49996300  1
  Cu  Cu25  1  0.66873500  0.15427900  0.49996300  1
  Cu  Cu26  1  0.15427900  0.33126500  0.49996300  1
  Cu  Cu27  1  0.84572100  0.66873500  0.49996300  1
  Cu  Cu28  1  0.66873500  0.84572100  0.99996300  1
  Cu  Cu29  1  0.33126500  0.15427900  0.99996300  1
  Cu  Cu30  1  0.84572100  0.33126500  0.99996300  1
  Cu  Cu31  1  0.15427900  0.66873500  0.99996300  1
  Cu  Cu32  1  0.32590200  0.18800500  0.34545000  1
  Cu  Cu33  1  0.67409800  0.81199500  0.34545000  1
  Cu  Cu34  1  0.81199500  0.32590200  0.34545000  1
  Cu  Cu35  1  0.18800500  0.67409800  0.34545000  1
  Cu  Cu36  1  0.67409800  0.18800500  0.84545000  1
  Cu  Cu37  1  0.32590200  0.81199500  0.84545000  1
  Cu  Cu38  1  0.18800500  0.32590200  0.84545000  1
  Cu  Cu39  1  0.81199500  0.67409800  0.84545000  1
  Cu  Cu40  1  0.67562000  0.81323800  0.65484900  1
  Cu  Cu41  1  0.32438000  0.18676200  0.65484900  1
  Cu  Cu42  1  0.18676200  0.67562000  0.65484900  1
  Cu  Cu43  1  0.81323800  0.32438000  0.65484900  1
  Cu  Cu44  1  0.32438000  0.81323800  0.15484900  1
  Cu  Cu45  1  0.67562000  0.18676200  0.15484900  1
  Cu  Cu46  1  0.81323800  0.67562000  0.15484900  1
  Cu  Cu47  1  0.18676200  0.32438000  0.15484900  1
