# generated using pymatgen
data_Cu2Ni2C9
_symmetry_space_group_name_H-M   'P 1'
_cell_length_a   9.81980743
_cell_length_b   10.37344121
_cell_length_c   11.18132992
_cell_angle_alpha   90.00000000
_cell_angle_beta   90.00000000
_cell_angle_gamma   90.00000000
_symmetry_Int_Tables_number   1
_chemical_formula_structural   Cu2Ni2C9
_chemical_formula_sum   'Cu16 Ni16 C72'
_cell_volume   1138.98835343
_cell_formula_units_Z   8
loop_
 _symmetry_equiv_pos_site_id
 _symmetry_equiv_pos_as_xyz
  1  'x, y, z'
loop_
 _atom_site_type_symbol
 _atom_site_label
 _atom_site_symmetry_multiplicity
 _atom_site_fract_x
 _atom_site_fract_y
 _atom_site_fract_z
 _atom_site_occupancy
  C  C0  1  0.08487776  0.62337006  0.92559392  1
  C  C1  1  0.41512224  0.12337006  0.07440608  1
  C  C2  1  0.58487776  0.37662994  0.57440608  1
  C  C3  1  0.91512224  0.87662994  0.42559392  1
  C  C4  1  0.91512224  0.37662994  0.07440608  1
  C  C5  1  0.58487776  0.87662994  0.92559392  1
  C  C6  1  0.41512224  0.62337006  0.42559392  1
  C  C7  1  0.08487776  0.12337006  0.57440608  1
  C  C8  1  0.91572327  0.82306564  0.10830204  1
  C  C9  1  0.58427673  0.32306564  0.89169796  1
  C  C10  1  0.41572327  0.17693436  0.39169796  1
  C  C11  1  0.08427673  0.67693436  0.60830204  1
  C  C12  1  0.08427673  0.17693436  0.89169796  1
  C  C13  1  0.41572327  0.67693436  0.10830204  1
  C  C14  1  0.58427673  0.82306564  0.60830204  1
  C  C15  1  0.91572327  0.32306564  0.39169796  1
  C  C16  1  0.22029716  0.90139462  0.95932829  1
  C  C17  1  0.27970284  0.40139462  0.04067171  1
  C  C18  1  0.72029716  0.09860538  0.54067171  1
  C  C19  1  0.77970284  0.59860538  0.45932829  1
  C  C20  1  0.77970284  0.09860538  0.04067171  1
  C  C21  1  0.72029716  0.59860538  0.95932829  1
  C  C22  1  0.27970284  0.90139462  0.45932829  1
  C  C23  1  0.22029716  0.40139462  0.54067171  1
  Ni  Ni24  1  0.31929318  0.71591049  0.75520016  1
  Ni  Ni25  1  0.18070682  0.21591049  0.24479984  1
  Ni  Ni26  1  0.81929318  0.28408951  0.74479984  1
  Ni  Ni27  1  0.68070682  0.78408951  0.25520016  1
  Ni  Ni28  1  0.68070682  0.28408951  0.24479984  1
  Ni  Ni29  1  0.81929318  0.78408951  0.75520016  1
  Ni  Ni30  1  0.18070682  0.71591049  0.25520016  1
  Ni  Ni31  1  0.31929318  0.21591049  0.74479984  1
  Ni  Ni32  1  0.27532474  0.93023586  0.74729401  1
  Ni  Ni33  1  0.22467526  0.43023586  0.25270599  1
  Ni  Ni34  1  0.77532474  0.06976414  0.75270599  1
  Ni  Ni35  1  0.72467526  0.56976414  0.24729401  1
  Ni  Ni36  1  0.72467526  0.06976414  0.25270599  1
  Ni  Ni37  1  0.77532474  0.56976414  0.74729401  1
  Ni  Ni38  1  0.22467526  0.93023586  0.24729401  1
  Ni  Ni39  1  0.27532474  0.43023586  0.75270599  1
  Cu  Cu40  1  0.94328815  0.09360301  0.24067472  1
  Cu  Cu41  1  0.55671185  0.59360301  0.75932528  1
  Cu  Cu42  1  0.44328815  0.90639699  0.25932528  1
  Cu  Cu43  1  0.05671185  0.40639699  0.74067472  1
  Cu  Cu44  1  0.05671185  0.90639699  0.75932528  1
  Cu  Cu45  1  0.44328815  0.40639699  0.24067472  1
  Cu  Cu46  1  0.55671185  0.09360301  0.74067472  1
  Cu  Cu47  1  0.94328815  0.59360301  0.25932528  1
  Cu  Cu48  1  0.20108093  0.86981083  0.79544562  1
  Cu  Cu49  1  0.29891907  0.36981083  0.20455438  1
  Cu  Cu50  1  0.70108093  0.13018917  0.70455438  1
  Cu  Cu51  1  0.79891907  0.63018917  0.29544562  1
  Cu  Cu52  1  0.79891907  0.13018917  0.20455438  1
  Cu  Cu53  1  0.70108093  0.63018917  0.79544562  1
  Cu  Cu54  1  0.29891907  0.86981083  0.29544562  1
  Cu  Cu55  1  0.20108093  0.36981083  0.70455438  1
  C  C56  1  0.21551417  0.04963007  0.97344068  1
  C  C57  1  0.28448583  0.54963007  0.02655932  1
  C  C58  1  0.71551417  0.95036993  0.52655932  1
  C  C59  1  0.78448583  0.45036993  0.47344068  1
  C  C60  1  0.78448583  0.95036993  0.02655932  1
  C  C61  1  0.71551417  0.45036993  0.97344068  1
  C  C62  1  0.28448583  0.04963007  0.47344068  1
  C  C63  1  0.21551417  0.54963007  0.52655932  1
  C  C64  1  0.35973139  0.84868561  0.99910019  1
  C  C65  1  0.14026861  0.34868561  0.00089981  1
  C  C66  1  0.85973139  0.15131439  0.50089981  1
  C  C67  1  0.64026861  0.65131439  0.49910019  1
  C  C68  1  0.64026861  0.15131439  0.00089981  1
  C  C69  1  0.85973139  0.65131439  0.99910019  1
  C  C70  1  0.14026861  0.84868561  0.49910019  1
  C  C71  1  0.35973139  0.34868561  0.50089981  1
  C  C72  1  0.10065578  0.82851077  0.01470266  1
  C  C73  1  0.39934422  0.32851077  0.98529734  1
  C  C74  1  0.60065578  0.17148923  0.48529734  1
  C  C75  1  0.89934422  0.67148923  0.51470266  1
  C  C76  1  0.89934422  0.17148923  0.98529734  1
  C  C77  1  0.60065578  0.67148923  0.01470266  1
  C  C78  1  0.39934422  0.82851077  0.51470266  1
  C  C79  1  0.10065578  0.32851077  0.48529734  1
  C  C80  1  0.22017894  0.73533106  0.76824172  1
  C  C81  1  0.27982106  0.23533106  0.23175828  1
  C  C82  1  0.72017894  0.26466894  0.73175828  1
  C  C83  1  0.77982106  0.76466894  0.26824172  1
  C  C84  1  0.77982106  0.26466894  0.23175828  1
  C  C85  1  0.72017894  0.76466894  0.76824172  1
  C  C86  1  0.27982106  0.73533106  0.26824172  1
  C  C87  1  0.22017894  0.23533106  0.73175828  1
  C  C88  1  0.98064089  0.97706646  0.23242413  1
  C  C89  1  0.51935911  0.47706646  0.76757587  1
  C  C90  1  0.48064089  0.02293354  0.26757587  1
  C  C91  1  0.01935911  0.52293354  0.73242413  1
  C  C92  1  0.01935911  0.02293354  0.76757587  1
  C  C93  1  0.48064089  0.52293354  0.23242413  1
  C  C94  1  0.51935911  0.97706646  0.73242413  1
  C  C95  1  0.98064089  0.47706646  0.26757587  1
  C  C96  1  0.02043220  0.68468065  0.22227313  1
  C  C97  1  0.47956780  0.18468065  0.77772687  1
  C  C98  1  0.52043220  0.31531935  0.27772687  1
  C  C99  1  0.97956780  0.81531935  0.72227313  1
  C  C100  1  0.97956780  0.31531935  0.77772687  1
  C  C101  1  0.52043220  0.81531935  0.22227313  1
  C  C102  1  0.47956780  0.68468065  0.72227313  1
  C  C103  1  0.02043220  0.18468065  0.27772687  1
