# generated using pymatgen
data_Cu(Ni2C9)2
_symmetry_space_group_name_H-M   'P 1'
_cell_length_a   3.87334500
_cell_length_b   8.84318764
_cell_length_c   8.90098933
_cell_angle_alpha   90.60256109
_cell_angle_beta   89.99975902
_cell_angle_gamma   90.00009007
_symmetry_Int_Tables_number   1
_chemical_formula_structural   Cu(Ni2C9)2
_chemical_formula_sum   'Cu1 Ni4 C18'
_cell_volume   304.86620537
_cell_formula_units_Z   1
loop_
 _symmetry_equiv_pos_site_id
 _symmetry_equiv_pos_as_xyz
  1  'x, y, z'
loop_
 _atom_site_type_symbol
 _atom_site_label
 _atom_site_symmetry_multiplicity
 _atom_site_fract_x
 _atom_site_fract_y
 _atom_site_fract_z
 _atom_site_occupancy
  Ni  Ni0  1  0.50001700  0.89930800  0.32126100  1
  Ni  Ni1  1  0.50001500  0.10071000  0.67872700  1
  Ni  Ni2  1  0.49999500  0.70164400  0.88497700  1
  Ni  Ni3  1  0.49999900  0.29832900  0.11504300  1
  Cu  Cu4  1  0.50007000  0.50000100  0.50000700  1
  C  C5  1  0.00002500  0.80041800  0.60506300  1
  C  C6  1  0.99999600  0.19960800  0.39491000  1
  C  C7  1  0.00001300  0.60632300  0.19692300  1
  C  C8  1  0.00001300  0.39365600  0.80310000  1
  C  C9  1  0.99971700  0.00000900  0.00003400  1
  C  C10  1  0.00003500  0.68525400  0.41341200  1
  C  C11  1  0.00002200  0.31473800  0.58659800  1
  C  C12  1  0.50001700  0.58704100  0.16468700  1
  C  C13  1  0.50001200  0.41293600  0.83535200  1
  C  C14  1  0.00003300  0.00001400  0.50003500  1
  C  C15  1  0.99997800  0.79644000  0.07879400  1
  C  C16  1  0.99997600  0.20361800  0.92120700  1
  C  C17  1  0.99999800  0.91664500  0.80132900  1
  C  C18  1  0.99999200  0.08326700  0.19849500  1
  C  C19  1  0.00002700  0.59594900  0.71388900  1
  C  C20  1  0.00002200  0.40406100  0.28612400  1
  C  C21  1  0.50002500  0.79123500  0.59989100  1
  C  C22  1  0.50000200  0.20879600  0.40014100  1
