# generated using pymatgen
data_Cu2NiC4
_symmetry_space_group_name_H-M   'P 1'
_cell_length_a   5.27431800
_cell_length_b   10.32957400
_cell_length_c   23.10063800
_cell_angle_alpha   90.00000000
_cell_angle_beta   90.00000000
_cell_angle_gamma   90.00000000
_symmetry_Int_Tables_number   1
_chemical_formula_structural   Cu2NiC4
_chemical_formula_sum   'Cu16 Ni8 C32'
_cell_volume   1258.55644083
_cell_formula_units_Z   8
loop_
 _symmetry_equiv_pos_site_id
 _symmetry_equiv_pos_as_xyz
  1  'x, y, z'
loop_
 _atom_site_type_symbol
 _atom_site_label
 _atom_site_symmetry_multiplicity
 _atom_site_fract_x
 _atom_site_fract_y
 _atom_site_fract_z
 _atom_site_occupancy
  C  C0  1  0.21373100  0.25000000  0.54611800  1
  C  C1  1  0.78626900  0.75000000  0.45388200  1
  C  C2  1  0.28626900  0.75000000  0.04611800  1
  C  C3  1  0.71373100  0.25000000  0.95388200  1
  Ni  Ni4  1  0.23315700  0.25000000  0.01414300  1
  Ni  Ni5  1  0.76684300  0.75000000  0.98585700  1
  Ni  Ni6  1  0.26684300  0.75000000  0.51414300  1
  Ni  Ni7  1  0.73315700  0.25000000  0.48585700  1
  Ni  Ni8  1  0.32636000  0.25000000  0.66672500  1
  Ni  Ni9  1  0.67364000  0.75000000  0.33327500  1
  Ni  Ni10  1  0.17364000  0.75000000  0.16672500  1
  Ni  Ni11  1  0.82636000  0.25000000  0.83327500  1
  C  C12  1  0.04589900  0.25000000  0.17780400  1
  C  C13  1  0.95410100  0.75000000  0.82219600  1
  C  C14  1  0.45410100  0.75000000  0.67780400  1
  C  C15  1  0.54589900  0.25000000  0.32219600  1
  Cu  Cu16  1  0.29200100  0.08078800  0.32330800  1
  Cu  Cu17  1  0.70799900  0.91921200  0.67669200  1
  Cu  Cu18  1  0.20799900  0.91921200  0.82330800  1
  Cu  Cu19  1  0.70799900  0.58078800  0.67669200  1
  Cu  Cu20  1  0.79200100  0.08078800  0.17669200  1
  Cu  Cu21  1  0.29200100  0.41921200  0.32330800  1
  Cu  Cu22  1  0.79200100  0.41921200  0.17669200  1
  Cu  Cu23  1  0.20799900  0.58078800  0.82330800  1
  Cu  Cu24  1  0.31035700  0.01116500  0.41067400  1
  Cu  Cu25  1  0.68964300  0.98883500  0.58932600  1
  Cu  Cu26  1  0.18964300  0.98883500  0.91067400  1
  Cu  Cu27  1  0.68964300  0.51116500  0.58932600  1
  Cu  Cu28  1  0.81035700  0.01116500  0.08932600  1
  Cu  Cu29  1  0.31035700  0.48883500  0.41067400  1
  Cu  Cu30  1  0.81035700  0.48883500  0.08932600  1
  Cu  Cu31  1  0.18964300  0.51116500  0.91067400  1
  C  C32  1  0.17035100  0.61175700  0.40424800  1
  C  C33  1  0.82964900  0.38824300  0.59575200  1
  C  C34  1  0.32964900  0.38824300  0.90424800  1
  C  C35  1  0.82964900  0.11175700  0.59575200  1
  C  C36  1  0.67035100  0.61175700  0.09575200  1
  C  C37  1  0.17035100  0.88824300  0.40424800  1
  C  C38  1  0.67035100  0.88824300  0.09575200  1
  C  C39  1  0.32964900  0.11175700  0.90424800  1
  C  C40  1  0.18625100  0.10468800  0.44881500  1
  C  C41  1  0.81374900  0.89531200  0.55118500  1
  C  C42  1  0.31374900  0.89531200  0.94881500  1
  C  C43  1  0.81374900  0.60468800  0.55118500  1
  C  C44  1  0.68625100  0.10468800  0.05118500  1
  C  C45  1  0.18625100  0.39531200  0.44881500  1
  C  C46  1  0.68625100  0.39531200  0.05118500  1
  C  C47  1  0.31374900  0.60468800  0.94881500  1
  C  C48  1  0.08007900  0.50903600  0.07561800  1
  C  C49  1  0.91992100  0.49096400  0.92438200  1
  C  C50  1  0.41992100  0.49096400  0.57561800  1
  C  C51  1  0.91992100  0.00903600  0.92438200  1
  C  C52  1  0.58007900  0.50903600  0.42438200  1
  C  C53  1  0.08007900  0.99096400  0.07561800  1
  C  C54  1  0.58007900  0.99096400  0.42438200  1
  C  C55  1  0.41992100  0.00903600  0.57561800  1
