# generated using pymatgen
data_Cu3NiC17
_symmetry_space_group_name_H-M   'P 1'
_cell_length_a   7.41049823
_cell_length_b   7.41049823
_cell_length_c   7.41049855
_cell_angle_alpha   60.87095390
_cell_angle_beta   60.87095390
_cell_angle_gamma   60.87094956
_symmetry_Int_Tables_number   1
_chemical_formula_structural   Cu3NiC17
_chemical_formula_sum   'Cu3 Ni1 C17'
_cell_volume   293.40806510
_cell_formula_units_Z   1
loop_
 _symmetry_equiv_pos_site_id
 _symmetry_equiv_pos_as_xyz
  1  'x, y, z'
loop_
 _atom_site_type_symbol
 _atom_site_label
 _atom_site_symmetry_multiplicity
 _atom_site_fract_x
 _atom_site_fract_y
 _atom_site_fract_z
 _atom_site_occupancy
  Ni  Ni0  1  0.49919700  0.49919700  0.49919700  1
  Cu  Cu1  1  0.00107500  0.49984400  0.49984400  1
  Cu  Cu2  1  0.49984400  0.49984400  0.00107500  1
  Cu  Cu3  1  0.49984400  0.00107500  0.49984400  1
  C  C4  1  0.99764700  0.99764700  0.99764700  1
  C  C5  1  0.50659500  0.99772800  0.99772800  1
  C  C6  1  0.99772800  0.99772800  0.50659500  1
  C  C7  1  0.99772800  0.50659500  0.99772800  1
  C  C8  1  0.81737700  0.43074400  0.43074400  1
  C  C9  1  0.42586100  0.82442100  0.82442100  1
  C  C10  1  0.43074400  0.43074400  0.81737700  1
  C  C11  1  0.82442100  0.82442100  0.42586100  1
  C  C12  1  0.82442100  0.42586100  0.82442100  1
  C  C13  1  0.43074400  0.81737700  0.43074400  1
  C  C14  1  0.18534500  0.56700700  0.56700700  1
  C  C15  1  0.57172300  0.17794400  0.17794400  1
  C  C16  1  0.56700700  0.56700700  0.18534500  1
  C  C17  1  0.17794400  0.17794400  0.57172300  1
  C  C18  1  0.17794400  0.57172300  0.17794400  1
  C  C19  1  0.56700700  0.18534500  0.56700700  1
  C  C20  1  0.12480400  0.12480400  0.12480400  1
