# generated using pymatgen
data_CuNiC6
_symmetry_space_group_name_H-M   'P 1'
_cell_length_a   5.56618400
_cell_length_b   7.04072800
_cell_length_c   12.33998100
_cell_angle_alpha   90.00000000
_cell_angle_beta   90.00000000
_cell_angle_gamma   90.00000000
_symmetry_Int_Tables_number   1
_chemical_formula_structural   CuNiC6
_chemical_formula_sum   'Cu2 Ni2 C12'
_cell_volume   483.60370166
_cell_formula_units_Z   2
loop_
 _symmetry_equiv_pos_site_id
 _symmetry_equiv_pos_as_xyz
  1  'x, y, z'
loop_
 _atom_site_type_symbol
 _atom_site_label
 _atom_site_symmetry_multiplicity
 _atom_site_fract_x
 _atom_site_fract_y
 _atom_site_fract_z
 _atom_site_occupancy
  Ni  Ni0  1  0.00000000  0.00000000  0.83955200  1
  Ni  Ni1  1  0.00000000  0.50000000  0.33955200  1
  Cu  Cu2  1  0.50000000  0.00000000  0.66115400  1
  Cu  Cu3  1  0.50000000  0.50000000  0.16115400  1
  C  C4  1  0.00000000  0.74270700  0.58087000  1
  C  C5  1  0.00000000  0.25729300  0.58087000  1
  C  C6  1  0.00000000  0.50000000  0.83313100  1
  C  C7  1  0.50000000  0.25763100  0.91951100  1
  C  C8  1  0.50000000  0.74236900  0.91951100  1
  C  C9  1  0.50000000  0.50000000  0.66539900  1
  C  C10  1  0.00000000  0.24270700  0.08087000  1
  C  C11  1  0.00000000  0.75729300  0.08087000  1
  C  C12  1  0.00000000  0.00000000  0.33313100  1
  C  C13  1  0.50000000  0.75763100  0.41951100  1
  C  C14  1  0.50000000  0.24236900  0.41951100  1
  C  C15  1  0.50000000  0.00000000  0.16539900  1
