# generated using pymatgen
data_Cu3(Ni5C26)2
_symmetry_space_group_name_H-M   'P 1'
_cell_length_a   3.88100100
_cell_length_b   3.94393900
_cell_length_c   59.08756600
_cell_angle_alpha   90.00000000
_cell_angle_beta   90.00000000
_cell_angle_gamma   90.00000000
_symmetry_Int_Tables_number   1
_chemical_formula_structural   Cu3(Ni5C26)2
_chemical_formula_sum   'Cu3 Ni10 C52'
_cell_volume   904.41976393
_cell_formula_units_Z   1
loop_
 _symmetry_equiv_pos_site_id
 _symmetry_equiv_pos_as_xyz
  1  'x, y, z'
loop_
 _atom_site_type_symbol
 _atom_site_label
 _atom_site_symmetry_multiplicity
 _atom_site_fract_x
 _atom_site_fract_y
 _atom_site_fract_z
 _atom_site_occupancy
  Ni  Ni0  1  0.50000000  0.50000000  0.13632000  1
  Ni  Ni1  1  0.50000000  0.50000000  0.93605700  1
  Ni  Ni2  1  0.50000000  0.50000000  0.73630200  1
  Ni  Ni3  1  0.50000000  0.50000000  0.53580800  1
  Ni  Ni4  1  0.50000000  0.50000000  0.33575900  1
  Ni  Ni5  1  0.50000000  0.50000000  0.26369800  1
  Ni  Ni6  1  0.50000000  0.50000000  0.06394300  1
  Ni  Ni7  1  0.50000000  0.50000000  0.86368000  1
  Ni  Ni8  1  0.50000000  0.50000000  0.66424100  1
  Ni  Ni9  1  0.50000000  0.50000000  0.46419200  1
  C  C10  1  0.50000000  0.50000000  0.60001000  1
  C  C11  1  0.50000000  0.50000000  0.39999000  1
  Cu  Cu12  1  0.50000000  0.50000000  0.19990600  1
  Cu  Cu13  1  0.50000000  0.50000000  0.00000000  1
  Cu  Cu14  1  0.50000000  0.50000000  0.80009400  1
  C  C15  1  0.00000000  0.00000000  0.17040900  1
  C  C16  1  0.00000000  0.00000000  0.97035000  1
  C  C17  1  0.00000000  0.00000000  0.77041900  1
  C  C18  1  0.00000000  0.00000000  0.56891600  1
  C  C19  1  0.00000000  0.00000000  0.36892700  1
  C  C20  1  0.00000000  0.00000000  0.22958100  1
  C  C21  1  0.00000000  0.00000000  0.02965000  1
  C  C22  1  0.00000000  0.00000000  0.82959100  1
  C  C23  1  0.00000000  0.00000000  0.63107300  1
  C  C24  1  0.00000000  0.00000000  0.43108400  1
  C  C25  1  0.00000000  0.00000000  0.29975000  1
  C  C26  1  0.00000000  0.00000000  0.09994200  1
  C  C27  1  0.00000000  0.00000000  0.90005800  1
  C  C28  1  0.00000000  0.00000000  0.70025000  1
  C  C29  1  0.00000000  0.00000000  0.50000000  1
  C  C30  1  0.00000000  0.00000000  0.13171300  1
  C  C31  1  0.00000000  0.00000000  0.93175500  1
  C  C32  1  0.00000000  0.00000000  0.73187900  1
  C  C33  1  0.00000000  0.00000000  0.53152300  1
  C  C34  1  0.00000000  0.00000000  0.33136300  1
  C  C35  1  0.00000000  0.00000000  0.26812100  1
  C  C36  1  0.00000000  0.00000000  0.06824500  1
  C  C37  1  0.00000000  0.00000000  0.86828700  1
  C  C38  1  0.00000000  0.00000000  0.66863700  1
  C  C39  1  0.00000000  0.00000000  0.46847700  1
  C  C40  1  0.00000000  0.50000000  0.17558500  1
  C  C41  1  0.00000000  0.50000000  0.97554700  1
  C  C42  1  0.00000000  0.50000000  0.77556600  1
  C  C43  1  0.00000000  0.50000000  0.57375900  1
  C  C44  1  0.00000000  0.50000000  0.37373500  1
  C  C45  1  0.00000000  0.50000000  0.22443400  1
  C  C46  1  0.00000000  0.50000000  0.02445300  1
  C  C47  1  0.00000000  0.50000000  0.82441500  1
  C  C48  1  0.00000000  0.50000000  0.62626500  1
  C  C49  1  0.00000000  0.50000000  0.42624100  1
  C  C50  1  0.00000000  0.50000000  0.10001900  1
  C  C51  1  0.00000000  0.50000000  0.89998100  1
  C  C52  1  0.00000000  0.50000000  0.70031600  1
  C  C53  1  0.00000000  0.50000000  0.50000000  1
  C  C54  1  0.00000000  0.50000000  0.29968400  1
  C  C55  1  0.50000000  0.00000000  0.17577000  1
  C  C56  1  0.50000000  0.00000000  0.97574000  1
  C  C57  1  0.50000000  0.00000000  0.77575100  1
  C  C58  1  0.50000000  0.00000000  0.57395000  1
  C  C59  1  0.50000000  0.00000000  0.37392200  1
  C  C60  1  0.50000000  0.00000000  0.22424900  1
  C  C61  1  0.50000000  0.00000000  0.02426000  1
  C  C62  1  0.50000000  0.00000000  0.82423000  1
  C  C63  1  0.50000000  0.00000000  0.62607800  1
  C  C64  1  0.50000000  0.00000000  0.42605000  1
