# generated using pymatgen
data_CuNiC7
_symmetry_space_group_name_H-M   'P 1'
_cell_length_a   9.29011400
_cell_length_b   9.45125100
_cell_length_c   12.84130100
_cell_angle_alpha   90.00000000
_cell_angle_beta   90.00000000
_cell_angle_gamma   90.00000000
_symmetry_Int_Tables_number   1
_chemical_formula_structural   CuNiC7
_chemical_formula_sum   'Cu4 Ni4 C28'
_cell_volume   1127.50731011
_cell_formula_units_Z   4
loop_
 _symmetry_equiv_pos_site_id
 _symmetry_equiv_pos_as_xyz
  1  'x, y, z'
loop_
 _atom_site_type_symbol
 _atom_site_label
 _atom_site_symmetry_multiplicity
 _atom_site_fract_x
 _atom_site_fract_y
 _atom_site_fract_z
 _atom_site_occupancy
  C  C0  1  0.00751100  0.11911900  0.82453600  1
  C  C1  1  0.49248900  0.38088100  0.32453600  1
  C  C2  1  0.50751100  0.88088100  0.17546400  1
  C  C3  1  0.99248900  0.61911900  0.67546400  1
  C  C4  1  0.99248900  0.88088100  0.17546400  1
  C  C5  1  0.50751100  0.61911900  0.67546400  1
  C  C6  1  0.49248900  0.11911900  0.82453600  1
  C  C7  1  0.00751100  0.38088100  0.32453600  1
  Ni  Ni8  1  0.25000000  0.33177600  0.59701900  1
  Ni  Ni9  1  0.25000000  0.16822400  0.09701900  1
  Ni  Ni10  1  0.75000000  0.66822400  0.40298100  1
  Ni  Ni11  1  0.75000000  0.83177600  0.90298100  1
  Cu  Cu12  1  0.25000000  0.97122500  0.52224700  1
  Cu  Cu13  1  0.25000000  0.52877500  0.02224700  1
  Cu  Cu14  1  0.75000000  0.02877500  0.47775300  1
  Cu  Cu15  1  0.75000000  0.47122500  0.97775300  1
  C  C16  1  0.04157900  0.17812700  0.55938700  1
  C  C17  1  0.45842100  0.32187300  0.05938700  1
  C  C18  1  0.54157900  0.82187300  0.44061300  1
  C  C19  1  0.95842100  0.67812700  0.94061300  1
  C  C20  1  0.95842100  0.82187300  0.44061300  1
  C  C21  1  0.54157900  0.67812700  0.94061300  1
  C  C22  1  0.45842100  0.17812700  0.55938700  1
  C  C23  1  0.04157900  0.32187300  0.05938700  1
  C  C24  1  0.25000000  0.87569700  0.72191600  1
  C  C25  1  0.25000000  0.62430300  0.22191600  1
  C  C26  1  0.75000000  0.12430300  0.27808400  1
  C  C27  1  0.75000000  0.37569700  0.77808400  1
  C  C28  1  0.25000000  0.39035300  0.78146100  1
  C  C29  1  0.25000000  0.10964700  0.28146100  1
  C  C30  1  0.75000000  0.60964700  0.21853900  1
  C  C31  1  0.75000000  0.89035300  0.71853900  1
  C  C32  1  0.25000000  0.96214500  0.99134000  1
  C  C33  1  0.25000000  0.53785500  0.49134000  1
  C  C34  1  0.75000000  0.03785500  0.00866000  1
  C  C35  1  0.75000000  0.46214500  0.50866000  1
