# generated using pymatgen
data_CuNiC5
_symmetry_space_group_name_H-M   'P 1'
_cell_length_a   5.34247500
_cell_length_b   6.54042500
_cell_length_c   11.56776600
_cell_angle_alpha   90.00000000
_cell_angle_beta   90.00000000
_cell_angle_gamma   90.00000000
_symmetry_Int_Tables_number   1
_chemical_formula_structural   CuNiC5
_chemical_formula_sum   'Cu4 Ni4 C20'
_cell_volume   404.20153953
_cell_formula_units_Z   4
loop_
 _symmetry_equiv_pos_site_id
 _symmetry_equiv_pos_as_xyz
  1  'x, y, z'
loop_
 _atom_site_type_symbol
 _atom_site_label
 _atom_site_symmetry_multiplicity
 _atom_site_fract_x
 _atom_site_fract_y
 _atom_site_fract_z
 _atom_site_occupancy
  Ni  Ni0  1  0.50000000  0.00000000  0.00000000  1
  Ni  Ni1  1  0.00000000  0.00000000  0.50000000  1
  Ni  Ni2  1  0.50000000  0.50000000  0.00000000  1
  Ni  Ni3  1  0.00000000  0.50000000  0.50000000  1
  Cu  Cu4  1  0.99590900  0.75000000  0.77783800  1
  Cu  Cu5  1  0.49590900  0.25000000  0.72216200  1
  Cu  Cu6  1  0.00409100  0.25000000  0.22216200  1
  Cu  Cu7  1  0.50409100  0.75000000  0.27783800  1
  C  C8  1  0.94486500  0.75000000  0.09721600  1
  C  C9  1  0.44486500  0.25000000  0.40278400  1
  C  C10  1  0.05513500  0.25000000  0.90278400  1
  C  C11  1  0.55513500  0.75000000  0.59721600  1
  C  C12  1  0.82518800  0.75000000  0.95510600  1
  C  C13  1  0.32518800  0.25000000  0.54489400  1
  C  C14  1  0.17481200  0.25000000  0.04489400  1
  C  C15  1  0.67481200  0.75000000  0.45510600  1
  C  C16  1  0.20783700  0.04307600  0.82630100  1
  C  C17  1  0.70783700  0.95692400  0.67369900  1
  C  C18  1  0.79216300  0.54307600  0.17369900  1
  C  C19  1  0.29216300  0.45692400  0.32630100  1
  C  C20  1  0.79216300  0.95692400  0.17369900  1
  C  C21  1  0.29216300  0.04307600  0.32630100  1
  C  C22  1  0.20783700  0.45692400  0.82630100  1
  C  C23  1  0.70783700  0.54307600  0.67369900  1
  C  C24  1  0.22937700  0.75000000  0.61072800  1
  C  C25  1  0.72937700  0.25000000  0.88927200  1
  C  C26  1  0.77062300  0.25000000  0.38927200  1
  C  C27  1  0.27062300  0.75000000  0.11072800  1
