# generated using pymatgen
data_Cu10NiC6
_symmetry_space_group_name_H-M   'P 1'
_cell_length_a   7.34917600
_cell_length_b   11.46183100
_cell_length_c   14.22663100
_cell_angle_alpha   90.00000000
_cell_angle_beta   90.00000000
_cell_angle_gamma   90.00000000
_symmetry_Int_Tables_number   1
_chemical_formula_structural   Cu10NiC6
_chemical_formula_sum   'Cu40 Ni4 C24'
_cell_volume   1198.38045152
_cell_formula_units_Z   4
loop_
 _symmetry_equiv_pos_site_id
 _symmetry_equiv_pos_as_xyz
  1  'x, y, z'
loop_
 _atom_site_type_symbol
 _atom_site_label
 _atom_site_symmetry_multiplicity
 _atom_site_fract_x
 _atom_site_fract_y
 _atom_site_fract_z
 _atom_site_occupancy
  C  C0  1  0.88005000  0.74258800  0.09387500  1
  C  C1  1  0.61995000  0.25741200  0.59387500  1
  C  C2  1  0.38005000  0.75741200  0.90612500  1
  C  C3  1  0.11995000  0.24258800  0.40612500  1
  C  C4  1  0.85997000  0.25371700  0.11135900  1
  C  C5  1  0.64003000  0.74628300  0.61135900  1
  C  C6  1  0.35997000  0.24628300  0.88864100  1
  C  C7  1  0.14003000  0.75371700  0.38864100  1
  C  C8  1  0.62201700  0.99370100  0.32038600  1
  C  C9  1  0.87798300  0.00629900  0.82038600  1
  C  C10  1  0.12201700  0.50629900  0.67961400  1
  C  C11  1  0.37798300  0.49370100  0.17961400  1
  C  C12  1  0.91652100  0.50322100  0.24941700  1
  C  C13  1  0.58347900  0.49677900  0.74941700  1
  C  C14  1  0.41652100  0.99677900  0.75058300  1
  C  C15  1  0.08347900  0.00322100  0.25058300  1
  C  C16  1  0.81450100  0.51066700  0.45907300  1
  C  C17  1  0.68549900  0.48933300  0.95907300  1
  C  C18  1  0.31450100  0.98933300  0.54092700  1
  C  C19  1  0.18549900  0.01066700  0.04092700  1
  C  C20  1  0.38542700  0.51942500  0.47446100  1
  C  C21  1  0.11457300  0.48057500  0.97446100  1
  C  C22  1  0.88542700  0.98057500  0.52553900  1
  C  C23  1  0.61457300  0.01942500  0.02553900  1
  Ni  Ni24  1  0.47530100  0.76433600  0.20945200  1
  Ni  Ni25  1  0.02469900  0.23566400  0.70945200  1
  Ni  Ni26  1  0.97530100  0.73566400  0.79054800  1
  Ni  Ni27  1  0.52469900  0.26433600  0.29054800  1
  Cu  Cu28  1  0.97295500  0.89015300  0.24143700  1
  Cu  Cu29  1  0.52704500  0.10984700  0.74143700  1
  Cu  Cu30  1  0.47295500  0.60984700  0.75856300  1
  Cu  Cu31  1  0.02704500  0.39015300  0.25856300  1
  Cu  Cu32  1  0.96157400  0.11065700  0.26546900  1
  Cu  Cu33  1  0.53842600  0.88934300  0.76546900  1
  Cu  Cu34  1  0.46157400  0.38934300  0.73453100  1
  Cu  Cu35  1  0.03842600  0.61065700  0.23453100  1
  Cu  Cu36  1  0.84016200  0.10100600  0.48446200  1
  Cu  Cu37  1  0.65983800  0.89899400  0.98446200  1
  Cu  Cu38  1  0.34016200  0.39899400  0.51553800  1
  Cu  Cu39  1  0.15983800  0.60100600  0.01553800  1
  Cu  Cu40  1  0.82268700  0.87938300  0.46216500  1
  Cu  Cu41  1  0.67731300  0.12061700  0.96216500  1
  Cu  Cu42  1  0.32268700  0.62061700  0.53783500  1
  Cu  Cu43  1  0.17731300  0.37938300  0.03783500  1
  Cu  Cu44  1  0.81031800  0.52966200  0.34862200  1
  Cu  Cu45  1  0.68968200  0.47033800  0.84862200  1
  Cu  Cu46  1  0.31031800  0.97033800  0.65137800  1
  Cu  Cu47  1  0.18968200  0.02966200  0.15137800  1
  Cu  Cu48  1  0.73718000  0.50500900  0.67773500  1
  Cu  Cu49  1  0.76282000  0.49499100  0.17773500  1
  Cu  Cu50  1  0.23718000  0.99499100  0.32226500  1
  Cu  Cu51  1  0.26282000  0.00500900  0.82226500  1
  Cu  Cu52  1  0.63105000  0.61257500  0.98483500  1
  Cu  Cu53  1  0.86895000  0.38742500  0.48483500  1
  Cu  Cu54  1  0.13105000  0.88742500  0.01516500  1
  Cu  Cu55  1  0.36895000  0.11257500  0.51516500  1
  Cu  Cu56  1  0.60835600  0.53459100  0.48535900  1
  Cu  Cu57  1  0.89164400  0.46540900  0.98535900  1
  Cu  Cu58  1  0.10835600  0.96540900  0.51464100  1
  Cu  Cu59  1  0.39164400  0.03459100  0.01464100  1
  Cu  Cu60  1  0.42159700  0.89117500  0.49546100  1
  Cu  Cu61  1  0.07840300  0.10882500  0.99546100  1
  Cu  Cu62  1  0.92159700  0.60882500  0.50453900  1
  Cu  Cu63  1  0.57840300  0.39117500  0.00453900  1
  Cu  Cu64  1  0.33314700  0.53734100  0.37230200  1
  Cu  Cu65  1  0.16685300  0.46265900  0.87230200  1
  Cu  Cu66  1  0.83314700  0.96265900  0.62769800  1
  Cu  Cu67  1  0.66685300  0.03734100  0.12769800  1
