# generated using pymatgen
data_Cu(NiC4)5
_symmetry_space_group_name_H-M   'P 1'
_cell_length_a   10.14003036
_cell_length_b   10.14003036
_cell_length_c   10.14003036
_cell_angle_alpha   108.93094832
_cell_angle_beta   108.93094832
_cell_angle_gamma   110.55725440
_symmetry_Int_Tables_number   1
_chemical_formula_structural   Cu(NiC4)5
_chemical_formula_sum   'Cu2 Ni10 C40'
_cell_volume   802.37719643
_cell_formula_units_Z   2
loop_
 _symmetry_equiv_pos_site_id
 _symmetry_equiv_pos_as_xyz
  1  'x, y, z'
loop_
 _atom_site_type_symbol
 _atom_site_label
 _atom_site_symmetry_multiplicity
 _atom_site_fract_x
 _atom_site_fract_y
 _atom_site_fract_z
 _atom_site_occupancy
  Ni  Ni0  1  0.23799800  0.65388100  0.82605300  1
  Ni  Ni1  1  0.66194500  0.98799800  0.08411700  1
  Ni  Ni2  1  0.50000000  0.50000000  0.00000000  1
  Ni  Ni3  1  0.75000000  0.25000000  0.50000000  1
  Ni  Ni4  1  0.58805500  0.76200200  0.41588300  1
  Ni  Ni5  1  0.01200200  0.09611900  0.67394700  1
  Ni  Ni6  1  0.42217200  0.33805500  0.32605300  1
  Ni  Ni7  1  0.34611900  0.17217200  0.58411700  1
  Ni  Ni8  1  0.90388100  0.57782800  0.91588300  1
  Ni  Ni9  1  0.82782800  0.41194500  0.17394700  1
  Cu  Cu10  1  0.00000000  0.00000000  0.00000000  1
  Cu  Cu11  1  0.25000000  0.75000000  0.50000000  1
  C  C12  1  0.88912000  0.66724100  0.58703500  1
  C  C13  1  0.91724100  0.83020700  0.27812100  1
  C  C14  1  0.55208500  0.63912000  0.72187900  1
  C  C15  1  0.08020700  0.30208500  0.41296500  1
  C  C16  1  0.36088000  0.08275900  0.91296500  1
  C  C17  1  0.33275900  0.91979300  0.22187900  1
  C  C18  1  0.69791500  0.11088000  0.77812100  1
  C  C19  1  0.16979300  0.44791500  0.08703500  1
  C  C20  1  0.38097800  0.50236700  0.17616900  1
  C  C21  1  0.75236700  0.07619800  0.62138900  1
  C  C22  1  0.45480900  0.13097800  0.37861100  1
  C  C23  1  0.32619800  0.20480900  0.82383100  1
  C  C24  1  0.86902200  0.24763300  0.32383100  1
  C  C25  1  0.49763300  0.67380200  0.87861100  1
  C  C26  1  0.79519100  0.61902200  0.12138900  1
  C  C27  1  0.92380200  0.54519100  0.67616900  1
  C  C28  1  0.10325300  0.50495900  0.23547100  1
  C  C29  1  0.75495900  0.01948700  0.90170600  1
  C  C30  1  0.11778200  0.85325300  0.09829400  1
  C  C31  1  0.26948700  0.86778200  0.76452900  1
  C  C32  1  0.14674700  0.24504100  0.26452900  1
  C  C33  1  0.49504100  0.73051300  0.59829400  1
  C  C34  1  0.13221800  0.89674700  0.40170600  1
  C  C35  1  0.98051300  0.88221800  0.73547100  1
  C  C36  1  0.14283700  0.54276400  0.96615300  1
  C  C37  1  0.79276400  0.32661200  0.89992800  1
  C  C38  1  0.42668400  0.89283700  0.10007200  1
  C  C39  1  0.57661200  0.17668400  0.03384700  1
  C  C40  1  0.96695400  0.64322800  0.44628200  1
  C  C41  1  0.89322800  0.94694600  0.17627500  1
  C  C42  1  0.77067100  0.71695400  0.82372500  1
  C  C43  1  0.19694600  0.52067100  0.55371800  1
  C  C44  1  0.28304600  0.10677200  0.05371800  1
  C  C45  1  0.35677200  0.80305400  0.32372500  1
  C  C46  1  0.47932900  0.03304600  0.67627500  1
  C  C47  1  0.05305400  0.22932900  0.94628200  1
  C  C48  1  0.67338800  0.57331600  0.46615300  1
  C  C49  1  0.82331600  0.85716300  0.39992800  1
  C  C50  1  0.45723600  0.42338800  0.60007200  1
  C  C51  1  0.10716300  0.20723600  0.53384700  1
