# generated using pymatgen
data_Cu(NiC10)2
_symmetry_space_group_name_H-M   'P 1'
_cell_length_a   8.19816282
_cell_length_b   17.89052333
_cell_length_c   18.29466026
_cell_angle_alpha   90.00000000
_cell_angle_beta   102.94754561
_cell_angle_gamma   90.00000000
_symmetry_Int_Tables_number   1
_chemical_formula_structural   Cu(NiC10)2
_chemical_formula_sum   'Cu8 Ni16 C160'
_cell_volume   2615.04680686
_cell_formula_units_Z   8
loop_
 _symmetry_equiv_pos_site_id
 _symmetry_equiv_pos_as_xyz
  1  'x, y, z'
loop_
 _atom_site_type_symbol
 _atom_site_label
 _atom_site_symmetry_multiplicity
 _atom_site_fract_x
 _atom_site_fract_y
 _atom_site_fract_z
 _atom_site_occupancy
  Ni  Ni0  1  0.62465055  0.07638188  0.75595120  1
  Ni  Ni1  1  0.86869935  0.92361812  0.24404880  1
  Ni  Ni2  1  0.62465055  0.42361812  0.75595120  1
  Ni  Ni3  1  0.86869935  0.57638188  0.24404880  1
  Ni  Ni4  1  0.11893418  0.08186309  0.73868393  1
  Ni  Ni5  1  0.38025025  0.91813691  0.26131607  1
  Ni  Ni6  1  0.11893418  0.41813691  0.73868393  1
  Ni  Ni7  1  0.38025025  0.58186309  0.26131607  1
  Ni  Ni8  1  0.79141606  0.25000000  0.07836005  1
  Ni  Ni9  1  0.71305601  0.75000000  0.92163995  1
  Ni  Ni10  1  0.28612166  0.25000000  0.07804241  1
  Ni  Ni11  1  0.20807925  0.75000000  0.92195759  1
  Ni  Ni12  1  0.03889328  0.75000000  0.57631457  1
  Ni  Ni13  1  0.46257871  0.25000000  0.42368543  1
  Ni  Ni14  1  0.53860201  0.75000000  0.58018919  1
  Ni  Ni15  1  0.95841282  0.25000000  0.41981081  1
  Cu  Cu16  1  0.74698689  0.00000000  1.00000000  1
  Cu  Cu17  1  0.74698689  0.50000000  1.00000000  1
  Cu  Cu18  1  0.24111772  0.00000000  1.00000000  1
  Cu  Cu19  1  0.24111772  0.50000000  1.00000000  1
  Cu  Cu20  1  0.99726123  0.49907388  0.49962637  1
  Cu  Cu21  1  0.49763486  0.50092612  0.50037363  1
  Cu  Cu22  1  0.99726123  0.00092612  0.49962637  1
  Cu  Cu23  1  0.49763486  0.99907388  0.50037363  1
  C  C24  1  0.86533333  0.25000000  0.75157432  1
  C  C25  1  0.11375901  0.75000000  0.24842568  1
  C  C26  1  0.36642864  0.25000000  0.74894013  1
  C  C27  1  0.61748851  0.75000000  0.25105987  1
  C  C28  1  0.86749101  0.75000000  0.74954143  1
  C  C29  1  0.11794958  0.25000000  0.25045857  1
  C  C30  1  0.36786964  0.75000000  0.75062116  1
  C  C31  1  0.61724848  0.25000000  0.24937884  1
  C  C32  1  0.96010263  0.14109994  0.93039857  1
  C  C33  1  0.02970406  0.85890006  0.06960143  1
  C  C34  1  0.96010263  0.35890006  0.93039857  1
  C  C35  1  0.02970406  0.64109994  0.06960143  1
  C  C36  1  0.46076512  0.14163846  0.93381554  1
  C  C37  1  0.52694958  0.85836154  0.06618446  1
  C  C38  1  0.46076512  0.35836154  0.93381554  1
  C  C39  1  0.52694958  0.64163846  0.06618446  1
  C  C40  1  0.20999444  0.64152736  0.43427712  1
  C  C41  1  0.77571732  0.35847264  0.56572288  1
  C  C42  1  0.20999444  0.85847264  0.43427712  1
  C  C43  1  0.77571732  0.14152736  0.56572288  1
  C  C44  1  0.70989948  0.64165626  0.43144354  1
  C  C45  1  0.27845594  0.35834374  0.56855646  1
  C  C46  1  0.70989948  0.85834374  0.43144354  1
  C  C47  1  0.27845594  0.14165626  0.56855646  1
  C  C48  1  0.06515506  0.06572634  0.14155729  1
  C  C49  1  0.92359777  0.93427366  0.85844271  1
  C  C50  1  0.06515506  0.43427366  0.14155729  1
  C  C51  1  0.92359777  0.56572634  0.85844271  1
  C  C52  1  0.56289939  0.06878925  0.14028410  1
  C  C53  1  0.42261529  0.93121075  0.85971590  1
  C  C54  1  0.56289939  0.43121075  0.14028410  1
  C  C55  1  0.42261529  0.56878925  0.85971590  1
  C  C56  1  0.31636188  0.56723911  0.64091060  1
  C  C57  1  0.67545129  0.43276089  0.35908940  1
  C  C58  1  0.31636188  0.93276089  0.64091060  1
  C  C59  1  0.67545129  0.06723911  0.35908940  1
  C  C60  1  0.81430327  0.56769962  0.64313526  1
  C  C61  1  0.17116801  0.43230038  0.35686474  1
  C  C62  1  0.81430327  0.93230038  0.64313526  1
  C  C63  1  0.17116801  0.06769962  0.35686474  1
  C  C64  1  0.95786403  0.16880330  0.82418426  1
  C  C65  1  0.13367977  0.83119670  0.17581574  1
  C  C66  1  0.95786403  0.33119670  0.82418426  1
  C  C67  1  0.13367977  0.66880330  0.17581574  1
  C  C68  1  0.40725689  0.16752825  0.82404063  1
  C  C69  1  0.58321626  0.83247175  0.17595937  1
  C  C70  1  0.40725689  0.33247175  0.82404063  1
  C  C71  1  0.58321626  0.66752825  0.17595937  1
  C  C72  1  0.15702767  0.66873607  0.32531183  1
  C  C73  1  0.83171584  0.33126393  0.67468817  1
  C  C74  1  0.15702767  0.83126393  0.32531183  1
  C  C75  1  0.83171584  0.16873607  0.67468817  1
  C  C76  1  0.70791833  0.66950860  0.32550989  1
  C  C77  1  0.38240844  0.33049140  0.67449011  1
  C  C78  1  0.70791833  0.83049140  0.32550989  1
  C  C79  1  0.38240844  0.16950860  0.67449011  1
  C  C80  1  0.98742922  0.25000000  0.96577491  1
  C  C81  1  0.02165430  0.75000000  0.03422509  1
  C  C82  1  0.51298054  0.25000000  0.96363966  1
  C  C83  1  0.54934089  0.75000000  0.03636034  1
  C  C84  1  0.25609713  0.75000000  0.46684598  1
  C  C85  1  0.78925116  0.25000000  0.53315402  1
  C  C86  1  0.73882045  0.75000000  0.46752621  1
  C  C87  1  0.27129424  0.25000000  0.53247379  1
  C  C88  1  0.90855406  0.96663842  0.75054682  1
  C  C89  1  0.15800724  0.03336158  0.24945318  1
  C  C90  1  0.90855406  0.53336158  0.75054682  1
  C  C91  1  0.15800724  0.46663842  0.24945318  1
  C  C92  1  0.37248612  0.96532881  0.75053791  1
  C  C93  1  0.62194821  0.03467119  0.24946209  1
  C  C94  1  0.37248612  0.53467119  0.75053791  1
  C  C95  1  0.62194821  0.46532881  0.24946209  1
  C  C96  1  0.99368424  0.03551033  0.89513809  1
  C  C97  1  0.09854615  0.96448967  0.10486191  1
  C  C98  1  0.99368424  0.46448967  0.89513809  1
  C  C99  1  0.09854615  0.53551033  0.10486191  1
  C  C100  1  0.44841826  0.03548681  0.89456909  1
  C  C101  1  0.55384916  0.96451319  0.10543091  1
  C  C102  1  0.44841826  0.46451319  0.89456909  1
  C  C103  1  0.55384916  0.53548681  0.10543091  1
  C  C104  1  0.20738955  0.53620527  0.39416567  1
  C  C105  1  0.81322388  0.46379473  0.60583433  1
  C  C106  1  0.20738955  0.96379473  0.39416567  1
  C  C107  1  0.81322388  0.03620527  0.60583433  1
  C  C108  1  0.73297977  0.53614450  0.39361889  1
  C  C109  1  0.33936089  0.46385550  0.60638111  1
  C  C110  1  0.73297977  0.96385550  0.39361889  1
  C  C111  1  0.33936089  0.03614450  0.60638111  1
  C  C112  1  0.97274406  0.89564007  0.96538173  1
  C  C113  1  0.00736233  0.10435993  0.03461827  1
  C  C114  1  0.97274406  0.60435993  0.96538173  1
  C  C115  1  0.00736233  0.39564007  0.03461827  1
  C  C116  1  0.53534544  0.89380267  0.96464120  1
  C  C117  1  0.57070424  0.10619733  0.03535880  1
  C  C118  1  0.53534544  0.60619733  0.96464120  1
  C  C119  1  0.57070424  0.39380267  0.03535880  1
  C  C120  1  0.22465118  0.39572902  0.46445174  1
  C  C121  1  0.76019944  0.60427098  0.53554826  1
  C  C122  1  0.22465118  0.10427098  0.46445174  1
  C  C123  1  0.76019944  0.89572902  0.53554826  1
  C  C124  1  0.78233849  0.39462334  0.46425970  1
  C  C125  1  0.31807879  0.60537666  0.53574030  1
  C  C126  1  0.78233849  0.10537666  0.46425970  1
  C  C127  1  0.31807879  0.89462334  0.53574030  1
  C  C128  1  0.92068179  0.82512915  0.83219190  1
  C  C129  1  0.08848989  0.17487085  0.16780810  1
  C  C130  1  0.92068179  0.67487085  0.83219190  1
  C  C131  1  0.08848989  0.32512915  0.16780810  1
  C  C132  1  0.45159468  0.82509112  0.83014956  1
  C  C133  1  0.62144512  0.17490888  0.16985044  1
  C  C134  1  0.45159468  0.67490888  0.83014956  1
  C  C135  1  0.62144512  0.32509112  0.16985044  1
  C  C136  1  0.19983612  0.32512512  0.33168909  1
  C  C137  1  0.86814703  0.67487488  0.66831091  1
  C  C138  1  0.19983612  0.17487488  0.33168909  1
  C  C139  1  0.86814703  0.82512512  0.66831091  1
  C  C140  1  0.67483045  0.32437706  0.33297099  1
  C  C141  1  0.34185945  0.67562294  0.66702901  1
  C  C142  1  0.67483045  0.17562294  0.33297099  1
  C  C143  1  0.34185945  0.82437706  0.66702901  1
  C  C144  1  0.72959511  0.13483397  0.91729077  1
  C  C145  1  0.81230434  0.86516603  0.08270923  1
  C  C146  1  0.72959511  0.36516603  0.91729077  1
  C  C147  1  0.81230434  0.63483397  0.08270923  1
  C  C148  1  0.47904249  0.63793484  0.41966165  1
  C  C149  1  0.05938084  0.36206516  0.58033835  1
  C  C150  1  0.47904249  0.86206516  0.41966165  1
  C  C151  1  0.05938084  0.13793484  0.58033835  1
  C  C152  1  0.24644448  0.14439941  0.95118960  1
  C  C153  1  0.29525488  0.85560059  0.04881040  1
  C  C154  1  0.24644448  0.35560059  0.95118960  1
  C  C155  1  0.29525488  0.64439941  0.04881040  1
  C  C156  1  0.99403010  0.64161631  0.45042181  1
  C  C157  1  0.54360829  0.35838369  0.54957819  1
  C  C158  1  0.99403010  0.85838369  0.45042181  1
  C  C159  1  0.54360829  0.14161631  0.54957819  1
  C  C160  1  0.69646962  0.94801094  0.85285690  1
  C  C161  1  0.84361273  0.05198906  0.14714310  1
  C  C162  1  0.69646962  0.55198906  0.85285690  1
  C  C163  1  0.84361273  0.44801094  0.14714310  1
  C  C164  1  0.94201165  0.43285235  0.34705662  1
  C  C165  1  0.59495502  0.56714765  0.65294338  1
  C  C166  1  0.94201165  0.06714765  0.34705662  1
  C  C167  1  0.59495502  0.93285235  0.65294338  1
  C  C168  1  0.20480621  0.92028001  0.87042750  1
  C  C169  1  0.33437872  0.07971999  0.12957250  1
  C  C170  1  0.20480621  0.57971999  0.87042750  1
  C  C171  1  0.33437872  0.42028001  0.12957250  1
  C  C172  1  0.45583646  0.43792840  0.37053377  1
  C  C173  1  0.08530269  0.56207160  0.62946623  1
  C  C174  1  0.45583646  0.06207160  0.37053377  1
  C  C175  1  0.08530269  0.93792840  0.62946623  1
  C  C176  1  0.65017456  0.25000000  0.76610292  1
  C  C177  1  0.88407164  0.75000000  0.23389708  1
  C  C178  1  0.13562229  0.25000000  0.73439865  1
  C  C179  1  0.40122365  0.75000000  0.26560135  1
  C  C180  1  0.89803973  0.25000000  0.26003172  1
  C  C181  1  0.63800801  0.75000000  0.73996828  1
  C  C182  1  0.38743513  0.25000000  0.24043096  1
  C  C183  1  0.14700417  0.75000000  0.75956904  1
