# generated using pymatgen
data_Cu4Ni3C13
_symmetry_space_group_name_H-M   'P 1'
_cell_length_a   9.35466300
_cell_length_b   5.92081400
_cell_length_c   7.26012296
_cell_angle_alpha   66.12305177
_cell_angle_beta   90.00000000
_cell_angle_gamma   90.00000000
_symmetry_Int_Tables_number   1
_chemical_formula_structural   Cu4Ni3C13
_chemical_formula_sum   'Cu8 Ni6 C26'
_cell_volume   367.70351072
_cell_formula_units_Z   2
loop_
 _symmetry_equiv_pos_site_id
 _symmetry_equiv_pos_as_xyz
  1  'x, y, z'
loop_
 _atom_site_type_symbol
 _atom_site_label
 _atom_site_symmetry_multiplicity
 _atom_site_fract_x
 _atom_site_fract_y
 _atom_site_fract_z
 _atom_site_occupancy
  C  C0  1  0.00005200  0.00000000  0.00000000  1
  C  C1  1  0.50000600  0.00000000  0.50000000  1
  Ni  Ni2  1  0.77768000  0.55591400  0.77771300  1
  Ni  Ni3  1  0.27801200  0.55542200  0.27800200  1
  Ni  Ni4  1  0.27801200  0.44457800  0.72199800  1
  Ni  Ni5  1  0.77768000  0.44408600  0.22228700  1
  Ni  Ni6  1  0.94429200  0.00000000  0.50000000  1
  Ni  Ni7  1  0.44427300  0.00000000  0.00000000  1
  Cu  Cu8  1  0.22180600  0.94322500  0.72111000  1
  Cu  Cu9  1  0.72124700  0.94289200  0.22193100  1
  Cu  Cu10  1  0.22180600  0.05677500  0.27889000  1
  Cu  Cu11  1  0.72124700  0.05710800  0.77806900  1
  Cu  Cu12  1  0.55682800  0.50000000  0.50000000  1
  Cu  Cu13  1  0.05705700  0.50000000  0.00000000  1
  Cu  Cu14  1  0.99999800  0.50000000  0.50000000  1
  Cu  Cu15  1  0.49999900  0.50000000  0.00000000  1
  C  C16  1  0.92562100  0.35137500  0.42567200  1
  C  C17  1  0.42572800  0.35130900  0.92567100  1
  C  C18  1  0.92562100  0.64862500  0.57432800  1
  C  C19  1  0.42572800  0.64869100  0.07432900  1
  C  C20  1  0.14863600  0.50000000  0.50000000  1
  C  C21  1  0.64866100  0.50000000  0.00000000  1
  C  C22  1  0.07568400  0.97117300  0.70336800  1
  C  C23  1  0.57502900  0.97156300  0.20496000  1
  C  C24  1  0.30080600  0.21984700  0.32929200  1
  C  C25  1  0.79935900  0.22106600  0.82817900  1
  C  C26  1  0.62420900  0.37013000  0.40455300  1
  C  C27  1  0.12490400  0.37225500  0.90362200  1
  C  C28  1  0.30080600  0.78015300  0.67070800  1
  C  C29  1  0.79935900  0.77893400  0.17182100  1
  C  C30  1  0.62420900  0.62987000  0.59544700  1
  C  C31  1  0.12490400  0.62774500  0.09637800  1
  C  C32  1  0.07568400  0.02882700  0.29663200  1
  C  C33  1  0.57502900  0.02843700  0.79504000  1
  C  C34  1  0.79578800  0.09135800  0.29562500  1
  C  C35  1  0.29561200  0.09142000  0.79576700  1
  C  C36  1  0.79578800  0.90864200  0.70437500  1
  C  C37  1  0.29561200  0.90858000  0.20423300  1
  C  C38  1  0.40856500  0.50000000  0.50000000  1
  C  C39  1  0.90865900  0.50000000  0.00000000  1
