# generated using pymatgen
data_CuNiC6
_symmetry_space_group_name_H-M   'P 1'
_cell_length_a   8.02607500
_cell_length_b   8.10250500
_cell_length_c   12.62453100
_cell_angle_alpha   90.00000000
_cell_angle_beta   90.00000000
_cell_angle_gamma   90.00000000
_symmetry_Int_Tables_number   1
_chemical_formula_structural   CuNiC6
_chemical_formula_sum   'Cu4 Ni4 C24'
_cell_volume   820.98982464
_cell_formula_units_Z   4
loop_
 _symmetry_equiv_pos_site_id
 _symmetry_equiv_pos_as_xyz
  1  'x, y, z'
loop_
 _atom_site_type_symbol
 _atom_site_label
 _atom_site_symmetry_multiplicity
 _atom_site_fract_x
 _atom_site_fract_y
 _atom_site_fract_z
 _atom_site_occupancy
  Ni  Ni0  1  0.73211900  0.28518900  0.41367700  1
  Ni  Ni1  1  0.23211900  0.78518900  0.08632300  1
  Ni  Ni2  1  0.73211900  0.21481100  0.91367700  1
  Ni  Ni3  1  0.23211900  0.71481100  0.58632300  1
  Cu  Cu4  1  0.11934700  0.35113700  0.19615500  1
  Cu  Cu5  1  0.61934700  0.64886300  0.80384500  1
  Cu  Cu6  1  0.61934700  0.85113700  0.30384500  1
  Cu  Cu7  1  0.11934700  0.14886300  0.69615500  1
  C  C8  1  0.35669200  0.12694000  0.48604700  1
  C  C9  1  0.85669200  0.62694000  0.01395300  1
  C  C10  1  0.15396600  0.16021600  0.98355000  1
  C  C11  1  0.65396600  0.83978400  0.01645000  1
  C  C12  1  0.85669200  0.87306000  0.51395300  1
  C  C13  1  0.65396600  0.66021600  0.51645000  1
  C  C14  1  0.15396600  0.33978400  0.48355000  1
  C  C15  1  0.35669200  0.37306000  0.98604700  1
  C  C16  1  0.84725400  0.95858900  0.39682200  1
  C  C17  1  0.61141300  0.90156700  0.89635700  1
  C  C18  1  0.95440700  0.91961500  0.62110800  1
  C  C19  1  0.61141300  0.59843300  0.39635700  1
  C  C20  1  0.55767600  0.87369000  0.12590400  1
  C  C21  1  0.05767600  0.12631000  0.87409600  1
  C  C22  1  0.34725400  0.45858900  0.10317800  1
  C  C23  1  0.11141300  0.40156700  0.60364300  1
  C  C24  1  0.34725400  0.04141100  0.60317800  1
  C  C25  1  0.11141300  0.09843300  0.10364300  1
  C  C26  1  0.84725400  0.54141100  0.89682200  1
  C  C27  1  0.05767600  0.37369000  0.37409600  1
  C  C28  1  0.45440700  0.41961500  0.87889200  1
  C  C29  1  0.45440700  0.08038500  0.37889200  1
  C  C30  1  0.55767600  0.62631000  0.62590400  1
  C  C31  1  0.95440700  0.58038500  0.12110800  1
