# generated using pymatgen
data_Cu2NiC3
_symmetry_space_group_name_H-M   'P 1'
_cell_length_a   4.29669500
_cell_length_b   12.77455100
_cell_length_c   16.99052078
_cell_angle_alpha   89.91710068
_cell_angle_beta   90.00000000
_cell_angle_gamma   90.00000000
_symmetry_Int_Tables_number   1
_chemical_formula_structural   Cu2NiC3
_chemical_formula_sum   'Cu24 Ni12 C36'
_cell_volume   932.58066530
_cell_formula_units_Z   12
loop_
 _symmetry_equiv_pos_site_id
 _symmetry_equiv_pos_as_xyz
  1  'x, y, z'
loop_
 _atom_site_type_symbol
 _atom_site_label
 _atom_site_symmetry_multiplicity
 _atom_site_fract_x
 _atom_site_fract_y
 _atom_site_fract_z
 _atom_site_occupancy
  Ni  Ni0  1  0.00000000  0.04949700  0.57874100  1
  Ni  Ni1  1  0.00000000  0.17502600  0.62598800  1
  Ni  Ni2  1  0.00000000  0.94321000  0.42218300  1
  Ni  Ni3  1  0.00000000  0.81785600  0.37528600  1
  Ni  Ni4  1  0.00000000  0.38521000  0.61838300  1
  Ni  Ni5  1  0.00000000  0.60461200  0.38184300  1
  Ni  Ni6  1  0.00000000  0.55480400  0.92019800  1
  Ni  Ni7  1  0.00000000  0.68253400  0.87617300  1
  Ni  Ni8  1  0.00000000  0.44261700  0.07551100  1
  Ni  Ni9  1  0.00000000  0.31814900  0.12465500  1
  Ni  Ni10  1  0.00000000  0.88977700  0.88343600  1
  Ni  Ni11  1  0.00000000  0.10454900  0.11973300  1
  Cu  Cu12  1  0.00000000  0.03554800  0.83723000  1
  Cu  Cu13  1  0.00000000  0.17008800  0.92606400  1
  Cu  Cu14  1  0.00000000  0.19766400  0.78346000  1
  Cu  Cu15  1  0.00000000  0.34718000  0.87066900  1
  Cu  Cu16  1  0.00000000  0.36657900  0.73759200  1
  Cu  Cu17  1  0.00000000  0.53504300  0.66156400  1
  Cu  Cu18  1  0.00000000  0.67054600  0.57349000  1
  Cu  Cu19  1  0.00000000  0.86542200  0.76308500  1
  Cu  Cu20  1  0.00000000  0.84704200  0.62953400  1
  Cu  Cu21  1  0.00000000  0.81899800  0.49614700  1
  Cu  Cu22  1  0.00000000  0.17362500  0.50518900  1
  Cu  Cu23  1  0.00000000  0.14439200  0.37206800  1
  Cu  Cu24  1  0.00000000  0.12516100  0.23912700  1
  Cu  Cu25  1  0.00000000  0.32127400  0.42721800  1
  Cu  Cu26  1  0.00000000  0.29387700  0.28452300  1
  Cu  Cu27  1  0.00000000  0.45586900  0.33829600  1
  Cu  Cu28  1  0.00000000  0.62450300  0.26245400  1
  Cu  Cu29  1  0.00000000  0.64454600  0.12939300  1
  Cu  Cu30  1  0.00000000  0.79364800  0.21727800  1
  Cu  Cu31  1  0.00000000  0.82232300  0.07504800  1
  Cu  Cu32  1  0.00000000  0.95628000  0.16398900  1
  Cu  Cu33  1  0.00000000  0.31757900  0.00371700  1
  Cu  Cu34  1  0.00000000  0.69672400  0.71649700  1
  Cu  Cu35  1  0.00000000  0.67591700  0.99656900  1
  C  C36  1  0.00000000  0.09473300  0.77216300  1
  C  C37  1  0.00000000  0.06690100  0.91276600  1
  C  C38  1  0.00000000  0.23810700  0.85986800  1
  C  C39  1  0.00000000  0.26254600  0.72184600  1
  C  C40  1  0.00000000  0.38633700  0.94203200  1
  C  C41  1  0.00000000  0.41108900  0.80812300  1
  C  C42  1  0.00000000  0.42704300  0.67003500  1
  C  C43  1  0.00000000  0.59386300  0.72688100  1
  C  C44  1  0.00000000  0.56703500  0.58611300  1
  C  C45  1  0.00000000  0.71197900  0.50171900  1
  C  C46  1  0.00000000  0.73797600  0.64011400  1
  C  C47  1  0.00000000  0.76134100  0.77865100  1
  C  C48  1  0.00000000  0.92744400  0.82988900  1
  C  C49  1  0.00000000  0.91017600  0.69248700  1
  C  C50  1  0.00000000  0.88705100  0.55821900  1
  C  C51  1  0.00000000  0.86283400  0.42544400  1
  C  C52  1  0.00000000  0.12993800  0.57585900  1
  C  C53  1  0.00000000  0.10508600  0.44359800  1
  C  C54  1  0.00000000  0.08053300  0.30960300  1
  C  C55  1  0.00000000  0.06414100  0.17199000  1
  C  C56  1  0.00000000  0.28060700  0.49923500  1
  C  C57  1  0.00000000  0.25335900  0.36104000  1
  C  C58  1  0.00000000  0.22908500  0.22287500  1
  C  C59  1  0.00000000  0.42455000  0.41390700  1
  C  C60  1  0.00000000  0.39667600  0.27328500  1
  C  C61  1  0.00000000  0.56363000  0.32980800  1
  C  C62  1  0.00000000  0.58025100  0.19168800  1
  C  C63  1  0.00000000  0.60615800  0.05754100  1
  C  C64  1  0.00000000  0.72838700  0.27861800  1
  C  C65  1  0.00000000  0.75362100  0.14074400  1
  C  C66  1  0.00000000  0.89657100  0.22877500  1
  C  C67  1  0.00000000  0.92547900  0.08841600  1
  C  C68  1  0.00000000  0.78266000  0.00295600  1
  C  C69  1  0.00000000  0.36203900  0.07399800  1
  C  C70  1  0.00000000  0.21065500  0.99812000  1
  C  C71  1  0.00000000  0.63484900  0.92506700  1
