# generated using pymatgen
data_Cu2Ni2C9
_symmetry_space_group_name_H-M   'P 1'
_cell_length_a   10.09386200
_cell_length_b   8.94769200
_cell_length_c   11.44980122
_cell_angle_alpha   51.06384909
_cell_angle_beta   90.00000000
_cell_angle_gamma   90.00000000
_symmetry_Int_Tables_number   1
_chemical_formula_structural   Cu2Ni2C9
_chemical_formula_sum   'Cu8 Ni8 C36'
_cell_volume   804.37838868
_cell_formula_units_Z   4
loop_
 _symmetry_equiv_pos_site_id
 _symmetry_equiv_pos_as_xyz
  1  'x, y, z'
loop_
 _atom_site_type_symbol
 _atom_site_label
 _atom_site_symmetry_multiplicity
 _atom_site_fract_x
 _atom_site_fract_y
 _atom_site_fract_z
 _atom_site_occupancy
  C  C0  1  0.10664700  0.21880400  0.32653400  1
  C  C1  1  0.60664700  0.78119600  0.17346600  1
  C  C2  1  0.89335300  0.78119600  0.67346600  1
  C  C3  1  0.39335300  0.21880400  0.82653400  1
  C  C4  1  0.24305000  0.72732800  0.32159400  1
  C  C5  1  0.74305000  0.27267200  0.17840600  1
  C  C6  1  0.75695000  0.27267200  0.67840600  1
  C  C7  1  0.25695000  0.72732800  0.82159400  1
  C  C8  1  0.30828400  0.64862100  0.49373200  1
  C  C9  1  0.80828400  0.35137900  0.00626800  1
  C  C10  1  0.69171600  0.35137900  0.50626800  1
  C  C11  1  0.19171600  0.64862100  0.99373200  1
  C  C12  1  0.96598400  0.71388100  0.32623300  1
  C  C13  1  0.46598400  0.28611900  0.17376700  1
  C  C14  1  0.03401600  0.28611900  0.67376700  1
  C  C15  1  0.53401600  0.71388100  0.82623300  1
  C  C16  1  0.89760000  0.78655800  0.15699000  1
  C  C17  1  0.39760000  0.21344200  0.34301000  1
  C  C18  1  0.10240000  0.21344200  0.84301000  1
  C  C19  1  0.60240000  0.78655800  0.65699000  1
  Ni  Ni20  1  0.20688900  0.90384800  0.37483700  1
  Ni  Ni21  1  0.70688900  0.09615200  0.12516300  1
  Ni  Ni22  1  0.79311100  0.09615200  0.62516300  1
  Ni  Ni23  1  0.29311100  0.90384800  0.87483700  1
  Ni  Ni24  1  0.00785000  0.53820600  0.27349000  1
  Ni  Ni25  1  0.50785000  0.46179400  0.22651000  1
  Ni  Ni26  1  0.99215000  0.46179400  0.72651000  1
  Ni  Ni27  1  0.49215000  0.53820600  0.77349000  1
  C  C28  1  0.11858700  0.08259300  0.21974000  1
  C  C29  1  0.61858700  0.91740700  0.28026000  1
  C  C30  1  0.88141300  0.91740700  0.78026000  1
  C  C31  1  0.38141300  0.08259300  0.71974000  1
  C  C32  1  0.10281900  0.36612300  0.42520800  1
  C  C33  1  0.60281900  0.63387700  0.07479200  1
  C  C34  1  0.89718100  0.63387700  0.57479200  1
  C  C35  1  0.39718100  0.36612300  0.92520800  1
  C  C36  1  0.99290700  0.48039200  0.15659000  1
  C  C37  1  0.49290700  0.51960800  0.34341000  1
  C  C38  1  0.00709300  0.51960800  0.84341000  1
  C  C39  1  0.50709300  0.48039200  0.65659000  1
  C  C40  1  0.22263900  0.95706500  0.49484300  1
  C  C41  1  0.72263900  0.04293500  0.00515700  1
  C  C42  1  0.77736100  0.04293500  0.50515700  1
  C  C43  1  0.27736100  0.95706500  0.99484300  1
  Cu  Cu44  1  0.25339600  0.74790800  0.39959300  1
  Cu  Cu45  1  0.75339600  0.25209200  0.10040700  1
  Cu  Cu46  1  0.74660400  0.25209200  0.60040700  1
  Cu  Cu47  1  0.24660400  0.74790800  0.89959300  1
  Cu  Cu48  1  0.95560100  0.69129700  0.24922300  1
  Cu  Cu49  1  0.45560100  0.30870300  0.25077700  1
  Cu  Cu50  1  0.04439900  0.30870300  0.75077700  1
  Cu  Cu51  1  0.54439900  0.69129700  0.74922300  1
