# generated using pymatgen
data_Cu2Ni2C13
_symmetry_space_group_name_H-M   'P 1'
_cell_length_a   7.01203621
_cell_length_b   7.19258677
_cell_length_c   6.90560083
_cell_angle_alpha   96.54089667
_cell_angle_beta   120.51118397
_cell_angle_gamma   89.99999670
_symmetry_Int_Tables_number   1
_chemical_formula_structural   Cu2Ni2C13
_chemical_formula_sum   'Cu2 Ni2 C13'
_cell_volume   297.42080534
_cell_formula_units_Z   1
loop_
 _symmetry_equiv_pos_site_id
 _symmetry_equiv_pos_as_xyz
  1  'x, y, z'
loop_
 _atom_site_type_symbol
 _atom_site_label
 _atom_site_symmetry_multiplicity
 _atom_site_fract_x
 _atom_site_fract_y
 _atom_site_fract_z
 _atom_site_occupancy
  C  C0  1  0.81554300  0.50000000  0.00000000  1
  C  C1  1  0.28676500  0.60630800  0.42655000  1
  C  C2  1  0.86021700  0.39369200  0.57345000  1
  Ni  Ni3  1  0.35017000  0.23969900  0.01637400  1
  Ni  Ni4  1  0.33379600  0.76030100  0.98362600  1
  Cu  Cu5  1  0.00395600  0.09340200  0.28325400  1
  Cu  Cu6  1  0.72070200  0.90659800  0.71674600  1
  C  C7  1  0.14869900  0.00000000  0.00000000  1
  C  C8  1  0.55034300  0.00000000  0.00000000  1
  C  C9  1  0.74868000  0.37982300  0.26824900  1
  C  C10  1  0.48043100  0.62017700  0.73175100  1
  C  C11  1  0.73067200  0.27035500  0.68639000  1
  C  C12  1  0.04428300  0.72964500  0.31361000  1
  C  C13  1  0.94875700  0.62289300  0.76689500  1
  C  C14  1  0.18186300  0.37710700  0.23310400  1
  C  C15  1  0.11408600  0.25901700  0.64733500  1
  C  C16  1  0.46675200  0.74098300  0.35266500  1
