# generated using pymatgen
data_Cu2(Ni3C)3
_symmetry_space_group_name_H-M   'P 1'
_cell_length_a   4.30992100
_cell_length_b   8.18792675
_cell_length_c   8.18792675
_cell_angle_alpha   70.90392839
_cell_angle_beta   74.74071826
_cell_angle_gamma   74.74071826
_symmetry_Int_Tables_number   1
_chemical_formula_structural   Cu2(Ni3C)3
_chemical_formula_sum   'Cu2 Ni9 C3'
_cell_volume   258.40234101
_cell_formula_units_Z   1
loop_
 _symmetry_equiv_pos_site_id
 _symmetry_equiv_pos_as_xyz
  1  'x, y, z'
loop_
 _atom_site_type_symbol
 _atom_site_label
 _atom_site_symmetry_multiplicity
 _atom_site_fract_x
 _atom_site_fract_y
 _atom_site_fract_z
 _atom_site_occupancy
  C  C0  1  0.50000000  0.50000000  0.50000000  1
  C  C1  1  0.19917800  0.80082200  0.80082200  1
  C  C2  1  0.80082200  0.19917800  0.19917800  1
  Ni  Ni3  1  0.36157200  0.35596100  0.92089500  1
  Ni  Ni4  1  0.63842800  0.64403900  0.07910500  1
  Ni  Ni5  1  0.36157200  0.92089500  0.35596100  1
  Ni  Ni6  1  0.63842800  0.07910500  0.64403900  1
  Ni  Ni7  1  0.15579200  0.47774000  0.21067500  1
  Ni  Ni8  1  0.84420800  0.52226000  0.78932500  1
  Ni  Ni9  1  0.15579200  0.21067500  0.47774000  1
  Ni  Ni10  1  0.84420800  0.78932500  0.52226000  1
  Ni  Ni11  1  0.50000000  0.00000000  0.00000000  1
  Cu  Cu12  1  0.00000000  0.81668100  0.18331900  1
  Cu  Cu13  1  0.00000000  0.18331900  0.81668100  1
