# generated using pymatgen
data_Cu(NiC4)2
_symmetry_space_group_name_H-M   'P 1'
_cell_length_a   5.95575100
_cell_length_b   12.50334100
_cell_length_c   6.85817800
_cell_angle_alpha   90.00000000
_cell_angle_beta   90.00000000
_cell_angle_gamma   90.00000000
_symmetry_Int_Tables_number   1
_chemical_formula_structural   Cu(NiC4)2
_chemical_formula_sum   'Cu4 Ni8 C32'
_cell_volume   510.70647117
_cell_formula_units_Z   4
loop_
 _symmetry_equiv_pos_site_id
 _symmetry_equiv_pos_as_xyz
  1  'x, y, z'
loop_
 _atom_site_type_symbol
 _atom_site_label
 _atom_site_symmetry_multiplicity
 _atom_site_fract_x
 _atom_site_fract_y
 _atom_site_fract_z
 _atom_site_occupancy
  C  C0  1  0.75000000  0.74437200  0.25423400  1
  C  C1  1  0.25000000  0.25562800  0.74576600  1
  C  C2  1  0.25000000  0.75562800  0.75423400  1
  C  C3  1  0.75000000  0.24437200  0.24576600  1
  Ni  Ni4  1  0.75000000  0.88313600  0.66868700  1
  Ni  Ni5  1  0.25000000  0.11686400  0.33131300  1
  Ni  Ni6  1  0.25000000  0.61686400  0.16868700  1
  Ni  Ni7  1  0.75000000  0.38313600  0.83131300  1
  Ni  Ni8  1  0.75000000  0.61249400  0.83390600  1
  Ni  Ni9  1  0.25000000  0.38750600  0.16609400  1
  Ni  Ni10  1  0.25000000  0.88750600  0.33390600  1
  Ni  Ni11  1  0.75000000  0.11249400  0.66609400  1
  Cu  Cu12  1  0.00000000  0.00000000  0.00000000  1
  Cu  Cu13  1  0.00000000  0.50000000  0.50000000  1
  Cu  Cu14  1  0.50000000  0.00000000  0.00000000  1
  Cu  Cu15  1  0.50000000  0.50000000  0.50000000  1
  C  C16  1  0.75000000  0.69861700  0.98594000  1
  C  C17  1  0.25000000  0.30138300  0.01406000  1
  C  C18  1  0.25000000  0.80138300  0.48594000  1
  C  C19  1  0.75000000  0.19861700  0.51406000  1
  C  C20  1  0.75000000  0.99716400  0.55736100  1
  C  C21  1  0.25000000  0.00283600  0.44263900  1
  C  C22  1  0.25000000  0.50283600  0.05736100  1
  C  C23  1  0.75000000  0.49716400  0.94263900  1
  C  C24  1  0.75000000  0.79629400  0.51807100  1
  C  C25  1  0.25000000  0.20370600  0.48192900  1
  C  C26  1  0.25000000  0.70370600  0.01807100  1
  C  C27  1  0.75000000  0.29629400  0.98192900  1
  C  C28  1  0.96980500  0.61609800  0.71085900  1
  C  C29  1  0.03019500  0.38390200  0.28914100  1
  C  C30  1  0.03019500  0.88390200  0.21085900  1
  C  C31  1  0.46980500  0.38390200  0.28914100  1
  C  C32  1  0.96980500  0.11609800  0.78914100  1
  C  C33  1  0.53019500  0.61609800  0.71085900  1
  C  C34  1  0.53019500  0.11609800  0.78914100  1
  C  C35  1  0.46980500  0.88390200  0.21085900  1
  C  C36  1  0.96876500  0.87989900  0.79394200  1
  C  C37  1  0.03123500  0.12010100  0.20605800  1
  C  C38  1  0.03123500  0.62010100  0.29394200  1
  C  C39  1  0.46876500  0.12010100  0.20605800  1
  C  C40  1  0.96876500  0.37989900  0.70605800  1
  C  C41  1  0.53123500  0.87989900  0.79394200  1
  C  C42  1  0.53123500  0.37989900  0.70605800  1
  C  C43  1  0.46876500  0.62010100  0.29394200  1
