# generated using pymatgen
data_CuNi10C7
_symmetry_space_group_name_H-M   'P 1'
_cell_length_a   10.35549819
_cell_length_b   10.35549819
_cell_length_c   10.35549819
_cell_angle_alpha   139.07702773
_cell_angle_beta   139.07702773
_cell_angle_gamma   59.25741964
_symmetry_Int_Tables_number   1
_chemical_formula_structural   CuNi10C7
_chemical_formula_sum   'Cu1 Ni10 C7'
_cell_volume   471.84974474
_cell_formula_units_Z   1
loop_
 _symmetry_equiv_pos_site_id
 _symmetry_equiv_pos_as_xyz
  1  'x, y, z'
loop_
 _atom_site_type_symbol
 _atom_site_label
 _atom_site_symmetry_multiplicity
 _atom_site_fract_x
 _atom_site_fract_y
 _atom_site_fract_z
 _atom_site_occupancy
  C  C0  1  0.75000000  0.25000000  0.50000000  1
  C  C1  1  0.25000000  0.75000000  0.50000000  1
  C  C2  1  0.50000000  0.00000000  0.50000000  1
  C  C3  1  0.00000000  0.50000000  0.50000000  1
  C  C4  1  0.10314200  0.10314200  0.00000000  1
  C  C5  1  0.89685800  0.89685800  0.00000000  1
  C  C6  1  0.50000000  0.50000000  0.00000000  1
  Ni  Ni7  1  0.23710000  0.23710000  0.00000000  1
  Ni  Ni8  1  0.76290000  0.76290000  0.00000000  1
  Ni  Ni9  1  0.34619400  0.34619400  0.46920000  1
  Ni  Ni10  1  0.65380600  0.65380600  0.53080000  1
  Ni  Ni11  1  0.87699400  0.87699400  0.53080000  1
  Ni  Ni12  1  0.34619400  0.87699400  0.00000000  1
  Ni  Ni13  1  0.12300600  0.65380600  0.00000000  1
  Ni  Ni14  1  0.12300600  0.12300600  0.46920000  1
  Ni  Ni15  1  0.65380600  0.12300600  0.00000000  1
  Ni  Ni16  1  0.87699400  0.34619400  0.00000000  1
  Cu  Cu17  1  0.00000000  0.00000000  0.00000000  1
