# generated using pymatgen
data_CuNi6C
_symmetry_space_group_name_H-M   'P 1'
_cell_length_a   5.19887900
_cell_length_b   6.41199100
_cell_length_c   10.94015800
_cell_angle_alpha   90.00000000
_cell_angle_beta   90.00000000
_cell_angle_gamma   90.00000000
_symmetry_Int_Tables_number   1
_chemical_formula_structural   CuNi6C
_chemical_formula_sum   'Cu2 Ni12 C2'
_cell_volume   364.69197597
_cell_formula_units_Z   2
loop_
 _symmetry_equiv_pos_site_id
 _symmetry_equiv_pos_as_xyz
  1  'x, y, z'
loop_
 _atom_site_type_symbol
 _atom_site_label
 _atom_site_symmetry_multiplicity
 _atom_site_fract_x
 _atom_site_fract_y
 _atom_site_fract_z
 _atom_site_occupancy
  Ni  Ni0  1  0.50000000  0.24989200  0.58380500  1
  Ni  Ni1  1  0.50000000  0.75010800  0.58380500  1
  Ni  Ni2  1  0.00000000  0.26024600  0.41662900  1
  Ni  Ni3  1  0.00000000  0.73975400  0.41662900  1
  Ni  Ni4  1  0.00000000  0.00000000  0.66996100  1
  Ni  Ni5  1  0.00000000  0.00000000  0.16397400  1
  Ni  Ni6  1  0.50000000  0.74989200  0.08380500  1
  Ni  Ni7  1  0.50000000  0.25010800  0.08380500  1
  Ni  Ni8  1  0.00000000  0.76024600  0.91662900  1
  Ni  Ni9  1  0.00000000  0.23975400  0.91662900  1
  Ni  Ni10  1  0.00000000  0.50000000  0.16996100  1
  Ni  Ni11  1  0.00000000  0.50000000  0.66397400  1
  Cu  Cu12  1  0.50000000  0.00000000  0.83215600  1
  Cu  Cu13  1  0.50000000  0.50000000  0.33215600  1
  C  C14  1  0.50000000  0.00000000  0.33304200  1
  C  C15  1  0.50000000  0.50000000  0.83304200  1
