# generated using pymatgen
data_CuNiC37
_symmetry_space_group_name_H-M   'P 1'
_cell_length_a   6.83943300
_cell_length_b   7.04309675
_cell_length_c   17.57961073
_cell_angle_alpha   92.41468630
_cell_angle_beta   89.32621942
_cell_angle_gamma   116.96207961
_symmetry_Int_Tables_number   1
_chemical_formula_structural   CuNiC37
_chemical_formula_sum   'Cu2 Ni2 C74'
_cell_volume   754.08389055
_cell_formula_units_Z   2
loop_
 _symmetry_equiv_pos_site_id
 _symmetry_equiv_pos_as_xyz
  1  'x, y, z'
loop_
 _atom_site_type_symbol
 _atom_site_label
 _atom_site_symmetry_multiplicity
 _atom_site_fract_x
 _atom_site_fract_y
 _atom_site_fract_z
 _atom_site_occupancy
  Ni  Ni0  1  0.00000000  0.00000000  0.00000000  1
  Ni  Ni1  1  0.00000000  0.00000000  0.50000000  1
  Cu  Cu2  1  0.40817200  0.67919200  0.20244600  1
  Cu  Cu3  1  0.59182800  0.32080800  0.79755400  1
  C  C4  1  0.55711700  0.76384700  0.04771000  1
  C  C5  1  0.44288300  0.23615300  0.95229000  1
  C  C6  1  0.56882200  0.81387400  0.96041800  1
  C  C7  1  0.43117800  0.18612600  0.03958200  1
  C  C8  1  0.10696200  0.39936500  0.06786400  1
  C  C9  1  0.89303800  0.60063500  0.93213600  1
  C  C10  1  0.84903600  0.26095400  0.07441000  1
  C  C11  1  0.15096400  0.73904600  0.92559000  1
  C  C12  1  0.04237000  0.96455200  0.15537700  1
  C  C13  1  0.95763000  0.03544800  0.84462300  1
  C  C14  1  0.12340200  0.81094200  0.10971800  1
  C  C15  1  0.87659800  0.18905800  0.89028200  1
  C  C16  1  0.29989100  0.11895300  0.38492500  1
  C  C17  1  0.70010900  0.88104700  0.61507500  1
  C  C18  1  0.07746700  0.08060900  0.34438200  1
  C  C19  1  0.92253300  0.91939100  0.65561800  1
  C  C20  1  0.77257000  0.24034200  0.52382300  1
  C  C21  1  0.22743000  0.75965800  0.47617700  1
  C  C22  1  0.71468900  0.13715200  0.44008900  1
  C  C23  1  0.28531100  0.86284800  0.55991100  1
  C  C24  1  0.79969600  0.66724700  0.40031200  1
  C  C25  1  0.20030400  0.33275300  0.59968800  1
  C  C26  1  0.60132600  0.68591900  0.44081600  1
  C  C27  1  0.39867400  0.31408100  0.55918400  1
  C  C28  1  0.28040400  0.57572900  0.36391600  1
  C  C29  1  0.71959600  0.42427100  0.63608400  1
  C  C30  1  0.24136700  0.44734700  0.43811100  1
  C  C31  1  0.75863300  0.55265300  0.56188900  1
  C  C32  1  0.56801800  0.13056400  0.15698900  1
  C  C33  1  0.43198200  0.86943600  0.84301100  1
  C  C34  1  0.60345800  0.36536900  0.14534500  1
  C  C35  1  0.39654200  0.63463100  0.85465500  1
  C  C36  1  0.54271300  0.05588100  0.31753000  1
  C  C37  1  0.45728700  0.94411900  0.68247000  1
  C  C38  1  0.65695100  0.29718600  0.34436500  1
  C  C39  1  0.34304900  0.70281400  0.65563500  1
  C  C40  1  0.75407600  0.58096100  0.27068300  1
  C  C41  1  0.24592400  0.41903900  0.72931700  1
  C  C42  1  0.97282300  0.56785100  0.29368600  1
  C  C43  1  0.02717700  0.43214900  0.70631400  1
  C  C44  1  0.06382300  0.24512500  0.24497200  1
  C  C45  1  0.93617700  0.75487500  0.75502800  1
  C  C46  1  0.83675300  0.03674900  0.24126500  1
  C  C47  1  0.16324700  0.96325100  0.75873500  1
  C  C48  1  0.65978400  0.82608900  0.00581400  1
  C  C49  1  0.34021600  0.17391100  0.99418600  1
  C  C50  1  0.98300900  0.26294400  0.05114900  1
  C  C51  1  0.01699100  0.73705600  0.94885100  1
  C  C52  1  0.04715900  0.89970000  0.10487400  1
  C  C53  1  0.95284100  0.10030000  0.89512600  1
  C  C54  1  0.14949300  0.10286900  0.39505600  1
  C  C55  1  0.85050700  0.89713100  0.60494400  1
  C  C56  1  0.80609500  0.15173400  0.48563400  1
  C  C57  1  0.19390500  0.84826600  0.51436600  1
  C  C58  1  0.75774800  0.72010600  0.44809100  1
  C  C59  1  0.24225200  0.27989400  0.55190900  1
  C  C60  1  0.30068200  0.66119200  0.11684500  1
  C  C61  1  0.69931800  0.33880800  0.88315500  1
  C  C62  1  0.20911600  0.54624800  0.26488800  1
  C  C63  1  0.79088400  0.45375200  0.73511200  1
  C  C64  1  0.54420900  0.93862900  0.23019700  1
  C  C65  1  0.45579100  0.06137100  0.76980300  1
  C  C66  1  0.58320600  0.57654800  0.19852500  1
  C  C67  1  0.41679400  0.42345200  0.80147500  1
  C  C68  1  0.31349400  0.59317400  0.41952500  1
  C  C69  1  0.68650600  0.40682600  0.58047500  1
  C  C70  1  0.60691800  0.24015600  0.11855000  1
  C  C71  1  0.39308200  0.75984400  0.88145000  1
  C  C72  1  0.56135800  0.15268600  0.36299500  1
  C  C73  1  0.43864200  0.84731400  0.63700500  1
  C  C74  1  0.83059400  0.55402700  0.31371700  1
  C  C75  1  0.16940600  0.44597300  0.68628300  1
  C  C76  1  0.99732800  0.08816900  0.24709500  1
  C  C77  1  0.00267200  0.91183100  0.75290500  1
