# generated using pymatgen
data_Cu4Ni7C23
_symmetry_space_group_name_H-M   'P 1'
_cell_length_a   6.20014257
_cell_length_b   7.25376882
_cell_length_c   10.27658173
_cell_angle_alpha   99.13795993
_cell_angle_beta   96.70685664
_cell_angle_gamma   99.91788766
_symmetry_Int_Tables_number   1
_chemical_formula_structural   Cu4Ni7C23
_chemical_formula_sum   'Cu4 Ni7 C23'
_cell_volume   444.53372117
_cell_formula_units_Z   1
loop_
 _symmetry_equiv_pos_site_id
 _symmetry_equiv_pos_as_xyz
  1  'x, y, z'
loop_
 _atom_site_type_symbol
 _atom_site_label
 _atom_site_symmetry_multiplicity
 _atom_site_fract_x
 _atom_site_fract_y
 _atom_site_fract_z
 _atom_site_occupancy
  C  C0  1  0.87214600  0.28711200  0.33179600  1
  C  C1  1  0.11144500  0.72284300  0.66678500  1
  C  C2  1  0.52888100  0.98838200  0.48923800  1
  C  C3  1  0.40946200  0.82517600  0.12885600  1
  C  C4  1  0.60394800  0.15305400  0.88841100  1
  Ni  Ni5  1  0.35339800  0.61614000  0.45233900  1
  Ni  Ni6  1  0.64784600  0.39041400  0.56268200  1
  Ni  Ni7  1  0.00748900  0.05789700  0.12530200  1
  Ni  Ni8  1  0.98983100  0.92454600  0.89272900  1
  Ni  Ni9  1  0.52319200  0.66237000  0.58663500  1
  Ni  Ni10  1  0.47418200  0.33841900  0.43054500  1
  Ni  Ni11  1  0.20807000  0.43413300  0.89114500  1
  Cu  Cu12  1  0.27147300  0.32357500  0.13932000  1
  Cu  Cu13  1  0.71835300  0.66028700  0.86037900  1
  Cu  Cu14  1  0.08762900  0.20913600  0.68914500  1
  Cu  Cu15  1  0.91171200  0.79272100  0.32357500  1
  C  C16  1  0.25726900  0.49374100  0.05169800  1
  C  C17  1  0.70414300  0.48208200  0.93882700  1
  C  C18  1  0.26810400  0.07524800  0.73135400  1
  C  C19  1  0.73697600  0.93565400  0.27716400  1
  C  C20  1  0.44051800  0.17957300  0.09604200  1
  C  C21  1  0.55738800  0.81403600  0.90082700  1
  C  C22  1  0.99901500  0.17470600  0.08771500  1
  C  C23  1  0.99681400  0.79834000  0.91543000  1
  C  C24  1  0.27816100  0.39572800  0.30062400  1
  C  C25  1  0.72178300  0.60278200  0.69714600  1
  C  C26  1  0.83980600  0.11999200  0.72300800  1
  C  C27  1  0.16083000  0.88228700  0.28439200  1
  C  C28  1  0.09329200  0.27199100  0.54341700  1
  C  C29  1  0.91950000  0.80832600  0.48783700  1
  C  C30  1  0.39461300  0.70104400  0.53910300  1
  C  C31  1  0.60318500  0.30134800  0.47730100  1
  C  C32  1  0.18350700  0.43775400  0.79204400  1
  C  C33  1  0.81604200  0.56916000  0.24619000  1
