# generated using pymatgen
data_Cu20Ni2C25
_symmetry_space_group_name_H-M   'P 1'
_cell_length_a   19.98267500
_cell_length_b   7.01949200
_cell_length_c   9.86110334
_cell_angle_alpha   45.45259174
_cell_angle_beta   90.00000000
_cell_angle_gamma   90.00000000
_symmetry_Int_Tables_number   1
_chemical_formula_structural   Cu20Ni2C25
_chemical_formula_sum   'Cu40 Ni4 C50'
_cell_volume   985.76512503
_cell_formula_units_Z   2
loop_
 _symmetry_equiv_pos_site_id
 _symmetry_equiv_pos_as_xyz
  1  'x, y, z'
loop_
 _atom_site_type_symbol
 _atom_site_label
 _atom_site_symmetry_multiplicity
 _atom_site_fract_x
 _atom_site_fract_y
 _atom_site_fract_z
 _atom_site_occupancy
  C  C0  1  0.00000000  0.00000000  0.00000000  1
  C  C1  1  0.50000000  0.00000000  0.50000000  1
  C  C2  1  0.70700100  0.52819900  0.01938700  1
  C  C3  1  0.29299900  0.47180100  0.98061300  1
  C  C4  1  0.20700100  0.47180100  0.48061300  1
  C  C5  1  0.79299900  0.52819900  0.51938700  1
  Ni  Ni6  1  0.25056000  0.97259000  0.47671900  1
  Ni  Ni7  1  0.74944000  0.02741000  0.52328100  1
  Ni  Ni8  1  0.75056000  0.02741000  0.02328100  1
  Ni  Ni9  1  0.24944000  0.97259000  0.97671900  1
  Cu  Cu10  1  0.55700000  0.82708400  0.14345800  1
  Cu  Cu11  1  0.44300000  0.17291600  0.85654200  1
  Cu  Cu12  1  0.05700000  0.17291600  0.35654200  1
  Cu  Cu13  1  0.94300000  0.82708400  0.64345800  1
  Cu  Cu14  1  0.53520700  0.44648800  0.13895800  1
  Cu  Cu15  1  0.46479300  0.55351200  0.86104200  1
  Cu  Cu16  1  0.03520700  0.55351200  0.36104200  1
  Cu  Cu17  1  0.96479300  0.44648800  0.63895800  1
  Cu  Cu18  1  0.42501900  0.63908400  0.54754900  1
  Cu  Cu19  1  0.57498100  0.36091600  0.45245100  1
  Cu  Cu20  1  0.92501900  0.36091600  0.95245100  1
  Cu  Cu21  1  0.07498100  0.63908400  0.04754900  1
  Cu  Cu22  1  0.38819800  0.91835600  0.38681000  1
  Cu  Cu23  1  0.61180200  0.08164400  0.61319000  1
  Cu  Cu24  1  0.88819800  0.08164400  0.11319000  1
  Cu  Cu25  1  0.11180200  0.91835600  0.88681000  1
  Cu  Cu26  1  0.38337000  0.75905200  0.11048900  1
  Cu  Cu27  1  0.61663000  0.24094800  0.88951100  1
  Cu  Cu28  1  0.88337000  0.24094800  0.38951100  1
  Cu  Cu29  1  0.11663000  0.75905200  0.61048900  1
  Cu  Cu30  1  0.58132300  0.83585100  0.36626100  1
  Cu  Cu31  1  0.41867700  0.16414900  0.63373900  1
  Cu  Cu32  1  0.08132300  0.16414900  0.13373900  1
  Cu  Cu33  1  0.91867700  0.83585100  0.86626100  1
  Cu  Cu34  1  0.97134700  0.47703700  0.30705400  1
  Cu  Cu35  1  0.02865300  0.52296300  0.69294600  1
  Cu  Cu36  1  0.47134700  0.52296300  0.19294600  1
  Cu  Cu37  1  0.52865300  0.47703700  0.80705400  1
  Cu  Cu38  1  0.42178200  0.75328200  0.25174500  1
  Cu  Cu39  1  0.57821800  0.24671800  0.74825500  1
  Cu  Cu40  1  0.92178200  0.24671800  0.24825500  1
  Cu  Cu41  1  0.07821800  0.75328200  0.75174500  1
  Cu  Cu42  1  0.62966500  0.73587700  0.21245300  1
  Cu  Cu43  1  0.37033500  0.26412300  0.78754700  1
  Cu  Cu44  1  0.12966500  0.26412300  0.28754700  1
  Cu  Cu45  1  0.87033500  0.73587700  0.71245300  1
  Cu  Cu46  1  0.62549600  0.97512400  0.41062800  1
  Cu  Cu47  1  0.37450400  0.02487600  0.58937200  1
  Cu  Cu48  1  0.12549600  0.02487600  0.08937200  1
  Cu  Cu49  1  0.87450400  0.97512400  0.91062800  1
  C  C50  1  0.79782700  0.89955300  0.19422400  1
  C  C51  1  0.20217300  0.10044700  0.80577600  1
  C  C52  1  0.29782700  0.10044700  0.30577600  1
  C  C53  1  0.70217300  0.89955300  0.69422400  1
  C  C54  1  0.61604000  0.53068200  0.02507800  1
  C  C55  1  0.38396000  0.46931800  0.97492200  1
  C  C56  1  0.11604000  0.46931800  0.47492200  1
  C  C57  1  0.88396000  0.53068200  0.52507800  1
  C  C58  1  0.79773400  0.52380100  0.01508200  1
  C  C59  1  0.20226600  0.47619900  0.98491800  1
  C  C60  1  0.29773400  0.47619900  0.48491800  1
  C  C61  1  0.70226600  0.52380100  0.51508200  1
  C  C62  1  0.58412100  0.71502700  0.26000400  1
  C  C63  1  0.41587900  0.28497300  0.73999600  1
  C  C64  1  0.08412100  0.28497300  0.23999600  1
  C  C65  1  0.91587900  0.71502700  0.76000400  1
  C  C66  1  0.42825800  0.77634900  0.14215000  1
  C  C67  1  0.57174200  0.22365100  0.85785000  1
  C  C68  1  0.92825800  0.22365100  0.35785000  1
  C  C69  1  0.07174200  0.77634900  0.64215000  1
  C  C70  1  0.43248400  0.83146600  0.43060100  1
  C  C71  1  0.56751600  0.16853400  0.56939900  1
  C  C72  1  0.93248400  0.16853400  0.06939900  1
  C  C73  1  0.06751600  0.83146600  0.93060100  1
  C  C74  1  0.29817500  0.76805200  0.01249100  1
  C  C75  1  0.70182500  0.23194800  0.98750900  1
  C  C76  1  0.79817500  0.23194800  0.48750900  1
  C  C77  1  0.20182500  0.76805200  0.51249100  1
  C  C78  1  0.58103000  0.89730000  0.43130000  1
  C  C79  1  0.41897000  0.10270000  0.56870000  1
  C  C80  1  0.08103000  0.10270000  0.06870000  1
  C  C81  1  0.91897000  0.89730000  0.93130000  1
  C  C82  1  0.99687900  0.62696500  0.27403800  1
  C  C83  1  0.00312100  0.37303500  0.72596200  1
  C  C84  1  0.49687900  0.37303500  0.22596200  1
  C  C85  1  0.50312100  0.62696500  0.77403800  1
  C  C86  1  0.20433000  0.83303700  0.15331600  1
  C  C87  1  0.79567000  0.16696300  0.84668400  1
  C  C88  1  0.70433000  0.16696300  0.34668400  1
  C  C89  1  0.29567000  0.83303700  0.65331600  1
  C  C90  1  0.70678200  0.80797300  0.06538300  1
  C  C91  1  0.29321800  0.19202700  0.93461700  1
  C  C92  1  0.20678200  0.19202700  0.43461700  1
  C  C93  1  0.79321800  0.80797300  0.56538300  1
