# generated using pymatgen
data_CuNiC4
_symmetry_space_group_name_H-M   'P 1'
_cell_length_a   8.17309440
_cell_length_b   8.42164500
_cell_length_c   8.93033411
_cell_angle_alpha   90.00000000
_cell_angle_beta   104.18306371
_cell_angle_gamma   90.00000000
_symmetry_Int_Tables_number   1
_chemical_formula_structural   CuNiC4
_chemical_formula_sum   'Cu8 Ni8 C32'
_cell_volume   595.94605417
_cell_formula_units_Z   8
loop_
 _symmetry_equiv_pos_site_id
 _symmetry_equiv_pos_as_xyz
  1  'x, y, z'
loop_
 _atom_site_type_symbol
 _atom_site_label
 _atom_site_symmetry_multiplicity
 _atom_site_fract_x
 _atom_site_fract_y
 _atom_site_fract_z
 _atom_site_occupancy
  C  C0  1  0.55511800  0.13181800  0.37455100  1
  C  C1  1  0.94488200  0.63181800  0.12544900  1
  C  C2  1  0.44488200  0.86818200  0.62544900  1
  C  C3  1  0.05511800  0.36818200  0.87455100  1
  C  C4  1  0.51042800  0.71156300  0.98657000  1
  C  C5  1  0.98957200  0.21156300  0.51343000  1
  C  C6  1  0.48957200  0.28843700  0.01343000  1
  C  C7  1  0.01042800  0.78843700  0.48657000  1
  Ni  Ni8  1  0.77800100  0.98874700  0.18803000  1
  Ni  Ni9  1  0.72199900  0.48874700  0.31197000  1
  Ni  Ni10  1  0.22199900  0.01125300  0.81197000  1
  Ni  Ni11  1  0.27800100  0.51125300  0.68803000  1
  Ni  Ni12  1  0.78529900  0.65097100  0.73771000  1
  Ni  Ni13  1  0.71470100  0.15097100  0.76229000  1
  Ni  Ni14  1  0.21470100  0.34902900  0.26229000  1
  Ni  Ni15  1  0.28529900  0.84902900  0.23771000  1
  Cu  Cu16  1  0.89439100  0.07393000  0.12648700  1
  Cu  Cu17  1  0.60560900  0.57393000  0.37351300  1
  Cu  Cu18  1  0.10560900  0.92607000  0.87351300  1
  Cu  Cu19  1  0.39439100  0.42607000  0.62648700  1
  Cu  Cu20  1  0.73765200  0.51326100  0.64834100  1
  Cu  Cu21  1  0.76234800  0.01326100  0.85165900  1
  Cu  Cu22  1  0.26234800  0.48673900  0.35165900  1
  Cu  Cu23  1  0.23765200  0.98673900  0.14834100  1
  C  C24  1  0.75292100  0.82481900  0.10793900  1
  C  C25  1  0.74707900  0.32481900  0.39206100  1
  C  C26  1  0.24707900  0.17518100  0.89206100  1
  C  C27  1  0.25292100  0.67518100  0.60793900  1
  C  C28  1  0.84892100  0.98238300  0.36627200  1
  C  C29  1  0.65107900  0.48238300  0.13372800  1
  C  C30  1  0.15107900  0.01761700  0.63372800  1
  C  C31  1  0.34892100  0.51761700  0.86627200  1
  C  C32  1  0.62286700  0.71649900  0.77567400  1
  C  C33  1  0.87713300  0.21649900  0.72432600  1
  C  C34  1  0.37713300  0.28350100  0.22432600  1
  C  C35  1  0.12286700  0.78350100  0.27567400  1
  C  C36  1  0.91160000  0.59141800  0.88710400  1
  C  C37  1  0.58840000  0.09141800  0.61289600  1
  C  C38  1  0.08840000  0.40858200  0.11289600  1
  C  C39  1  0.41160000  0.90858200  0.38710400  1
  C  C40  1  0.36216000  0.73150500  0.14562800  1
  C  C41  1  0.13784000  0.23150500  0.35437200  1
  C  C42  1  0.63784000  0.26849500  0.85437200  1
  C  C43  1  0.86216000  0.76849500  0.64562800  1
  C  C44  1  0.61061700  0.08292900  0.15357500  1
  C  C45  1  0.88938300  0.58292900  0.34642500  1
  C  C46  1  0.38938300  0.91707100  0.84642500  1
  C  C47  1  0.11061700  0.41707100  0.65357500  1
