# generated using pymatgen
data_CuNiC15
_symmetry_space_group_name_H-M   'P 1'
_cell_length_a   8.77146100
_cell_length_b   8.77146100
_cell_length_c   12.08179500
_cell_angle_alpha   90.00000000
_cell_angle_beta   90.00000000
_cell_angle_gamma   90.00000000
_symmetry_Int_Tables_number   1
_chemical_formula_structural   CuNiC15
_chemical_formula_sum   'Cu4 Ni4 C60'
_cell_volume   929.55552380
_cell_formula_units_Z   4
loop_
 _symmetry_equiv_pos_site_id
 _symmetry_equiv_pos_as_xyz
  1  'x, y, z'
loop_
 _atom_site_type_symbol
 _atom_site_label
 _atom_site_symmetry_multiplicity
 _atom_site_fract_x
 _atom_site_fract_y
 _atom_site_fract_z
 _atom_site_occupancy
  Ni  Ni0  1  0.23489700  0.76510300  0.50000000  1
  Ni  Ni1  1  0.76510300  0.23489700  0.50000000  1
  Ni  Ni2  1  0.26510300  0.26510300  0.00000000  1
  Ni  Ni3  1  0.73489700  0.73489700  0.00000000  1
  Cu  Cu4  1  0.64459400  0.64459400  0.50000000  1
  Cu  Cu5  1  0.35540600  0.35540600  0.50000000  1
  Cu  Cu6  1  0.85540600  0.14459400  0.00000000  1
  Cu  Cu7  1  0.14459400  0.85540600  0.00000000  1
  C  C8  1  0.18222500  0.81777500  0.25294600  1
  C  C9  1  0.81777500  0.18222500  0.25294600  1
  C  C10  1  0.31777500  0.31777500  0.75294600  1
  C  C11  1  0.68222500  0.68222500  0.75294600  1
  C  C12  1  0.81777500  0.18222500  0.74705400  1
  C  C13  1  0.18222500  0.81777500  0.74705400  1
  C  C14  1  0.68222500  0.68222500  0.24705400  1
  C  C15  1  0.31777500  0.31777500  0.24705400  1
  C  C16  1  0.40295500  0.59704500  0.29811600  1
  C  C17  1  0.59704500  0.40295500  0.29811600  1
  C  C18  1  0.09704500  0.09704500  0.79811600  1
  C  C19  1  0.90295500  0.90295500  0.79811600  1
  C  C20  1  0.59704500  0.40295500  0.70188400  1
  C  C21  1  0.40295500  0.59704500  0.70188400  1
  C  C22  1  0.90295500  0.90295500  0.20188400  1
  C  C23  1  0.09704500  0.09704500  0.20188400  1
  C  C24  1  0.14084400  0.53604700  0.32419700  1
  C  C25  1  0.85915600  0.46395300  0.32419700  1
  C  C26  1  0.35915600  0.03604700  0.82419700  1
  C  C27  1  0.64084400  0.96395300  0.82419700  1
  C  C28  1  0.85915600  0.46395300  0.67580300  1
  C  C29  1  0.14084400  0.53604700  0.67580300  1
  C  C30  1  0.64084400  0.96395300  0.17580300  1
  C  C31  1  0.35915600  0.03604700  0.17580300  1
  C  C32  1  0.53604700  0.14084400  0.32419700  1
  C  C33  1  0.46395300  0.85915600  0.32419700  1
  C  C34  1  0.03604700  0.35915600  0.82419700  1
  C  C35  1  0.96395300  0.64084400  0.82419700  1
  C  C36  1  0.46395300  0.85915600  0.67580300  1
  C  C37  1  0.53604700  0.14084400  0.67580300  1
  C  C38  1  0.96395300  0.64084400  0.17580300  1
  C  C39  1  0.03604700  0.35915600  0.17580300  1
  C  C40  1  0.50000000  0.50000000  0.11476600  1
  C  C41  1  0.00000000  0.00000000  0.61476600  1
  C  C42  1  0.50000000  0.50000000  0.88523400  1
  C  C43  1  0.00000000  0.00000000  0.38523400  1
  C  C44  1  0.93250500  0.72453500  0.37271200  1
  C  C45  1  0.06749500  0.27546500  0.37271200  1
  C  C46  1  0.56749500  0.22453500  0.87271200  1
  C  C47  1  0.43250500  0.77546500  0.87271200  1
  C  C48  1  0.06749500  0.27546500  0.62728800  1
  C  C49  1  0.93250500  0.72453500  0.62728800  1
  C  C50  1  0.43250500  0.77546500  0.12728800  1
  C  C51  1  0.56749500  0.22453500  0.12728800  1
  C  C52  1  0.72453500  0.93250500  0.37271200  1
  C  C53  1  0.27546500  0.06749500  0.37271200  1
  C  C54  1  0.22453500  0.56749500  0.87271200  1
  C  C55  1  0.77546500  0.43250500  0.87271200  1
  C  C56  1  0.27546500  0.06749500  0.62728800  1
  C  C57  1  0.72453500  0.93250500  0.62728800  1
  C  C58  1  0.77546500  0.43250500  0.12728800  1
  C  C59  1  0.22453500  0.56749500  0.12728800  1
  C  C60  1  0.00000000  0.50000000  0.50000000  1
  C  C61  1  0.50000000  0.00000000  0.00000000  1
  C  C62  1  0.50000000  0.00000000  0.50000000  1
  C  C63  1  0.00000000  0.50000000  0.00000000  1
  C  C64  1  0.87504600  0.87504600  0.50000000  1
  C  C65  1  0.12495400  0.12495400  0.50000000  1
  C  C66  1  0.62495400  0.37504600  0.00000000  1
  C  C67  1  0.37504600  0.62495400  0.00000000  1
