# generated using pymatgen
data_Cu10NiC2
_symmetry_space_group_name_H-M   'P 1'
_cell_length_a   4.14594700
_cell_length_b   5.55637700
_cell_length_c   11.09276100
_cell_angle_alpha   90.00000000
_cell_angle_beta   90.00000000
_cell_angle_gamma   90.00000000
_symmetry_Int_Tables_number   1
_chemical_formula_structural   Cu10NiC2
_chemical_formula_sum   'Cu20 Ni2 C4'
_cell_volume   255.53777373
_cell_formula_units_Z   2
loop_
 _symmetry_equiv_pos_site_id
 _symmetry_equiv_pos_as_xyz
  1  'x, y, z'
loop_
 _atom_site_type_symbol
 _atom_site_label
 _atom_site_symmetry_multiplicity
 _atom_site_fract_x
 _atom_site_fract_y
 _atom_site_fract_z
 _atom_site_occupancy
  C  C0  1  0.50000000  0.19300500  0.36362600  1
  C  C1  1  0.50000000  0.80699500  0.63637400  1
  C  C2  1  0.50000000  0.30699500  0.86362600  1
  C  C3  1  0.50000000  0.69300500  0.13637400  1
  Ni  Ni4  1  0.00000000  0.00000000  0.00000000  1
  Ni  Ni5  1  0.00000000  0.50000000  0.50000000  1
  Cu  Cu6  1  0.00000000  0.37490700  0.04099100  1
  Cu  Cu7  1  0.00000000  0.62509300  0.95900900  1
  Cu  Cu8  1  0.00000000  0.12509300  0.54099100  1
  Cu  Cu9  1  0.00000000  0.87490700  0.45900900  1
  Cu  Cu10  1  0.00000000  0.34590200  0.19738800  1
  Cu  Cu11  1  0.00000000  0.65409800  0.80261200  1
  Cu  Cu12  1  0.00000000  0.15409800  0.69738800  1
  Cu  Cu13  1  0.00000000  0.84590200  0.30261200  1
  Cu  Cu14  1  0.00000000  0.03543700  0.18786500  1
  Cu  Cu15  1  0.00000000  0.96456300  0.81213500  1
  Cu  Cu16  1  0.00000000  0.46456300  0.68786500  1
  Cu  Cu17  1  0.00000000  0.53543700  0.31213500  1
  Cu  Cu18  1  0.30077000  0.20362900  0.11396800  1
  Cu  Cu19  1  0.69923000  0.79637100  0.88603200  1
  Cu  Cu20  1  0.30077000  0.79637100  0.88603200  1
  Cu  Cu21  1  0.69923000  0.29637100  0.61396800  1
  Cu  Cu22  1  0.69923000  0.20362900  0.11396800  1
  Cu  Cu23  1  0.30077000  0.70362900  0.38603200  1
  Cu  Cu24  1  0.69923000  0.70362900  0.38603200  1
  Cu  Cu25  1  0.30077000  0.29637100  0.61396800  1
