# generated using pymatgen
data_Cu8Ni3C5
_symmetry_space_group_name_H-M   'P 1'
_cell_length_a   5.76219700
_cell_length_b   3.81463000
_cell_length_c   20.30159600
_cell_angle_alpha   90.00000000
_cell_angle_beta   90.00000000
_cell_angle_gamma   90.00000000
_symmetry_Int_Tables_number   1
_chemical_formula_structural   Cu8Ni3C5
_chemical_formula_sum   'Cu8 Ni3 C5'
_cell_volume   446.24226682
_cell_formula_units_Z   1
loop_
 _symmetry_equiv_pos_site_id
 _symmetry_equiv_pos_as_xyz
  1  'x, y, z'
loop_
 _atom_site_type_symbol
 _atom_site_label
 _atom_site_symmetry_multiplicity
 _atom_site_fract_x
 _atom_site_fract_y
 _atom_site_fract_z
 _atom_site_occupancy
  C  C0  1  0.50000000  0.50000000  0.00000000  1
  C  C1  1  0.00000000  0.50000000  0.25433800  1
  C  C2  1  0.50000000  0.50000000  0.50000000  1
  C  C3  1  0.00000000  0.50000000  0.74566200  1
  C  C4  1  0.00000000  0.00000000  0.00000000  1
  Ni  Ni5  1  0.50000000  0.00000000  0.25154800  1
  Ni  Ni6  1  0.00000000  0.00000000  0.50000000  1
  Ni  Ni7  1  0.50000000  0.00000000  0.74845200  1
  Cu  Cu8  1  0.50000000  0.50000000  0.15444200  1
  Cu  Cu9  1  0.00000000  0.50000000  0.40560000  1
  Cu  Cu10  1  0.50000000  0.50000000  0.65410300  1
  Cu  Cu11  1  0.00000000  0.50000000  0.89523200  1
  Cu  Cu12  1  0.00000000  0.50000000  0.10476800  1
  Cu  Cu13  1  0.50000000  0.50000000  0.34589700  1
  Cu  Cu14  1  0.00000000  0.50000000  0.59440000  1
  Cu  Cu15  1  0.50000000  0.50000000  0.84555800  1
