# generated using pymatgen
data_Cu3Ni4C15
_symmetry_space_group_name_H-M   'P 1'
_cell_length_a   5.43039580
_cell_length_b   5.43039580
_cell_length_c   10.51548948
_cell_angle_alpha   84.88735829
_cell_angle_beta   84.88735829
_cell_angle_gamma   120.05625146
_symmetry_Int_Tables_number   1
_chemical_formula_structural   Cu3Ni4C15
_chemical_formula_sum   'Cu3 Ni4 C15'
_cell_volume   264.09175521
_cell_formula_units_Z   1
loop_
 _symmetry_equiv_pos_site_id
 _symmetry_equiv_pos_as_xyz
  1  'x, y, z'
loop_
 _atom_site_type_symbol
 _atom_site_label
 _atom_site_symmetry_multiplicity
 _atom_site_fract_x
 _atom_site_fract_y
 _atom_site_fract_z
 _atom_site_occupancy
  C  C0  1  0.00000000  0.00000000  0.00000000  1
  Ni  Ni1  1  0.59236600  0.25924700  0.21884900  1
  Ni  Ni2  1  0.40763400  0.74075300  0.78115100  1
  Ni  Ni3  1  0.74075300  0.40763400  0.78115100  1
  Ni  Ni4  1  0.25924700  0.59236600  0.21884900  1
  Cu  Cu5  1  0.50000000  0.50000000  0.50000000  1
  Cu  Cu6  1  0.82630500  0.17369500  0.50000000  1
  Cu  Cu7  1  0.17369500  0.82630500  0.50000000  1
  C  C8  1  0.91570300  0.91570300  0.30671400  1
  C  C9  1  0.08429700  0.08429700  0.69328600  1
  C  C10  1  0.52837900  0.19893800  0.40418000  1
  C  C11  1  0.47162100  0.80106200  0.59582000  1
  C  C12  1  0.80106200  0.47162100  0.59582000  1
  C  C13  1  0.19893800  0.52837900  0.40418000  1
  C  C14  1  0.87392000  0.87392000  0.40207600  1
  C  C15  1  0.12608000  0.12608000  0.59792400  1
  C  C16  1  0.55915300  0.55915300  0.18526800  1
  C  C17  1  0.44084700  0.44084700  0.81473200  1
  C  C18  1  0.31557100  0.93758100  0.18382000  1
  C  C19  1  0.68442900  0.06241900  0.81618000  1
  C  C20  1  0.06241900  0.68442900  0.81618000  1
  C  C21  1  0.93758100  0.31557100  0.18382000  1
