# generated using pymatgen
data_Cu2Ni7C
_symmetry_space_group_name_H-M   'P 1'
_cell_length_a   6.30970800
_cell_length_b   6.30970800
_cell_length_c   14.73952200
_cell_angle_alpha   90.00000000
_cell_angle_beta   90.00000000
_cell_angle_gamma   90.00000000
_symmetry_Int_Tables_number   1
_chemical_formula_structural   Cu2Ni7C
_chemical_formula_sum   'Cu8 Ni28 C4'
_cell_volume   586.81596743
_cell_formula_units_Z   4
loop_
 _symmetry_equiv_pos_site_id
 _symmetry_equiv_pos_as_xyz
  1  'x, y, z'
loop_
 _atom_site_type_symbol
 _atom_site_label
 _atom_site_symmetry_multiplicity
 _atom_site_fract_x
 _atom_site_fract_y
 _atom_site_fract_z
 _atom_site_occupancy
  Ni  Ni0  1  0.00000000  0.00000000  0.13217600  1
  Ni  Ni1  1  0.50000000  0.50000000  0.36782400  1
  Ni  Ni2  1  0.00000000  0.00000000  0.86782400  1
  Ni  Ni3  1  0.50000000  0.50000000  0.63217600  1
  Ni  Ni4  1  0.15485400  0.65485400  0.25000000  1
  Ni  Ni5  1  0.34514600  0.15485400  0.25000000  1
  Ni  Ni6  1  0.65485400  0.84514600  0.25000000  1
  Ni  Ni7  1  0.84514600  0.34514600  0.25000000  1
  Ni  Ni8  1  0.84514600  0.34514600  0.75000000  1
  Ni  Ni9  1  0.65485400  0.84514600  0.75000000  1
  Ni  Ni10  1  0.34514600  0.15485400  0.75000000  1
  Ni  Ni11  1  0.15485400  0.65485400  0.75000000  1
  Ni  Ni12  1  0.20471500  0.41419300  0.09971100  1
  Ni  Ni13  1  0.58580700  0.20471500  0.09971100  1
  Ni  Ni14  1  0.41419300  0.79528500  0.09971100  1
  Ni  Ni15  1  0.70471500  0.08580700  0.40028900  1
  Ni  Ni16  1  0.29528500  0.91419300  0.40028900  1
  Ni  Ni17  1  0.79528500  0.58580700  0.09971100  1
  Ni  Ni18  1  0.91419300  0.70471500  0.40028900  1
  Ni  Ni19  1  0.08580700  0.29528500  0.40028900  1
  Ni  Ni20  1  0.79528500  0.58580700  0.90028900  1
  Ni  Ni21  1  0.41419300  0.79528500  0.90028900  1
  Ni  Ni22  1  0.58580700  0.20471500  0.90028900  1
  Ni  Ni23  1  0.29528500  0.91419300  0.59971100  1
  Ni  Ni24  1  0.70471500  0.08580700  0.59971100  1
  Ni  Ni25  1  0.20471500  0.41419300  0.90028900  1
  Ni  Ni26  1  0.08580700  0.29528500  0.59971100  1
  Ni  Ni27  1  0.91419300  0.70471500  0.59971100  1
  C  C28  1  0.00000000  0.00000000  0.29750400  1
  C  C29  1  0.50000000  0.50000000  0.20249600  1
  C  C30  1  0.00000000  0.00000000  0.70249600  1
  C  C31  1  0.50000000  0.50000000  0.79750400  1
  Cu  Cu32  1  0.27098400  0.09193100  0.00000000  1
  Cu  Cu33  1  0.90806900  0.27098400  0.00000000  1
  Cu  Cu34  1  0.09193100  0.72901600  0.00000000  1
  Cu  Cu35  1  0.77098400  0.40806900  0.50000000  1
  Cu  Cu36  1  0.22901600  0.59193100  0.50000000  1
  Cu  Cu37  1  0.72901600  0.90806900  0.00000000  1
  Cu  Cu38  1  0.59193100  0.77098400  0.50000000  1
  Cu  Cu39  1  0.40806900  0.22901600  0.50000000  1
