# generated using pymatgen
data_CuNiC2
_symmetry_space_group_name_H-M   'P 1'
_cell_length_a   14.41335602
_cell_length_b   14.41335602
_cell_length_c   14.41335574
_cell_angle_alpha   13.39414949
_cell_angle_beta   13.39414949
_cell_angle_gamma   13.39414936
_symmetry_Int_Tables_number   1
_chemical_formula_structural   CuNiC2
_chemical_formula_sum   'Cu3 Ni3 C6'
_cell_volume   139.78431551
_cell_formula_units_Z   3
loop_
 _symmetry_equiv_pos_site_id
 _symmetry_equiv_pos_as_xyz
  1  'x, y, z'
loop_
 _atom_site_type_symbol
 _atom_site_label
 _atom_site_symmetry_multiplicity
 _atom_site_fract_x
 _atom_site_fract_y
 _atom_site_fract_z
 _atom_site_occupancy
  C  C0  1  0.00072600  0.00072600  0.00072600  1
  C  C1  1  0.49731500  0.49731500  0.49731500  1
  C  C2  1  0.76998300  0.76998300  0.76998300  1
  C  C3  1  0.23388100  0.23388100  0.23388100  1
  C  C4  1  0.38441400  0.38441400  0.38441400  1
  C  C5  1  0.61749500  0.61749500  0.61749500  1
  Ni  Ni6  1  0.69451200  0.69451200  0.69451200  1
  Ni  Ni7  1  0.29166200  0.29166200  0.29166200  1
  Ni  Ni8  1  0.42913800  0.42913800  0.42913800  1
  Cu  Cu9  1  0.19310200  0.19310200  0.19310200  1
  Cu  Cu10  1  0.81466600  0.81466600  0.81466600  1
  Cu  Cu11  1  0.57291600  0.57291600  0.57291600  1
