# generated using pymatgen
data_CuNiC12
_symmetry_space_group_name_H-M   'P 1'
_cell_length_a   5.19789500
_cell_length_b   7.65391354
_cell_length_c   7.65391354
_cell_angle_alpha   96.62090492
_cell_angle_beta   109.84994278
_cell_angle_gamma   70.15005722
_symmetry_Int_Tables_number   1
_chemical_formula_structural   CuNiC12
_chemical_formula_sum   'Cu1 Ni1 C12'
_cell_volume   269.39581041
_cell_formula_units_Z   1
loop_
 _symmetry_equiv_pos_site_id
 _symmetry_equiv_pos_as_xyz
  1  'x, y, z'
loop_
 _atom_site_type_symbol
 _atom_site_label
 _atom_site_symmetry_multiplicity
 _atom_site_fract_x
 _atom_site_fract_y
 _atom_site_fract_z
 _atom_site_occupancy
  C  C0  1  0.09381600  0.50000000  0.68763200  1
  C  C1  1  0.90618400  0.50000000  0.31236800  1
  C  C2  1  0.59381600  0.31236800  0.50000000  1
  C  C3  1  0.40618400  0.68763200  0.50000000  1
  C  C4  1  0.27889200  0.11503700  0.67873200  1
  C  C5  1  0.71519700  0.88496300  0.32126800  1
  C  C6  1  0.78480300  0.32126800  0.88496300  1
  C  C7  1  0.22110800  0.67873200  0.11503700  1
  C  C8  1  0.60016000  0.67873200  0.88496300  1
  C  C9  1  0.39392900  0.32126800  0.11503700  1
  C  C10  1  0.89984000  0.88496300  0.67873200  1
  C  C11  1  0.10607100  0.11503700  0.32126800  1
  Ni  Ni12  1  0.25000000  0.00000000  0.00000000  1
  Cu  Cu13  1  0.75000000  0.00000000  0.00000000  1
