# generated using pymatgen
data_Cu4Ni2C21
_symmetry_space_group_name_H-M   'P 1'
_cell_length_a   3.49912600
_cell_length_b   9.45290600
_cell_length_c   19.41301017
_cell_angle_alpha   80.85507552
_cell_angle_beta   90.00000000
_cell_angle_gamma   90.00000000
_symmetry_Int_Tables_number   1
_chemical_formula_structural   Cu4Ni2C21
_chemical_formula_sum   'Cu8 Ni4 C42'
_cell_volume   633.96067404
_cell_formula_units_Z   2
loop_
 _symmetry_equiv_pos_site_id
 _symmetry_equiv_pos_as_xyz
  1  'x, y, z'
loop_
 _atom_site_type_symbol
 _atom_site_label
 _atom_site_symmetry_multiplicity
 _atom_site_fract_x
 _atom_site_fract_y
 _atom_site_fract_z
 _atom_site_occupancy
  C  C0  1  0.95188600  0.54227700  0.17377600  1
  C  C1  1  0.45188600  0.45772300  0.32622400  1
  C  C2  1  0.04811400  0.45772300  0.82622400  1
  C  C3  1  0.54811400  0.54227700  0.67377600  1
  C  C4  1  0.74377400  0.64303400  0.44994200  1
  C  C5  1  0.24377400  0.35696600  0.05005800  1
  C  C6  1  0.25622600  0.35696600  0.55005800  1
  C  C7  1  0.75622600  0.64303400  0.94994200  1
  C  C8  1  0.00000000  0.00000000  0.00000000  1
  C  C9  1  0.50000000  0.00000000  0.50000000  1
  C  C10  1  0.55763400  0.91814300  0.17991900  1
  C  C11  1  0.05763400  0.08185700  0.32008100  1
  C  C12  1  0.44236600  0.08185700  0.82008100  1
  C  C13  1  0.94236600  0.91814300  0.67991900  1
  Ni  Ni14  1  0.97766800  0.11558500  0.12056300  1
  Ni  Ni15  1  0.47766800  0.88441500  0.37943700  1
  Ni  Ni16  1  0.02233200  0.88441500  0.87943700  1
  Ni  Ni17  1  0.52233200  0.11558500  0.62056300  1
  Cu  Cu18  1  0.39639800  0.71367100  0.06634400  1
  Cu  Cu19  1  0.89639800  0.28632900  0.43365600  1
  Cu  Cu20  1  0.60360200  0.28632900  0.93365600  1
  Cu  Cu21  1  0.10360200  0.71367100  0.56634400  1
  Cu  Cu22  1  0.08045200  0.73183100  0.30425300  1
  Cu  Cu23  1  0.58045200  0.26816900  0.19574700  1
  Cu  Cu24  1  0.91954800  0.26816900  0.69574700  1
  Cu  Cu25  1  0.41954800  0.73183100  0.80425300  1
  C  C26  1  0.94346000  0.62375800  0.28069700  1
  C  C27  1  0.44346000  0.37624200  0.21930300  1
  C  C28  1  0.05654000  0.37624200  0.71930300  1
  C  C29  1  0.55654000  0.62375800  0.78069700  1
  C  C30  1  0.49428100  0.82348400  0.01889400  1
  C  C31  1  0.99428100  0.17651600  0.48110600  1
  C  C32  1  0.50571900  0.17651600  0.98110600  1
  C  C33  1  0.00571900  0.82348400  0.51889400  1
  C  C34  1  0.05466200  0.86236000  0.26512000  1
  C  C35  1  0.55466200  0.13764000  0.23488000  1
  C  C36  1  0.94533800  0.13764000  0.73488000  1
  C  C37  1  0.44533800  0.86236000  0.76512000  1
  C  C38  1  0.05098800  0.01732200  0.11318300  1
  C  C39  1  0.55098800  0.98267800  0.38681700  1
  C  C40  1  0.94901200  0.98267800  0.88681700  1
  C  C41  1  0.44901200  0.01732200  0.61318300  1
  C  C42  1  0.45859100  0.71343300  0.13227800  1
  C  C43  1  0.95859100  0.28656700  0.36772200  1
  C  C44  1  0.54140900  0.28656700  0.86772200  1
  C  C45  1  0.04140900  0.71343300  0.63227800  1
  C  C46  1  0.23735200  0.60406800  0.04604400  1
  C  C47  1  0.73735200  0.39593200  0.45395600  1
  C  C48  1  0.76264800  0.39593200  0.95395600  1
  C  C49  1  0.26264800  0.60406800  0.54604400  1
  C  C50  1  0.24501400  0.72031500  0.36447200  1
  C  C51  1  0.74501400  0.27968500  0.13552800  1
  C  C52  1  0.75498600  0.27968500  0.63552800  1
  C  C53  1  0.25498600  0.72031500  0.86447200  1
