# generated using pymatgen
data_CuNiC8
_symmetry_space_group_name_H-M   'P 1'
_cell_length_a   5.94978608
_cell_length_b   5.94978608
_cell_length_c   8.72022924
_cell_angle_alpha   90.00000000
_cell_angle_beta   90.00000000
_cell_angle_gamma   90.00000000
_symmetry_Int_Tables_number   1
_chemical_formula_structural   CuNiC8
_chemical_formula_sum   'Cu2 Ni2 C16'
_cell_volume   308.69571743
_cell_formula_units_Z   2
loop_
 _symmetry_equiv_pos_site_id
 _symmetry_equiv_pos_as_xyz
  1  'x, y, z'
loop_
 _atom_site_type_symbol
 _atom_site_label
 _atom_site_symmetry_multiplicity
 _atom_site_fract_x
 _atom_site_fract_y
 _atom_site_fract_z
 _atom_site_occupancy
  Ni  Ni0  1  -0.00000000  0.50000000  0.25000000  1
  Ni  Ni1  1  0.50000000  -0.00000000  0.75000000  1
  Cu  Cu2  1  -0.00000000  -0.00000000  0.00000000  1
  Cu  Cu3  1  0.50000000  0.50000000  0.50000000  1
  C  C4  1  0.50000000  0.00000000  0.25000000  1
  C  C5  1  -0.00000000  0.50000000  0.75000000  1
  C  C6  1  -0.00000000  0.00000000  0.50000000  1
  C  C7  1  0.50000000  0.50000000  -0.00000000  1
  C  C8  1  -0.00000000  0.00000000  0.27357434  1
  C  C9  1  0.50000000  0.50000000  0.22642566  1
  C  C10  1  -0.00000000  -0.00000000  0.72642566  1
  C  C11  1  0.50000000  0.50000000  0.77357434  1
  C  C12  1  0.36067915  0.20426213  0.02137665  1
  C  C13  1  0.63932085  0.79573787  0.02137665  1
  C  C14  1  0.79573787  0.36067915  0.97862335  1
  C  C15  1  0.20426213  0.63932085  0.97862335  1
  C  C16  1  0.86067915  0.29573787  0.52137665  1
  C  C17  1  0.13932085  0.70426213  0.52137665  1
  C  C18  1  0.29573787  0.13932085  0.47862335  1
  C  C19  1  0.70426213  0.86067915  0.47862335  1
