# generated using pymatgen
data_CuNiC9
_symmetry_space_group_name_H-M   'P 1'
_cell_length_a   7.46033575
_cell_length_b   7.46033575
_cell_length_c   7.46033575
_cell_angle_alpha   120.84336715
_cell_angle_beta   118.59541935
_cell_angle_gamma   90.49764712
_symmetry_Int_Tables_number   1
_chemical_formula_structural   CuNiC9
_chemical_formula_sum   'Cu2 Ni2 C18'
_cell_volume   294.69565209
_cell_formula_units_Z   2
loop_
 _symmetry_equiv_pos_site_id
 _symmetry_equiv_pos_as_xyz
  1  'x, y, z'
loop_
 _atom_site_type_symbol
 _atom_site_label
 _atom_site_symmetry_multiplicity
 _atom_site_fract_x
 _atom_site_fract_y
 _atom_site_fract_z
 _atom_site_occupancy
  Ni  Ni0  1  0.00000000  0.00000000  0.50000000  1
  Ni  Ni1  1  0.00000000  0.50000000  0.00000000  1
  Cu  Cu2  1  0.00000000  0.00000000  0.00000000  1
  Cu  Cu3  1  0.50000000  0.00000000  0.50000000  1
  C  C4  1  0.50000000  0.50000000  0.50000000  1
  C  C5  1  0.50000000  0.00000000  0.00000000  1
  C  C6  1  0.50000000  0.50000000  0.00000000  1
  C  C7  1  0.00000000  0.50000000  0.50000000  1
  C  C8  1  0.11788900  0.86788900  0.25000000  1
  C  C9  1  0.88211100  0.13211100  0.75000000  1
  C  C10  1  0.42172000  0.17172000  0.25000000  1
  C  C11  1  0.81862400  0.56862400  0.25000000  1
  C  C12  1  0.43305700  0.57923700  0.25897200  1
  C  C13  1  0.82026500  0.17408500  0.24102800  1
  C  C14  1  0.43305700  0.17408500  0.85382000  1
  C  C15  1  0.82026500  0.57923700  0.64618000  1
  C  C16  1  0.57828000  0.82828000  0.75000000  1
  C  C17  1  0.18137600  0.43137600  0.75000000  1
  C  C18  1  0.56694300  0.42076300  0.74102800  1
  C  C19  1  0.17973500  0.82591500  0.75897200  1
  C  C20  1  0.56694300  0.82591500  0.14618000  1
  C  C21  1  0.17973500  0.42076300  0.35382000  1
