# generated using pymatgen
data_Cu16NiC15
_symmetry_space_group_name_H-M   'P 1'
_cell_length_a   8.90213227
_cell_length_b   8.64185801
_cell_length_c   4.32878505
_cell_angle_alpha   90.00000000
_cell_angle_beta   90.00000000
_cell_angle_gamma   90.00000000
_symmetry_Int_Tables_number   1
_chemical_formula_structural   Cu16NiC15
_chemical_formula_sum   'Cu16 Ni1 C15'
_cell_volume   333.01760279
_cell_formula_units_Z   1
loop_
 _symmetry_equiv_pos_site_id
 _symmetry_equiv_pos_as_xyz
  1  'x, y, z'
loop_
 _atom_site_type_symbol
 _atom_site_label
 _atom_site_symmetry_multiplicity
 _atom_site_fract_x
 _atom_site_fract_y
 _atom_site_fract_z
 _atom_site_occupancy
  C  C0  1  0.50000000  0.00000000  -0.00000000  1
  C  C1  1  0.50000000  0.50000000  -0.00000000  1
  C  C2  1  -0.00000000  0.22850056  0.50000000  1
  C  C3  1  -0.00000000  0.77149944  0.50000000  1
  C  C4  1  0.50000000  0.24429605  0.50000000  1
  C  C5  1  0.50000000  0.75570395  0.50000000  1
  C  C6  1  0.25102078  0.00000000  0.50000000  1
  C  C7  1  0.26677562  0.50000000  0.50000000  1
  C  C8  1  0.74897922  0.00000000  0.50000000  1
  C  C9  1  0.73322438  0.50000000  0.50000000  1
  C  C10  1  0.25622688  0.23428559  -0.00000000  1
  C  C11  1  0.25622688  0.76571441  0.00000000  1
  C  C12  1  0.74377312  0.23428559  -0.00000000  1
  C  C13  1  0.74377312  0.76571441  0.00000000  1
  C  C14  1  -0.00000000  0.50000000  -0.00000000  1
  Ni  Ni15  1  -0.00000000  0.00000000  -0.00000000  1
  Cu  Cu16  1  0.28081466  0.00000000  -0.00000000  1
  Cu  Cu17  1  0.26568636  0.50000000  -0.00000000  1
  Cu  Cu18  1  0.71918534  -0.00000000  -0.00000000  1
  Cu  Cu19  1  0.73431364  0.50000000  0.00000000  1
  Cu  Cu20  1  0.24719136  0.25036932  0.50000000  1
  Cu  Cu21  1  0.24719136  0.74963068  0.50000000  1
  Cu  Cu22  1  0.75280864  0.25036932  0.50000000  1
  Cu  Cu23  1  0.75280864  0.74963068  0.50000000  1
  Cu  Cu24  1  -0.00000000  0.00000000  0.50000000  1
  Cu  Cu25  1  -0.00000000  0.50000000  0.50000000  1
  Cu  Cu26  1  0.50000000  0.00000000  0.50000000  1
  Cu  Cu27  1  0.50000000  0.50000000  0.50000000  1
  Cu  Cu28  1  -0.00000000  0.23576145  0.00000000  1
  Cu  Cu29  1  -0.00000000  0.76423855  -0.00000000  1
  Cu  Cu30  1  0.50000000  0.25413713  0.00000000  1
  Cu  Cu31  1  0.50000000  0.74586287  -0.00000000  1
