# generated using pymatgen
data_Cu28NiC21
_symmetry_space_group_name_H-M   'P 1'
_cell_length_a   9.95710004
_cell_length_b   9.95710004
_cell_length_c   9.95710004
_cell_angle_alpha   115.97090402
_cell_angle_beta   115.97090402
_cell_angle_gamma   97.13286565
_symmetry_Int_Tables_number   1
_chemical_formula_structural   Cu28NiC21
_chemical_formula_sum   'Cu28 Ni1 C21'
_cell_volume   734.38805861
_cell_formula_units_Z   1
loop_
 _symmetry_equiv_pos_site_id
 _symmetry_equiv_pos_as_xyz
  1  'x, y, z'
loop_
 _atom_site_type_symbol
 _atom_site_label
 _atom_site_symmetry_multiplicity
 _atom_site_fract_x
 _atom_site_fract_y
 _atom_site_fract_z
 _atom_site_occupancy
  C  C0  1  0.04308900  0.04308900  0.00000000  1
  C  C1  1  0.28317900  0.05685100  0.77367300  1
  C  C2  1  0.28317900  0.50950600  0.22632700  1
  C  C3  1  0.50950600  0.28317900  0.22632700  1
  C  C4  1  0.05685100  0.28317900  0.77367300  1
  C  C5  1  0.71960600  0.95006100  0.23045500  1
  C  C6  1  0.71960600  0.48915100  0.76954500  1
  C  C7  1  0.48915100  0.71960600  0.76954500  1
  C  C8  1  0.95006100  0.71960600  0.23045500  1
  C  C9  1  0.49975000  0.18128700  0.68153600  1
  C  C10  1  0.49975000  0.81821400  0.31846400  1
  C  C11  1  0.81821400  0.49975000  0.31846400  1
  C  C12  1  0.18128700  0.49975000  0.68153600  1
  C  C13  1  0.88936500  0.88936500  0.55506000  1
  C  C14  1  0.33430500  0.33430500  0.44494000  1
  C  C15  1  0.33430500  0.88936500  0.00000000  1
  C  C16  1  0.88936500  0.33430500  0.00000000  1
  C  C17  1  0.10917100  0.10917100  0.44247100  1
  C  C18  1  0.66670000  0.66670000  0.55752900  1
  C  C19  1  0.66670000  0.10917100  0.00000000  1
  C  C20  1  0.10917100  0.66670000  0.00000000  1
  Ni  Ni21  1  0.43108600  0.43108600  0.00000000  1
  Cu  Cu22  1  0.25485900  0.07124500  0.56331700  1
  Cu  Cu23  1  0.50792800  0.69154200  0.43668300  1
  Cu  Cu24  1  0.50792800  0.07124500  0.81638600  1
  Cu  Cu25  1  0.25485900  0.69154200  0.18361400  1
  Cu  Cu26  1  0.69154200  0.25485900  0.18361400  1
  Cu  Cu27  1  0.07124500  0.50792800  0.81638600  1
  Cu  Cu28  1  0.07124500  0.25485900  0.56331700  1
  Cu  Cu29  1  0.69154200  0.50792800  0.43668300  1
  Cu  Cu30  1  0.74352800  0.92627300  0.43325500  1
  Cu  Cu31  1  0.49301900  0.31027400  0.56674500  1
  Cu  Cu32  1  0.49301900  0.92627300  0.18274500  1
  Cu  Cu33  1  0.74352800  0.31027400  0.81725500  1
  Cu  Cu34  1  0.31027400  0.74352800  0.81725500  1
  Cu  Cu35  1  0.92627300  0.49301900  0.18274500  1
  Cu  Cu36  1  0.92627300  0.74352800  0.43325500  1
  Cu  Cu37  1  0.31027400  0.49301900  0.56674500  1
  Cu  Cu38  1  0.82836400  0.82836400  0.65618100  1
  Cu  Cu39  1  0.17218400  0.17218400  0.34381900  1
  Cu  Cu40  1  0.17218400  0.82836400  0.00000000  1
  Cu  Cu41  1  0.82836400  0.17218400  0.00000000  1
  Cu  Cu42  1  0.05460900  0.05460900  0.71094000  1
  Cu  Cu43  1  0.34366800  0.34366800  0.28906000  1
  Cu  Cu44  1  0.34366800  0.05460900  0.00000000  1
  Cu  Cu45  1  0.05460900  0.34366800  0.00000000  1
  Cu  Cu46  1  0.94382700  0.94382700  0.28969500  1
  Cu  Cu47  1  0.65413200  0.65413200  0.71030500  1
  Cu  Cu48  1  0.65413200  0.94382700  0.00000000  1
  Cu  Cu49  1  0.94382700  0.65413200  0.00000000  1
