# generated using pymatgen
data_CuNiC13
_symmetry_space_group_name_H-M   'P 1'
_cell_length_a   5.91274219
_cell_length_b   5.91274219
_cell_length_c   14.57048900
_cell_angle_alpha   90.00000000
_cell_angle_beta   90.00000000
_cell_angle_gamma   120.00000215
_symmetry_Int_Tables_number   1
_chemical_formula_structural   CuNiC13
_chemical_formula_sum   'Cu2 Ni2 C26'
_cell_volume   441.14629508
_cell_formula_units_Z   2
loop_
 _symmetry_equiv_pos_site_id
 _symmetry_equiv_pos_as_xyz
  1  'x, y, z'
loop_
 _atom_site_type_symbol
 _atom_site_label
 _atom_site_symmetry_multiplicity
 _atom_site_fract_x
 _atom_site_fract_y
 _atom_site_fract_z
 _atom_site_occupancy
  C  C0  1  0.33333300  0.66666700  0.59162200  1
  C  C1  1  0.66666700  0.33333300  0.40670500  1
  C  C2  1  0.66666700  0.33333300  0.09162200  1
  C  C3  1  0.33333300  0.66666700  0.90670500  1
  C  C4  1  0.00000000  0.00000000  0.25014800  1
  C  C5  1  0.00000000  0.00000000  0.75014800  1
  C  C6  1  0.00000000  0.00000000  0.49894600  1
  C  C7  1  0.00000000  0.00000000  0.99894600  1
  Ni  Ni8  1  0.33333300  0.66666700  0.33667700  1
  Ni  Ni9  1  0.66666700  0.33333300  0.83667700  1
  Cu  Cu10  1  0.66666700  0.33333300  0.66197200  1
  Cu  Cu11  1  0.33333300  0.66666700  0.16197200  1
  C  C12  1  0.17405500  0.82594500  0.08686800  1
  C  C13  1  0.17405500  0.34811000  0.08686800  1
  C  C14  1  0.65189000  0.82594500  0.08686800  1
  C  C15  1  0.82624200  0.17375800  0.91523300  1
  C  C16  1  0.82624200  0.65248400  0.91523300  1
  C  C17  1  0.34751600  0.17375800  0.91523300  1
  C  C18  1  0.82594500  0.17405500  0.58686800  1
  C  C19  1  0.82594500  0.65189000  0.58686800  1
  C  C20  1  0.34811000  0.17405500  0.58686800  1
  C  C21  1  0.17375800  0.82624200  0.41523300  1
  C  C22  1  0.17375800  0.34751600  0.41523300  1
  C  C23  1  0.65248400  0.82624200  0.41523300  1
  C  C24  1  0.48977100  0.51022900  0.24921000  1
  C  C25  1  0.48977100  0.97954200  0.24921000  1
  C  C26  1  0.02045800  0.51022900  0.24921000  1
  C  C27  1  0.51022900  0.48977100  0.74921000  1
  C  C28  1  0.51022900  0.02045800  0.74921000  1
  C  C29  1  0.97954200  0.48977100  0.74921000  1
