# generated using pymatgen
data_Cu(NiC3)2
_symmetry_space_group_name_H-M   'P 1'
_cell_length_a   3.55223323
_cell_length_b   3.55223323
_cell_length_c   32.57431000
_cell_angle_alpha   90.00000000
_cell_angle_beta   90.00000000
_cell_angle_gamma   119.99998574
_symmetry_Int_Tables_number   1
_chemical_formula_structural   Cu(NiC3)2
_chemical_formula_sum   'Cu1 Ni2 C6'
_cell_volume   355.96628451
_cell_formula_units_Z   1
loop_
 _symmetry_equiv_pos_site_id
 _symmetry_equiv_pos_as_xyz
  1  'x, y, z'
loop_
 _atom_site_type_symbol
 _atom_site_label
 _atom_site_symmetry_multiplicity
 _atom_site_fract_x
 _atom_site_fract_y
 _atom_site_fract_z
 _atom_site_occupancy
  C  C0  1  0.00000000  0.00000000  0.40267800  1
  C  C1  1  0.33333300  0.66666700  0.05997100  1
  C  C2  1  0.33333300  0.66666700  0.52254200  1
  C  C3  1  0.33333300  0.66666700  0.17136400  1
  C  C4  1  0.33333300  0.66666700  0.63405900  1
  C  C5  1  0.00000000  0.00000000  0.29128600  1
  Ni  Ni6  1  0.00000000  0.00000000  0.11564800  1
  Ni  Ni7  1  0.33333300  0.66666700  0.34697900  1
  Cu  Cu8  1  0.00000000  0.00000000  0.57831400  1
