# generated using pymatgen
data_Cu13Ni8C5
_symmetry_space_group_name_H-M   'P 1'
_cell_length_a   11.02827144
_cell_length_b   11.02827144
_cell_length_c   6.70568361
_cell_angle_alpha   86.44512791
_cell_angle_beta   86.44512791
_cell_angle_gamma   121.50851109
_symmetry_Int_Tables_number   1
_chemical_formula_structural   Cu13Ni8C5
_chemical_formula_sum   'Cu13 Ni8 C5'
_cell_volume   689.69666145
_cell_formula_units_Z   1
loop_
 _symmetry_equiv_pos_site_id
 _symmetry_equiv_pos_as_xyz
  1  'x, y, z'
loop_
 _atom_site_type_symbol
 _atom_site_label
 _atom_site_symmetry_multiplicity
 _atom_site_fract_x
 _atom_site_fract_y
 _atom_site_fract_z
 _atom_site_occupancy
  C  C0  1  0.99765600  0.14195100  0.53450300  1
  C  C1  1  0.84341100  0.84341100  0.56200000  1
  C  C2  1  0.14195100  0.99765600  0.53450300  1
  Ni  Ni3  1  0.36380100  0.73461400  0.86530400  1
  Ni  Ni4  1  0.73461400  0.36380100  0.86530400  1
  Ni  Ni5  1  0.22409900  0.60367100  0.96887100  1
  Ni  Ni6  1  0.35714900  0.60936800  0.04128300  1
  Ni  Ni7  1  0.46537100  0.68982900  0.87200000  1
  Ni  Ni8  1  0.60367100  0.22409900  0.96887100  1
  Ni  Ni9  1  0.68982900  0.46537100  0.87200000  1
  Ni  Ni10  1  0.60936800  0.35714900  0.04128300  1
  Cu  Cu11  1  0.71644400  0.98782900  0.60584400  1
  Cu  Cu12  1  0.98782900  0.71644400  0.60584400  1
  Cu  Cu13  1  0.27730400  0.27730400  0.55073100  1
  Cu  Cu14  1  0.82010900  0.99971800  0.28743500  1
  Cu  Cu15  1  0.99971800  0.82010900  0.28743500  1
  Cu  Cu16  1  0.19064600  0.19064600  0.25177800  1
  Cu  Cu17  1  0.00478800  0.37583600  0.39938500  1
  Cu  Cu18  1  0.61997800  0.61997800  0.45091000  1
  Cu  Cu19  1  0.37583600  0.00478800  0.39938500  1
  Cu  Cu20  1  0.99583100  0.33628800  0.73645700  1
  Cu  Cu21  1  0.61493200  0.61493200  0.79829900  1
  Cu  Cu22  1  0.33628800  0.99583100  0.73645700  1
  Cu  Cu23  1  0.98537400  0.98537400  0.83743700  1
  C  C24  1  0.32355500  0.72044900  0.08739300  1
  C  C25  1  0.72044900  0.32355500  0.08739300  1
