# generated using pymatgen
data_Cu2Ni4C3
_symmetry_space_group_name_H-M   'P 1'
_cell_length_a   11.60242100
_cell_length_b   11.60242100
_cell_length_c   5.66174200
_cell_angle_alpha   90.00000000
_cell_angle_beta   90.00000000
_cell_angle_gamma   90.00000000
_symmetry_Int_Tables_number   1
_chemical_formula_structural   Cu2Ni4C3
_chemical_formula_sum   'Cu8 Ni16 C12'
_cell_volume   762.16204090
_cell_formula_units_Z   4
loop_
 _symmetry_equiv_pos_site_id
 _symmetry_equiv_pos_as_xyz
  1  'x, y, z'
loop_
 _atom_site_type_symbol
 _atom_site_label
 _atom_site_symmetry_multiplicity
 _atom_site_fract_x
 _atom_site_fract_y
 _atom_site_fract_z
 _atom_site_occupancy
  C  C0  1  0.99174700  0.24457300  0.40406800  1
  C  C1  1  0.00825300  0.75542700  0.40406800  1
  C  C2  1  0.74457300  0.50825300  0.40406800  1
  C  C3  1  0.50825300  0.25542700  0.59593200  1
  C  C4  1  0.25542700  0.49174700  0.40406800  1
  C  C5  1  0.49174700  0.74457300  0.59593200  1
  C  C6  1  0.75542700  0.99174700  0.59593200  1
  C  C7  1  0.24457300  0.00825300  0.59593200  1
  C  C8  1  0.75000000  0.25000000  0.00000000  1
  C  C9  1  0.25000000  0.75000000  0.00000000  1
  C  C10  1  0.75000000  0.75000000  0.00000000  1
  C  C11  1  0.25000000  0.25000000  0.00000000  1
  Ni  Ni12  1  0.49865300  0.53322800  0.20141000  1
  Ni  Ni13  1  0.50134700  0.46677200  0.20141000  1
  Ni  Ni14  1  0.03322800  0.00134700  0.20141000  1
  Ni  Ni15  1  0.00134700  0.96677200  0.79859000  1
  Ni  Ni16  1  0.96677200  0.99865300  0.20141000  1
  Ni  Ni17  1  0.99865300  0.03322800  0.79859000  1
  Ni  Ni18  1  0.46677200  0.49865300  0.79859000  1
  Ni  Ni19  1  0.53322800  0.50134700  0.79859000  1
  Ni  Ni20  1  0.60514200  0.07730600  0.12448300  1
  Ni  Ni21  1  0.39485800  0.92269400  0.12448300  1
  Ni  Ni22  1  0.57730600  0.89485800  0.12448300  1
  Ni  Ni23  1  0.89485800  0.42269400  0.87551700  1
  Ni  Ni24  1  0.42269400  0.10514200  0.12448300  1
  Ni  Ni25  1  0.10514200  0.57730600  0.87551700  1
  Ni  Ni26  1  0.92269400  0.60514200  0.87551700  1
  Ni  Ni27  1  0.07730600  0.39485800  0.87551700  1
  Cu  Cu28  1  0.57390400  0.05467300  0.95561100  1
  Cu  Cu29  1  0.42609600  0.94532700  0.95561100  1
  Cu  Cu30  1  0.55467300  0.92609600  0.95561100  1
  Cu  Cu31  1  0.92609600  0.44532700  0.04438900  1
  Cu  Cu32  1  0.44532700  0.07390400  0.95561100  1
  Cu  Cu33  1  0.07390400  0.55467300  0.04438900  1
  Cu  Cu34  1  0.94532700  0.57390400  0.04438900  1
  Cu  Cu35  1  0.05467300  0.42609600  0.04438900  1
