# generated using pymatgen
data_Cu2NiC10
_symmetry_space_group_name_H-M   'P 1'
_cell_length_a   4.79542437
_cell_length_b   8.51077215
_cell_length_c   15.90936357
_cell_angle_alpha   86.48153225
_cell_angle_beta   81.33188717
_cell_angle_gamma   73.63670681
_symmetry_Int_Tables_number   1
_chemical_formula_structural   Cu2NiC10
_chemical_formula_sum   'Cu8 Ni4 C40'
_cell_volume   615.76635116
_cell_formula_units_Z   4
loop_
 _symmetry_equiv_pos_site_id
 _symmetry_equiv_pos_as_xyz
  1  'x, y, z'
loop_
 _atom_site_type_symbol
 _atom_site_label
 _atom_site_symmetry_multiplicity
 _atom_site_fract_x
 _atom_site_fract_y
 _atom_site_fract_z
 _atom_site_occupancy
  Ni  Ni0  1  0.50444000  0.82604100  0.83754200  1
  Ni  Ni1  1  0.16802400  0.67395900  0.66245800  1
  Ni  Ni2  1  0.83197600  0.32604100  0.33754200  1
  Ni  Ni3  1  0.49556000  0.17395900  0.16245800  1
  Cu  Cu4  1  0.19227800  0.21531300  0.96468800  1
  Cu  Cu5  1  0.37227800  0.28468700  0.53531200  1
  Cu  Cu6  1  0.80772200  0.78468700  0.03531200  1
  Cu  Cu7  1  0.50000000  0.50000000  0.00000000  1
  Cu  Cu8  1  0.62772200  0.71531300  0.46468800  1
  Cu  Cu9  1  0.66367000  0.75000000  0.25000000  1
  Cu  Cu10  1  0.33633000  0.25000000  0.75000000  1
  Cu  Cu11  1  0.00000000  0.00000000  0.50000000  1
  C  C12  1  0.06539900  0.57611400  0.86641800  1
  C  C13  1  0.77378600  0.42445800  0.61912900  1
  C  C14  1  0.93460100  0.42388600  0.13358200  1
  C  C15  1  0.18262700  0.92445800  0.11912900  1
  C  C16  1  0.49207000  0.07611400  0.36641800  1
  C  C17  1  0.50793000  0.92388600  0.63358200  1
  C  C18  1  0.22621400  0.57554200  0.38087100  1
  C  C19  1  0.81737300  0.07554200  0.88087100  1
  C  C20  1  0.67811000  0.36132600  0.11285600  1
  C  C21  1  0.72518900  0.92378500  0.92213500  1
  C  C22  1  0.84770800  0.86132600  0.61285600  1
  C  C23  1  0.85499700  0.27754600  0.55576200  1
  C  C24  1  0.17682500  0.38988400  0.05451700  1
  C  C25  1  0.60559400  0.39937000  0.70549500  1
  C  C26  1  0.68830600  0.22245400  0.94423800  1
  C  C27  1  0.83923300  0.95644300  0.12941800  1
  C  C28  1  0.14500300  0.72245400  0.44423800  1
  C  C29  1  0.57110800  0.57621500  0.57786500  1
  C  C30  1  0.83950200  0.61219100  0.14185500  1
  C  C31  1  0.60733200  0.16645200  0.28708600  1
  C  C32  1  0.27481100  0.07621500  0.07786500  1
  C  C33  1  0.07490600  0.45644300  0.62941800  1
  C  C34  1  0.32188900  0.63867400  0.88714400  1
  C  C35  1  0.16049800  0.38780900  0.85814500  1
  C  C36  1  0.93912900  0.66645200  0.78708600  1
  C  C37  1  0.31169400  0.77754600  0.05576200  1
  C  C38  1  0.40645100  0.11219100  0.64185500  1
  C  C39  1  0.39266800  0.83354800  0.71291400  1
  C  C40  1  0.92509400  0.54355700  0.37058200  1
  C  C41  1  0.37877300  0.88988400  0.55451700  1
  C  C42  1  0.16076700  0.04355700  0.87058200  1
  C  C43  1  0.28954100  0.89937000  0.20549500  1
  C  C44  1  0.42889200  0.42378500  0.42213500  1
  C  C45  1  0.15229200  0.13867400  0.38714400  1
  C  C46  1  0.06087100  0.33354800  0.21291400  1
  C  C47  1  0.62122700  0.11011600  0.44548300  1
  C  C48  1  0.82317500  0.61011600  0.94548300  1
  C  C49  1  0.71045900  0.10063000  0.79450500  1
  C  C50  1  0.39440600  0.60063000  0.29450500  1
  C  C51  1  0.59354900  0.88780900  0.35814500  1
