# generated using pymatgen
data_CuNiC4
_symmetry_space_group_name_H-M   'P 1'
_cell_length_a   8.85697800
_cell_length_b   8.88534665
_cell_length_c   12.90831338
_cell_angle_alpha   70.14644243
_cell_angle_beta   71.32906018
_cell_angle_gamma   74.91025103
_symmetry_Int_Tables_number   1
_chemical_formula_structural   CuNiC4
_chemical_formula_sum   'Cu8 Ni8 C32'
_cell_volume   891.98918883
_cell_formula_units_Z   8
loop_
 _symmetry_equiv_pos_site_id
 _symmetry_equiv_pos_as_xyz
  1  'x, y, z'
loop_
 _atom_site_type_symbol
 _atom_site_label
 _atom_site_symmetry_multiplicity
 _atom_site_fract_x
 _atom_site_fract_y
 _atom_site_fract_z
 _atom_site_occupancy
  Ni  Ni0  1  0.30212500  0.58285500  0.63083700  1
  Ni  Ni1  1  0.69787500  0.41714500  0.36916300  1
  Ni  Ni2  1  0.68094900  0.38543300  0.81453400  1
  Ni  Ni3  1  0.31905100  0.61456700  0.18546600  1
  Ni  Ni4  1  0.02180900  0.73739700  0.94167300  1
  Ni  Ni5  1  0.97819100  0.26260300  0.05832700  1
  Ni  Ni6  1  0.48646200  0.02681200  0.17586300  1
  Ni  Ni7  1  0.51353800  0.97318800  0.82413700  1
  Cu  Cu8  1  0.60353600  0.32658100  0.18734200  1
  Cu  Cu9  1  0.39646400  0.67341900  0.81265800  1
  Cu  Cu10  1  0.60078700  0.29133600  0.62837400  1
  Cu  Cu11  1  0.39921300  0.70866400  0.37162600  1
  Cu  Cu12  1  0.74049200  0.00753700  0.95596600  1
  Cu  Cu13  1  0.25950800  0.99246300  0.04403400  1
  Cu  Cu14  1  0.98137600  0.51345500  0.81933300  1
  Cu  Cu15  1  0.01862400  0.48654500  0.18066700  1
  C  C16  1  0.70383300  0.29401300  0.50688800  1
  C  C17  1  0.29616700  0.70598700  0.49311200  1
  C  C18  1  0.57195800  0.11705500  0.69408400  1
  C  C19  1  0.42804200  0.88294500  0.30591600  1
  C  C20  1  0.11380800  0.52723800  0.70730200  1
  C  C21  1  0.88619200  0.47276200  0.29269800  1
  C  C22  1  0.69269800  0.35127800  0.68579400  1
  C  C23  1  0.30730200  0.64872200  0.31420600  1
  C  C24  1  0.50227500  0.19865900  0.20622600  1
  C  C25  1  0.49772500  0.80134100  0.79377400  1
  C  C26  1  0.51058200  0.49814500  0.14181100  1
  C  C27  1  0.48941800  0.50185500  0.85818900  1
  C  C28  1  0.43574100  0.40088500  0.62427100  1
  C  C29  1  0.56425900  0.59911500  0.37572900  1
  C  C30  1  0.63511400  0.31093100  0.30162100  1
  C  C31  1  0.36488600  0.68906900  0.69837900  1
  C  C32  1  0.94892600  0.66848400  0.85701800  1
  C  C33  1  0.05107400  0.33151600  0.14298200  1
  C  C34  1  0.76581200  0.29875600  0.09955500  1
  C  C35  1  0.23418800  0.70124400  0.90044500  1
  C  C36  1  0.82736000  0.49551000  0.79803500  1
  C  C37  1  0.17264000  0.50449000  0.20196500  1
  C  C38  1  0.65841700  0.93412400  0.90023400  1
  C  C39  1  0.34158300  0.06587600  0.09976600  1
  C  C40  1  0.92342400  0.94045900  0.92752900  1
  C  C41  1  0.07657600  0.05954100  0.07247100  1
  C  C42  1  0.71189700  0.19413500  0.91181000  1
  C  C43  1  0.28810300  0.80586500  0.08819000  1
  C  C44  1  0.67133300  0.95832000  0.08668800  1
  C  C45  1  0.32866700  0.04168000  0.91331200  1
  C  C46  1  0.03639900  0.36565100  0.91278300  1
  C  C47  1  0.96360100  0.63434900  0.08721700  1
