# generated using pymatgen
data_Cu18NiC17
_symmetry_space_group_name_H-M   'P 1'
_cell_length_a   9.01503700
_cell_length_b   11.32841800
_cell_length_c   18.52528100
_cell_angle_alpha   90.00000000
_cell_angle_beta   90.00000000
_cell_angle_gamma   90.00000000
_symmetry_Int_Tables_number   1
_chemical_formula_structural   Cu18NiC17
_chemical_formula_sum   'Cu72 Ni4 C68'
_cell_volume   1891.91483742
_cell_formula_units_Z   4
loop_
 _symmetry_equiv_pos_site_id
 _symmetry_equiv_pos_as_xyz
  1  'x, y, z'
loop_
 _atom_site_type_symbol
 _atom_site_label
 _atom_site_symmetry_multiplicity
 _atom_site_fract_x
 _atom_site_fract_y
 _atom_site_fract_z
 _atom_site_occupancy
  Ni  Ni0  1  0.00000000  0.13099500  0.25000000  1
  Ni  Ni1  1  0.00000000  0.86900500  0.75000000  1
  Ni  Ni2  1  0.50000000  0.36900500  0.75000000  1
  Ni  Ni3  1  0.50000000  0.63099500  0.25000000  1
  Cu  Cu4  1  0.02989400  0.36418400  0.31320700  1
  Cu  Cu5  1  0.97010600  0.63581600  0.68679300  1
  Cu  Cu6  1  0.47010600  0.13581600  0.81320700  1
  Cu  Cu7  1  0.97010600  0.36418400  0.18679300  1
  Cu  Cu8  1  0.52989400  0.86418400  0.18679300  1
  Cu  Cu9  1  0.02989400  0.63581600  0.81320700  1
  Cu  Cu10  1  0.52989400  0.13581600  0.68679300  1
  Cu  Cu11  1  0.47010600  0.86418400  0.31320700  1
  Cu  Cu12  1  0.02820600  0.12185800  0.58331600  1
  Cu  Cu13  1  0.97179400  0.87814200  0.41668400  1
  Cu  Cu14  1  0.47179400  0.37814200  0.08331600  1
  Cu  Cu15  1  0.97179400  0.12185800  0.91668400  1
  Cu  Cu16  1  0.52820600  0.62185800  0.91668400  1
  Cu  Cu17  1  0.02820600  0.87814200  0.08331600  1
  Cu  Cu18  1  0.52820600  0.37814200  0.41668400  1
  Cu  Cu19  1  0.47179400  0.62185800  0.58331600  1
  Cu  Cu20  1  0.51160000  0.43937400  0.14570000  1
  Cu  Cu21  1  0.48840000  0.56062600  0.85430000  1
  Cu  Cu22  1  0.98840000  0.06062600  0.64570000  1
  Cu  Cu23  1  0.48840000  0.43937400  0.35430000  1
  Cu  Cu24  1  0.01160000  0.93937400  0.35430000  1
  Cu  Cu25  1  0.51160000  0.56062600  0.64570000  1
  Cu  Cu26  1  0.01160000  0.06062600  0.85430000  1
  Cu  Cu27  1  0.98840000  0.93937400  0.14570000  1
  Cu  Cu28  1  0.21202000  0.02884100  0.05670000  1
  Cu  Cu29  1  0.78798000  0.97115900  0.94330000  1
  Cu  Cu30  1  0.28798000  0.47115900  0.55670000  1
  Cu  Cu31  1  0.78798000  0.02884100  0.44330000  1
  Cu  Cu32  1  0.71202000  0.52884100  0.44330000  1
  Cu  Cu33  1  0.21202000  0.97115900  0.55670000  1
  Cu  Cu34  1  0.71202000  0.47115900  0.94330000  1
  Cu  Cu35  1  0.28798000  0.52884100  0.05670000  1
  Cu  Cu36  1  0.00000000  0.54899600  0.25000000  1
  Cu  Cu37  1  0.00000000  0.45100400  0.75000000  1
  Cu  Cu38  1  0.50000000  0.95100400  0.75000000  1
  Cu  Cu39  1  0.50000000  0.04899600  0.25000000  1
  Cu  Cu40  1  0.17056600  0.08843800  0.11945400  1
  Cu  Cu41  1  0.82943400  0.91156200  0.88054600  1
  Cu  Cu42  1  0.32943400  0.41156200  0.61945400  1
  Cu  Cu43  1  0.82943400  0.08843800  0.38054600  1
  Cu  Cu44  1  0.67056600  0.58843800  0.38054600  1
  Cu  Cu45  1  0.17056600  0.91156200  0.61945400  1
  Cu  Cu46  1  0.67056600  0.41156200  0.88054600  1
  Cu  Cu47  1  0.32943400  0.58843800  0.11945400  1
  Cu  Cu48  1  0.35928000  0.42284900  0.03914100  1
  Cu  Cu49  1  0.64072000  0.57715100  0.96085900  1
  Cu  Cu50  1  0.14072000  0.07715100  0.53914100  1
  Cu  Cu51  1  0.64072000  0.42284900  0.46085900  1
  Cu  Cu52  1  0.85928000  0.92284900  0.46085900  1
  Cu  Cu53  1  0.35928000  0.57715100  0.53914100  1
  Cu  Cu54  1  0.85928000  0.07715100  0.96085900  1
  Cu  Cu55  1  0.14072000  0.92284900  0.03914100  1
  Cu  Cu56  1  0.05923000  0.04475400  0.16442300  1
  Cu  Cu57  1  0.94077000  0.95524600  0.83557700  1
  Cu  Cu58  1  0.44077000  0.45524600  0.66442300  1
  Cu  Cu59  1  0.94077000  0.04475400  0.33557700  1
  Cu  Cu60  1  0.55923000  0.54475400  0.33557700  1
  Cu  Cu61  1  0.05923000  0.95524600  0.66442300  1
  Cu  Cu62  1  0.55923000  0.45524600  0.83557700  1
  Cu  Cu63  1  0.44077000  0.54475400  0.16442300  1
  Cu  Cu64  1  0.00000000  0.30160000  0.25000000  1
  Cu  Cu65  1  0.00000000  0.69840000  0.75000000  1
  Cu  Cu66  1  0.50000000  0.19840000  0.75000000  1
  Cu  Cu67  1  0.50000000  0.80160000  0.25000000  1
  Cu  Cu68  1  0.02947300  0.48734900  0.31379800  1
  Cu  Cu69  1  0.97052700  0.51265100  0.68620200  1
  Cu  Cu70  1  0.47052700  0.01265100  0.81379800  1
  Cu  Cu71  1  0.97052700  0.48734900  0.18620200  1
  Cu  Cu72  1  0.52947300  0.98734900  0.18620200  1
  Cu  Cu73  1  0.02947300  0.51265100  0.81379800  1
  Cu  Cu74  1  0.52947300  0.01265100  0.68620200  1
  Cu  Cu75  1  0.47052700  0.98734900  0.31379800  1
  C  C76  1  0.23819800  0.19216700  0.13465200  1
  C  C77  1  0.76180200  0.80783300  0.86534800  1
  C  C78  1  0.26180200  0.30783300  0.63465200  1
  C  C79  1  0.76180200  0.19216700  0.36534800  1
  C  C80  1  0.73819800  0.69216700  0.36534800  1
  C  C81  1  0.23819800  0.80783300  0.63465200  1
  C  C82  1  0.73819800  0.30783300  0.86534800  1
  C  C83  1  0.26180200  0.69216700  0.13465200  1
  C  C84  1  0.00000000  0.66709200  0.25000000  1
  C  C85  1  0.00000000  0.33290800  0.75000000  1
  C  C86  1  0.50000000  0.83290800  0.75000000  1
  C  C87  1  0.50000000  0.16709200  0.25000000  1
  C  C88  1  0.54164000  0.27760600  0.06503600  1
  C  C89  1  0.45836000  0.72239400  0.93496400  1
  C  C90  1  0.95836000  0.22239400  0.56503600  1
  C  C91  1  0.45836000  0.27760600  0.43496400  1
  C  C92  1  0.04164000  0.77760600  0.43496400  1
  C  C93  1  0.54164000  0.72239400  0.56503600  1
  C  C94  1  0.04164000  0.22239400  0.93496400  1
  C  C95  1  0.95836000  0.77760600  0.06503600  1
  C  C96  1  0.17834000  0.13491000  0.47854600  1
  C  C97  1  0.82166000  0.86509000  0.52145400  1
  C  C98  1  0.32166000  0.36509000  0.97854600  1
  C  C99  1  0.82166000  0.13491000  0.02145400  1
  C  C100  1  0.67834000  0.63491000  0.02145400  1
  C  C101  1  0.17834000  0.86509000  0.97854600  1
  C  C102  1  0.67834000  0.36509000  0.52145400  1
  C  C103  1  0.32166000  0.63491000  0.47854600  1
  C  C104  1  0.05772000  0.30692900  0.37576500  1
  C  C105  1  0.94228000  0.69307100  0.62423500  1
  C  C106  1  0.44228000  0.19307100  0.87576500  1
  C  C107  1  0.94228000  0.30692900  0.12423500  1
  C  C108  1  0.55772000  0.80692900  0.12423500  1
  C  C109  1  0.05772000  0.69307100  0.87576500  1
  C  C110  1  0.55772000  0.19307100  0.62423500  1
  C  C111  1  0.44228000  0.80692900  0.37576500  1
  C  C112  1  0.19239900  0.13036400  0.28206800  1
  C  C113  1  0.80760100  0.86963600  0.71793200  1
  C  C114  1  0.30760100  0.36963600  0.78206800  1
  C  C115  1  0.80760100  0.13036400  0.21793200  1
  C  C116  1  0.69239900  0.63036400  0.21793200  1
  C  C117  1  0.19239900  0.86963600  0.78206800  1
  C  C118  1  0.69239900  0.36963600  0.71793200  1
  C  C119  1  0.30760100  0.63036400  0.28206800  1
  C  C120  1  0.38109600  0.39367600  0.31190100  1
  C  C121  1  0.61890400  0.60632400  0.68809900  1
  C  C122  1  0.11890400  0.10632400  0.81190100  1
  C  C123  1  0.61890400  0.39367600  0.18809900  1
  C  C124  1  0.88109600  0.89367600  0.18809900  1
  C  C125  1  0.38109600  0.60632400  0.81190100  1
  C  C126  1  0.88109600  0.10632400  0.68809900  1
  C  C127  1  0.11890400  0.89367600  0.31190100  1
  C  C128  1  0.44325900  0.04615400  0.37540400  1
  C  C129  1  0.55674100  0.95384600  0.62459600  1
  C  C130  1  0.05674100  0.45384600  0.87540400  1
  C  C131  1  0.55674100  0.04615400  0.12459600  1
  C  C132  1  0.94325900  0.54615400  0.12459600  1
  C  C133  1  0.44325900  0.95384600  0.87540400  1
  C  C134  1  0.94325900  0.45384600  0.62459600  1
  C  C135  1  0.05674100  0.54615400  0.37540400  1
  C  C136  1  0.31573000  0.07383200  0.01240400  1
  C  C137  1  0.68427000  0.92616800  0.98759600  1
  C  C138  1  0.18427000  0.42616800  0.51240400  1
  C  C139  1  0.68427000  0.07383200  0.48759600  1
  C  C140  1  0.81573000  0.57383200  0.48759600  1
  C  C141  1  0.31573000  0.92616800  0.51240400  1
  C  C142  1  0.81573000  0.42616800  0.98759600  1
  C  C143  1  0.18427000  0.57383200  0.01240400  1
