# generated using pymatgen
data_CuNiC8
_symmetry_space_group_name_H-M   'P 1'
_cell_length_a   5.22026482
_cell_length_b   5.57247804
_cell_length_c   16.26641000
_cell_angle_alpha   90.00000000
_cell_angle_beta   90.00000000
_cell_angle_gamma   102.61274963
_symmetry_Int_Tables_number   1
_chemical_formula_structural   CuNiC8
_chemical_formula_sum   'Cu4 Ni4 C32'
_cell_volume   461.76794282
_cell_formula_units_Z   4
loop_
 _symmetry_equiv_pos_site_id
 _symmetry_equiv_pos_as_xyz
  1  'x, y, z'
loop_
 _atom_site_type_symbol
 _atom_site_label
 _atom_site_symmetry_multiplicity
 _atom_site_fract_x
 _atom_site_fract_y
 _atom_site_fract_z
 _atom_site_occupancy
  C  C0  1  0.15681600  0.33804800  0.82206500  1
  C  C1  1  0.84318400  0.16195200  0.32206500  1
  C  C2  1  0.84318400  0.66195200  0.17793500  1
  C  C3  1  0.15681600  0.83804800  0.67793500  1
  Ni  Ni4  1  0.00000000  0.00000000  0.00000000  1
  Ni  Ni5  1  0.00000000  0.50000000  0.50000000  1
  Ni  Ni6  1  0.50000000  0.50000000  0.00000000  1
  Ni  Ni7  1  0.50000000  0.00000000  0.50000000  1
  Cu  Cu8  1  0.48953000  0.96451600  0.88867000  1
  Cu  Cu9  1  0.51047000  0.53548400  0.38867000  1
  Cu  Cu10  1  0.51047000  0.03548400  0.11133000  1
  Cu  Cu11  1  0.48953000  0.46451600  0.61133000  1
  C  C12  1  0.68783200  0.58422600  0.76321500  1
  C  C13  1  0.31216800  0.91577400  0.26321500  1
  C  C14  1  0.31216800  0.41577400  0.23678500  1
  C  C15  1  0.68783200  0.08422600  0.73678500  1
  C  C16  1  0.86296900  0.74952100  0.83323000  1
  C  C17  1  0.13703100  0.75047900  0.33323000  1
  C  C18  1  0.13703100  0.25047900  0.16677000  1
  C  C19  1  0.86296900  0.24952100  0.66677000  1
  C  C20  1  0.40810100  0.04107300  0.78821900  1
  C  C21  1  0.59189900  0.45892700  0.28821900  1
  C  C22  1  0.59189900  0.95892700  0.21178100  1
  C  C23  1  0.40810100  0.54107300  0.71178100  1
  C  C24  1  0.33968400  0.16987500  0.95132400  1
  C  C25  1  0.66031600  0.33012500  0.45132400  1
  C  C26  1  0.66031600  0.83012500  0.04867600  1
  C  C27  1  0.33968400  0.66987500  0.54867600  1
  C  C28  1  0.83926500  0.03056900  0.89433900  1
  C  C29  1  0.16073500  0.46943100  0.39433900  1
  C  C30  1  0.16073500  0.96943100  0.10566100  1
  C  C31  1  0.83926500  0.53056900  0.60566100  1
  C  C32  1  0.34698200  0.65332600  0.91222800  1
  C  C33  1  0.65301800  0.84667400  0.41222800  1
  C  C34  1  0.65301800  0.34667400  0.08777200  1
  C  C35  1  0.34698200  0.15332600  0.58777200  1
  C  C36  1  0.86714000  0.62025700  0.79162200  1
  C  C37  1  0.13286000  0.87974300  0.29162200  1
  C  C38  1  0.13286000  0.37974300  0.20837800  1
  C  C39  1  0.86714000  0.12025700  0.70837800  1
