# generated using pymatgen
data_Cu3NiC8
_symmetry_space_group_name_H-M   'P 1'
_cell_length_a   3.28655241
_cell_length_b   3.28655241
_cell_length_c   37.40321500
_cell_angle_alpha   90.00000000
_cell_angle_beta   90.00000000
_cell_angle_gamma   120.00000832
_symmetry_Int_Tables_number   1
_chemical_formula_structural   Cu3NiC8
_chemical_formula_sum   'Cu3 Ni1 C8'
_cell_volume   349.88123786
_cell_formula_units_Z   1
loop_
 _symmetry_equiv_pos_site_id
 _symmetry_equiv_pos_as_xyz
  1  'x, y, z'
loop_
 _atom_site_type_symbol
 _atom_site_label
 _atom_site_symmetry_multiplicity
 _atom_site_fract_x
 _atom_site_fract_y
 _atom_site_fract_z
 _atom_site_occupancy
  Ni  Ni0  1  0.66666700  0.33333300  0.28178900  1
  Cu  Cu1  1  0.33333300  0.66666700  0.09392100  1
  Cu  Cu2  1  0.33333300  0.66666700  0.46965700  1
  Cu  Cu3  1  0.66666700  0.33333300  0.65754800  1
  C  C4  1  0.33333300  0.66666700  0.32686400  1
  C  C5  1  0.33333300  0.66666700  0.70290000  1
  C  C6  1  0.66666700  0.33333300  0.42431400  1
  C  C7  1  0.66666700  0.33333300  0.51500300  1
  C  C8  1  0.33333300  0.66666700  0.23672300  1
  C  C9  1  0.33333300  0.66666700  0.61218000  1
  C  C10  1  0.66666700  0.33333300  0.05273300  1
  C  C11  1  0.66666700  0.33333300  0.13511700  1
