# generated using pymatgen
data_Cu9Ni6C41
_symmetry_space_group_name_H-M   'P 1'
_cell_length_a   7.82895842
_cell_length_b   7.82895842
_cell_length_c   19.13956600
_cell_angle_alpha   90.00000000
_cell_angle_beta   90.00000000
_cell_angle_gamma   120.00000356
_symmetry_Int_Tables_number   1
_chemical_formula_structural   Cu9Ni6C41
_chemical_formula_sum   'Cu18 Ni12 C82'
_cell_volume   1015.94611753
_cell_formula_units_Z   2
loop_
 _symmetry_equiv_pos_site_id
 _symmetry_equiv_pos_as_xyz
  1  'x, y, z'
loop_
 _atom_site_type_symbol
 _atom_site_label
 _atom_site_symmetry_multiplicity
 _atom_site_fract_x
 _atom_site_fract_y
 _atom_site_fract_z
 _atom_site_occupancy
  C  C0  1  0.69764400  0.02351400  0.83051000  1
  C  C1  1  0.30235600  0.97648600  0.16949000  1
  C  C2  1  0.32587000  0.30235600  0.83051000  1
  C  C3  1  0.30235600  0.97648600  0.33051000  1
  C  C4  1  0.67413000  0.69764400  0.16949000  1
  C  C5  1  0.69764400  0.02351400  0.66949000  1
  C  C6  1  0.97648600  0.67413000  0.83051000  1
  C  C7  1  0.67413000  0.69764400  0.33051000  1
  C  C8  1  0.02351400  0.32587000  0.16949000  1
  C  C9  1  0.32587000  0.30235600  0.66949000  1
  C  C10  1  0.02351400  0.32587000  0.33051000  1
  C  C11  1  0.97648600  0.67413000  0.66949000  1
  C  C12  1  0.66666700  0.33333300  0.75000000  1
  C  C13  1  0.33333300  0.66666700  0.25000000  1
  C  C14  1  0.33333300  0.66666700  0.75000000  1
  C  C15  1  0.66666700  0.33333300  0.25000000  1
  C  C16  1  0.67642400  0.02764400  0.96401800  1
  C  C17  1  0.32357600  0.97235600  0.03598200  1
  C  C18  1  0.35122000  0.32357600  0.96401800  1
  C  C19  1  0.32357600  0.97235600  0.46401800  1
  C  C20  1  0.64878000  0.67642400  0.03598200  1
  C  C21  1  0.67642400  0.02764400  0.53598200  1
  C  C22  1  0.97235600  0.64878000  0.96401800  1
  C  C23  1  0.64878000  0.67642400  0.46401800  1
  C  C24  1  0.02764400  0.35122000  0.03598200  1
  C  C25  1  0.35122000  0.32357600  0.53598200  1
  C  C26  1  0.02764400  0.35122000  0.46401800  1
  C  C27  1  0.97235600  0.64878000  0.53598200  1
  Ni  Ni28  1  0.65015600  0.67540200  0.88940800  1
  Ni  Ni29  1  0.34984400  0.32459800  0.11059200  1
  Ni  Ni30  1  0.02524600  0.34984400  0.88940800  1
  Ni  Ni31  1  0.34984400  0.32459800  0.38940700  1
  Ni  Ni32  1  0.97475400  0.65015600  0.11059200  1
  Ni  Ni33  1  0.65015600  0.67540200  0.61059200  1
  Ni  Ni34  1  0.32459800  0.97475400  0.88940800  1
  Ni  Ni35  1  0.97475400  0.65015600  0.38940700  1
  Ni  Ni36  1  0.67540200  0.02524600  0.11059200  1
  Ni  Ni37  1  0.02524600  0.34984400  0.61059200  1
  Ni  Ni38  1  0.67540200  0.02524600  0.38940700  1
  Ni  Ni39  1  0.32459800  0.97475400  0.61059200  1
  Cu  Cu40  1  0.66666700  0.33333300  0.89283200  1
  Cu  Cu41  1  0.33333300  0.66666700  0.10716800  1
  Cu  Cu42  1  0.33333300  0.66666700  0.39283200  1
  Cu  Cu43  1  0.66666700  0.33333300  0.60716800  1
  Cu  Cu44  1  0.00000000  0.00000000  0.90707900  1
  Cu  Cu45  1  0.00000000  0.00000000  0.09292100  1
  Cu  Cu46  1  0.00000000  0.00000000  0.40707900  1
  Cu  Cu47  1  0.00000000  0.00000000  0.59292100  1
  Cu  Cu48  1  0.67758400  0.69918500  0.75000000  1
  Cu  Cu49  1  0.32241600  0.30081500  0.25000000  1
  Cu  Cu50  1  0.02160100  0.32241600  0.75000000  1
  Cu  Cu51  1  0.97839900  0.67758400  0.25000000  1
  Cu  Cu52  1  0.30081500  0.97839900  0.75000000  1
  Cu  Cu53  1  0.69918500  0.02160100  0.25000000  1
  Cu  Cu54  1  0.66666700  0.33333300  0.44862500  1
  Cu  Cu55  1  0.33333300  0.66666700  0.55137500  1
  Cu  Cu56  1  0.33333300  0.66666700  0.94862500  1
  Cu  Cu57  1  0.66666700  0.33333300  0.05137500  1
  C  C58  1  0.82104700  0.20030300  0.75000000  1
  C  C59  1  0.17895300  0.79969700  0.25000000  1
  C  C60  1  0.37925600  0.17895300  0.75000000  1
  C  C61  1  0.62074400  0.82104700  0.25000000  1
  C  C62  1  0.79969700  0.62074400  0.75000000  1
  C  C63  1  0.20030300  0.37925600  0.25000000  1
  C  C64  1  0.91058100  0.11369500  0.90665000  1
  C  C65  1  0.08941900  0.88630500  0.09335000  1
  C  C66  1  0.20311400  0.08941900  0.90665000  1
  C  C67  1  0.08941900  0.88630500  0.40665000  1
  C  C68  1  0.79688600  0.91058100  0.09335000  1
  C  C69  1  0.91058100  0.11369500  0.59335000  1
  C  C70  1  0.88630500  0.79688600  0.90665000  1
  C  C71  1  0.79688600  0.91058100  0.40665000  1
  C  C72  1  0.11369500  0.20311400  0.09335000  1
  C  C73  1  0.20311400  0.08941900  0.59335000  1
  C  C74  1  0.11369500  0.20311400  0.40665000  1
  C  C75  1  0.88630500  0.79688600  0.59335000  1
  C  C76  1  0.60797600  0.73865700  0.81151700  1
  C  C77  1  0.39202400  0.26134300  0.18848300  1
  C  C78  1  0.13068100  0.39202400  0.81151700  1
  C  C79  1  0.39202400  0.26134300  0.31151700  1
  C  C80  1  0.86931900  0.60797600  0.18848300  1
  C  C81  1  0.60797600  0.73865700  0.68848300  1
  C  C82  1  0.26134300  0.86931900  0.81151700  1
  C  C83  1  0.86931900  0.60797600  0.31151700  1
  C  C84  1  0.73865700  0.13068100  0.18848300  1
  C  C85  1  0.13068100  0.39202400  0.68848300  1
  C  C86  1  0.73865700  0.13068100  0.31151700  1
  C  C87  1  0.26134300  0.86931900  0.68848300  1
  C  C88  1  0.87113000  0.43244900  0.89230500  1
  C  C89  1  0.12887000  0.56755100  0.10769500  1
  C  C90  1  0.56131900  0.12887000  0.89230500  1
  C  C91  1  0.12887000  0.56755100  0.39230500  1
  C  C92  1  0.43868100  0.87113000  0.10769500  1
  C  C93  1  0.87113000  0.43244900  0.60769500  1
  C  C94  1  0.56755100  0.43868100  0.89230500  1
  C  C95  1  0.43868100  0.87113000  0.39230500  1
  C  C96  1  0.43244900  0.56131900  0.10769500  1
  C  C97  1  0.56131900  0.12887000  0.60769500  1
  C  C98  1  0.43244900  0.56131900  0.39230500  1
  C  C99  1  0.56755100  0.43868100  0.60769500  1
  C  C100  1  0.53441100  0.73323100  0.94977900  1
  C  C101  1  0.46558900  0.26676900  0.05022100  1
  C  C102  1  0.19882000  0.46558900  0.94977900  1
  C  C103  1  0.46558900  0.26676900  0.44977900  1
  C  C104  1  0.80118000  0.53441100  0.05022100  1
  C  C105  1  0.53441100  0.73323100  0.55022100  1
  C  C106  1  0.26676900  0.80118000  0.94977900  1
  C  C107  1  0.80118000  0.53441100  0.44977900  1
  C  C108  1  0.73323100  0.19882000  0.05022100  1
  C  C109  1  0.19882000  0.46558900  0.55022100  1
  C  C110  1  0.73323100  0.19882000  0.44977900  1
  C  C111  1  0.26676900  0.80118000  0.55022100  1
