# generated using pymatgen
data_CuNiC9
_symmetry_space_group_name_H-M   'P 1'
_cell_length_a   7.13981446
_cell_length_b   10.87651818
_cell_length_c   13.33319700
_cell_angle_alpha   90.00000000
_cell_angle_beta   90.00000000
_cell_angle_gamma   108.38413094
_symmetry_Int_Tables_number   1
_chemical_formula_structural   CuNiC9
_chemical_formula_sum   'Cu8 Ni8 C72'
_cell_volume   982.56338203
_cell_formula_units_Z   8
loop_
 _symmetry_equiv_pos_site_id
 _symmetry_equiv_pos_as_xyz
  1  'x, y, z'
loop_
 _atom_site_type_symbol
 _atom_site_label
 _atom_site_symmetry_multiplicity
 _atom_site_fract_x
 _atom_site_fract_y
 _atom_site_fract_z
 _atom_site_occupancy
  Ni  Ni0  1  0.04881400  0.77282000  0.48846900  1
  Ni  Ni1  1  0.31233800  0.94626100  0.86261700  1
  Ni  Ni2  1  0.68766200  0.55373900  0.36261700  1
  Ni  Ni3  1  0.68766200  0.05373900  0.13738300  1
  Ni  Ni4  1  0.31233800  0.44626100  0.63738300  1
  Ni  Ni5  1  0.04881400  0.27282000  0.01153100  1
  Ni  Ni6  1  0.95118600  0.22718000  0.51153100  1
  Ni  Ni7  1  0.95118600  0.72718000  0.98846900  1
  C  C8  1  0.82661700  0.97018200  0.87854300  1
  C  C9  1  0.41436100  0.68557900  0.00799000  1
  C  C10  1  0.41436100  0.18557900  0.49201000  1
  C  C11  1  0.58563900  0.31442100  0.99201000  1
  C  C12  1  0.47142700  0.76501700  0.71516300  1
  C  C13  1  0.52857300  0.73498300  0.21516300  1
  C  C14  1  0.52857300  0.23498300  0.28483700  1
  C  C15  1  0.47142700  0.26501700  0.78483700  1
  C  C16  1  0.58563900  0.81442100  0.50799000  1
  C  C17  1  0.87746000  0.45894800  0.15535000  1
  C  C18  1  0.12254000  0.04105200  0.65535000  1
  C  C19  1  0.12254000  0.54105200  0.84465000  1
  C  C20  1  0.17338300  0.52981800  0.37854300  1
  C  C21  1  0.82661700  0.47018200  0.62145700  1
  C  C22  1  0.17338300  0.02981800  0.12145700  1
  C  C23  1  0.87746000  0.95894800  0.34465000  1
  Cu  Cu24  1  0.62123300  0.06791700  0.68314400  1
  Cu  Cu25  1  0.37876700  0.43208300  0.18314400  1
  Cu  Cu26  1  0.37876700  0.93208300  0.31685600  1
  Cu  Cu27  1  0.62123300  0.56791700  0.81685600  1
  Cu  Cu28  1  0.97787600  0.24793100  0.76706600  1
  Cu  Cu29  1  0.02212400  0.25206900  0.26706600  1
  Cu  Cu30  1  0.02212400  0.75206900  0.23293400  1
  Cu  Cu31  1  0.97787600  0.74793100  0.73293400  1
  C  C32  1  0.75883600  0.96836400  0.01072300  1
  C  C33  1  0.24116400  0.53163600  0.51072300  1
  C  C34  1  0.24116400  0.03163600  0.98927700  1
  C  C35  1  0.75883600  0.46836400  0.48927700  1
  C  C36  1  0.99346000  0.87138000  0.84609800  1
  C  C37  1  0.00654000  0.62862000  0.34609800  1
  C  C38  1  0.00654000  0.12862000  0.15390200  1
  C  C39  1  0.99346000  0.37138000  0.65390200  1
  C  C40  1  0.99437700  0.14334800  0.87528800  1
  C  C41  1  0.00562300  0.35665200  0.37528800  1
  C  C42  1  0.00562300  0.85665200  0.12471200  1
  C  C43  1  0.99437700  0.64334800  0.62471200  1
  C  C44  1  0.63640900  0.92634900  0.26974000  1
  C  C45  1  0.36359100  0.57365100  0.76974000  1
  C  C46  1  0.36359100  0.07365100  0.73026000  1
  C  C47  1  0.63640900  0.42634900  0.23026000  1
  C  C48  1  0.99148400  0.13816400  0.36777100  1
  C  C49  1  0.00851600  0.36183600  0.86777100  1
  C  C50  1  0.00851600  0.86183600  0.63222900  1
  C  C51  1  0.99148400  0.63816400  0.13222900  1
  C  C52  1  0.09521200  0.89175500  0.33495000  1
  C  C53  1  0.36285600  0.82910300  0.42769000  1
  C  C54  1  0.90478800  0.60824500  0.83495100  1
  C  C55  1  0.09521200  0.39175500  0.16504900  1
  C  C56  1  0.73386800  0.71243700  0.46045900  1
  C  C57  1  0.26613200  0.78756300  0.96045900  1
  C  C58  1  0.26613200  0.28756300  0.53954100  1
  C  C59  1  0.73386800  0.21243700  0.03954100  1
  C  C60  1  0.79546000  0.95494500  0.47790000  1
  C  C61  1  0.20454000  0.54505500  0.97790000  1
  C  C62  1  0.20454000  0.04505500  0.52210000  1
  C  C63  1  0.79546000  0.45494500  0.02210000  1
  C  C64  1  0.43702700  0.17335200  0.91362700  1
  C  C65  1  0.56297300  0.32664800  0.41362700  1
  C  C66  1  0.56297300  0.82664800  0.08637300  1
  C  C67  1  0.43702700  0.67335200  0.58637300  1
  C  C68  1  0.70960100  0.20846400  0.76753600  1
  C  C69  1  0.29039900  0.29153600  0.26753600  1
  C  C70  1  0.29039900  0.79153600  0.23246400  1
  C  C71  1  0.70960100  0.70846400  0.73246400  1
  C  C72  1  0.59298800  0.44238600  0.70083400  1
  C  C73  1  0.40701200  0.05761400  0.20083400  1
  C  C74  1  0.40701200  0.55761400  0.29916600  1
  C  C75  1  0.59298800  0.94238600  0.79916600  1
  C  C76  1  0.22770000  0.27619300  0.73217200  1
  C  C77  1  0.77230000  0.22380700  0.23217200  1
  C  C78  1  0.77230000  0.72380700  0.26782800  1
  C  C79  1  0.22770000  0.77619300  0.76782800  1
  C  C80  1  0.52480100  0.40744000  0.88102200  1
  C  C81  1  0.47519900  0.09256000  0.38102200  1
  C  C82  1  0.47519900  0.59256000  0.11897800  1
  C  C83  1  0.52480100  0.90744000  0.61897800  1
  C  C84  1  0.36285600  0.32910300  0.07231000  1
  C  C85  1  0.63714400  0.17089700  0.57231000  1
  C  C86  1  0.63714400  0.67089700  0.92769000  1
  C  C87  1  0.90478800  0.10824500  0.66504900  1
