# generated using pymatgen
data_Cu2NiC2
_symmetry_space_group_name_H-M   'P 1'
_cell_length_a   5.48566893
_cell_length_b   5.48566893
_cell_length_c   14.27973973
_cell_angle_alpha   89.98405396
_cell_angle_beta   89.98405396
_cell_angle_gamma   58.50056592
_symmetry_Int_Tables_number   1
_chemical_formula_structural   Cu2NiC2
_chemical_formula_sum   'Cu12 Ni6 C12'
_cell_volume   366.39359415
_cell_formula_units_Z   6
loop_
 _symmetry_equiv_pos_site_id
 _symmetry_equiv_pos_as_xyz
  1  'x, y, z'
loop_
 _atom_site_type_symbol
 _atom_site_label
 _atom_site_symmetry_multiplicity
 _atom_site_fract_x
 _atom_site_fract_y
 _atom_site_fract_z
 _atom_site_occupancy
  C  C0  1  0.99822800  0.01433200  0.64705200  1
  C  C1  1  0.01433200  0.99822800  0.14705200  1
  C  C2  1  0.63422800  0.64935500  0.81201500  1
  C  C3  1  0.65086500  0.64593700  0.52210900  1
  C  C4  1  0.64935500  0.63422800  0.31201500  1
  C  C5  1  0.64593700  0.65086500  0.02210900  1
  C  C6  1  0.35406300  0.34913500  0.97789100  1
  C  C7  1  0.35064500  0.36577200  0.68798500  1
  C  C8  1  0.34913500  0.35406300  0.47789100  1
  C  C9  1  0.36577200  0.35064500  0.18798500  1
  C  C10  1  0.98566800  0.00177200  0.85294800  1
  C  C11  1  0.00177200  0.98566800  0.35294800  1
  Ni  Ni12  1  0.67815300  0.35156300  0.91499600  1
  Ni  Ni13  1  0.35156300  0.67815300  0.41499600  1
  Ni  Ni14  1  0.64843700  0.32184700  0.58500400  1
  Ni  Ni15  1  0.32184700  0.64843700  0.08500400  1
  Ni  Ni16  1  0.26711200  0.73288800  0.75000000  1
  Ni  Ni17  1  0.73288800  0.26711200  0.25000000  1
  Cu  Cu18  1  0.01701400  0.32147900  0.74943600  1
  Cu  Cu19  1  0.32147900  0.01701400  0.24943600  1
  Cu  Cu20  1  0.35681100  0.98459600  0.91833000  1
  Cu  Cu21  1  0.98459600  0.35681100  0.41833000  1
  Cu  Cu22  1  0.33721600  0.05113500  0.58252100  1
  Cu  Cu23  1  0.05113500  0.33721600  0.08252100  1
  Cu  Cu24  1  0.94886500  0.66278400  0.91747900  1
  Cu  Cu25  1  0.66278400  0.94886500  0.41747900  1
  Cu  Cu26  1  0.01540400  0.64318900  0.58167000  1
  Cu  Cu27  1  0.64318900  0.01540400  0.08167000  1
  Cu  Cu28  1  0.67852100  0.98298600  0.75056400  1
  Cu  Cu29  1  0.98298600  0.67852100  0.25056400  1
