# generated using pymatgen
data_CuNi3C16
_symmetry_space_group_name_H-M   'P 1'
_cell_length_a   7.75117271
_cell_length_b   7.75117271
_cell_length_c   7.80181400
_cell_angle_alpha   90.00000000
_cell_angle_beta   90.00000000
_cell_angle_gamma   90.31557683
_symmetry_Int_Tables_number   1
_chemical_formula_structural   CuNi3C16
_chemical_formula_sum   'Cu2 Ni6 C32'
_cell_volume   468.73116755
_cell_formula_units_Z   2
loop_
 _symmetry_equiv_pos_site_id
 _symmetry_equiv_pos_as_xyz
  1  'x, y, z'
loop_
 _atom_site_type_symbol
 _atom_site_label
 _atom_site_symmetry_multiplicity
 _atom_site_fract_x
 _atom_site_fract_y
 _atom_site_fract_z
 _atom_site_occupancy
  Ni  Ni0  1  0.50000000  0.00000000  0.26156900  1
  Ni  Ni1  1  0.50000000  0.00000000  0.73843100  1
  Ni  Ni2  1  0.00000000  0.50000000  0.26156900  1
  Ni  Ni3  1  0.00000000  0.00000000  0.26217200  1
  Ni  Ni4  1  0.00000000  0.50000000  0.73843100  1
  Ni  Ni5  1  0.00000000  0.00000000  0.73782800  1
  Cu  Cu6  1  0.50000000  0.50000000  0.26354300  1
  Cu  Cu7  1  0.50000000  0.50000000  0.73645700  1
  C  C8  1  0.75259300  0.24740700  0.00000000  1
  C  C9  1  0.24740700  0.75259300  0.00000000  1
  C  C10  1  0.74966100  0.74966100  0.00000000  1
  C  C11  1  0.75244000  0.24756000  0.50000000  1
  C  C12  1  0.75255900  0.75255900  0.50000000  1
  C  C13  1  0.25033900  0.25033900  0.00000000  1
  C  C14  1  0.24744100  0.24744100  0.50000000  1
  C  C15  1  0.24756000  0.75244000  0.50000000  1
  C  C16  1  0.50447800  0.74461000  0.00000000  1
  C  C17  1  0.49552200  0.25539000  0.00000000  1
  C  C18  1  0.49915000  0.74202300  0.50000000  1
  C  C19  1  0.50085000  0.25797700  0.50000000  1
  C  C20  1  0.99429700  0.74917800  0.00000000  1
  C  C21  1  0.00570300  0.25082200  0.00000000  1
  C  C22  1  0.00064600  0.74962600  0.50000000  1
  C  C23  1  0.99935400  0.25037400  0.50000000  1
  C  C24  1  0.74613800  0.25386200  0.25528100  1
  C  C25  1  0.74481700  0.74481700  0.24999100  1
  C  C26  1  0.74613800  0.25386200  0.74471900  1
  C  C27  1  0.74481700  0.74481700  0.75000900  1
  C  C28  1  0.25518300  0.25518300  0.24999100  1
  C  C29  1  0.25386200  0.74613800  0.25528100  1
  C  C30  1  0.25518300  0.25518300  0.75000900  1
  C  C31  1  0.25386200  0.74613800  0.74471900  1
  C  C32  1  0.74461000  0.50447800  0.00000000  1
  C  C33  1  0.74917800  0.99429700  0.00000000  1
  C  C34  1  0.74202300  0.49915000  0.50000000  1
  C  C35  1  0.74962600  0.00064600  0.50000000  1
  C  C36  1  0.25539000  0.49552200  0.00000000  1
  C  C37  1  0.25082200  0.00570300  0.00000000  1
  C  C38  1  0.25797700  0.50085000  0.50000000  1
  C  C39  1  0.25037400  0.99935400  0.50000000  1
