# generated using pymatgen
data_CuNiC8
_symmetry_space_group_name_H-M   'P 1'
_cell_length_a   5.39146356
_cell_length_b   9.49078048
_cell_length_c   9.38454946
_cell_angle_alpha   90.00026035
_cell_angle_beta   90.00019790
_cell_angle_gamma   101.83843971
_symmetry_Int_Tables_number   1
_chemical_formula_structural   CuNiC8
_chemical_formula_sum   'Cu4 Ni4 C32'
_cell_volume   469.98599642
_cell_formula_units_Z   4
loop_
 _symmetry_equiv_pos_site_id
 _symmetry_equiv_pos_as_xyz
  1  'x, y, z'
loop_
 _atom_site_type_symbol
 _atom_site_label
 _atom_site_symmetry_multiplicity
 _atom_site_fract_x
 _atom_site_fract_y
 _atom_site_fract_z
 _atom_site_occupancy
  Ni  Ni0  1  0.25001300  0.99996000  0.90381300  1
  Ni  Ni1  1  0.25001100  0.50004500  0.59617200  1
  Ni  Ni2  1  0.75008200  0.49997500  0.40388800  1
  Ni  Ni3  1  0.74991000  0.00006900  0.09610400  1
  Cu  Cu4  1  0.25001700  0.50000000  0.26037300  1
  Cu  Cu5  1  0.75001100  0.99999900  0.76034800  1
  Cu  Cu6  1  0.74999200  0.49999400  0.73965600  1
  Cu  Cu7  1  0.24996900  0.99999000  0.23962500  1
  C  C8  1  0.52614700  0.30489500  0.08401600  1
  C  C9  1  0.02614800  0.80489100  0.58400000  1
  C  C10  1  0.97384600  0.69512300  0.08402000  1
  C  C11  1  0.47384500  0.19511100  0.58400500  1
  C  C12  1  0.02615500  0.30488800  0.91599300  1
  C  C13  1  0.52615300  0.80488400  0.41598000  1
  C  C14  1  0.47384900  0.69510300  0.91600400  1
  C  C15  1  0.97385000  0.19510600  0.41598800  1
  C  C16  1  0.81831900  0.35597600  0.02372400  1
  C  C17  1  0.31832600  0.85598000  0.52371500  1
  C  C18  1  0.68168200  0.64401300  0.02372400  1
  C  C19  1  0.18167300  0.14401000  0.52371900  1
  C  C20  1  0.18167200  0.64401500  0.97628700  1
  C  C21  1  0.68168000  0.14401800  0.47628100  1
  C  C22  1  0.31833100  0.35598600  0.97628400  1
  C  C23  1  0.81831900  0.85598100  0.47628100  1
  C  C24  1  0.50494000  0.38323900  0.23667600  1
  C  C25  1  0.00491300  0.88323500  0.73665400  1
  C  C26  1  0.99507900  0.61675400  0.23667500  1
  C  C27  1  0.49509300  0.11675400  0.73665600  1
  C  C28  1  0.49509000  0.61676100  0.76334600  1
  C  C29  1  0.99506200  0.11676100  0.26332600  1
  C  C30  1  0.00491500  0.38324300  0.76334200  1
  C  C31  1  0.50491900  0.88324400  0.26332600  1
  C  C32  1  0.96324500  0.12724500  0.91427500  1
  C  C33  1  0.46326500  0.62723900  0.41429300  1
  C  C34  1  0.53677700  0.87274300  0.91427700  1
  C  C35  1  0.03678600  0.37274700  0.41429800  1
  C  C36  1  0.46320000  0.12725600  0.08570300  1
  C  C37  1  0.96322500  0.62724900  0.58572300  1
  C  C38  1  0.03672500  0.87276500  0.08570500  1
  C  C39  1  0.53676000  0.37275300  0.58572200  1
