# generated using pymatgen
data_Cu4Ni6C
_symmetry_space_group_name_H-M   'P 1'
_cell_length_a   7.31378933
_cell_length_b   7.31378933
_cell_length_c   7.62282771
_cell_angle_alpha   66.07959284
_cell_angle_beta   66.07959284
_cell_angle_gamma   98.90521003
_symmetry_Int_Tables_number   1
_chemical_formula_structural   Cu4Ni6C
_chemical_formula_sum   'Cu4 Ni6 C1'
_cell_volume   314.87949772
_cell_formula_units_Z   1
loop_
 _symmetry_equiv_pos_site_id
 _symmetry_equiv_pos_as_xyz
  1  'x, y, z'
loop_
 _atom_site_type_symbol
 _atom_site_label
 _atom_site_symmetry_multiplicity
 _atom_site_fract_x
 _atom_site_fract_y
 _atom_site_fract_z
 _atom_site_occupancy
  C  C0  1  0.25000000  0.75000000  0.50000000  1
  Ni  Ni1  1  0.03439500  0.53439500  0.93121100  1
  Ni  Ni2  1  0.46560500  0.96560500  0.06879000  1
  Ni  Ni3  1  0.11966900  0.11966900  0.76066200  1
  Ni  Ni4  1  0.88033100  0.88033100  0.23933800  1
  Ni  Ni5  1  0.97811400  0.47811400  0.50000000  1
  Ni  Ni6  1  0.52188600  0.02188600  0.50000000  1
  Cu  Cu7  1  0.41517000  0.58483000  0.50000000  1
  Cu  Cu8  1  0.88260300  0.11739700  0.00000000  1
  Cu  Cu9  1  0.08483000  0.91517000  0.50000000  1
  Cu  Cu10  1  0.11739700  0.88260300  0.00000000  1
