# generated using pymatgen
data_Cu3(NiC7)2
_symmetry_space_group_name_H-M   'P 1'
_cell_length_a   4.90782900
_cell_length_b   9.76747620
_cell_length_c   12.04022959
_cell_angle_alpha   119.77848551
_cell_angle_beta   90.00000000
_cell_angle_gamma   90.00000000
_symmetry_Int_Tables_number   1
_chemical_formula_structural   Cu3(NiC7)2
_chemical_formula_sum   'Cu6 Ni4 C28'
_cell_volume   500.95909258
_cell_formula_units_Z   2
loop_
 _symmetry_equiv_pos_site_id
 _symmetry_equiv_pos_as_xyz
  1  'x, y, z'
loop_
 _atom_site_type_symbol
 _atom_site_label
 _atom_site_symmetry_multiplicity
 _atom_site_fract_x
 _atom_site_fract_y
 _atom_site_fract_z
 _atom_site_occupancy
  C  C0  1  0.48851100  0.00000000  0.75000000  1
  C  C1  1  0.51148900  0.00000000  0.25000000  1
  C  C2  1  0.83504400  0.72034900  0.50982700  1
  C  C3  1  0.16495600  0.27965100  0.49017300  1
  C  C4  1  0.83504400  0.27965100  0.99017300  1
  C  C5  1  0.16495600  0.72034900  0.00982700  1
  C  C6  1  0.50000000  0.00000000  0.00000000  1
  C  C7  1  0.50000000  0.00000000  0.50000000  1
  Ni  Ni8  1  0.97979800  0.75697700  0.77335900  1
  Ni  Ni9  1  0.02020200  0.24302300  0.22664100  1
  Ni  Ni10  1  0.97979800  0.24302300  0.72664100  1
  Ni  Ni11  1  0.02020200  0.75697700  0.27335900  1
  Cu  Cu12  1  0.70401300  0.33986400  0.38016600  1
  Cu  Cu13  1  0.29598700  0.66013600  0.61983400  1
  Cu  Cu14  1  0.70401300  0.66013600  0.11983400  1
  Cu  Cu15  1  0.29598700  0.33986400  0.88016600  1
  Cu  Cu16  1  0.02381800  0.50000000  0.75000000  1
  Cu  Cu17  1  0.97618200  0.50000000  0.25000000  1
  C  C18  1  0.03271300  0.63979700  0.82787900  1
  C  C19  1  0.96728700  0.36020300  0.17212100  1
  C  C20  1  0.03271300  0.36020300  0.67212100  1
  C  C21  1  0.96728700  0.63979700  0.32787900  1
  C  C22  1  0.09487300  0.65346400  0.62271200  1
  C  C23  1  0.90512700  0.34653600  0.37728800  1
  C  C24  1  0.09487300  0.34653600  0.87728800  1
  C  C25  1  0.90512700  0.65346400  0.12271200  1
  C  C26  1  0.67989800  0.77339200  0.75637000  1
  C  C27  1  0.32010200  0.22660800  0.24363000  1
  C  C28  1  0.67989800  0.22660800  0.74363000  1
  C  C29  1  0.32010200  0.77339200  0.25637000  1
  C  C30  1  0.85251400  0.90501700  0.34566700  1
  C  C31  1  0.14748600  0.09498300  0.65433300  1
  C  C32  1  0.85251400  0.09498300  0.15433300  1
  C  C33  1  0.14748600  0.90501700  0.84566700  1
  C  C34  1  0.54468200  0.86584700  0.56928300  1
  C  C35  1  0.45531800  0.13415300  0.43071700  1
  C  C36  1  0.54468200  0.13415300  0.93071700  1
  C  C37  1  0.45531800  0.86584700  0.06928300  1
