# generated using pymatgen
data_Cu4NiC9
_symmetry_space_group_name_H-M   'P 1'
_cell_length_a   8.42665100
_cell_length_b   8.66901569
_cell_length_c   8.66901569
_cell_angle_alpha   120.04062473
_cell_angle_beta   90.00000000
_cell_angle_gamma   90.00000000
_symmetry_Int_Tables_number   1
_chemical_formula_structural   Cu4NiC9
_chemical_formula_sum   'Cu8 Ni2 C18'
_cell_volume   548.21042233
_cell_formula_units_Z   2
loop_
 _symmetry_equiv_pos_site_id
 _symmetry_equiv_pos_as_xyz
  1  'x, y, z'
loop_
 _atom_site_type_symbol
 _atom_site_label
 _atom_site_symmetry_multiplicity
 _atom_site_fract_x
 _atom_site_fract_y
 _atom_site_fract_z
 _atom_site_occupancy
  C  C0  1  0.55720000  0.79796600  0.59607900  1
  C  C1  1  0.55727300  0.79802300  0.20197700  1
  C  C2  1  0.55720000  0.40392100  0.20203400  1
  C  C3  1  0.44280000  0.20203400  0.40392100  1
  C  C4  1  0.44272700  0.20197700  0.79802300  1
  C  C5  1  0.44280000  0.59607900  0.79796600  1
  C  C6  1  0.05720000  0.20203400  0.40392100  1
  C  C7  1  0.05727300  0.20197700  0.79802300  1
  C  C8  1  0.05720000  0.59607900  0.79796600  1
  C  C9  1  0.94280000  0.79796600  0.59607900  1
  C  C10  1  0.94272700  0.79802300  0.20197700  1
  C  C11  1  0.94280000  0.40392100  0.20203400  1
  C  C12  1  0.75000000  0.45969700  0.91939500  1
  C  C13  1  0.75000000  0.45972100  0.54027900  1
  C  C14  1  0.75000000  0.08060500  0.54030300  1
  C  C15  1  0.25000000  0.54030300  0.08060500  1
  C  C16  1  0.25000000  0.54027900  0.45972100  1
  C  C17  1  0.25000000  0.91939500  0.45969700  1
  Ni  Ni18  1  0.75000000  0.66658400  0.33341600  1
  Ni  Ni19  1  0.25000000  0.33341600  0.66658400  1
  Cu  Cu20  1  0.75000000  0.11277300  0.22541900  1
  Cu  Cu21  1  0.75000000  0.11264600  0.88735400  1
  Cu  Cu22  1  0.75000000  0.77458100  0.88722700  1
  Cu  Cu23  1  0.25000000  0.88722700  0.77458100  1
  Cu  Cu24  1  0.25000000  0.88735400  0.11264600  1
  Cu  Cu25  1  0.25000000  0.22541900  0.11277300  1
  Cu  Cu26  1  0.50000000  0.00000000  0.00000000  1
  Cu  Cu27  1  0.00000000  0.00000000  0.00000000  1
