# generated using pymatgen
data_Cu2Ni7C
_symmetry_space_group_name_H-M   'P 1'
_cell_length_a   11.32388816
_cell_length_b   11.32388816
_cell_length_c   11.32388816
_cell_angle_alpha   156.18074477
_cell_angle_beta   156.18074477
_cell_angle_gamma   33.93740438
_symmetry_Int_Tables_number   1
_chemical_formula_structural   Cu2Ni7C
_chemical_formula_sum   'Cu2 Ni7 C1'
_cell_volume   236.59346006
_cell_formula_units_Z   1
loop_
 _symmetry_equiv_pos_site_id
 _symmetry_equiv_pos_as_xyz
  1  'x, y, z'
loop_
 _atom_site_type_symbol
 _atom_site_label
 _atom_site_symmetry_multiplicity
 _atom_site_fract_x
 _atom_site_fract_y
 _atom_site_fract_z
 _atom_site_occupancy
  C  C0  1  0.50000000  0.50000000  0.00000000  1
  Ni  Ni1  1  0.00000000  0.00000000  0.00000000  1
  Ni  Ni2  1  0.75000000  0.25000000  0.50000000  1
  Ni  Ni3  1  0.25000000  0.75000000  0.50000000  1
  Ni  Ni4  1  0.89422700  0.39422700  0.50000000  1
  Ni  Ni5  1  0.39422700  0.89422700  0.50000000  1
  Ni  Ni6  1  0.10577300  0.60577300  0.50000000  1
  Ni  Ni7  1  0.60577300  0.10577300  0.50000000  1
  Cu  Cu8  1  0.67458300  0.67458300  0.00000000  1
  Cu  Cu9  1  0.32541700  0.32541700  0.00000000  1
