# generated using pymatgen
data_Cu14Ni4C37
_symmetry_space_group_name_H-M   'P 1'
_cell_length_a   7.18499904
_cell_length_b   7.18499904
_cell_length_c   47.82857000
_cell_angle_alpha   90.00000000
_cell_angle_beta   90.00000000
_cell_angle_gamma   120.00000962
_symmetry_Int_Tables_number   1
_chemical_formula_structural   Cu14Ni4C37
_chemical_formula_sum   'Cu42 Ni12 C111'
_cell_volume   2138.31368476
_cell_formula_units_Z   3
loop_
 _symmetry_equiv_pos_site_id
 _symmetry_equiv_pos_as_xyz
  1  'x, y, z'
loop_
 _atom_site_type_symbol
 _atom_site_label
 _atom_site_symmetry_multiplicity
 _atom_site_fract_x
 _atom_site_fract_y
 _atom_site_fract_z
 _atom_site_occupancy
  C  C0  1  0.07666100  0.24096300  0.22289300  1
  C  C1  1  0.75903700  0.83569800  0.88956000  1
  C  C2  1  0.16430200  0.92333900  0.55622700  1
  C  C3  1  0.73097200  0.81291100  0.35878100  1
  C  C4  1  0.18708900  0.91806100  0.02544800  1
  C  C5  1  0.08193900  0.26902800  0.69211500  1
  C  C6  1  0.48705600  0.23834700  0.41297300  1
  C  C7  1  0.76165300  0.24870900  0.07963900  1
  C  C8  1  0.75129100  0.51294400  0.74630600  1
  C  C9  1  0.41009300  0.81418200  0.27634000  1
  C  C10  1  0.18581800  0.59591100  0.94300700  1
  C  C11  1  0.40408900  0.58990700  0.60967300  1
  Ni  Ni12  1  0.40081600  0.14498600  0.33442700  1
  Ni  Ni13  1  0.85501400  0.25582900  0.00109400  1
  Ni  Ni14  1  0.74417100  0.59918400  0.66776000  1
  Ni  Ni15  1  0.81456400  0.90236600  0.43201500  1
  Ni  Ni16  1  0.09763400  0.91219900  0.09868100  1
  Ni  Ni17  1  0.08780100  0.18543600  0.76534800  1
  Ni  Ni18  1  0.39744100  0.88919700  0.20279800  1
  Ni  Ni19  1  0.11080300  0.50824400  0.86946500  1
  Ni  Ni20  1  0.49175600  0.60255900  0.53613200  1
  Ni  Ni21  1  0.07504900  0.14418500  0.30071500  1
  Ni  Ni22  1  0.85581500  0.93086400  0.96738200  1
  Ni  Ni23  1  0.06913600  0.92495100  0.63404900  1
  Cu  Cu24  1  0.67995600  0.73001500  0.21946200  1
  Cu  Cu25  1  0.26998500  0.94994100  0.88612800  1
  Cu  Cu26  1  0.05005900  0.32004400  0.55279500  1
  Cu  Cu27  1  0.78140700  0.67646000  0.28636800  1
  Cu  Cu28  1  0.32354000  0.10494700  0.95303400  1
  Cu  Cu29  1  0.89505300  0.21859300  0.61970100  1
  Cu  Cu30  1  0.10559600  0.28838000  0.36059900  1
  Cu  Cu31  1  0.71162000  0.81721600  0.02726600  1
  Cu  Cu32  1  0.18278400  0.89440400  0.69393200  1
  Cu  Cu33  1  0.10725100  0.33387000  0.41533000  1
  Cu  Cu34  1  0.66613000  0.77338100  0.08199600  1
  Cu  Cu35  1  0.22661900  0.89274900  0.74866300  1
  Cu  Cu36  1  0.51363800  0.29001600  0.27385900  1
  Cu  Cu37  1  0.70998400  0.22362200  0.94052500  1
  Cu  Cu38  1  0.77637800  0.48636200  0.60719200  1
  Cu  Cu39  1  0.94782900  0.61455300  0.22169700  1
  Cu  Cu40  1  0.38544700  0.33327600  0.88836400  1
  Cu  Cu41  1  0.66672400  0.05217100  0.55503100  1
  Cu  Cu42  1  0.22320000  0.67498900  0.34820200  1
  Cu  Cu43  1  0.32501100  0.54821100  0.01486800  1
  Cu  Cu44  1  0.45178900  0.77680000  0.68153500  1
  Cu  Cu45  1  0.37744800  0.73353500  0.41473400  1
  Cu  Cu46  1  0.26646500  0.64391300  0.08140100  1
  Cu  Cu47  1  0.35608700  0.62255200  0.74806800  1
  Cu  Cu48  1  0.99394700  0.61981200  0.41383500  1
  Cu  Cu49  1  0.38018800  0.37413600  0.08050200  1
  Cu  Cu50  1  0.62586400  0.00605300  0.74716900  1
  Cu  Cu51  1  0.55041000  0.32981200  0.21928600  1
  Cu  Cu52  1  0.67018800  0.22059800  0.88595300  1
  Cu  Cu53  1  0.77940200  0.44959000  0.55262000  1
  Cu  Cu54  1  0.90893300  0.41819600  0.28203700  1
  Cu  Cu55  1  0.58180400  0.49073800  0.94870300  1
  Cu  Cu56  1  0.50926200  0.09106700  0.61537000  1
  Cu  Cu57  1  0.38854500  0.04096100  0.48275500  1
  Cu  Cu58  1  0.95903900  0.34758400  0.14942200  1
  Cu  Cu59  1  0.65241600  0.61145500  0.81608900  1
  Cu  Cu60  1  0.83915300  0.41722900  0.35331600  1
  Cu  Cu61  1  0.58277100  0.42192400  0.01998300  1
  Cu  Cu62  1  0.57807600  0.16084700  0.68665000  1
  Cu  Cu63  1  0.21396300  0.75874200  0.14892100  1
  Cu  Cu64  1  0.24125800  0.45522100  0.81558700  1
  Cu  Cu65  1  0.54477900  0.78603700  0.48225400  1
  C  C66  1  0.13497300  0.24048700  0.48506400  1
  C  C67  1  0.75951300  0.89448600  0.15173100  1
  C  C68  1  0.10551400  0.86502700  0.81839700  1
  C  C69  1  0.84871000  0.56066200  0.48596500  1
  C  C70  1  0.43933800  0.28804800  0.15263200  1
  C  C71  1  0.71195200  0.15129000  0.81929900  1
  C  C72  1  0.88452400  0.25460700  0.35401200  1
  C  C73  1  0.74539300  0.62991700  0.02067800  1
  C  C74  1  0.37008300  0.11547600  0.68734500  1
  C  C75  1  0.15564000  0.66210200  0.22420000  1
  C  C76  1  0.33789800  0.49353800  0.89086700  1
  C  C77  1  0.50646200  0.84436000  0.55753300  1
  C  C78  1  0.83172200  0.66539300  0.41339600  1
  C  C79  1  0.33460700  0.16632900  0.08006300  1
  C  C80  1  0.83367100  0.16827800  0.74672900  1
  C  C81  1  0.44012100  0.22098700  0.24498300  1
  C  C82  1  0.77901300  0.21913400  0.91165000  1
  C  C83  1  0.78086600  0.55987900  0.57831700  1
  C  C84  1  0.06785500  0.18255300  0.43836500  1
  C  C85  1  0.81744700  0.88530200  0.10503200  1
  C  C86  1  0.11469800  0.93214500  0.77169800  1
  C  C87  1  0.43232100  0.17548300  0.19644200  1
  C  C88  1  0.82451700  0.25683700  0.86310900  1
  C  C89  1  0.74316300  0.56767900  0.52977600  1
  C  C90  1  0.63486100  0.38413600  0.35512100  1
  C  C91  1  0.61586400  0.25072500  0.02178800  1
  C  C92  1  0.74927500  0.36513900  0.68845400  1
  C  C93  1  0.10937900  0.22254300  0.38969300  1
  C  C94  1  0.77745700  0.88683700  0.05635900  1
  C  C95  1  0.11316300  0.89062100  0.72302600  1
  C  C96  1  0.57957000  0.90025500  0.41023800  1
  C  C97  1  0.09974500  0.67931500  0.07690500  1
  C  C98  1  0.32068500  0.42043000  0.74357200  1
  C  C99  1  0.78564600  0.40351300  0.21903400  1
  C  C100  1  0.59648700  0.38213200  0.88570100  1
  C  C101  1  0.61786800  0.21435400  0.55236800  1
  C  C102  1  0.64657500  0.89994200  0.22211300  1
  C  C103  1  0.10005800  0.74663200  0.88877900  1
  C  C104  1  0.25336800  0.35342500  0.55544600  1
  C  C105  1  0.08128400  0.38648600  0.28074900  1
  C  C106  1  0.61351400  0.69479800  0.94741500  1
  C  C107  1  0.30520200  0.91871600  0.61408200  1
  C  C108  1  0.38669900  0.86553100  0.33870800  1
  C  C109  1  0.13446900  0.52116700  0.00537400  1
  C  C110  1  0.47883300  0.61330100  0.67204100  1
  C  C111  1  0.32850700  0.52681000  0.42019500  1
  C  C112  1  0.47319000  0.80169700  0.08686200  1
  C  C113  1  0.19830300  0.67149300  0.75352900  1
  C  C114  1  0.57826600  0.52041000  0.27828400  1
  C  C115  1  0.47959000  0.05785600  0.94495000  1
  C  C116  1  0.94214400  0.42173400  0.61161700  1
  C  C117  1  0.12935100  0.14205900  0.34190900  1
  C  C118  1  0.85794100  0.98729300  0.00857600  1
  C  C119  1  0.01270700  0.87064900  0.67524300  1
  C  C120  1  0.34603900  0.14583300  0.29297900  1
  C  C121  1  0.85416700  0.20020600  0.95964600  1
  C  C122  1  0.79979400  0.65396100  0.62631300  1
  C  C123  1  0.89647800  0.77991400  0.22180500  1
  C  C124  1  0.22008600  0.11656400  0.88847200  1
  C  C125  1  0.88343600  0.10352200  0.55513900  1
  C  C126  1  0.72966600  0.79159800  0.47217200  1
  C  C127  1  0.20840200  0.93806800  0.13883800  1
  C  C128  1  0.06193200  0.27033400  0.80550500  1
  C  C129  1  0.80773300  0.86759800  0.29550200  1
  C  C130  1  0.13240200  0.94013500  0.96216800  1
  C  C131  1  0.05986500  0.19226700  0.62883500  1
  C  C132  1  0.95225500  0.63243700  0.28512900  1
  C  C133  1  0.36756300  0.31981800  0.95179500  1
  C  C134  1  0.68018200  0.04774500  0.61846200  1
  C  C135  1  0.45180300  0.24800000  0.47336800  1
  C  C136  1  0.75200000  0.20380300  0.14003500  1
  C  C137  1  0.79619700  0.54819700  0.80670200  1
  C  C138  1  0.19655100  0.92713000  0.49679100  1
  C  C139  1  0.07287000  0.26942200  0.16345800  1
  C  C140  1  0.73057800  0.80344900  0.83012500  1
  C  C141  1  0.94522000  0.40797400  0.41478300  1
  C  C142  1  0.59202600  0.53724600  0.08145000  1
  C  C143  1  0.46275400  0.05478000  0.74811700  1
  C  C144  1  0.00926600  0.63251700  0.35071000  1
  C  C145  1  0.36748300  0.37674900  0.01737600  1
  C  C146  1  0.62325100  0.99073400  0.68404300  1
  C  C147  1  0.52197700  0.52295900  0.21419900  1
  C  C148  1  0.47704100  0.99901800  0.88086600  1
  C  C149  1  0.00098200  0.47802300  0.54753300  1
  C  C150  1  0.70170800  0.25577100  0.27995000  1
  C  C151  1  0.74422900  0.44593700  0.94661600  1
  C  C152  1  0.55406300  0.29829200  0.61328300  1
  C  C153  1  0.37994500  0.77246400  0.16431100  1
  C  C154  1  0.22753600  0.60748000  0.83097800  1
  C  C155  1  0.39252000  0.62005500  0.49764400  1
  C  C156  1  0.21061000  0.78464500  0.41365500  1
  C  C157  1  0.21535500  0.42596500  0.08032200  1
  C  C158  1  0.57403500  0.78939000  0.74698900  1
  C  C159  1  0.27105400  0.51798300  0.35549500  1
  C  C160  1  0.48201700  0.75307100  0.02216100  1
  C  C161  1  0.24692900  0.72894600  0.68882800  1
  C  C162  1  0.53262300  0.96989000  0.47576000  1
  C  C163  1  0.03011000  0.56273200  0.14242600  1
  C  C164  1  0.43726800  0.46737700  0.80909300  1
