# generated using pymatgen
data_Cu7NiC3
_symmetry_space_group_name_H-M   'P 1'
_cell_length_a   6.71614158
_cell_length_b   9.78764012
_cell_length_c   9.86227500
_cell_angle_alpha   90.00000000
_cell_angle_beta   90.00000000
_cell_angle_gamma   106.23481633
_symmetry_Int_Tables_number   1
_chemical_formula_structural   Cu7NiC3
_chemical_formula_sum   'Cu28 Ni4 C12'
_cell_volume   622.44682882
_cell_formula_units_Z   4
loop_
 _symmetry_equiv_pos_site_id
 _symmetry_equiv_pos_as_xyz
  1  'x, y, z'
loop_
 _atom_site_type_symbol
 _atom_site_label
 _atom_site_symmetry_multiplicity
 _atom_site_fract_x
 _atom_site_fract_y
 _atom_site_fract_z
 _atom_site_occupancy
  C  C0  1  0.30847200  0.11500300  0.51229100  1
  C  C1  1  0.19152800  0.38499700  0.01229100  1
  C  C2  1  0.69152800  0.88499700  0.48770900  1
  C  C3  1  0.80847200  0.61500300  0.98770900  1
  C  C4  1  0.88071800  0.31343400  0.30094300  1
  C  C5  1  0.61928200  0.18656600  0.80094300  1
  C  C6  1  0.11928200  0.68656600  0.69905700  1
  C  C7  1  0.38071800  0.81343400  0.19905700  1
  C  C8  1  0.82918600  0.18055500  0.39914400  1
  C  C9  1  0.67081400  0.31944500  0.89914400  1
  C  C10  1  0.17081400  0.81944500  0.60085600  1
  C  C11  1  0.32918600  0.68055500  0.10085600  1
  Ni  Ni12  1  0.64226900  0.51097500  0.61280800  1
  Ni  Ni13  1  0.85773100  0.98902500  0.11280800  1
  Ni  Ni14  1  0.35773100  0.48902500  0.38719200  1
  Ni  Ni15  1  0.14226900  0.01097500  0.88719200  1
  Cu  Cu16  1  0.64585300  0.13272400  0.44518100  1
  Cu  Cu17  1  0.85414700  0.36727600  0.94518100  1
  Cu  Cu18  1  0.35414700  0.86727600  0.55481900  1
  Cu  Cu19  1  0.14585300  0.63272400  0.05481900  1
  Cu  Cu20  1  0.03305100  0.88301800  0.57470000  1
  Cu  Cu21  1  0.46694900  0.61698200  0.07470000  1
  Cu  Cu22  1  0.96694900  0.11698200  0.42530000  1
  Cu  Cu23  1  0.53305100  0.38301800  0.92530000  1
  Cu  Cu24  1  0.64442700  0.62676400  0.50369000  1
  Cu  Cu25  1  0.85557300  0.87323600  0.00369000  1
  Cu  Cu26  1  0.35557300  0.37323600  0.49631000  1
  Cu  Cu27  1  0.14442700  0.12676400  0.99631000  1
  Cu  Cu28  1  0.39186800  0.19579400  0.22936200  1
  Cu  Cu29  1  0.10813200  0.30420600  0.72936200  1
  Cu  Cu30  1  0.60813200  0.80420600  0.77063800  1
  Cu  Cu31  1  0.89186800  0.69579400  0.27063800  1
  Cu  Cu32  1  0.26633400  0.89292800  0.19491200  1
  Cu  Cu33  1  0.23366600  0.60707200  0.69491200  1
  Cu  Cu34  1  0.73366600  0.10707200  0.80508800  1
  Cu  Cu35  1  0.76633400  0.39292800  0.30508800  1
  Cu  Cu36  1  0.46200800  0.17694600  0.72263400  1
  Cu  Cu37  1  0.03799200  0.32305400  0.22263400  1
  Cu  Cu38  1  0.53799200  0.82305400  0.27736600  1
  Cu  Cu39  1  0.96200800  0.67694600  0.77736600  1
  Cu  Cu40  1  0.01796700  0.66226200  0.34462000  1
  Cu  Cu41  1  0.48203300  0.83773800  0.84462000  1
  Cu  Cu42  1  0.98203300  0.33773800  0.65538000  1
  Cu  Cu43  1  0.51796700  0.16226200  0.15538000  1
