# generated using pymatgen
data_Cu17Ni5C4
_symmetry_space_group_name_H-M   'P 1'
_cell_length_a   10.18437000
_cell_length_b   10.33306903
_cell_length_c   10.72222715
_cell_angle_alpha   96.30887025
_cell_angle_beta   105.92055921
_cell_angle_gamma   116.38844294
_symmetry_Int_Tables_number   1
_chemical_formula_structural   Cu17Ni5C4
_chemical_formula_sum   'Cu34 Ni10 C8'
_cell_volume   936.16509640
_cell_formula_units_Z   2
loop_
 _symmetry_equiv_pos_site_id
 _symmetry_equiv_pos_as_xyz
  1  'x, y, z'
loop_
 _atom_site_type_symbol
 _atom_site_label
 _atom_site_symmetry_multiplicity
 _atom_site_fract_x
 _atom_site_fract_y
 _atom_site_fract_z
 _atom_site_occupancy
  C  C0  1  0.66219400  0.27678900  0.45023200  1
  C  C1  1  0.33780600  0.72321100  0.54976800  1
  C  C2  1  0.06816800  0.04346300  0.84831000  1
  C  C3  1  0.93183200  0.95653700  0.15169000  1
  C  C4  1  0.18718300  0.45491100  0.09651900  1
  C  C5  1  0.81281700  0.54508900  0.90348100  1
  C  C6  1  0.46936100  0.14403400  0.75765300  1
  C  C7  1  0.53063900  0.85596600  0.24234700  1
  Ni  Ni8  1  0.18039800  0.10660000  0.50116200  1
  Ni  Ni9  1  0.81960200  0.89340000  0.49883800  1
  Ni  Ni10  1  0.19235100  0.96353200  0.45636700  1
  Ni  Ni11  1  0.80764900  0.03646800  0.54363300  1
  Ni  Ni12  1  0.69078000  0.98605000  0.83858300  1
  Ni  Ni13  1  0.30922000  0.01395000  0.16141700  1
  Ni  Ni14  1  0.79107700  0.14584800  0.93857300  1
  Ni  Ni15  1  0.20892300  0.85415200  0.06142700  1
  Ni  Ni16  1  0.44803600  0.41551400  0.95757400  1
  Ni  Ni17  1  0.55196400  0.58448600  0.04242600  1
  Cu  Cu18  1  0.34545300  0.03613400  0.84428300  1
  Cu  Cu19  1  0.65454700  0.96386600  0.15571700  1
  Cu  Cu20  1  0.59724300  0.26161100  0.67477000  1
  Cu  Cu21  1  0.40275700  0.73838900  0.32523000  1
  Cu  Cu22  1  0.27102300  0.18086900  0.62538400  1
  Cu  Cu23  1  0.72897700  0.81913100  0.37461600  1
  Cu  Cu24  1  0.30122400  0.95687700  0.54889700  1
  Cu  Cu25  1  0.69877600  0.04312300  0.45110300  1
  Cu  Cu26  1  0.09360500  0.13839500  0.42131300  1
  Cu  Cu27  1  0.90639500  0.86160500  0.57868700  1
  Cu  Cu28  1  0.10715600  0.87260500  0.34481500  1
  Cu  Cu29  1  0.89284400  0.12739500  0.65518500  1
  Cu  Cu30  1  0.55952100  0.96431100  0.75344100  1
  Cu  Cu31  1  0.44047900  0.03568900  0.24655900  1
  Cu  Cu32  1  0.72182700  0.22465600  0.93077700  1
  Cu  Cu33  1  0.27817300  0.77534400  0.06922300  1
  Cu  Cu34  1  0.73968800  0.89556200  0.84395500  1
  Cu  Cu35  1  0.26031200  0.10443800  0.15604500  1
  Cu  Cu36  1  0.92813700  0.18775000  0.01490600  1
  Cu  Cu37  1  0.07186300  0.81225000  0.98509400  1
  Cu  Cu38  1  0.51929400  0.36691100  0.89950100  1
  Cu  Cu39  1  0.48070600  0.63308900  0.10049900  1
  Cu  Cu40  1  0.30983800  0.34292500  0.95128400  1
  Cu  Cu41  1  0.69016200  0.65707500  0.04871600  1
  Cu  Cu42  1  0.82722200  0.45104500  0.22379000  1
  Cu  Cu43  1  0.17277800  0.54895500  0.77621000  1
  Cu  Cu44  1  0.04855600  0.47584400  0.79393800  1
  Cu  Cu45  1  0.95144400  0.52415600  0.20606200  1
  Cu  Cu46  1  0.41738700  0.43092800  0.33784900  1
  Cu  Cu47  1  0.58261300  0.56907200  0.66215100  1
  Cu  Cu48  1  0.44535100  0.52314200  0.65464100  1
  Cu  Cu49  1  0.55464900  0.47685800  0.34535900  1
  Cu  Cu50  1  0.01570900  0.45064700  0.48238100  1
  Cu  Cu51  1  0.98429100  0.54935300  0.51761900  1
