# generated using pymatgen
data_Cu9Ni3C20
_symmetry_space_group_name_H-M   'P 1'
_cell_length_a   4.62939600
_cell_length_b   6.86456900
_cell_length_c   12.95894799
_cell_angle_alpha   90.00000000
_cell_angle_beta   90.00000000
_cell_angle_gamma   109.70606712
_symmetry_Int_Tables_number   1
_chemical_formula_structural   Cu9Ni3C20
_chemical_formula_sum   'Cu9 Ni3 C20'
_cell_volume   387.70162535
_cell_formula_units_Z   1
loop_
 _symmetry_equiv_pos_site_id
 _symmetry_equiv_pos_as_xyz
  1  'x, y, z'
loop_
 _atom_site_type_symbol
 _atom_site_label
 _atom_site_symmetry_multiplicity
 _atom_site_fract_x
 _atom_site_fract_y
 _atom_site_fract_z
 _atom_site_occupancy
  Ni  Ni0  1  0.25000000  0.00000000  0.00000000  1
  Ni  Ni1  1  0.75000000  0.00000000  0.50000000  1
  Ni  Ni2  1  0.75000000  0.00000000  0.00000000  1
  C  C3  1  0.92886100  0.84558300  0.34569000  1
  C  C4  1  0.41969400  0.84111900  0.84251600  1
  C  C5  1  0.57857400  0.15888100  0.15748400  1
  C  C6  1  0.08327800  0.15441700  0.65431000  1
  C  C7  1  0.15920500  0.31825400  0.07869300  1
  C  C8  1  0.65042900  0.31151300  0.57717300  1
  C  C9  1  0.33891600  0.68848700  0.42282700  1
  C  C10  1  0.84095100  0.68174600  0.92130700  1
  C  C11  1  0.34079500  0.68174600  0.07869300  1
  C  C12  1  0.84957100  0.68848700  0.57717300  1
  C  C13  1  0.16108400  0.31151300  0.42282700  1
  C  C14  1  0.65904900  0.31825400  0.92130700  1
  C  C15  1  0.57113900  0.15441700  0.34569000  1
  C  C16  1  0.08030600  0.15888100  0.84251600  1
  C  C17  1  0.92142600  0.84111900  0.15748400  1
  C  C18  1  0.41672200  0.84558300  0.65431000  1
  C  C19  1  0.49736800  0.50008900  0.25125700  1
  C  C20  1  0.99728000  0.49991100  0.74874300  1
  C  C21  1  0.00263200  0.49991100  0.25125700  1
  C  C22  1  0.50272000  0.50008900  0.74874300  1
  Cu  Cu23  1  0.25000000  0.00000000  0.50000000  1
  Cu  Cu24  1  0.75000000  0.50000000  0.08454500  1
  Cu  Cu25  1  0.25000000  0.50000000  0.58356400  1
  Cu  Cu26  1  0.75000000  0.50000000  0.41643600  1
  Cu  Cu27  1  0.25000000  0.50000000  0.91545500  1
  Cu  Cu28  1  0.41983400  0.83464600  0.24999200  1
  Cu  Cu29  1  0.91481100  0.83464600  0.75000800  1
  Cu  Cu30  1  0.08016600  0.16535400  0.24999200  1
  Cu  Cu31  1  0.58518900  0.16535400  0.75000800  1
