# generated using pymatgen
data_CuNiC28
_symmetry_space_group_name_H-M   'P 1'
_cell_length_a   7.30110700
_cell_length_b   10.21571942
_cell_length_c   11.52559445
_cell_angle_alpha   111.88051527
_cell_angle_beta   89.98078143
_cell_angle_gamma   100.72605710
_symmetry_Int_Tables_number   1
_chemical_formula_structural   CuNiC28
_chemical_formula_sum   'Cu2 Ni2 C56'
_cell_volume   781.53536290
_cell_formula_units_Z   2
loop_
 _symmetry_equiv_pos_site_id
 _symmetry_equiv_pos_as_xyz
  1  'x, y, z'
loop_
 _atom_site_type_symbol
 _atom_site_label
 _atom_site_symmetry_multiplicity
 _atom_site_fract_x
 _atom_site_fract_y
 _atom_site_fract_z
 _atom_site_occupancy
  C  C0  1  0.08940400  0.36029000  0.29152500  1
  C  C1  1  0.91059600  0.63971000  0.70847500  1
  C  C2  1  0.24858200  0.99932600  0.74546200  1
  C  C3  1  0.75141800  0.00067400  0.25453800  1
  C  C4  1  0.00000000  0.00000000  0.50000000  1
  C  C5  1  0.08704900  0.36697200  0.78747100  1
  C  C6  1  0.91295100  0.63302800  0.21252900  1
  C  C7  1  0.26576300  0.01263100  0.25775100  1
  C  C8  1  0.73423700  0.98736900  0.74224900  1
  C  C9  1  0.40765100  0.62657000  0.20954200  1
  C  C10  1  0.59234900  0.37343000  0.79045800  1
  C  C11  1  0.00000000  0.00000000  0.00000000  1
  Ni  Ni12  1  0.58747800  0.34819300  0.27798100  1
  Ni  Ni13  1  0.41252200  0.65180700  0.72201900  1
  Cu  Cu14  1  0.50000000  0.00000000  0.50000000  1
  Cu  Cu15  1  0.50000000  0.00000000  0.00000000  1
  C  C16  1  0.29129000  0.29080300  0.50872500  1
  C  C17  1  0.70871000  0.70919700  0.49127500  1
  C  C18  1  0.29373300  0.27833800  0.00879100  1
  C  C19  1  0.70626700  0.72166200  0.99120900  1
  C  C20  1  0.84915400  0.28479000  0.01262100  1
  C  C21  1  0.15084600  0.71521000  0.98737900  1
  C  C22  1  0.15749400  0.71206300  0.48867300  1
  C  C23  1  0.84250600  0.28793700  0.51132700  1
  C  C24  1  0.06117900  0.26323100  0.49190200  1
  C  C25  1  0.93882100  0.73676900  0.50809800  1
  C  C26  1  0.35877700  0.40668700  0.65191400  1
  C  C27  1  0.64122300  0.59331300  0.34808600  1
  C  C28  1  0.66175800  0.65522300  0.09683300  1
  C  C29  1  0.33824200  0.34477700  0.90316700  1
  C  C30  1  0.80372000  0.37844900  0.15565500  1
  C  C31  1  0.19628000  0.62155100  0.84434500  1
  C  C32  1  0.32946400  0.12872800  0.47919400  1
  C  C33  1  0.67053600  0.87127200  0.52080600  1
  C  C34  1  0.27022300  0.88343000  0.03923300  1
  C  C35  1  0.72977700  0.11657000  0.96076700  1
  C  C36  1  0.16447200  0.64231900  0.08822000  1
  C  C37  1  0.83552800  0.35768100  0.91178000  1
  C  C38  1  0.20970500  0.64925600  0.59411600  1
  C  C39  1  0.79029500  0.35074400  0.40588400  1
  C  C40  1  0.37320900  0.33931000  0.39555100  1
  C  C41  1  0.62679100  0.66069000  0.60444900  1
  C  C42  1  0.39191700  0.37608100  0.15034800  1
  C  C43  1  0.60808300  0.62391900  0.84965200  1
  C  C44  1  0.71978300  0.12268400  0.47244200  1
  C  C45  1  0.28021700  0.87731600  0.52755800  1
  C  C46  1  0.52676200  0.12956900  0.17937800  1
  C  C47  1  0.47323800  0.87043100  0.82062200  1
  C  C48  1  0.16597400  0.61225500  0.34255000  1
  C  C49  1  0.83402600  0.38774500  0.65745000  1
  C  C50  1  0.32291500  0.11068100  0.96374100  1
  C  C51  1  0.67708500  0.88931900  0.03625900  1
  C  C52  1  0.06371000  0.25545000  0.02681100  1
  C  C53  1  0.93629000  0.74455000  0.97318900  1
  C  C54  1  0.00903300  0.12020300  0.70828000  1
  C  C55  1  0.99096700  0.87979700  0.29172000  1
  C  C56  1  0.53673200  0.11614000  0.69165500  1
  C  C57  1  0.46326800  0.88386000  0.30834500  1
  C  C58  1  0.03827100  0.10827200  0.20694500  1
  C  C59  1  0.96172900  0.89172800  0.79305500  1
