# generated using pymatgen
data_Cu4Ni2C
_symmetry_space_group_name_H-M   'P 1'
_cell_length_a   4.08536700
_cell_length_b   11.68485700
_cell_length_c   14.64687800
_cell_angle_alpha   90.00000000
_cell_angle_beta   90.00000000
_cell_angle_gamma   90.00000000
_symmetry_Int_Tables_number   1
_chemical_formula_structural   Cu4Ni2C
_chemical_formula_sum   'Cu16 Ni8 C4'
_cell_volume   699.19697790
_cell_formula_units_Z   4
loop_
 _symmetry_equiv_pos_site_id
 _symmetry_equiv_pos_as_xyz
  1  'x, y, z'
loop_
 _atom_site_type_symbol
 _atom_site_label
 _atom_site_symmetry_multiplicity
 _atom_site_fract_x
 _atom_site_fract_y
 _atom_site_fract_z
 _atom_site_occupancy
  C  C0  1  0.25000000  0.26161000  0.34806500  1
  C  C1  1  0.25000000  0.76161000  0.15193500  1
  C  C2  1  0.75000000  0.73839000  0.65193500  1
  C  C3  1  0.75000000  0.23839000  0.84806500  1
  Ni  Ni4  1  0.25000000  0.06679400  0.60736300  1
  Ni  Ni5  1  0.25000000  0.56679400  0.89263700  1
  Ni  Ni6  1  0.75000000  0.93320600  0.39263700  1
  Ni  Ni7  1  0.75000000  0.43320600  0.10736300  1
  Ni  Ni8  1  0.25000000  0.10495900  0.10080200  1
  Ni  Ni9  1  0.25000000  0.60495900  0.39919800  1
  Ni  Ni10  1  0.75000000  0.89504100  0.89919800  1
  Ni  Ni11  1  0.75000000  0.39504100  0.60080200  1
  Cu  Cu12  1  0.25000000  0.33167400  0.98568300  1
  Cu  Cu13  1  0.25000000  0.83167400  0.51431700  1
  Cu  Cu14  1  0.75000000  0.66832600  0.01431700  1
  Cu  Cu15  1  0.75000000  0.16832600  0.48568300  1
  Cu  Cu16  1  0.25000000  0.26357100  0.69967900  1
  Cu  Cu17  1  0.25000000  0.76357100  0.80032100  1
  Cu  Cu18  1  0.75000000  0.73642900  0.30032100  1
  Cu  Cu19  1  0.75000000  0.23642900  0.19967900  1
  Cu  Cu20  1  0.25000000  0.06185000  0.91163300  1
  Cu  Cu21  1  0.25000000  0.56185000  0.58836700  1
  Cu  Cu22  1  0.75000000  0.93815000  0.08836700  1
  Cu  Cu23  1  0.75000000  0.43815000  0.41163300  1
  Cu  Cu24  1  0.25000000  0.01267800  0.28662500  1
  Cu  Cu25  1  0.25000000  0.51267800  0.21337500  1
  Cu  Cu26  1  0.75000000  0.98732200  0.71337500  1
  Cu  Cu27  1  0.75000000  0.48732200  0.78662500  1
