# generated using pymatgen
data_CuNiC7
_symmetry_space_group_name_H-M   'P 1'
_cell_length_a   5.52297761
_cell_length_b   7.82525748
_cell_length_c   5.57537300
_cell_angle_alpha   90.00088161
_cell_angle_beta   90.00130078
_cell_angle_gamma   89.99175607
_symmetry_Int_Tables_number   1
_chemical_formula_structural   CuNiC7
_chemical_formula_sum   'Cu2 Ni2 C14'
_cell_volume   240.96049255
_cell_formula_units_Z   2
loop_
 _symmetry_equiv_pos_site_id
 _symmetry_equiv_pos_as_xyz
  1  'x, y, z'
loop_
 _atom_site_type_symbol
 _atom_site_label
 _atom_site_symmetry_multiplicity
 _atom_site_fract_x
 _atom_site_fract_y
 _atom_site_fract_z
 _atom_site_occupancy
  C  C0  1  0.99160200  0.24797000  0.03497500  1
  C  C1  1  0.49143600  0.74805300  0.46509000  1
  Ni  Ni2  1  0.49660700  0.49911900  0.99524400  1
  Ni  Ni3  1  0.99654200  0.99929300  0.50463900  1
  Cu  Cu4  1  0.99831600  0.49873200  0.50837500  1
  Cu  Cu5  1  0.49835200  0.99868700  0.99162200  1
  C  C6  1  0.54996900  0.75521500  0.01022000  1
  C  C7  1  0.05001800  0.25520600  0.48975200  1
  C  C8  1  0.23536900  0.97366100  0.22280700  1
  C  C9  1  0.73537500  0.47362900  0.27721900  1
  C  C10  1  0.22593500  0.52937100  0.23931600  1
  C  C11  1  0.72593600  0.02939000  0.26069200  1
  C  C12  1  0.92675800  0.74483300  0.50972700  1
  C  C13  1  0.42678000  0.24484000  0.99028700  1
  C  C14  1  0.27618500  0.53673600  0.71467700  1
  C  C15  1  0.77615900  0.03675200  0.78533700  1
  C  C16  1  0.28891500  0.96447700  0.71828700  1
  C  C17  1  0.78895100  0.46441400  0.78173500  1
