# generated using pymatgen
data_Cu5(NiC14)3
_symmetry_space_group_name_H-M   'P 1'
_cell_length_a   7.93815771
_cell_length_b   9.79048979
_cell_length_c   9.85691660
_cell_angle_alpha   81.19636756
_cell_angle_beta   66.30850153
_cell_angle_gamma   66.09301412
_symmetry_Int_Tables_number   1
_chemical_formula_structural   Cu5(NiC14)3
_chemical_formula_sum   'Cu5 Ni3 C42'
_cell_volume   641.27258849
_cell_formula_units_Z   1
loop_
 _symmetry_equiv_pos_site_id
 _symmetry_equiv_pos_as_xyz
  1  'x, y, z'
loop_
 _atom_site_type_symbol
 _atom_site_label
 _atom_site_symmetry_multiplicity
 _atom_site_fract_x
 _atom_site_fract_y
 _atom_site_fract_z
 _atom_site_occupancy
  C  C0  1  0.75004300  0.49491100  0.49837000  1
  C  C1  1  0.14789300  0.30112700  0.89934200  1
  C  C2  1  0.54637100  0.10068600  0.29981200  1
  C  C3  1  0.94363100  0.90307800  0.70186000  1
  C  C4  1  0.36213100  0.70123300  0.09980400  1
  C  C5  1  0.25636900  0.49692200  0.49814000  1
  C  C6  1  0.65362900  0.29931400  0.90018800  1
  C  C7  1  0.05210700  0.09887300  0.30065800  1
  C  C8  1  0.44995700  0.90508900  0.70163000  1
  C  C9  1  0.83786900  0.69876700  0.10019600  1
  C  C10  1  0.80022800  0.59900400  0.79950100  1
  C  C11  1  0.39977200  0.80099600  0.40049900  1
  Ni  Ni12  1  0.99773700  0.00234700  0.00015700  1
  Ni  Ni13  1  0.60000000  0.20000000  0.60000000  1
  Ni  Ni14  1  0.20226300  0.39765300  0.19984300  1
  Cu  Cu15  1  0.70057900  0.39991800  0.20064300  1
  Cu  Cu16  1  0.10000000  0.20000000  0.60000000  1
  Cu  Cu17  1  0.49942100  0.00008200  0.99935700  1
  Cu  Cu18  1  0.90228900  0.79618500  0.39814100  1
  Cu  Cu19  1  0.29771100  0.60381500  0.80185900  1
  C  C20  1  0.34163400  0.70360000  0.61358600  1
  C  C21  1  0.75383300  0.49461100  0.00181900  1
  C  C22  1  0.14771900  0.30281300  0.39897500  1
  C  C23  1  0.55099600  0.09955900  0.79760200  1
  C  C24  1  0.95391800  0.89280000  0.20264700  1
  C  C25  1  0.64900400  0.30044100  0.40239800  1
  C  C26  1  0.05228100  0.09718700  0.80102500  1
  C  C27  1  0.44616700  0.90538900  0.19818100  1
  C  C28  1  0.85836600  0.69640000  0.58641400  1
  C  C29  1  0.24608200  0.50720000  0.99735300  1
  C  C30  1  0.19218300  0.79626800  0.90275300  1
  C  C31  1  0.79638000  0.99148800  0.49530600  1
  C  C32  1  0.38749700  0.20704200  0.09534800  1
  C  C33  1  0.99372900  0.39129700  0.69536900  1
  C  C34  1  0.58590300  0.59611300  0.30283600  1
  C  C35  1  0.00781700  0.60373200  0.29724700  1
  C  C36  1  0.61409700  0.80388700  0.89716400  1
  C  C37  1  0.20627100  0.00870300  0.50463100  1
  C  C38  1  0.81250300  0.19295800  0.10465200  1
  C  C39  1  0.40362000  0.40851200  0.70469400  1
  C  C40  1  0.63710900  0.83179400  0.41525700  1
  C  C41  1  0.23270700  0.03176200  0.01587100  1
  C  C42  1  0.82501000  0.23045900  0.61697800  1
  C  C43  1  0.43419000  0.42971000  0.21410700  1
  C  C44  1  0.03665700  0.63140100  0.81485600  1
  C  C45  1  0.56289100  0.56820600  0.78474300  1
  C  C46  1  0.16334300  0.76859900  0.38514400  1
  C  C47  1  0.76581000  0.97029000  0.98589300  1
  C  C48  1  0.37499000  0.16954100  0.58302200  1
  C  C49  1  0.96729300  0.36823800  0.18412900  1
