# generated using pymatgen
data_Cu3Ni2C3
_symmetry_space_group_name_H-M   'P 1'
_cell_length_a   15.25735197
_cell_length_b   14.06010546
_cell_length_c   13.66268141
_cell_angle_alpha   66.76476248
_cell_angle_beta   57.86393206
_cell_angle_gamma   55.37130545
_symmetry_Int_Tables_number   1
_chemical_formula_structural   Cu3Ni2C3
_chemical_formula_sum   'Cu24 Ni16 C24'
_cell_volume   2024.23548591
_cell_formula_units_Z   8
loop_
 _symmetry_equiv_pos_site_id
 _symmetry_equiv_pos_as_xyz
  1  'x, y, z'
loop_
 _atom_site_type_symbol
 _atom_site_label
 _atom_site_symmetry_multiplicity
 _atom_site_fract_x
 _atom_site_fract_y
 _atom_site_fract_z
 _atom_site_occupancy
  C  C0  1  0.44228600  0.05771400  0.44228600  1
  C  C1  1  0.05771400  0.44228600  0.05771400  1
  C  C2  1  0.80771400  0.19228600  0.80771400  1
  C  C3  1  0.19228600  0.80771400  0.19228600  1
  C  C4  1  0.58453100  0.91546900  0.58453100  1
  C  C5  1  0.91546900  0.58453100  0.91546900  1
  C  C6  1  0.66546900  0.33453100  0.66546900  1
  C  C7  1  0.33453100  0.66546900  0.33453100  1
  Ni  Ni8  1  0.64976500  0.00947200  0.84491700  1
  Ni  Ni9  1  0.49584600  0.84491700  0.00947200  1
  Ni  Ni10  1  0.00947200  0.64976500  0.49584600  1
  Ni  Ni11  1  0.84491700  0.49584600  0.64976500  1
  Ni  Ni12  1  0.60023500  0.24052800  0.40508300  1
  Ni  Ni13  1  0.75415400  0.40508300  0.24052800  1
  Ni  Ni14  1  0.24052800  0.60023500  0.75415400  1
  Ni  Ni15  1  0.40508300  0.75415400  0.60023500  1
  Ni  Ni16  1  0.51887300  0.98644400  0.14670900  1
  Ni  Ni17  1  0.34797500  0.14670900  0.98644400  1
  Ni  Ni18  1  0.98644400  0.51887300  0.34797500  1
  Ni  Ni19  1  0.14670900  0.34797500  0.51887300  1
  Ni  Ni20  1  0.73112700  0.26355600  0.10329100  1
  Ni  Ni21  1  0.90202500  0.10329100  0.26355600  1
  Ni  Ni22  1  0.26355600  0.73112700  0.90202500  1
  Ni  Ni23  1  0.10329100  0.90202500  0.73112700  1
  Cu  Cu24  1  0.44792300  0.22961700  0.27719000  1
  Cu  Cu25  1  0.04527100  0.27719000  0.22961700  1
  Cu  Cu26  1  0.22961700  0.44792300  0.04527100  1
  Cu  Cu27  1  0.27719000  0.04527100  0.44792300  1
  Cu  Cu28  1  0.80207700  0.02038300  0.97281000  1
  Cu  Cu29  1  0.20472900  0.97281000  0.02038300  1
  Cu  Cu30  1  0.02038300  0.80207700  0.20472900  1
  Cu  Cu31  1  0.97281000  0.20472900  0.80207700  1
  Cu  Cu32  1  0.95204300  0.74532500  0.74962900  1
  Cu  Cu33  1  0.55300400  0.74962900  0.74532500  1
  Cu  Cu34  1  0.74532500  0.95204300  0.55300400  1
  Cu  Cu35  1  0.74962900  0.55300400  0.95204300  1
  Cu  Cu36  1  0.29795700  0.50467500  0.50037100  1
  Cu  Cu37  1  0.69699600  0.50037100  0.50467500  1
  Cu  Cu38  1  0.50467500  0.29795700  0.69699600  1
  Cu  Cu39  1  0.50037100  0.69699600  0.29795700  1
  Cu  Cu40  1  0.60303500  0.36563900  0.87420200  1
  Cu  Cu41  1  0.15712400  0.87420200  0.36563900  1
  Cu  Cu42  1  0.36563900  0.60303500  0.15712400  1
  Cu  Cu43  1  0.87420200  0.15712400  0.60303500  1
  Cu  Cu44  1  0.64696500  0.88436100  0.37579800  1
  Cu  Cu45  1  0.09287600  0.37579800  0.88436100  1
  Cu  Cu46  1  0.88436100  0.64696500  0.09287600  1
  Cu  Cu47  1  0.37579800  0.09287600  0.64696500  1
  C  C48  1  0.50553900  0.12597000  0.98997100  1
  C  C49  1  0.37852000  0.98997100  0.12597000  1
  C  C50  1  0.12597000  0.50553900  0.37852000  1
  C  C51  1  0.98997100  0.37852000  0.50553900  1
  C  C52  1  0.74446100  0.12403000  0.26002900  1
  C  C53  1  0.87148000  0.26002900  0.12403000  1
  C  C54  1  0.12403000  0.74446100  0.87148000  1
  C  C55  1  0.26002900  0.87148000  0.74446100  1
  C  C56  1  0.63526000  0.86897100  0.00276000  1
  C  C57  1  0.49300900  0.00276000  0.86897100  1
  C  C58  1  0.86897100  0.63526000  0.49300900  1
  C  C59  1  0.00276000  0.49300900  0.63526000  1
  C  C60  1  0.61474000  0.38102900  0.24724000  1
  C  C61  1  0.75699100  0.24724000  0.38102900  1
  C  C62  1  0.38102900  0.61474000  0.75699100  1
  C  C63  1  0.24724000  0.75699100  0.61474000  1
