# generated using pymatgen
data_Cu4NiC2
_symmetry_space_group_name_H-M   'P 1'
_cell_length_a   6.01735700
_cell_length_b   8.50331000
_cell_length_c   11.31963267
_cell_angle_alpha   59.64246861
_cell_angle_beta   90.00000000
_cell_angle_gamma   90.00000000
_symmetry_Int_Tables_number   1
_chemical_formula_structural   Cu4NiC2
_chemical_formula_sum   'Cu16 Ni4 C8'
_cell_volume   499.78223150
_cell_formula_units_Z   4
loop_
 _symmetry_equiv_pos_site_id
 _symmetry_equiv_pos_as_xyz
  1  'x, y, z'
loop_
 _atom_site_type_symbol
 _atom_site_label
 _atom_site_symmetry_multiplicity
 _atom_site_fract_x
 _atom_site_fract_y
 _atom_site_fract_z
 _atom_site_occupancy
  C  C0  1  0.24240600  0.71225600  0.65132100  1
  C  C1  1  0.74240600  0.28774400  0.84867900  1
  C  C2  1  0.75759400  0.28774400  0.34867900  1
  C  C3  1  0.25759400  0.71225600  0.15132100  1
  C  C4  1  0.98814300  0.96788100  0.77966100  1
  C  C5  1  0.48814300  0.03211900  0.72033900  1
  C  C6  1  0.01185700  0.03211900  0.22033900  1
  C  C7  1  0.51185700  0.96788100  0.27966100  1
  Ni  Ni8  1  0.73702800  0.75679100  0.89552000  1
  Ni  Ni9  1  0.23702800  0.24320900  0.60448000  1
  Ni  Ni10  1  0.26297200  0.24320900  0.10448000  1
  Ni  Ni11  1  0.76297200  0.75679100  0.39552000  1
  Cu  Cu12  1  0.74809400  0.70065800  0.79309000  1
  Cu  Cu13  1  0.24809400  0.29934200  0.70691000  1
  Cu  Cu14  1  0.25190600  0.29934200  0.20691000  1
  Cu  Cu15  1  0.75190600  0.70065800  0.29309000  1
  Cu  Cu16  1  0.74291500  0.61091000  0.03787500  1
  Cu  Cu17  1  0.24291500  0.38909000  0.46212500  1
  Cu  Cu18  1  0.25708500  0.38909000  0.96212500  1
  Cu  Cu19  1  0.75708500  0.61091000  0.53787500  1
  Cu  Cu20  1  0.54835200  0.88505100  0.86818500  1
  Cu  Cu21  1  0.04835200  0.11494900  0.63181500  1
  Cu  Cu22  1  0.45164800  0.11494900  0.13181500  1
  Cu  Cu23  1  0.95164800  0.88505100  0.36818500  1
  Cu  Cu24  1  0.95779600  0.87054700  0.88016000  1
  Cu  Cu25  1  0.45779600  0.12945300  0.61984000  1
  Cu  Cu26  1  0.04220400  0.12945300  0.11984000  1
  Cu  Cu27  1  0.54220400  0.87054700  0.38016000  1
