# generated using pymatgen
data_CuNi3C16
_symmetry_space_group_name_H-M   'P 1'
_cell_length_a   7.87286100
_cell_length_b   5.57383800
_cell_length_c   5.57505341
_cell_angle_alpha   89.93658984
_cell_angle_beta   90.00000000
_cell_angle_gamma   90.00000000
_symmetry_Int_Tables_number   1
_chemical_formula_structural   CuNi3C16
_chemical_formula_sum   'Cu1 Ni3 C16'
_cell_volume   244.64463295
_cell_formula_units_Z   1
loop_
 _symmetry_equiv_pos_site_id
 _symmetry_equiv_pos_as_xyz
  1  'x, y, z'
loop_
 _atom_site_type_symbol
 _atom_site_label
 _atom_site_symmetry_multiplicity
 _atom_site_fract_x
 _atom_site_fract_y
 _atom_site_fract_z
 _atom_site_occupancy
  Ni  Ni0  1  0.00000000  0.00737100  0.97061200  1
  Ni  Ni1  1  0.50000000  0.50703700  0.52818800  1
  Ni  Ni2  1  0.50000000  0.99180600  0.02948800  1
  Cu  Cu3  1  0.00000000  0.48938600  0.46332000  1
  C  C4  1  0.24899500  0.99977400  0.50030700  1
  C  C5  1  0.75064700  0.50015100  0.99917500  1
  C  C6  1  0.75100500  0.99977400  0.50030700  1
  C  C7  1  0.24935300  0.50015100  0.99917500  1
  C  C8  1  0.29308500  0.78353600  0.78362700  1
  C  C9  1  0.70798300  0.71754400  0.28285600  1
  C  C10  1  0.79597200  0.22058800  0.22012300  1
  C  C11  1  0.20365000  0.28473400  0.71517400  1
  C  C12  1  0.20402800  0.22058800  0.22012300  1
  C  C13  1  0.79635000  0.28473400  0.71517400  1
  C  C14  1  0.70691500  0.78353600  0.78362700  1
  C  C15  1  0.29201700  0.71754400  0.28285600  1
  C  C16  1  0.00000000  0.58031200  0.01986400  1
  C  C17  1  0.00000000  0.91227700  0.51443200  1
  C  C18  1  0.50000000  0.41942000  0.98565500  1
  C  C19  1  0.50000000  0.07973800  0.48591700  1
