# generated using pymatgen
data_Cu6NiC9
_symmetry_space_group_name_H-M   'P 1'
_cell_length_a   7.23697224
_cell_length_b   12.24830490
_cell_length_c   11.01918200
_cell_angle_alpha   90.00000000
_cell_angle_beta   90.00000000
_cell_angle_gamma   32.19590179
_symmetry_Int_Tables_number   1
_chemical_formula_structural   Cu6NiC9
_chemical_formula_sum   'Cu12 Ni2 C18'
_cell_volume   520.42638261
_cell_formula_units_Z   2
loop_
 _symmetry_equiv_pos_site_id
 _symmetry_equiv_pos_as_xyz
  1  'x, y, z'
loop_
 _atom_site_type_symbol
 _atom_site_label
 _atom_site_symmetry_multiplicity
 _atom_site_fract_x
 _atom_site_fract_y
 _atom_site_fract_z
 _atom_site_occupancy
  Ni  Ni0  1  0.00000000  0.28619000  0.25000000  1
  Ni  Ni1  1  0.00000000  0.71381000  0.75000000  1
  Cu  Cu2  1  0.70333600  0.74510300  0.25000000  1
  Cu  Cu3  1  0.70333600  0.55156200  0.75000000  1
  Cu  Cu4  1  0.29666400  0.25489700  0.75000000  1
  Cu  Cu5  1  0.29666400  0.44843800  0.25000000  1
  Cu  Cu6  1  0.70186800  0.29288600  0.93323300  1
  Cu  Cu7  1  0.70186800  0.00524500  0.06676700  1
  Cu  Cu8  1  0.70186800  0.29288600  0.56676700  1
  Cu  Cu9  1  0.70186800  0.00524500  0.43323300  1
  Cu  Cu10  1  0.29813200  0.70711400  0.06676700  1
  Cu  Cu11  1  0.29813200  0.99475500  0.93323300  1
  Cu  Cu12  1  0.29813200  0.70711400  0.43323300  1
  Cu  Cu13  1  0.29813200  0.99475500  0.56676700  1
  C  C14  1  0.00000000  0.54775500  0.25000000  1
  C  C15  1  0.00000000  0.45224500  0.75000000  1
  C  C16  1  0.41977900  0.92319400  0.25000000  1
  C  C17  1  0.41977900  0.65702600  0.75000000  1
  C  C18  1  0.58022100  0.07680600  0.75000000  1
  C  C19  1  0.58022100  0.34297400  0.25000000  1
  C  C20  1  0.00000000  0.15190000  0.98555300  1
  C  C21  1  0.00000000  0.84810000  0.01444700  1
  C  C22  1  0.00000000  0.15190000  0.51444700  1
  C  C23  1  0.00000000  0.84810000  0.48555300  1
  C  C24  1  0.41538300  0.42952000  0.89609600  1
  C  C25  1  0.41538300  0.15509500  0.10390400  1
  C  C26  1  0.41538300  0.42952000  0.60390400  1
  C  C27  1  0.41538300  0.15509500  0.39609600  1
  C  C28  1  0.58461700  0.57048000  0.10390400  1
  C  C29  1  0.58461700  0.84490500  0.89609600  1
  C  C30  1  0.58461700  0.57048000  0.39609600  1
  C  C31  1  0.58461700  0.84490500  0.60390400  1
