# generated using pymatgen
data_Cu11Ni4C
_symmetry_space_group_name_H-M   'P 1'
_cell_length_a   8.42662930
_cell_length_b   8.42662930
_cell_length_c   8.42662969
_cell_angle_alpha   66.90786610
_cell_angle_beta   66.90786610
_cell_angle_gamma   66.90786372
_symmetry_Int_Tables_number   1
_chemical_formula_structural   Cu11Ni4C
_chemical_formula_sum   'Cu22 Ni8 C2'
_cell_volume   485.80656729
_cell_formula_units_Z   2
loop_
 _symmetry_equiv_pos_site_id
 _symmetry_equiv_pos_as_xyz
  1  'x, y, z'
loop_
 _atom_site_type_symbol
 _atom_site_label
 _atom_site_symmetry_multiplicity
 _atom_site_fract_x
 _atom_site_fract_y
 _atom_site_fract_z
 _atom_site_occupancy
  C  C0  1  0.25000000  0.25000000  0.25000000  1
  C  C1  1  0.75000000  0.75000000  0.75000000  1
  Ni  Ni2  1  0.50000000  0.50000000  0.50000000  1
  Ni  Ni3  1  0.00000000  0.00000000  0.00000000  1
  Ni  Ni4  1  0.56078200  0.93921800  0.25000000  1
  Ni  Ni5  1  0.25000000  0.56078200  0.93921800  1
  Ni  Ni6  1  0.93921800  0.25000000  0.56078200  1
  Ni  Ni7  1  0.75000000  0.43921800  0.06078200  1
  Ni  Ni8  1  0.06078200  0.75000000  0.43921800  1
  Ni  Ni9  1  0.43921800  0.06078200  0.75000000  1
  Cu  Cu10  1  0.15957000  0.15957000  0.15957000  1
  Cu  Cu11  1  0.65957000  0.65957000  0.65957000  1
  Cu  Cu12  1  0.84043000  0.84043000  0.84043000  1
  Cu  Cu13  1  0.34043000  0.34043000  0.34043000  1
  Cu  Cu14  1  0.69080700  0.80919300  0.25000000  1
  Cu  Cu15  1  0.25000000  0.69080700  0.80919300  1
  Cu  Cu16  1  0.80919300  0.25000000  0.69080700  1
  Cu  Cu17  1  0.75000000  0.30919300  0.19080700  1
  Cu  Cu18  1  0.19080700  0.75000000  0.30919300  1
  Cu  Cu19  1  0.30919300  0.19080700  0.75000000  1
  Cu  Cu20  1  0.41185700  0.94542500  0.38027100  1
  Cu  Cu21  1  0.38027100  0.41185700  0.94542500  1
  Cu  Cu22  1  0.94542500  0.38027100  0.41185700  1
  Cu  Cu23  1  0.88027100  0.44542500  0.91185700  1
  Cu  Cu24  1  0.91185700  0.88027100  0.44542500  1
  Cu  Cu25  1  0.44542500  0.91185700  0.88027100  1
  Cu  Cu26  1  0.58814300  0.05457500  0.61972900  1
  Cu  Cu27  1  0.61972900  0.58814300  0.05457500  1
  Cu  Cu28  1  0.05457500  0.61972900  0.58814300  1
  Cu  Cu29  1  0.11972900  0.55457500  0.08814300  1
  Cu  Cu30  1  0.08814300  0.11972900  0.55457500  1
  Cu  Cu31  1  0.55457500  0.08814300  0.11972900  1
