# generated using pymatgen
data_Cu2(NiC)3
_symmetry_space_group_name_H-M   'P 1'
_cell_length_a   5.75388305
_cell_length_b   5.75388305
_cell_length_c   13.80600400
_cell_angle_alpha   90.00000000
_cell_angle_beta   90.00000000
_cell_angle_gamma   136.75078678
_symmetry_Int_Tables_number   1
_chemical_formula_structural   Cu2(NiC)3
_chemical_formula_sum   'Cu4 Ni6 C6'
_cell_volume   313.17731016
_cell_formula_units_Z   2
loop_
 _symmetry_equiv_pos_site_id
 _symmetry_equiv_pos_as_xyz
  1  'x, y, z'
loop_
 _atom_site_type_symbol
 _atom_site_label
 _atom_site_symmetry_multiplicity
 _atom_site_fract_x
 _atom_site_fract_y
 _atom_site_fract_z
 _atom_site_occupancy
  C  C0  1  0.92274000  0.07726000  0.38632000  1
  C  C1  1  0.07726000  0.92274000  0.61368000  1
  C  C2  1  0.92274000  0.07726000  0.11368000  1
  C  C3  1  0.07726000  0.92274000  0.88632000  1
  C  C4  1  0.64638900  0.35361100  0.25000000  1
  C  C5  1  0.35361100  0.64638900  0.75000000  1
  Ni  Ni6  1  0.61433300  0.38566700  0.45943600  1
  Ni  Ni7  1  0.38566700  0.61433300  0.54056400  1
  Ni  Ni8  1  0.61433300  0.38566700  0.04056400  1
  Ni  Ni9  1  0.38566700  0.61433300  0.95943600  1
  Ni  Ni10  1  0.33903500  0.66096500  0.25000000  1
  Ni  Ni11  1  0.66096500  0.33903500  0.75000000  1
  Cu  Cu12  1  0.78724100  0.21275900  0.91665700  1
  Cu  Cu13  1  0.21275900  0.78724100  0.08334300  1
  Cu  Cu14  1  0.78724100  0.21275900  0.58334300  1
  Cu  Cu15  1  0.21275900  0.78724100  0.41665700  1
