# generated using pymatgen
data_CuNiC6
_symmetry_space_group_name_H-M   'P 1'
_cell_length_a   5.35272100
_cell_length_b   7.31639400
_cell_length_c   11.37187000
_cell_angle_alpha   90.00000000
_cell_angle_beta   90.00000000
_cell_angle_gamma   90.00000000
_symmetry_Int_Tables_number   1
_chemical_formula_structural   CuNiC6
_chemical_formula_sum   'Cu2 Ni2 C12'
_cell_volume   445.35217583
_cell_formula_units_Z   2
loop_
 _symmetry_equiv_pos_site_id
 _symmetry_equiv_pos_as_xyz
  1  'x, y, z'
loop_
 _atom_site_type_symbol
 _atom_site_label
 _atom_site_symmetry_multiplicity
 _atom_site_fract_x
 _atom_site_fract_y
 _atom_site_fract_z
 _atom_site_occupancy
  Ni  Ni0  1  0.50000000  0.00000000  0.16186700  1
  Ni  Ni1  1  0.50000000  0.50000000  0.66186700  1
  Cu  Cu2  1  0.50000000  0.00000000  0.65504400  1
  Cu  Cu3  1  0.50000000  0.50000000  0.15504400  1
  C  C4  1  0.50000000  0.25674000  0.41551800  1
  C  C5  1  0.50000000  0.74326000  0.41551800  1
  C  C6  1  0.00000000  0.25103000  0.58111800  1
  C  C7  1  0.00000000  0.74897000  0.58111800  1
  C  C8  1  0.00000000  0.00000000  0.34717300  1
  C  C9  1  0.00000000  0.00000000  0.84264000  1
  C  C10  1  0.50000000  0.75674000  0.91551800  1
  C  C11  1  0.50000000  0.24326000  0.91551800  1
  C  C12  1  0.00000000  0.75103000  0.08111800  1
  C  C13  1  0.00000000  0.24897000  0.08111800  1
  C  C14  1  0.00000000  0.50000000  0.84717300  1
  C  C15  1  0.00000000  0.50000000  0.34264000  1
