# generated using pymatgen
data_Cu3NiC15
_symmetry_space_group_name_H-M   'P 1'
_cell_length_a   10.57720700
_cell_length_b   10.57720700
_cell_length_c   10.57720700
_cell_angle_alpha   90.00000000
_cell_angle_beta   90.00000000
_cell_angle_gamma   90.00000000
_symmetry_Int_Tables_number   1
_chemical_formula_structural   Cu3NiC15
_chemical_formula_sum   'Cu12 Ni4 C60'
_cell_volume   1183.34944448
_cell_formula_units_Z   4
loop_
 _symmetry_equiv_pos_site_id
 _symmetry_equiv_pos_as_xyz
  1  'x, y, z'
loop_
 _atom_site_type_symbol
 _atom_site_label
 _atom_site_symmetry_multiplicity
 _atom_site_fract_x
 _atom_site_fract_y
 _atom_site_fract_z
 _atom_site_occupancy
  C  C0  1  0.81855900  0.81855900  0.81855900  1
  C  C1  1  0.68144100  0.18144100  0.31855900  1
  C  C2  1  0.18144100  0.31855900  0.68144100  1
  C  C3  1  0.31855900  0.68144100  0.18144100  1
  C  C4  1  0.04592400  0.04592400  0.04592400  1
  C  C5  1  0.45407600  0.95407600  0.54592400  1
  C  C6  1  0.95407600  0.54592400  0.45407600  1
  C  C7  1  0.54592400  0.45407600  0.95407600  1
  C  C8  1  0.61061000  0.61061000  0.61061000  1
  C  C9  1  0.88939000  0.38939000  0.11061000  1
  C  C10  1  0.38939000  0.11061000  0.88939000  1
  C  C11  1  0.11061000  0.88939000  0.38939000  1
  Ni  Ni12  1  0.33736100  0.33736100  0.33736100  1
  Ni  Ni13  1  0.16263900  0.66263900  0.83736100  1
  Ni  Ni14  1  0.66263900  0.83736100  0.16263900  1
  Ni  Ni15  1  0.83736100  0.16263900  0.66263900  1
  Cu  Cu16  1  0.02588700  0.20588200  0.37895400  1
  Cu  Cu17  1  0.47411300  0.79411800  0.87895400  1
  Cu  Cu18  1  0.97411300  0.70588200  0.12104600  1
  Cu  Cu19  1  0.37895400  0.02588700  0.20588200  1
  Cu  Cu20  1  0.52588700  0.29411800  0.62104600  1
  Cu  Cu21  1  0.87895400  0.47411300  0.79411800  1
  Cu  Cu22  1  0.12104600  0.97411300  0.70588200  1
  Cu  Cu23  1  0.62104600  0.52588700  0.29411800  1
  Cu  Cu24  1  0.20588200  0.37895400  0.02588700  1
  Cu  Cu25  1  0.70588200  0.12104600  0.97411300  1
  Cu  Cu26  1  0.29411800  0.62104600  0.52588700  1
  Cu  Cu27  1  0.79411800  0.87895400  0.47411300  1
  C  C28  1  0.05337100  0.80428600  0.22066000  1
  C  C29  1  0.44662900  0.19571400  0.72066000  1
  C  C30  1  0.94662900  0.30428600  0.27934000  1
  C  C31  1  0.22066000  0.05337100  0.80428600  1
  C  C32  1  0.55337100  0.69571400  0.77934000  1
  C  C33  1  0.72066000  0.44662900  0.19571400  1
  C  C34  1  0.27934000  0.94662900  0.30428600  1
  C  C35  1  0.77934000  0.55337100  0.69571400  1
  C  C36  1  0.80428600  0.22066000  0.05337100  1
  C  C37  1  0.30428600  0.27934000  0.94662900  1
  C  C38  1  0.69571400  0.77934000  0.55337100  1
  C  C39  1  0.19571400  0.72066000  0.44662900  1
  C  C40  1  0.18161100  0.24396800  0.40982000  1
  C  C41  1  0.31838900  0.75603200  0.90982000  1
  C  C42  1  0.81838900  0.74396800  0.09018000  1
  C  C43  1  0.40982000  0.18161100  0.24396800  1
  C  C44  1  0.68161100  0.25603200  0.59018000  1
  C  C45  1  0.90982000  0.31838900  0.75603200  1
  C  C46  1  0.09018000  0.81838900  0.74396800  1
  C  C47  1  0.59018000  0.68161100  0.25603200  1
  C  C48  1  0.24396800  0.40982000  0.18161100  1
  C  C49  1  0.74396800  0.09018000  0.81838900  1
  C  C50  1  0.25603200  0.59018000  0.68161100  1
  C  C51  1  0.75603200  0.90982000  0.31838900  1
  C  C52  1  0.01635900  0.05467200  0.32434300  1
  C  C53  1  0.48364100  0.94532800  0.82434300  1
  C  C54  1  0.98364100  0.55467200  0.17565700  1
  C  C55  1  0.32434300  0.01635900  0.05467200  1
  C  C56  1  0.51635900  0.44532800  0.67565700  1
  C  C57  1  0.82434300  0.48364100  0.94532800  1
  C  C58  1  0.17565700  0.98364100  0.55467200  1
  C  C59  1  0.67565700  0.51635900  0.44532800  1
  C  C60  1  0.05467200  0.32434300  0.01635900  1
  C  C61  1  0.55467200  0.17565700  0.98364100  1
  C  C62  1  0.44532800  0.67565700  0.51635900  1
  C  C63  1  0.94532800  0.82434300  0.48364100  1
  C  C64  1  0.26427000  0.47587300  0.45625300  1
  C  C65  1  0.23573000  0.52412700  0.95625300  1
  C  C66  1  0.73573000  0.97587300  0.04374700  1
  C  C67  1  0.45625300  0.26427000  0.47587300  1
  C  C68  1  0.76427000  0.02412700  0.54374700  1
  C  C69  1  0.95625300  0.23573000  0.52412700  1
  C  C70  1  0.04374700  0.73573000  0.97587300  1
  C  C71  1  0.54374700  0.76427000  0.02412700  1
  C  C72  1  0.47587300  0.45625300  0.26427000  1
  C  C73  1  0.97587300  0.04374700  0.73573000  1
  C  C74  1  0.02412700  0.54374700  0.76427000  1
  C  C75  1  0.52412700  0.95625300  0.23573000  1
