# generated using pymatgen
data_Cu10NiC
_symmetry_space_group_name_H-M   'P 1'
_cell_length_a   13.56907058
_cell_length_b   13.56907058
_cell_length_c   13.56907039
_cell_angle_alpha   116.18078236
_cell_angle_beta   116.18078236
_cell_angle_gamma   116.18078124
_symmetry_Int_Tables_number   1
_chemical_formula_structural   Cu10NiC
_chemical_formula_sum   'Cu60 Ni6 C6'
_cell_volume   1234.70068436
_cell_formula_units_Z   6
loop_
 _symmetry_equiv_pos_site_id
 _symmetry_equiv_pos_as_xyz
  1  'x, y, z'
loop_
 _atom_site_type_symbol
 _atom_site_label
 _atom_site_symmetry_multiplicity
 _atom_site_fract_x
 _atom_site_fract_y
 _atom_site_fract_z
 _atom_site_occupancy
  C  C0  1  0.73904200  0.02659200  0.30281000  1
  C  C1  1  0.30281000  0.73904200  0.02659200  1
  C  C2  1  0.02659200  0.30281000  0.73904200  1
  C  C3  1  0.26095800  0.97340800  0.69719000  1
  C  C4  1  0.69719000  0.26095800  0.97340800  1
  C  C5  1  0.97340800  0.69719000  0.26095800  1
  Ni  Ni6  1  0.76439800  0.87843700  0.42066800  1
  Ni  Ni7  1  0.42066800  0.76439800  0.87843700  1
  Ni  Ni8  1  0.87843700  0.42066800  0.76439800  1
  Ni  Ni9  1  0.23560200  0.12156300  0.57933200  1
  Ni  Ni10  1  0.57933200  0.23560200  0.12156300  1
  Ni  Ni11  1  0.12156300  0.57933200  0.23560200  1
  Cu  Cu12  1  0.79921200  0.00729700  0.54771400  1
  Cu  Cu13  1  0.54771400  0.79921200  0.00729700  1
  Cu  Cu14  1  0.00729700  0.54771400  0.79921200  1
  Cu  Cu15  1  0.20078800  0.99270300  0.45228600  1
  Cu  Cu16  1  0.45228600  0.20078800  0.99270300  1
  Cu  Cu17  1  0.99270300  0.45228600  0.20078800  1
  Cu  Cu18  1  0.53945500  0.67448600  0.27599300  1
  Cu  Cu19  1  0.27599300  0.53945500  0.67448600  1
  Cu  Cu20  1  0.67448600  0.27599300  0.53945500  1
  Cu  Cu21  1  0.46054500  0.32551400  0.72400700  1
  Cu  Cu22  1  0.72400700  0.46054500  0.32551400  1
  Cu  Cu23  1  0.32551400  0.72400700  0.46054500  1
  Cu  Cu24  1  0.86430600  0.86019900  0.47918300  1
  Cu  Cu25  1  0.47918300  0.86430600  0.86019900  1
  Cu  Cu26  1  0.86019900  0.47918300  0.86430600  1
  Cu  Cu27  1  0.13569400  0.13980100  0.52081700  1
  Cu  Cu28  1  0.52081700  0.13569400  0.13980100  1
  Cu  Cu29  1  0.13980100  0.52081700  0.13569400  1
  Cu  Cu30  1  0.73604600  0.87406800  0.29888800  1
  Cu  Cu31  1  0.29888800  0.73604600  0.87406800  1
  Cu  Cu32  1  0.87406800  0.29888800  0.73604600  1
  Cu  Cu33  1  0.26395400  0.12593200  0.70111200  1
  Cu  Cu34  1  0.70111200  0.26395400  0.12593200  1
  Cu  Cu35  1  0.12593200  0.70111200  0.26395400  1
  Cu  Cu36  1  0.55136600  0.94630200  0.24001800  1
  Cu  Cu37  1  0.24001800  0.55136600  0.94630200  1
  Cu  Cu38  1  0.94630200  0.24001800  0.55136600  1
  Cu  Cu39  1  0.44863400  0.05369800  0.75998200  1
  Cu  Cu40  1  0.75998200  0.44863400  0.05369800  1
  Cu  Cu41  1  0.05369800  0.75998200  0.44863400  1
  Cu  Cu42  1  0.89534600  0.14344900  0.28647500  1
  Cu  Cu43  1  0.28647500  0.89534600  0.14344900  1
  Cu  Cu44  1  0.14344900  0.28647500  0.89534600  1
  Cu  Cu45  1  0.10465400  0.85655100  0.71352500  1
  Cu  Cu46  1  0.71352500  0.10465400  0.85655100  1
  Cu  Cu47  1  0.85655100  0.71352500  0.10465400  1
  Cu  Cu48  1  0.80178800  0.15697900  0.25768000  1
  Cu  Cu49  1  0.25768000  0.80178800  0.15697900  1
  Cu  Cu50  1  0.15697900  0.25768000  0.80178800  1
  Cu  Cu51  1  0.19821200  0.84302100  0.74232000  1
  Cu  Cu52  1  0.74232000  0.19821200  0.84302100  1
  Cu  Cu53  1  0.84302100  0.74232000  0.19821200  1
  Cu  Cu54  1  0.90650700  0.95964700  0.02067700  1
  Cu  Cu55  1  0.02067700  0.90650700  0.95964700  1
  Cu  Cu56  1  0.95964700  0.02067700  0.90650700  1
  Cu  Cu57  1  0.09349300  0.04035300  0.97932300  1
  Cu  Cu58  1  0.97932300  0.09349300  0.04035300  1
  Cu  Cu59  1  0.04035300  0.97932300  0.09349300  1
  Cu  Cu60  1  0.47843800  0.54228000  0.59237700  1
  Cu  Cu61  1  0.59237700  0.47843800  0.54228000  1
  Cu  Cu62  1  0.54228000  0.59237700  0.47843800  1
  Cu  Cu63  1  0.52156200  0.45772000  0.40762300  1
  Cu  Cu64  1  0.40762300  0.52156200  0.45772000  1
  Cu  Cu65  1  0.45772000  0.40762300  0.52156200  1
  Cu  Cu66  1  0.83258500  0.51360900  0.46622200  1
  Cu  Cu67  1  0.46622200  0.83258500  0.51360900  1
  Cu  Cu68  1  0.51360900  0.46622200  0.83258500  1
  Cu  Cu69  1  0.16741500  0.48639100  0.53377800  1
  Cu  Cu70  1  0.53377800  0.16741500  0.48639100  1
  Cu  Cu71  1  0.48639100  0.53377800  0.16741500  1
