# generated using pymatgen
data_Cu5(NiC5)2
_symmetry_space_group_name_H-M   'P 1'
_cell_length_a   10.13937940
_cell_length_b   10.13937940
_cell_length_c   11.50211976
_cell_angle_alpha   72.08810747
_cell_angle_beta   72.08810747
_cell_angle_gamma   52.34391350
_symmetry_Int_Tables_number   1
_chemical_formula_structural   Cu5(NiC5)2
_chemical_formula_sum   'Cu10 Ni4 C20'
_cell_volume   879.48844988
_cell_formula_units_Z   2
loop_
 _symmetry_equiv_pos_site_id
 _symmetry_equiv_pos_as_xyz
  1  'x, y, z'
loop_
 _atom_site_type_symbol
 _atom_site_label
 _atom_site_symmetry_multiplicity
 _atom_site_fract_x
 _atom_site_fract_y
 _atom_site_fract_z
 _atom_site_occupancy
  C  C0  1  0.21789000  0.78838900  0.52065300  1
  C  C1  1  0.21161100  0.78211000  0.97934700  1
  C  C2  1  0.78211000  0.21161100  0.47934700  1
  C  C3  1  0.78838900  0.21789000  0.02065300  1
  C  C4  1  0.46822200  0.53177800  0.25000000  1
  C  C5  1  0.53177800  0.46822200  0.75000000  1
  C  C6  1  0.06420400  0.63853000  0.62615000  1
  C  C7  1  0.36147000  0.93579600  0.87385000  1
  C  C8  1  0.93579600  0.36147000  0.37385000  1
  C  C9  1  0.63853000  0.06420400  0.12615000  1
  C  C10  1  0.36482700  0.93915400  0.45689300  1
  C  C11  1  0.06084600  0.63517300  0.04310700  1
  C  C12  1  0.63517300  0.06084600  0.54310700  1
  C  C13  1  0.93915400  0.36482700  0.95689300  1
  C  C14  1  0.28725000  0.41465300  0.33150200  1
  C  C15  1  0.58534700  0.71275000  0.16849800  1
  C  C16  1  0.71275000  0.58534700  0.66849800  1
  C  C17  1  0.41465300  0.28725000  0.83150200  1
  C  C18  1  0.07716100  0.92283900  0.75000000  1
  C  C19  1  0.92283900  0.07716100  0.25000000  1
  Ni  Ni20  1  0.75382500  0.84944300  0.85638200  1
  Ni  Ni21  1  0.15055700  0.24617500  0.64361800  1
  Ni  Ni22  1  0.24617500  0.15055700  0.14361800  1
  Ni  Ni23  1  0.84944300  0.75382500  0.35638200  1
  Cu  Cu24  1  0.29304700  0.70820800  0.37718800  1
  Cu  Cu25  1  0.29179200  0.70695300  0.12281200  1
  Cu  Cu26  1  0.70695300  0.29179200  0.62281200  1
  Cu  Cu27  1  0.70820800  0.29304700  0.87718800  1
  Cu  Cu28  1  0.39431900  0.60786900  0.62689800  1
  Cu  Cu29  1  0.39213100  0.60568100  0.87310200  1
  Cu  Cu30  1  0.60568100  0.39213100  0.37310200  1
  Cu  Cu31  1  0.60786900  0.39431900  0.12689800  1
  Cu  Cu32  1  0.00000000  0.00000000  0.50000000  1
  Cu  Cu33  1  0.00000000  0.00000000  0.00000000  1
