# generated using pymatgen
data_CuNi2C7
_symmetry_space_group_name_H-M   'P 1'
_cell_length_a   6.11212771
_cell_length_b   6.05254955
_cell_length_c   6.01512595
_cell_angle_alpha   60.85936367
_cell_angle_beta   59.87280862
_cell_angle_gamma   59.26782771
_symmetry_Int_Tables_number   1
_chemical_formula_structural   CuNi2C7
_chemical_formula_sum   'Cu1 Ni2 C7'
_cell_volume   157.28562970
_cell_formula_units_Z   1
loop_
 _symmetry_equiv_pos_site_id
 _symmetry_equiv_pos_as_xyz
  1  'x, y, z'
loop_
 _atom_site_type_symbol
 _atom_site_label
 _atom_site_symmetry_multiplicity
 _atom_site_fract_x
 _atom_site_fract_y
 _atom_site_fract_z
 _atom_site_occupancy
  Ni  Ni0  1  0.75933800  0.75933800  0.74066200  1
  Ni  Ni1  1  0.25933800  0.25933800  0.24066200  1
  Cu  Cu2  1  0.50347900  0.50347900  0.49652100  1
  C  C3  1  0.02084000  0.02084000  0.97916000  1
  C  C4  1  0.19519400  0.76716500  0.80480600  1
  C  C5  1  0.22546400  0.22546400  0.77453600  1
  C  C6  1  0.76716500  0.19519400  0.23283500  1
  C  C7  1  0.23822300  0.76728200  0.23271800  1
  C  C8  1  0.76367600  0.76367600  0.23632400  1
  C  C9  1  0.76728200  0.23822300  0.76177700  1
