# generated using pymatgen
data_CuNiC6
_symmetry_space_group_name_H-M   'P 1'
_cell_length_a   13.38617315
_cell_length_b   11.93209941
_cell_length_c   7.38939590
_cell_angle_alpha   84.21042910
_cell_angle_beta   62.47733720
_cell_angle_gamma   33.31223370
_symmetry_Int_Tables_number   1
_chemical_formula_structural   CuNiC6
_chemical_formula_sum   'Cu2 Ni2 C12'
_cell_volume   465.90223629
_cell_formula_units_Z   2
loop_
 _symmetry_equiv_pos_site_id
 _symmetry_equiv_pos_as_xyz
  1  'x, y, z'
loop_
 _atom_site_type_symbol
 _atom_site_label
 _atom_site_symmetry_multiplicity
 _atom_site_fract_x
 _atom_site_fract_y
 _atom_site_fract_z
 _atom_site_occupancy
  C  C0  1  0.43035400  0.43035400  0.06964600  1
  C  C1  1  0.81964600  0.81964600  0.18035400  1
  C  C2  1  0.06964600  0.06964600  0.43035400  1
  C  C3  1  0.18035400  0.18035400  0.81964600  1
  Ni  Ni4  1  0.25000000  0.25000000  0.25000000  1
  Ni  Ni5  1  0.00000000  0.00000000  0.00000000  1
  Cu  Cu6  1  0.75000000  0.75000000  0.75000000  1
  Cu  Cu7  1  0.50000000  0.50000000  0.50000000  1
  C  C8  1  0.74114600  0.37456300  0.05437200  1
  C  C9  1  0.82991900  0.05437200  0.37456300  1
  C  C10  1  0.05437200  0.82991900  0.74114600  1
  C  C11  1  0.37456300  0.74114600  0.82991900  1
  C  C12  1  0.50885400  0.87543700  0.19562800  1
  C  C13  1  0.87543700  0.50885400  0.42008100  1
  C  C14  1  0.19562800  0.42008100  0.50885400  1
  C  C15  1  0.42008100  0.19562800  0.87543700  1
