# generated using pymatgen
data_Cu3Ni8C17
_symmetry_space_group_name_H-M   'P 1'
_cell_length_a   6.05259646
_cell_length_b   8.51046900
_cell_length_c   6.05259646
_cell_angle_alpha   90.00000000
_cell_angle_beta   90.00000000
_cell_angle_gamma   90.00000000
_symmetry_Int_Tables_number   1
_chemical_formula_structural   Cu3Ni8C17
_chemical_formula_sum   'Cu3 Ni8 C17'
_cell_volume   311.77187367
_cell_formula_units_Z   1
loop_
 _symmetry_equiv_pos_site_id
 _symmetry_equiv_pos_as_xyz
  1  'x, y, z'
loop_
 _atom_site_type_symbol
 _atom_site_label
 _atom_site_symmetry_multiplicity
 _atom_site_fract_x
 _atom_site_fract_y
 _atom_site_fract_z
 _atom_site_occupancy
  C  C0  1  0.25000000  0.12500000  0.00000000  1
  Ni  Ni1  1  0.75000000  0.24981700  0.75092400  1
  Ni  Ni2  1  0.25000000  0.75030000  0.24981800  1
  Ni  Ni3  1  0.75000000  0.24981700  0.24907600  1
  Ni  Ni4  1  0.25000000  0.75030000  0.75018200  1
  Ni  Ni5  1  0.49981800  0.49970000  0.00000000  1
  Ni  Ni6  1  0.00092400  0.00018300  0.50000000  1
  Ni  Ni7  1  0.00018200  0.49970000  0.00000000  1
  Ni  Ni8  1  0.49907600  0.00018300  0.50000000  1
  Cu  Cu9  1  0.75000000  0.62500000  0.50000000  1
  Cu  Cu10  1  0.75000000  0.87504600  0.00000000  1
  Cu  Cu11  1  0.25000000  0.37495400  0.50000000  1
  C  C12  1  0.75000000  0.48734400  0.22359900  1
  C  C13  1  0.25000000  0.98903400  0.72734400  1
  C  C14  1  0.75000000  0.48734400  0.77640100  1
  C  C15  1  0.25000000  0.98903400  0.27265600  1
  C  C16  1  0.97734400  0.26096600  0.00000000  1
  C  C17  1  0.47359900  0.76265600  0.50000000  1
  C  C18  1  0.52265600  0.26096600  0.00000000  1
  C  C19  1  0.02640100  0.76265600  0.50000000  1
  C  C20  1  0.25000000  0.51210200  0.77660300  1
  C  C21  1  0.75000000  0.01183500  0.27676300  1
  C  C22  1  0.25000000  0.51210200  0.22339700  1
  C  C23  1  0.75000000  0.01183500  0.72323700  1
  C  C24  1  0.02660300  0.73789800  0.00000000  1
  C  C25  1  0.52676300  0.23816500  0.50000000  1
  C  C26  1  0.47339700  0.73789800  0.00000000  1
  C  C27  1  0.97323700  0.23816500  0.50000000  1
