# generated using pymatgen
data_Cu2NiC5
_symmetry_space_group_name_H-M   'P 1'
_cell_length_a   3.57136000
_cell_length_b   4.43336400
_cell_length_c   11.48164300
_cell_angle_alpha   90.00000000
_cell_angle_beta   90.00000000
_cell_angle_gamma   90.00000000
_symmetry_Int_Tables_number   1
_chemical_formula_structural   Cu2NiC5
_chemical_formula_sum   'Cu4 Ni2 C10'
_cell_volume   181.79044790
_cell_formula_units_Z   2
loop_
 _symmetry_equiv_pos_site_id
 _symmetry_equiv_pos_as_xyz
  1  'x, y, z'
loop_
 _atom_site_type_symbol
 _atom_site_label
 _atom_site_symmetry_multiplicity
 _atom_site_fract_x
 _atom_site_fract_y
 _atom_site_fract_z
 _atom_site_occupancy
  Ni  Ni0  1  0.50000000  0.11572300  0.00000000  1
  Ni  Ni1  1  0.00000000  0.88427700  0.50000000  1
  Cu  Cu2  1  0.00000000  0.56697400  0.84734200  1
  Cu  Cu3  1  0.50000000  0.43302600  0.65265800  1
  Cu  Cu4  1  0.50000000  0.43302600  0.34734200  1
  Cu  Cu5  1  0.00000000  0.56697400  0.15265800  1
  C  C6  1  0.50000000  0.57368700  0.50000000  1
  C  C7  1  0.00000000  0.42631300  0.00000000  1
  C  C8  1  0.50000000  0.45465100  0.82660300  1
  C  C9  1  0.00000000  0.54534900  0.67339700  1
  C  C10  1  0.50000000  0.45465100  0.17339700  1
  C  C11  1  0.00000000  0.54534900  0.32660300  1
  C  C12  1  0.00000000  0.95217700  0.11666800  1
  C  C13  1  0.50000000  0.04782300  0.38333200  1
  C  C14  1  0.50000000  0.04782300  0.61666800  1
  C  C15  1  0.00000000  0.95217700  0.88333200  1
