# generated using pymatgen
data_Cu6Ni2C31
_symmetry_space_group_name_H-M   'P 1'
_cell_length_a   7.67209300
_cell_length_b   7.66166700
_cell_length_c   7.68116400
_cell_angle_alpha   90.00000000
_cell_angle_beta   90.00000000
_cell_angle_gamma   90.00000000
_symmetry_Int_Tables_number   1
_chemical_formula_structural   Cu6Ni2C31
_chemical_formula_sum   'Cu6 Ni2 C31'
_cell_volume   451.50666822
_cell_formula_units_Z   1
loop_
 _symmetry_equiv_pos_site_id
 _symmetry_equiv_pos_as_xyz
  1  'x, y, z'
loop_
 _atom_site_type_symbol
 _atom_site_label
 _atom_site_symmetry_multiplicity
 _atom_site_fract_x
 _atom_site_fract_y
 _atom_site_fract_z
 _atom_site_occupancy
  C  C0  1  0.25700200  0.26220600  0.25115400  1
  C  C1  1  0.26062400  0.26805100  0.73981200  1
  C  C2  1  0.25700200  0.73779400  0.25115400  1
  C  C3  1  0.26062400  0.73194900  0.73981200  1
  C  C4  1  0.74299800  0.26220600  0.25115400  1
  C  C5  1  0.73937600  0.26805100  0.73981200  1
  C  C6  1  0.74299800  0.73779400  0.25115400  1
  C  C7  1  0.73937600  0.73194900  0.73981200  1
  Ni  Ni8  1  0.00000000  0.00000000  0.98540900  1
  Ni  Ni9  1  0.50000000  0.00000000  0.00771200  1
  Cu  Cu10  1  0.00000000  0.00000000  0.49945300  1
  Cu  Cu11  1  0.00000000  0.50000000  0.00514900  1
  Cu  Cu12  1  0.00000000  0.50000000  0.49591000  1
  Cu  Cu13  1  0.50000000  0.00000000  0.49762400  1
  Cu  Cu14  1  0.50000000  0.50000000  0.99913500  1
  Cu  Cu15  1  0.50000000  0.50000000  0.49786800  1
  C  C16  1  0.00000000  0.00000000  0.75637500  1
  C  C17  1  0.00000000  0.50000000  0.25064500  1
  C  C18  1  0.00000000  0.50000000  0.74994000  1
  C  C19  1  0.50000000  0.00000000  0.25510600  1
  C  C20  1  0.50000000  0.00000000  0.75036000  1
  C  C21  1  0.50000000  0.50000000  0.24958800  1
  C  C22  1  0.50000000  0.50000000  0.74918000  1
  C  C23  1  0.24343200  0.00000000  0.03901300  1
  C  C24  1  0.24829800  0.00000000  0.47620000  1
  C  C25  1  0.25034300  0.50000000  0.99572900  1
  C  C26  1  0.25046200  0.50000000  0.50601700  1
  C  C27  1  0.75656800  0.00000000  0.03901300  1
  C  C28  1  0.75170200  0.00000000  0.47620000  1
  C  C29  1  0.74965700  0.50000000  0.99572900  1
  C  C30  1  0.74953800  0.50000000  0.50601700  1
  C  C31  1  0.00000000  0.24848700  0.02472500  1
  C  C32  1  0.00000000  0.24783600  0.47455900  1
  C  C33  1  0.00000000  0.75151300  0.02472500  1
  C  C34  1  0.00000000  0.75216400  0.47455900  1
  C  C35  1  0.50000000  0.25221500  0.99661000  1
  C  C36  1  0.50000000  0.25016500  0.50549100  1
  C  C37  1  0.50000000  0.74778500  0.99661000  1
  C  C38  1  0.50000000  0.74983500  0.50549100  1
