# generated using pymatgen
data_CuNiC29
_symmetry_space_group_name_H-M   'P 1'
_cell_length_a   4.20497300
_cell_length_b   8.26613200
_cell_length_c   10.35101800
_cell_angle_alpha   90.00000000
_cell_angle_beta   90.00000000
_cell_angle_gamma   90.00000000
_symmetry_Int_Tables_number   1
_chemical_formula_structural   CuNiC29
_chemical_formula_sum   'Cu1 Ni1 C29'
_cell_volume   359.78960492
_cell_formula_units_Z   1
loop_
 _symmetry_equiv_pos_site_id
 _symmetry_equiv_pos_as_xyz
  1  'x, y, z'
loop_
 _atom_site_type_symbol
 _atom_site_label
 _atom_site_symmetry_multiplicity
 _atom_site_fract_x
 _atom_site_fract_y
 _atom_site_fract_z
 _atom_site_occupancy
  Ni  Ni0  1  0.00000000  0.50000000  0.44385300  1
  Cu  Cu1  1  0.00000000  0.00000000  0.01274900  1
  C  C2  1  0.00000000  0.50000000  0.98315900  1
  C  C3  1  0.00000000  0.00000000  0.47383500  1
  C  C4  1  0.50000000  0.75972600  0.99132600  1
  C  C5  1  0.50000000  0.24027400  0.99132600  1
  C  C6  1  0.50000000  0.75994300  0.56656700  1
  C  C7  1  0.50000000  0.24005700  0.56656700  1
  C  C8  1  0.50000000  0.00000000  0.80016300  1
  C  C9  1  0.50000000  0.50000000  0.76849900  1
  C  C10  1  0.50000000  0.00000000  0.26257800  1
  C  C11  1  0.50000000  0.50000000  0.18015200  1
  C  C12  1  0.00000000  0.73118100  0.76599600  1
  C  C13  1  0.00000000  0.26881900  0.76599600  1
  C  C14  1  0.00000000  0.75681500  0.18627500  1
  C  C15  1  0.00000000  0.24318500  0.18627500  1
  C  C16  1  0.00000000  0.50000000  0.78939600  1
  C  C17  1  0.00000000  0.00000000  0.25219300  1
  C  C18  1  0.00000000  0.50000000  0.18388100  1
  C  C19  1  0.50000000  0.76919400  0.77090900  1
  C  C20  1  0.50000000  0.23080600  0.77090900  1
  C  C21  1  0.50000000  0.74858100  0.20255600  1
  C  C22  1  0.50000000  0.25141900  0.20255600  1
  C  C23  1  0.50000000  0.00000000  0.98506900  1
  C  C24  1  0.50000000  0.50000000  0.98095000  1
  C  C25  1  0.50000000  0.00000000  0.46492900  1
  C  C26  1  0.50000000  0.50000000  0.57688300  1
  C  C27  1  0.00000000  0.75786200  0.98204000  1
  C  C28  1  0.00000000  0.24213800  0.98204000  1
  C  C29  1  0.00000000  0.79856600  0.58018900  1
  C  C30  1  0.00000000  0.20143400  0.58018900  1
