# generated using pymatgen
data_CuNi2C
_symmetry_space_group_name_H-M   'P 1'
_cell_length_a   7.51787856
_cell_length_b   7.51787856
_cell_length_c   7.51787896
_cell_angle_alpha   33.73100025
_cell_angle_beta   33.73100025
_cell_angle_gamma   33.73099867
_symmetry_Int_Tables_number   1
_chemical_formula_structural   CuNi2C
_chemical_formula_sum   'Cu2 Ni4 C2'
_cell_volume   116.73468470
_cell_formula_units_Z   2
loop_
 _symmetry_equiv_pos_site_id
 _symmetry_equiv_pos_as_xyz
  1  'x, y, z'
loop_
 _atom_site_type_symbol
 _atom_site_label
 _atom_site_symmetry_multiplicity
 _atom_site_fract_x
 _atom_site_fract_y
 _atom_site_fract_z
 _atom_site_occupancy
  C  C0  1  0.00000000  0.00000000  0.00000000  1
  Ni  Ni1  1  0.37636200  0.37636200  0.37636200  1
  Ni  Ni2  1  0.87391800  0.87391800  0.87391800  1
  Ni  Ni3  1  0.62363800  0.62363800  0.62363800  1
  Ni  Ni4  1  0.12608200  0.12608200  0.12608200  1
  C  C5  1  0.50000000  0.50000000  0.50000000  1
  Cu  Cu6  1  0.75044200  0.75044200  0.75044200  1
  Cu  Cu7  1  0.24955800  0.24955800  0.24955800  1
