# generated using pymatgen
data_Cu4NiC25
_symmetry_space_group_name_H-M   'P 1'
_cell_length_a   14.16403423
_cell_length_b   14.54752679
_cell_length_c   18.67919364
_cell_angle_alpha   90.00000000
_cell_angle_beta   90.00000000
_cell_angle_gamma   90.00000000
_symmetry_Int_Tables_number   1
_chemical_formula_structural   Cu4NiC25
_chemical_formula_sum   'Cu32 Ni8 C200'
_cell_volume   3848.87899550
_cell_formula_units_Z   8
loop_
 _symmetry_equiv_pos_site_id
 _symmetry_equiv_pos_as_xyz
  1  'x, y, z'
loop_
 _atom_site_type_symbol
 _atom_site_label
 _atom_site_symmetry_multiplicity
 _atom_site_fract_x
 _atom_site_fract_y
 _atom_site_fract_z
 _atom_site_occupancy
  C  C0  1  0.38430847  0.48139453  0.12183516  1
  C  C1  1  0.88430847  0.01860547  0.87816484  1
  C  C2  1  0.61569153  0.98139453  0.37816484  1
  C  C3  1  0.11569153  0.51860547  0.62183516  1
  C  C4  1  0.61569153  0.51860547  0.87816484  1
  C  C5  1  0.11569153  0.98139453  0.12183516  1
  C  C6  1  0.38430847  0.01860547  0.62183516  1
  C  C7  1  0.88430847  0.48139453  0.37816484  1
  C  C8  1  0.09890341  0.52311391  0.13019253  1
  C  C9  1  0.59890341  0.97688609  0.86980747  1
  C  C10  1  0.90109659  0.02311391  0.36980747  1
  C  C11  1  0.40109659  0.47688609  0.63019253  1
  C  C12  1  0.90109659  0.47688609  0.86980747  1
  C  C13  1  0.40109659  0.02311391  0.13019253  1
  C  C14  1  0.09890341  0.97688609  0.63019253  1
  C  C15  1  0.59890341  0.52311391  0.36980747  1
  Ni  Ni16  1  0.24690339  0.20905080  0.87440030  1
  Ni  Ni17  1  0.74690339  0.29094920  0.12559970  1
  Ni  Ni18  1  0.75309661  0.70905080  0.62559970  1
  Ni  Ni19  1  0.25309661  0.79094920  0.37440030  1
  Ni  Ni20  1  0.75309661  0.79094920  0.12559970  1
  Ni  Ni21  1  0.25309661  0.70905080  0.87440030  1
  Ni  Ni22  1  0.24690339  0.29094920  0.37440030  1
  Ni  Ni23  1  0.74690339  0.20905080  0.62559970  1
  C  C24  1  0.17466449  0.06369184  0.88107229  1
  C  C25  1  0.67466449  0.43630816  0.11892771  1
  C  C26  1  0.82533551  0.56369184  0.61892771  1
  C  C27  1  0.32533551  0.93630816  0.38107229  1
  C  C28  1  0.82533551  0.93630816  0.11892771  1
  C  C29  1  0.32533551  0.56369184  0.88107229  1
  C  C30  1  0.17466449  0.43630816  0.38107229  1
  C  C31  1  0.67466449  0.06369184  0.61892771  1
  C  C32  1  0.28077934  0.06337780  0.82622810  1
  C  C33  1  0.78077934  0.43662220  0.17377190  1
  C  C34  1  0.71922066  0.56337780  0.67377190  1
  C  C35  1  0.21922066  0.93662220  0.32622810  1
  C  C36  1  0.71922066  0.93662220  0.17377190  1
  C  C37  1  0.21922066  0.56337780  0.82622810  1
  C  C38  1  0.28077934  0.43662220  0.32622810  1
  C  C39  1  0.78077934  0.06337780  0.67377190  1
  C  C40  1  0.29120006  0.06612731  0.92270826  1
  C  C41  1  0.79120006  0.43387269  0.07729174  1
  C  C42  1  0.70879994  0.56612731  0.57729174  1
  C  C43  1  0.20879994  0.93387269  0.42270826  1
  C  C44  1  0.70879994  0.93387269  0.07729174  1
  C  C45  1  0.20879994  0.56612731  0.92270826  1
  C  C46  1  0.29120006  0.43387269  0.42270826  1
  C  C47  1  0.79120006  0.06612731  0.57729174  1
  Cu  Cu48  1  0.18471703  0.26067796  0.95532534  1
  Cu  Cu49  1  0.68471703  0.23932204  0.04467466  1
  Cu  Cu50  1  0.81528297  0.76067796  0.54467466  1
  Cu  Cu51  1  0.31528297  0.73932204  0.45532534  1
  Cu  Cu52  1  0.81528297  0.73932204  0.04467466  1
  Cu  Cu53  1  0.31528297  0.76067796  0.95532534  1
  Cu  Cu54  1  0.18471703  0.23932204  0.45532534  1
  Cu  Cu55  1  0.68471703  0.26067796  0.54467466  1
  Cu  Cu56  1  0.37097032  0.25942808  0.87449770  1
  Cu  Cu57  1  0.87097032  0.24057192  0.12550230  1
  Cu  Cu58  1  0.62902968  0.75942808  0.62550230  1
  Cu  Cu59  1  0.12902968  0.74057192  0.37449770  1
  Cu  Cu60  1  0.62902968  0.74057192  0.12550230  1
  Cu  Cu61  1  0.12902968  0.75942808  0.87449770  1
  Cu  Cu62  1  0.37097032  0.24057192  0.37449770  1
  Cu  Cu63  1  0.87097032  0.25942808  0.62550230  1
  Cu  Cu64  1  0.18610917  0.25732440  0.79159599  1
  Cu  Cu65  1  0.68610917  0.24267560  0.20840401  1
  Cu  Cu66  1  0.81389083  0.75732440  0.70840401  1
  Cu  Cu67  1  0.31389083  0.74267560  0.29159599  1
  Cu  Cu68  1  0.81389083  0.74267560  0.20840401  1
  Cu  Cu69  1  0.31389083  0.75732440  0.79159599  1
  Cu  Cu70  1  0.18610917  0.24267560  0.29159599  1
  Cu  Cu71  1  0.68610917  0.25732440  0.70840401  1
  Cu  Cu72  1  0.24826096  0.08729227  0.87634018  1
  Cu  Cu73  1  0.74826096  0.41270773  0.12365982  1
  Cu  Cu74  1  0.75173904  0.58729227  0.62365982  1
  Cu  Cu75  1  0.25173904  0.91270773  0.37634018  1
  Cu  Cu76  1  0.75173904  0.91270773  0.12365982  1
  Cu  Cu77  1  0.25173904  0.58729227  0.87634018  1
  Cu  Cu78  1  0.24826096  0.41270773  0.37634018  1
  Cu  Cu79  1  0.74826096  0.08729227  0.62365982  1
  C  C80  1  0.51309951  0.44387869  0.11815332  1
  C  C81  1  0.01309951  0.05612131  0.88184668  1
  C  C82  1  0.48690049  0.94387869  0.38184668  1
  C  C83  1  0.98690049  0.55612131  0.61815332  1
  C  C84  1  0.48690049  0.55612131  0.88184668  1
  C  C85  1  0.98690049  0.94387869  0.11815332  1
  C  C86  1  0.51309951  0.05612131  0.61815332  1
  C  C87  1  0.01309951  0.44387869  0.38184668  1
  C  C88  1  0.33741029  0.36446879  0.09441599  1
  C  C89  1  0.83741029  0.13553121  0.90558401  1
  C  C90  1  0.66258971  0.86446879  0.40558401  1
  C  C91  1  0.16258971  0.63553121  0.59441599  1
  C  C92  1  0.66258971  0.63553121  0.90558401  1
  C  C93  1  0.16258971  0.86446879  0.09441599  1
  C  C94  1  0.33741029  0.13553121  0.59441599  1
  C  C95  1  0.83741029  0.36446879  0.40558401  1
  C  C96  1  0.37788986  0.52021402  0.02457397  1
  C  C97  1  0.87788986  0.97978598  0.97542603  1
  C  C98  1  0.62211014  0.02021402  0.47542603  1
  C  C99  1  0.12211014  0.47978598  0.52457397  1
  C  C100  1  0.62211014  0.47978598  0.97542603  1
  C  C101  1  0.12211014  0.02021402  0.02457397  1
  C  C102  1  0.37788986  0.97978598  0.52457397  1
  C  C103  1  0.87788986  0.52021402  0.47542603  1
  C  C104  1  0.41346106  0.60405114  0.14899563  1
  C  C105  1  0.91346106  0.89594886  0.85100437  1
  C  C106  1  0.58653894  0.10405114  0.35100437  1
  C  C107  1  0.08653894  0.39594886  0.64899563  1
  C  C108  1  0.58653894  0.39594886  0.85100437  1
  C  C109  1  0.08653894  0.10405114  0.14899563  1
  C  C110  1  0.41346106  0.89594886  0.64899563  1
  C  C111  1  0.91346106  0.60405114  0.35100437  1
  C  C112  1  0.36797679  0.44926932  0.22002840  1
  C  C113  1  0.86797679  0.05073068  0.77997160  1
  C  C114  1  0.63202321  0.94926932  0.27997160  1
  C  C115  1  0.13202321  0.55073068  0.72002840  1
  C  C116  1  0.63202321  0.55073068  0.77997160  1
  C  C117  1  0.13202321  0.94926932  0.22002840  1
  C  C118  1  0.36797679  0.05073068  0.72002840  1
  C  C119  1  0.86797679  0.44926932  0.27997160  1
  C  C120  1  0.24532923  0.52452695  0.12749819  1
  C  C121  1  0.74532923  0.97547305  0.87250181  1
  C  C122  1  0.75467077  0.02452695  0.37250181  1
  C  C123  1  0.25467077  0.47547305  0.62749819  1
  C  C124  1  0.75467077  0.47547305  0.87250181  1
  C  C125  1  0.25467077  0.02452695  0.12749819  1
  C  C126  1  0.24532923  0.97547305  0.62749819  1
  C  C127  1  0.74532923  0.52452695  0.37250181  1
  C  C128  1  0.96452741  0.52379573  0.13147050  1
  C  C129  1  0.46452741  0.97620427  0.86852950  1
  C  C130  1  0.03547259  0.02379573  0.36852950  1
  C  C131  1  0.53547259  0.47620427  0.63147050  1
  C  C132  1  0.03547259  0.47620427  0.86852950  1
  C  C133  1  0.53547259  0.02379573  0.13147050  1
  C  C134  1  0.96452741  0.97620427  0.63147050  1
  C  C135  1  0.46452741  0.52379573  0.36852950  1
  C  C136  1  0.11417107  0.48995717  0.22811502  1
  C  C137  1  0.61417107  0.01004283  0.77188498  1
  C  C138  1  0.88582893  0.98995717  0.27188498  1
  C  C139  1  0.38582893  0.51004283  0.72811502  1
  C  C140  1  0.88582893  0.51004283  0.77188498  1
  C  C141  1  0.38582893  0.98995717  0.22811502  1
  C  C142  1  0.11417107  0.01004283  0.72811502  1
  C  C143  1  0.61417107  0.48995717  0.27188498  1
  C  C144  1  0.10666717  0.39685133  0.10466325  1
  C  C145  1  0.60666717  0.10314867  0.89533675  1
  C  C146  1  0.89333283  0.89685133  0.39533675  1
  C  C147  1  0.39333283  0.60314867  0.60466325  1
  C  C148  1  0.89333283  0.60314867  0.89533675  1
  C  C149  1  0.39333283  0.89685133  0.10466325  1
  C  C150  1  0.10666717  0.10314867  0.60466325  1
  C  C151  1  0.60666717  0.39685133  0.39533675  1
  C  C152  1  0.10938697  0.55648419  0.03170987  1
  C  C153  1  0.60938697  0.94351581  0.96829013  1
  C  C154  1  0.89061303  0.05648419  0.46829013  1
  C  C155  1  0.39061303  0.44351581  0.53170987  1
  C  C156  1  0.89061303  0.44351581  0.96829013  1
  C  C157  1  0.39061303  0.05648419  0.03170987  1
  C  C158  1  0.10938697  0.94351581  0.53170987  1
  C  C159  1  0.60938697  0.55648419  0.46829013  1
  C  C160  1  0.10919511  0.64891639  0.15603163  1
  C  C161  1  0.60919511  0.85108361  0.84396837  1
  C  C162  1  0.89080489  0.14891639  0.34396837  1
  C  C163  1  0.39080489  0.35108361  0.65603163  1
  C  C164  1  0.89080489  0.35108361  0.84396837  1
  C  C165  1  0.39080489  0.14891639  0.15603163  1
  C  C166  1  0.10919511  0.85108361  0.65603163  1
  C  C167  1  0.60919511  0.64891639  0.34396837  1
  C  C168  1  0.09193485  0.24309868  0.95042885  1
  C  C169  1  0.59193485  0.25690132  0.04957115  1
  C  C170  1  0.90806515  0.74309868  0.54957115  1
  C  C171  1  0.40806515  0.75690132  0.45042885  1
  C  C172  1  0.90806515  0.75690132  0.04957115  1
  C  C173  1  0.40806515  0.74309868  0.95042885  1
  C  C174  1  0.09193485  0.25690132  0.45042885  1
  C  C175  1  0.59193485  0.24309868  0.54957115  1
  C  C176  1  0.22053953  0.22194229  0.01454704  1
  C  C177  1  0.72053953  0.27805771  0.98545296  1
  C  C178  1  0.77946047  0.72194229  0.48545296  1
  C  C179  1  0.27946047  0.77805771  0.51454704  1
  C  C180  1  0.77946047  0.77805771  0.98545296  1
  C  C181  1  0.27946047  0.72194229  0.01454704  1
  C  C182  1  0.22053953  0.27805771  0.51454704  1
  C  C183  1  0.72053953  0.22194229  0.48545296  1
  C  C184  1  0.19963472  0.35203990  0.95608252  1
  C  C185  1  0.69963472  0.14796010  0.04391748  1
  C  C186  1  0.80036528  0.85203990  0.54391748  1
  C  C187  1  0.30036528  0.64796010  0.45608252  1
  C  C188  1  0.80036528  0.64796010  0.04391748  1
  C  C189  1  0.30036528  0.85203990  0.95608252  1
  C  C190  1  0.19963472  0.14796010  0.45608252  1
  C  C191  1  0.69963472  0.35203990  0.54391748  1
  C  C192  1  0.41251739  0.23697801  0.93679587  1
  C  C193  1  0.91251739  0.26302199  0.06320413  1
  C  C194  1  0.58748261  0.73697801  0.56320413  1
  C  C195  1  0.08748261  0.76302199  0.43679587  1
  C  C196  1  0.58748261  0.76302199  0.06320413  1
  C  C197  1  0.08748261  0.73697801  0.93679587  1
  C  C198  1  0.41251739  0.26302199  0.43679587  1
  C  C199  1  0.91251739  0.23697801  0.56320413  1
  C  C200  1  0.36636605  0.35122278  0.86787599  1
  C  C201  1  0.86636605  0.14877722  0.13212401  1
  C  C202  1  0.63363395  0.85122278  0.63212401  1
  C  C203  1  0.13363395  0.64877722  0.36787599  1
  C  C204  1  0.63363395  0.64877722  0.13212401  1
  C  C205  1  0.13363395  0.85122278  0.86787599  1
  C  C206  1  0.36636605  0.14877722  0.36787599  1
  C  C207  1  0.86636605  0.35122278  0.63212401  1
  C  C208  1  0.41902322  0.22319823  0.81945587  1
  C  C209  1  0.91902322  0.27680177  0.18054413  1
  C  C210  1  0.58097678  0.72319823  0.68054413  1
  C  C211  1  0.08097678  0.77680177  0.31945587  1
  C  C212  1  0.58097678  0.77680177  0.18054413  1
  C  C213  1  0.08097678  0.72319823  0.81945587  1
  C  C214  1  0.41902322  0.27680177  0.31945587  1
  C  C215  1  0.91902322  0.22319823  0.68054413  1
  C  C216  1  0.19192310  0.34957881  0.79295488  1
  C  C217  1  0.69192310  0.15042119  0.20704512  1
  C  C218  1  0.80807690  0.84957881  0.70704512  1
  C  C219  1  0.30807690  0.65042119  0.29295488  1
  C  C220  1  0.80807690  0.65042119  0.20704512  1
  C  C221  1  0.30807690  0.84957881  0.79295488  1
  C  C222  1  0.19192310  0.15042119  0.29295488  1
  C  C223  1  0.69192310  0.34957881  0.70704512  1
  C  C224  1  0.23014086  0.22430647  0.73342739  1
  C  C225  1  0.73014086  0.27569353  0.26657261  1
  C  C226  1  0.76985914  0.72430647  0.76657261  1
  C  C227  1  0.26985914  0.77569353  0.23342739  1
  C  C228  1  0.76985914  0.77569353  0.26657261  1
  C  C229  1  0.26985914  0.72430647  0.73342739  1
  C  C230  1  0.23014086  0.27569353  0.23342739  1
  C  C231  1  0.73014086  0.22430647  0.76657261  1
  C  C232  1  0.09538529  0.23091130  0.79208288  1
  C  C233  1  0.59538529  0.26908870  0.20791712  1
  C  C234  1  0.90461471  0.73091130  0.70791712  1
  C  C235  1  0.40461471  0.76908870  0.29208288  1
  C  C236  1  0.90461471  0.76908870  0.20791712  1
  C  C237  1  0.40461471  0.73091130  0.79208288  1
  C  C238  1  0.09538529  0.26908870  0.29208288  1
  C  C239  1  0.59538529  0.23091130  0.70791712  1
