# generated using pymatgen
data_Cu2(NiC2)3
_symmetry_space_group_name_H-M   'P 1'
_cell_length_a   11.45565677
_cell_length_b   11.45565677
_cell_length_c   11.45565677
_cell_angle_alpha   157.20459857
_cell_angle_beta   157.20459857
_cell_angle_gamma   32.45763477
_symmetry_Int_Tables_number   1
_chemical_formula_structural   Cu2(NiC2)3
_chemical_formula_sum   'Cu2 Ni3 C6'
_cell_volume   225.48285791
_cell_formula_units_Z   1
loop_
 _symmetry_equiv_pos_site_id
 _symmetry_equiv_pos_as_xyz
  1  'x, y, z'
loop_
 _atom_site_type_symbol
 _atom_site_label
 _atom_site_symmetry_multiplicity
 _atom_site_fract_x
 _atom_site_fract_y
 _atom_site_fract_z
 _atom_site_occupancy
  Ni  Ni0  1  0.68422400  0.68422400  0.00000000  1
  Ni  Ni1  1  0.50000000  0.50000000  0.00000000  1
  Ni  Ni2  1  0.31577600  0.31577600  0.00000000  1
  Cu  Cu3  1  0.90047300  0.90047300  0.00000000  1
  Cu  Cu4  1  0.09952700  0.09952700  0.00000000  1
  C  C5  1  0.08683200  0.58683200  0.50000000  1
  C  C6  1  0.41316800  0.91316800  0.50000000  1
  C  C7  1  0.79946200  0.79946200  0.00000000  1
  C  C8  1  0.20053800  0.20053800  0.00000000  1
  C  C9  1  0.58683200  0.08683200  0.50000000  1
  C  C10  1  0.91316800  0.41316800  0.50000000  1
