# generated using pymatgen
data_Cu2NiC4
_symmetry_space_group_name_H-M   'P 1'
_cell_length_a   7.36094076
_cell_length_b   7.36094076
_cell_length_c   7.36094076
_cell_angle_alpha   121.38120603
_cell_angle_beta   119.03815173
_cell_angle_gamma   89.64926034
_symmetry_Int_Tables_number   1
_chemical_formula_structural   Cu2NiC4
_chemical_formula_sum   'Cu4 Ni2 C8'
_cell_volume   280.97571695
_cell_formula_units_Z   2
loop_
 _symmetry_equiv_pos_site_id
 _symmetry_equiv_pos_as_xyz
  1  'x, y, z'
loop_
 _atom_site_type_symbol
 _atom_site_label
 _atom_site_symmetry_multiplicity
 _atom_site_fract_x
 _atom_site_fract_y
 _atom_site_fract_z
 _atom_site_occupancy
  Ni  Ni0  1  0.00000000  0.50000000  0.50000000  1
  Ni  Ni1  1  0.50000000  0.50000000  0.00000000  1
  Cu  Cu2  1  0.37315600  0.12315600  0.25000000  1
  Cu  Cu3  1  0.62684400  0.87684400  0.75000000  1
  Cu  Cu4  1  0.00000000  0.50000000  0.00000000  1
  Cu  Cu5  1  0.00000000  0.00000000  0.50000000  1
  C  C6  1  0.76513700  0.75065300  0.01448400  1
  C  C7  1  0.23617000  0.75065300  0.48551600  1
  C  C8  1  0.76065400  0.75469800  0.49404300  1
  C  C9  1  0.23486300  0.24934700  0.98551600  1
  C  C10  1  0.23934600  0.73338900  0.99404300  1
  C  C11  1  0.76383000  0.24934700  0.51448400  1
  C  C12  1  0.76065400  0.26661100  0.00595700  1
  C  C13  1  0.23934600  0.24530200  0.50595700  1
