# generated using pymatgen
data_Cu3NiC7
_symmetry_space_group_name_H-M   'P 1'
_cell_length_a   5.27804700
_cell_length_b   10.09439200
_cell_length_c   10.27090400
_cell_angle_alpha   90.00000000
_cell_angle_beta   90.00000000
_cell_angle_gamma   90.00000000
_symmetry_Int_Tables_number   1
_chemical_formula_structural   Cu3NiC7
_chemical_formula_sum   'Cu12 Ni4 C28'
_cell_volume   547.22016041
_cell_formula_units_Z   4
loop_
 _symmetry_equiv_pos_site_id
 _symmetry_equiv_pos_as_xyz
  1  'x, y, z'
loop_
 _atom_site_type_symbol
 _atom_site_label
 _atom_site_symmetry_multiplicity
 _atom_site_fract_x
 _atom_site_fract_y
 _atom_site_fract_z
 _atom_site_occupancy
  Ni  Ni0  1  0.64345500  0.75000000  0.08011500  1
  Ni  Ni1  1  0.14345500  0.25000000  0.41988500  1
  Ni  Ni2  1  0.35654500  0.25000000  0.91988500  1
  Ni  Ni3  1  0.85654500  0.75000000  0.58011500  1
  Cu  Cu4  1  0.29400700  0.02503100  0.69505100  1
  Cu  Cu5  1  0.79400700  0.97496900  0.80494900  1
  Cu  Cu6  1  0.70599300  0.52503100  0.30494900  1
  Cu  Cu7  1  0.20599300  0.47496900  0.19505100  1
  Cu  Cu8  1  0.30991900  0.75000000  0.75663700  1
  Cu  Cu9  1  0.80991900  0.25000000  0.74336300  1
  Cu  Cu10  1  0.69008100  0.25000000  0.24336300  1
  Cu  Cu11  1  0.19008100  0.75000000  0.25663700  1
  Cu  Cu12  1  0.79400700  0.52503100  0.80494900  1
  Cu  Cu13  1  0.29400700  0.47496900  0.69505100  1
  Cu  Cu14  1  0.20599300  0.02503100  0.19505100  1
  Cu  Cu15  1  0.70599300  0.97496900  0.30494900  1
  C  C16  1  0.94365300  0.12327000  0.28695400  1
  C  C17  1  0.44365300  0.87673000  0.21304600  1
  C  C18  1  0.05634700  0.62327000  0.71304600  1
  C  C19  1  0.55634700  0.37673000  0.78695400  1
  C  C20  1  0.05634700  0.87673000  0.71304600  1
  C  C21  1  0.55634700  0.12327000  0.78695400  1
  C  C22  1  0.94365300  0.37673000  0.28695400  1
  C  C23  1  0.44365300  0.62327000  0.21304600  1
  C  C24  1  0.45869900  0.12024200  0.29407100  1
  C  C25  1  0.95869900  0.87975800  0.20592900  1
  C  C26  1  0.54130100  0.62024200  0.70592900  1
  C  C27  1  0.04130100  0.37975800  0.79407100  1
  C  C28  1  0.54130100  0.87975800  0.70592900  1
  C  C29  1  0.04130100  0.12024200  0.79407100  1
  C  C30  1  0.45869900  0.37975800  0.29407100  1
  C  C31  1  0.95869900  0.62024200  0.20592900  1
  C  C32  1  0.14421400  0.75000000  0.44096900  1
  C  C33  1  0.64421400  0.25000000  0.05903100  1
  C  C34  1  0.85578600  0.25000000  0.55903100  1
  C  C35  1  0.35578600  0.75000000  0.94096900  1
  C  C36  1  0.25052600  0.39950000  0.03487000  1
  C  C37  1  0.75052600  0.60050000  0.46513000  1
  C  C38  1  0.74947400  0.89950000  0.96513000  1
  C  C39  1  0.24947400  0.10050000  0.53487000  1
  C  C40  1  0.74947400  0.60050000  0.96513000  1
  C  C41  1  0.24947400  0.39950000  0.53487000  1
  C  C42  1  0.25052600  0.10050000  0.03487000  1
  C  C43  1  0.75052600  0.89950000  0.46513000  1
