# generated using pymatgen
data_Cu4Ni2C3
_symmetry_space_group_name_H-M   'P 1'
_cell_length_a   3.40124065
_cell_length_b   3.40124065
_cell_length_c   31.41433500
_cell_angle_alpha   90.00000000
_cell_angle_beta   90.00000000
_cell_angle_gamma   120.00001273
_symmetry_Int_Tables_number   1
_chemical_formula_structural   Cu4Ni2C3
_chemical_formula_sum   'Cu4 Ni2 C3'
_cell_volume   314.72639678
_cell_formula_units_Z   1
loop_
 _symmetry_equiv_pos_site_id
 _symmetry_equiv_pos_as_xyz
  1  'x, y, z'
loop_
 _atom_site_type_symbol
 _atom_site_label
 _atom_site_symmetry_multiplicity
 _atom_site_fract_x
 _atom_site_fract_y
 _atom_site_fract_z
 _atom_site_occupancy
  Ni  Ni0  1  0.33333300  0.66666700  0.51863900  1
  Ni  Ni1  1  0.33333300  0.66666700  0.63798000  1
  C  C2  1  0.00000000  0.00000000  0.11564900  1
  C  C3  1  0.00000000  0.00000000  0.57832800  1
  C  C4  1  0.33333300  0.66666700  0.34697000  1
  Cu  Cu5  1  0.00000000  0.00000000  0.39948900  1
  Cu  Cu6  1  0.33333300  0.66666700  0.06314800  1
  Cu  Cu7  1  0.33333300  0.66666700  0.16816300  1
  Cu  Cu8  1  0.00000000  0.00000000  0.29447400  1
