# generated using pymatgen
data_Cu7Ni4C
_symmetry_space_group_name_H-M   'P 1'
_cell_length_a   11.10518671
_cell_length_b   11.10518671
_cell_length_c   19.81229541
_cell_angle_alpha   64.69126842
_cell_angle_beta   64.69126842
_cell_angle_gamma   23.13885558
_symmetry_Int_Tables_number   1
_chemical_formula_structural   Cu7Ni4C
_chemical_formula_sum   'Cu14 Ni8 C2'
_cell_volume   863.90896300
_cell_formula_units_Z   2
loop_
 _symmetry_equiv_pos_site_id
 _symmetry_equiv_pos_as_xyz
  1  'x, y, z'
loop_
 _atom_site_type_symbol
 _atom_site_label
 _atom_site_symmetry_multiplicity
 _atom_site_fract_x
 _atom_site_fract_y
 _atom_site_fract_z
 _atom_site_occupancy
  C  C0  1  0.46080300  0.46080300  0.79368500  1
  C  C1  1  0.53919700  0.53919700  0.20631500  1
  Ni  Ni2  1  0.63493500  0.63493500  0.42884100  1
  Ni  Ni3  1  0.36506500  0.36506500  0.57115900  1
  Ni  Ni4  1  0.71225200  0.71225200  0.75387500  1
  Ni  Ni5  1  0.28774800  0.28774800  0.24612500  1
  Ni  Ni6  1  0.16119900  0.16119900  0.59964000  1
  Ni  Ni7  1  0.83880100  0.83880100  0.40036000  1
  Ni  Ni8  1  0.23537600  0.23537600  0.92052500  1
  Ni  Ni9  1  0.76462400  0.76462400  0.07947500  1
  Cu  Cu10  1  0.11787500  0.11787500  0.75482400  1
  Cu  Cu11  1  0.88212500  0.88212500  0.24517700  1
  Cu  Cu12  1  0.65302800  0.65302800  0.90947500  1
  Cu  Cu13  1  0.34697200  0.34697200  0.09052500  1
  Cu  Cu14  1  0.77220800  0.77220800  0.57690400  1
  Cu  Cu15  1  0.22779200  0.22779200  0.42309600  1
  Cu  Cu16  1  0.58100200  0.58100200  0.59609600  1
  Cu  Cu17  1  0.41899800  0.41899800  0.40390400  1
  Cu  Cu18  1  0.83067400  0.83067400  0.92511500  1
  Cu  Cu19  1  0.16932600  0.16932600  0.07488500  1
  Cu  Cu20  1  0.31120400  0.31120400  0.73422500  1
  Cu  Cu21  1  0.68879600  0.68879600  0.26577500  1
  Cu  Cu22  1  0.03924400  0.03924400  0.43562200  1
  Cu  Cu23  1  0.96075600  0.96075600  0.56437800  1
