# generated using pymatgen
data_Cu4NiC2
_symmetry_space_group_name_H-M   'P 1'
_cell_length_a   9.60155651
_cell_length_b   9.60155651
_cell_length_c   6.99989500
_cell_angle_alpha   90.00000000
_cell_angle_beta   90.00000000
_cell_angle_gamma   120.00000351
_symmetry_Int_Tables_number   1
_chemical_formula_structural   Cu4NiC2
_chemical_formula_sum   'Cu24 Ni6 C12'
_cell_volume   558.86308840
_cell_formula_units_Z   6
loop_
 _symmetry_equiv_pos_site_id
 _symmetry_equiv_pos_as_xyz
  1  'x, y, z'
loop_
 _atom_site_type_symbol
 _atom_site_label
 _atom_site_symmetry_multiplicity
 _atom_site_fract_x
 _atom_site_fract_y
 _atom_site_fract_z
 _atom_site_occupancy
  C  C0  1  0.25811800  0.23889400  0.25000000  1
  C  C1  1  0.74188200  0.76110600  0.75000000  1
  C  C2  1  0.76110600  0.01922400  0.25000000  1
  C  C3  1  0.23889400  0.98077600  0.75000000  1
  C  C4  1  0.98077600  0.74188200  0.25000000  1
  C  C5  1  0.01922400  0.25811800  0.75000000  1
  C  C6  1  0.33333300  0.66666700  0.99368900  1
  C  C7  1  0.66666700  0.33333300  0.00631100  1
  C  C8  1  0.66666700  0.33333300  0.49368900  1
  C  C9  1  0.33333300  0.66666700  0.50631100  1
  Ni  Ni10  1  0.38962300  0.99444000  0.25000000  1
  Ni  Ni11  1  0.61037700  0.00556000  0.75000000  1
  Ni  Ni12  1  0.00556000  0.39518300  0.25000000  1
  Ni  Ni13  1  0.99444000  0.60481700  0.75000000  1
  Ni  Ni14  1  0.60481700  0.61037700  0.25000000  1
  Ni  Ni15  1  0.39518300  0.38962300  0.75000000  1
  Cu  Cu16  1  0.59948500  0.13908600  0.25000000  1
  Cu  Cu17  1  0.40051500  0.86091400  0.75000000  1
  Cu  Cu18  1  0.86091400  0.46039900  0.25000000  1
  Cu  Cu19  1  0.13908600  0.53960100  0.75000000  1
  Cu  Cu20  1  0.53960100  0.40051500  0.25000000  1
  Cu  Cu21  1  0.46039900  0.59948500  0.75000000  1
  Cu  Cu22  1  0.19863800  0.45779500  0.25000000  1
  Cu  Cu23  1  0.80136200  0.54220500  0.75000000  1
  Cu  Cu24  1  0.54220500  0.74084300  0.25000000  1
  Cu  Cu25  1  0.45779500  0.25915700  0.75000000  1
  Cu  Cu26  1  0.25915700  0.80136200  0.25000000  1
  Cu  Cu27  1  0.74084300  0.19863800  0.75000000  1
  Cu  Cu28  1  0.33671500  0.05644900  0.07796200  1
  Cu  Cu29  1  0.66328500  0.94355100  0.92203800  1
  Cu  Cu30  1  0.94355100  0.28026600  0.07796200  1
  Cu  Cu31  1  0.66328500  0.94355100  0.57796200  1
  Cu  Cu32  1  0.05644900  0.71973400  0.92203800  1
  Cu  Cu33  1  0.33671500  0.05644900  0.42203800  1
  Cu  Cu34  1  0.71973400  0.66328500  0.07796200  1
  Cu  Cu35  1  0.05644900  0.71973400  0.57796200  1
  Cu  Cu36  1  0.28026600  0.33671500  0.92203800  1
  Cu  Cu37  1  0.94355100  0.28026600  0.42203800  1
  Cu  Cu38  1  0.28026600  0.33671500  0.57796200  1
  Cu  Cu39  1  0.71973400  0.66328500  0.42203800  1
  C  C40  1  0.00000000  0.00000000  0.25000000  1
  C  C41  1  0.00000000  0.00000000  0.75000000  1
