# generated using pymatgen
data_CuNiC9
_symmetry_space_group_name_H-M   'P 1'
_cell_length_a   8.23229200
_cell_length_b   7.84374200
_cell_length_c   10.82201796
_cell_angle_alpha   58.50699058
_cell_angle_beta   90.00000000
_cell_angle_gamma   90.00000000
_symmetry_Int_Tables_number   1
_chemical_formula_structural   CuNiC9
_chemical_formula_sum   'Cu4 Ni4 C36'
_cell_volume   595.86869568
_cell_formula_units_Z   4
loop_
 _symmetry_equiv_pos_site_id
 _symmetry_equiv_pos_as_xyz
  1  'x, y, z'
loop_
 _atom_site_type_symbol
 _atom_site_label
 _atom_site_symmetry_multiplicity
 _atom_site_fract_x
 _atom_site_fract_y
 _atom_site_fract_z
 _atom_site_occupancy
  Ni  Ni0  1  0.08104600  0.72328700  0.87826300  1
  Ni  Ni1  1  0.58104600  0.27671300  0.62173700  1
  Ni  Ni2  1  0.91895400  0.27671300  0.12173700  1
  Ni  Ni3  1  0.41895400  0.72328700  0.37826300  1
  Cu  Cu4  1  0.95163900  0.18134100  0.70299000  1
  Cu  Cu5  1  0.45163900  0.81865900  0.79701000  1
  Cu  Cu6  1  0.04836100  0.81865900  0.29701000  1
  Cu  Cu7  1  0.54836100  0.18134100  0.20299000  1
  C  C8  1  0.78065900  0.54355600  0.76465500  1
  C  C9  1  0.28065900  0.45644400  0.73534500  1
  C  C10  1  0.21934100  0.45644400  0.23534500  1
  C  C11  1  0.71934100  0.54355600  0.26465500  1
  C  C12  1  0.72216200  0.96830400  0.96557200  1
  C  C13  1  0.22216200  0.03169600  0.53442800  1
  C  C14  1  0.27783800  0.03169600  0.03442800  1
  C  C15  1  0.77783800  0.96830400  0.46557200  1
  C  C16  1  0.68720200  0.23474000  0.07425000  1
  C  C17  1  0.18720200  0.76526000  0.42575000  1
  C  C18  1  0.31279800  0.76526000  0.92575000  1
  C  C19  1  0.81279800  0.23474000  0.57425000  1
  C  C20  1  0.60203600  0.64514100  0.78022900  1
  C  C21  1  0.10203600  0.35485900  0.71977100  1
  C  C22  1  0.39796400  0.35485900  0.21977100  1
  C  C23  1  0.89796400  0.64514100  0.28022900  1
  C  C24  1  0.91859500  0.52104700  0.89016700  1
  C  C25  1  0.41859500  0.47895300  0.60983300  1
  C  C26  1  0.08140500  0.47895300  0.10983300  1
  C  C27  1  0.58140500  0.52104700  0.39016700  1
  C  C28  1  0.84593900  0.69928200  0.58574800  1
  C  C29  1  0.34593900  0.30071800  0.91425200  1
  C  C30  1  0.15406100  0.30071800  0.41425200  1
  C  C31  1  0.65406100  0.69928200  0.08574800  1
  C  C32  1  0.90994400  0.99959300  0.32169900  1
  C  C33  1  0.40994400  0.00040700  0.17830100  1
  C  C34  1  0.09005600  0.00040700  0.67830100  1
  C  C35  1  0.59005600  0.99959300  0.82169900  1
  C  C36  1  0.74671700  0.32412900  0.26773800  1
  C  C37  1  0.24671700  0.67587100  0.23226200  1
  C  C38  1  0.25328300  0.67587100  0.73226200  1
  C  C39  1  0.75328300  0.32412900  0.76773800  1
  C  C40  1  0.59053000  0.93549700  0.38532300  1
  C  C41  1  0.09053000  0.06450300  0.11467700  1
  C  C42  1  0.40947000  0.06450300  0.61467700  1
  C  C43  1  0.90947000  0.93549700  0.88532300  1
