# generated using pymatgen
data_CuNi3C2
_symmetry_space_group_name_H-M   'P 1'
_cell_length_a   3.45138467
_cell_length_b   3.45138467
_cell_length_c   39.39430500
_cell_angle_alpha   90.00000000
_cell_angle_beta   90.00000000
_cell_angle_gamma   120.00001291
_symmetry_Int_Tables_number   1
_chemical_formula_structural   CuNi3C2
_chemical_formula_sum   'Cu2 Ni6 C4'
_cell_volume   406.39724075
_cell_formula_units_Z   2
loop_
 _symmetry_equiv_pos_site_id
 _symmetry_equiv_pos_as_xyz
  1  'x, y, z'
loop_
 _atom_site_type_symbol
 _atom_site_label
 _atom_site_symmetry_multiplicity
 _atom_site_fract_x
 _atom_site_fract_y
 _atom_site_fract_z
 _atom_site_occupancy
  Ni  Ni0  1  0.00000000  0.00000000  0.32882100  1
  Ni  Ni1  1  0.33333300  0.66666700  0.04688700  1
  Ni  Ni2  1  0.33333300  0.66666700  0.42242500  1
  Ni  Ni3  1  0.33333300  0.66666700  0.14092500  1
  Ni  Ni4  1  0.33333300  0.66666700  0.51701300  1
  Ni  Ni5  1  0.00000000  0.00000000  0.23480900  1
  C  C6  1  0.00000000  0.00000000  0.09385500  1
  C  C7  1  0.33333300  0.66666700  0.28173800  1
  C  C8  1  0.00000000  0.00000000  0.46968300  1
  C  C9  1  0.33333300  0.66666700  0.65752200  1
  Cu  Cu10  1  0.00000000  0.00000000  0.69545700  1
  Cu  Cu11  1  0.00000000  0.00000000  0.61961500  1
