# generated using pymatgen
data_Cu6(Ni2C9)5
_symmetry_space_group_name_H-M   'P 1'
_cell_length_a   9.18786904
_cell_length_b   9.18786904
_cell_length_c   15.74197702
_cell_angle_alpha   77.25201795
_cell_angle_beta   77.25201795
_cell_angle_gamma   78.60497203
_symmetry_Int_Tables_number   1
_chemical_formula_structural   Cu6(Ni2C9)5
_chemical_formula_sum   'Cu12 Ni20 C90'
_cell_volume   1248.60554256
_cell_formula_units_Z   2
loop_
 _symmetry_equiv_pos_site_id
 _symmetry_equiv_pos_as_xyz
  1  'x, y, z'
loop_
 _atom_site_type_symbol
 _atom_site_label
 _atom_site_symmetry_multiplicity
 _atom_site_fract_x
 _atom_site_fract_y
 _atom_site_fract_z
 _atom_site_occupancy
  C  C0  1  0.03152300  0.32049900  0.83911000  1
  C  C1  1  0.67950100  0.96847700  0.66089000  1
  C  C2  1  0.96847700  0.67950100  0.16089000  1
  C  C3  1  0.32049900  0.03152300  0.33911000  1
  C  C4  1  0.11768300  0.04603000  0.00058400  1
  C  C5  1  0.95397000  0.88231700  0.49941600  1
  C  C6  1  0.88231700  0.95397000  0.99941600  1
  C  C7  1  0.04603000  0.11768300  0.50058400  1
  C  C8  1  0.00628300  0.17518700  0.04558800  1
  C  C9  1  0.82481300  0.99371700  0.45441200  1
  C  C10  1  0.99371700  0.82481300  0.95441200  1
  C  C11  1  0.17518700  0.00628300  0.54558800  1
  C  C12  1  0.82626000  0.27179700  0.16663700  1
  C  C13  1  0.72820300  0.17374000  0.33336300  1
  C  C14  1  0.17374000  0.72820300  0.83336300  1
  C  C15  1  0.27179700  0.82626000  0.66663700  1
  C  C16  1  0.86748500  0.09841000  0.16584600  1
  C  C17  1  0.90159000  0.13251500  0.33415400  1
  C  C18  1  0.13251500  0.90159000  0.83415400  1
  C  C19  1  0.09841000  0.86748500  0.66584600  1
  C  C20  1  0.65030300  0.45882900  0.25474400  1
  C  C21  1  0.54117100  0.34969700  0.24525600  1
  C  C22  1  0.34969700  0.54117100  0.74525600  1
  C  C23  1  0.45882900  0.65030300  0.75474400  1
  C  C24  1  0.28090500  0.22780000  0.00747600  1
  C  C25  1  0.77220000  0.71909500  0.49252400  1
  C  C26  1  0.71909500  0.77220000  0.99252400  1
  C  C27  1  0.22780000  0.28090500  0.50747600  1
  C  C28  1  0.35762200  0.13038300  0.09858200  1
  C  C29  1  0.86961700  0.64237800  0.40141800  1
  C  C30  1  0.64237800  0.86961700  0.90141800  1
  C  C31  1  0.13038300  0.35762200  0.59858200  1
  C  C32  1  0.59573700  0.40710600  0.89343400  1
  C  C33  1  0.59289400  0.40426300  0.60656600  1
  C  C34  1  0.40426300  0.59289400  0.10656600  1
  C  C35  1  0.40710600  0.59573700  0.39343400  1
  C  C36  1  0.40622300  0.39154500  0.89793600  1
  C  C37  1  0.60845500  0.59377700  0.60206400  1
  C  C38  1  0.59377700  0.60845500  0.10206400  1
  C  C39  1  0.39154500  0.40622300  0.39793600  1
  C  C40  1  0.59384100  0.18674000  0.11256700  1
  C  C41  1  0.81326000  0.40615900  0.38743300  1
  C  C42  1  0.40615900  0.81326000  0.88743300  1
  C  C43  1  0.18674000  0.59384100  0.61256700  1
  C  C44  1  0.69304900  0.30756200  0.02558800  1
  C  C45  1  0.69243800  0.30695100  0.47441200  1
  C  C46  1  0.30695100  0.69243800  0.97441200  1
  C  C47  1  0.30756200  0.69304900  0.52558800  1
  Ni  Ni48  1  0.92563500  0.65927600  0.72215900  1
  Ni  Ni49  1  0.34072400  0.07436500  0.77784100  1
  Ni  Ni50  1  0.07436500  0.34072400  0.27784100  1
  Ni  Ni51  1  0.65927600  0.92563500  0.22215900  1
  Ni  Ni52  1  0.77069900  0.60598200  0.76293300  1
  Ni  Ni53  1  0.39401800  0.22930100  0.73706700  1
  Ni  Ni54  1  0.22930100  0.39401800  0.23706700  1
  Ni  Ni55  1  0.60598200  0.77069900  0.26293300  1
  Ni  Ni56  1  0.08495000  0.50868600  0.98576000  1
  Ni  Ni57  1  0.49131400  0.91505000  0.51424000  1
  Ni  Ni58  1  0.91505000  0.49131400  0.01424000  1
  Ni  Ni59  1  0.50868600  0.08495000  0.48576000  1
  Ni  Ni60  1  0.82628500  0.09852900  0.79728200  1
  Ni  Ni61  1  0.90147100  0.17371500  0.70271800  1
  Ni  Ni62  1  0.17371500  0.90147100  0.20271800  1
  Ni  Ni63  1  0.09852900  0.82628500  0.29728200  1
  Ni  Ni64  1  0.49214700  0.27181600  0.00532000  1
  Ni  Ni65  1  0.72818400  0.50785300  0.49468000  1
  Ni  Ni66  1  0.50785300  0.72818400  0.99468000  1
  Ni  Ni67  1  0.27181600  0.49214700  0.50532000  1
  Cu  Cu68  1  0.36879800  0.20648500  0.04034400  1
  Cu  Cu69  1  0.79351500  0.63120200  0.45965600  1
  Cu  Cu70  1  0.63120200  0.79351500  0.95965600  1
  Cu  Cu71  1  0.20648500  0.36879800  0.54034400  1
  Cu  Cu72  1  0.49982700  0.36355000  0.92613100  1
  Cu  Cu73  1  0.63645000  0.50017300  0.57386900  1
  Cu  Cu74  1  0.50017300  0.63645000  0.07386900  1
  Cu  Cu75  1  0.36355000  0.49982700  0.42613100  1
  Cu  Cu76  1  0.60698300  0.24491500  0.04898500  1
  Cu  Cu77  1  0.75508500  0.39301800  0.45101500  1
  Cu  Cu78  1  0.39301800  0.75508500  0.95101500  1
  Cu  Cu79  1  0.24491500  0.60698300  0.54898500  1
  C  C80  1  0.04336300  0.56432000  0.73275200  1
  C  C81  1  0.43568000  0.95663700  0.76724800  1
  C  C82  1  0.95663700  0.43568000  0.26724800  1
  C  C83  1  0.56432000  0.04336300  0.23275200  1
  C  C84  1  0.92329200  0.79352100  0.67946200  1
  C  C85  1  0.20647900  0.07670800  0.82053800  1
  C  C86  1  0.07670800  0.20647900  0.32053800  1
  C  C87  1  0.79352100  0.92329200  0.17946200  1
  C  C88  1  0.65456100  0.69962600  0.74543700  1
  C  C89  1  0.30037400  0.34543900  0.75456300  1
  C  C90  1  0.34543900  0.30037400  0.25456300  1
  C  C91  1  0.69962600  0.65456100  0.24543700  1
  C  C92  1  0.77321900  0.47445100  0.80864200  1
  C  C93  1  0.52554900  0.22678100  0.69135800  1
  C  C94  1  0.22678100  0.52554900  0.19135800  1
  C  C95  1  0.47445100  0.77321900  0.30864200  1
  C  C96  1  0.13582700  0.57842600  0.03089000  1
  C  C97  1  0.42157400  0.86417300  0.46911000  1
  C  C98  1  0.86417300  0.42157400  0.96911000  1
  C  C99  1  0.57842600  0.13582700  0.53089000  1
  C  C100  1  0.15908900  0.45160500  0.91968800  1
  C  C101  1  0.54839500  0.84091100  0.58031200  1
  C  C102  1  0.84091100  0.54839500  0.08031200  1
  C  C103  1  0.45160500  0.15908900  0.41968800  1
  C  C104  1  0.86183800  0.13247900  0.86292500  1
  C  C105  1  0.86752100  0.13816200  0.63707500  1
  C  C106  1  0.13816200  0.86752100  0.13707500  1
  C  C107  1  0.13247900  0.86183800  0.36292500  1
  C  C108  1  0.73601000  0.00839100  0.80066700  1
  C  C109  1  0.99160900  0.26399000  0.69933300  1
  C  C110  1  0.26399000  0.99160900  0.19933300  1
  C  C111  1  0.00839100  0.73601000  0.30066700  1
  C  C112  1  0.07512400  0.15281100  0.98851800  1
  C  C113  1  0.84718900  0.92487600  0.51148200  1
  C  C114  1  0.92487600  0.84718900  0.01148200  1
  C  C115  1  0.15281100  0.07512400  0.48851800  1
  C  C116  1  0.90752300  0.19464400  0.14449200  1
  C  C117  1  0.80535600  0.09247700  0.35550800  1
  C  C118  1  0.09247700  0.80535600  0.85550800  1
  C  C119  1  0.19464400  0.90752300  0.64449200  1
  C  C120  1  0.64543300  0.35456700  0.25000000  1
  C  C121  1  0.35456700  0.64543300  0.75000000  1
