# generated using pymatgen
data_CuNi3C4
_symmetry_space_group_name_H-M   'P 1'
_cell_length_a   6.58992400
_cell_length_b   9.60043800
_cell_length_c   10.33766700
_cell_angle_alpha   90.00000000
_cell_angle_beta   90.00000000
_cell_angle_gamma   90.00000000
_symmetry_Int_Tables_number   1
_chemical_formula_structural   CuNi3C4
_chemical_formula_sum   'Cu8 Ni24 C32'
_cell_volume   654.02446123
_cell_formula_units_Z   8
loop_
 _symmetry_equiv_pos_site_id
 _symmetry_equiv_pos_as_xyz
  1  'x, y, z'
loop_
 _atom_site_type_symbol
 _atom_site_label
 _atom_site_symmetry_multiplicity
 _atom_site_fract_x
 _atom_site_fract_y
 _atom_site_fract_z
 _atom_site_occupancy
  C  C0  1  0.50000000  0.75000000  0.63427900  1
  C  C1  1  0.50000000  0.25000000  0.86572100  1
  C  C2  1  0.50000000  0.25000000  0.36572100  1
  C  C3  1  0.50000000  0.75000000  0.13427900  1
  Ni  Ni4  1  0.18193000  0.63336200  0.77012500  1
  Ni  Ni5  1  0.81807000  0.86663800  0.77012500  1
  Ni  Ni6  1  0.81807000  0.13336200  0.72987500  1
  Ni  Ni7  1  0.18193000  0.36663800  0.72987500  1
  Ni  Ni8  1  0.81807000  0.36663800  0.22987500  1
  Ni  Ni9  1  0.18193000  0.13336200  0.22987500  1
  Ni  Ni10  1  0.18193000  0.86663800  0.27012500  1
  Ni  Ni11  1  0.81807000  0.63336200  0.27012500  1
  Ni  Ni12  1  0.28197000  0.75866400  0.85440700  1
  Ni  Ni13  1  0.71803000  0.74133600  0.85440700  1
  Ni  Ni14  1  0.71803000  0.25866400  0.64559300  1
  Ni  Ni15  1  0.28197000  0.24133600  0.64559300  1
  Ni  Ni16  1  0.71803000  0.24133600  0.14559300  1
  Ni  Ni17  1  0.28197000  0.25866400  0.14559300  1
  Ni  Ni18  1  0.28197000  0.74133600  0.35440700  1
  Ni  Ni19  1  0.71803000  0.75866400  0.35440700  1
  Ni  Ni20  1  0.91467700  0.52296700  0.67881300  1
  Ni  Ni21  1  0.08532300  0.97703300  0.67881300  1
  Ni  Ni22  1  0.08532300  0.02296700  0.82118700  1
  Ni  Ni23  1  0.91467700  0.47703300  0.82118700  1
  Ni  Ni24  1  0.08532300  0.47703300  0.32118700  1
  Ni  Ni25  1  0.91467700  0.02296700  0.32118700  1
  Ni  Ni26  1  0.91467700  0.97703300  0.17881300  1
  Ni  Ni27  1  0.08532300  0.52296700  0.17881300  1
  Cu  Cu28  1  0.60322200  0.48107600  0.52926800  1
  Cu  Cu29  1  0.39677800  0.01892400  0.52926800  1
  Cu  Cu30  1  0.39677800  0.98107600  0.97073200  1
  Cu  Cu31  1  0.60322200  0.51892400  0.97073200  1
  Cu  Cu32  1  0.39677800  0.51892400  0.47073200  1
  Cu  Cu33  1  0.60322200  0.98107600  0.47073200  1
  Cu  Cu34  1  0.60322200  0.01892400  0.02926800  1
  Cu  Cu35  1  0.39677800  0.48107600  0.02926800  1
  C  C36  1  0.68471500  0.57010600  0.60294500  1
  C  C37  1  0.31528500  0.92989400  0.60294500  1
  C  C38  1  0.31528500  0.07010600  0.89705500  1
  C  C39  1  0.68471500  0.42989400  0.89705500  1
  C  C40  1  0.31528500  0.42989400  0.39705500  1
  C  C41  1  0.68471500  0.07010600  0.39705500  1
  C  C42  1  0.68471500  0.92989400  0.10294500  1
  C  C43  1  0.31528500  0.57010600  0.10294500  1
  C  C44  1  0.32119200  0.63688500  0.49972900  1
  C  C45  1  0.67880800  0.86311500  0.49972900  1
  C  C46  1  0.67880800  0.13688500  0.00027100  1
  C  C47  1  0.32119200  0.36311500  0.00027100  1
  C  C48  1  0.67880800  0.36311500  0.50027100  1
  C  C49  1  0.32119200  0.13688500  0.50027100  1
  C  C50  1  0.32119200  0.86311500  0.99972900  1
  C  C51  1  0.67880800  0.63688500  0.99972900  1
  C  C52  1  0.30509700  0.69242400  0.78291100  1
  C  C53  1  0.69490300  0.80757600  0.78291100  1
  C  C54  1  0.69490300  0.19242400  0.71708900  1
  C  C55  1  0.30509700  0.30757600  0.71708900  1
  C  C56  1  0.69490300  0.30757600  0.21708900  1
  C  C57  1  0.30509700  0.19242400  0.21708900  1
  C  C58  1  0.30509700  0.80757600  0.28291100  1
  C  C59  1  0.69490300  0.69242400  0.28291100  1
  C  C60  1  0.01072900  0.50000000  0.75000000  1
  C  C61  1  0.98927100  0.00000000  0.75000000  1
  C  C62  1  0.98927100  0.50000000  0.25000000  1
  C  C63  1  0.01072900  0.00000000  0.25000000  1
