# generated using pymatgen
data_CuNi5C4
_symmetry_space_group_name_H-M   'P 1'
_cell_length_a   7.25669100
_cell_length_b   6.73050200
_cell_length_c   5.17579800
_cell_angle_alpha   90.00000000
_cell_angle_beta   90.00000000
_cell_angle_gamma   90.00000000
_symmetry_Int_Tables_number   1
_chemical_formula_structural   CuNi5C4
_chemical_formula_sum   'Cu2 Ni10 C8'
_cell_volume   252.79204703
_cell_formula_units_Z   2
loop_
 _symmetry_equiv_pos_site_id
 _symmetry_equiv_pos_as_xyz
  1  'x, y, z'
loop_
 _atom_site_type_symbol
 _atom_site_label
 _atom_site_symmetry_multiplicity
 _atom_site_fract_x
 _atom_site_fract_y
 _atom_site_fract_z
 _atom_site_occupancy
  Ni  Ni0  1  0.55445200  0.50081800  0.24978900  1
  Ni  Ni1  1  0.94554800  0.50081800  0.24978900  1
  Ni  Ni2  1  0.55445200  0.99918200  0.24978900  1
  Ni  Ni3  1  0.94554800  0.99918200  0.24978900  1
  Ni  Ni4  1  0.44554800  0.49918200  0.75021100  1
  Ni  Ni5  1  0.05445200  0.49918200  0.75021100  1
  Ni  Ni6  1  0.44554800  0.00081800  0.75021100  1
  Ni  Ni7  1  0.05445200  0.00081800  0.75021100  1
  Ni  Ni8  1  0.75000000  0.75000000  0.72217200  1
  Ni  Ni9  1  0.25000000  0.25000000  0.27782800  1
  Cu  Cu10  1  0.75000000  0.25000000  0.71188500  1
  Cu  Cu11  1  0.25000000  0.75000000  0.28811500  1
  C  C12  1  0.75000000  0.00340000  0.95164500  1
  C  C13  1  0.75000000  0.49660000  0.95164500  1
  C  C14  1  0.25000000  0.99660000  0.04835500  1
  C  C15  1  0.25000000  0.50340000  0.04835500  1
  C  C16  1  0.50287800  0.75000000  0.50265300  1
  C  C17  1  0.99712200  0.75000000  0.50265300  1
  C  C18  1  0.49712200  0.25000000  0.49734700  1
  C  C19  1  0.00287800  0.25000000  0.49734700  1
