# generated using pymatgen
data_Cu3NiC5
_symmetry_space_group_name_H-M   'P 1'
_cell_length_a   6.61131600
_cell_length_b   6.63563500
_cell_length_c   16.10854300
_cell_angle_alpha   90.00000000
_cell_angle_beta   90.00000000
_cell_angle_gamma   90.00000000
_symmetry_Int_Tables_number   1
_chemical_formula_structural   Cu3NiC5
_chemical_formula_sum   'Cu18 Ni6 C30'
_cell_volume   706.68628932
_cell_formula_units_Z   6
loop_
 _symmetry_equiv_pos_site_id
 _symmetry_equiv_pos_as_xyz
  1  'x, y, z'
loop_
 _atom_site_type_symbol
 _atom_site_label
 _atom_site_symmetry_multiplicity
 _atom_site_fract_x
 _atom_site_fract_y
 _atom_site_fract_z
 _atom_site_occupancy
  C  C0  1  0.91328200  0.66719500  0.00000000  1
  C  C1  1  0.41328200  0.33280500  0.50000000  1
  C  C2  1  0.55878600  0.93263400  0.16982300  1
  C  C3  1  0.55878600  0.93263400  0.83017700  1
  C  C4  1  0.05878600  0.06736600  0.33017700  1
  C  C5  1  0.05878600  0.06736600  0.66982300  1
  C  C6  1  0.40983600  0.52740900  0.00000000  1
  C  C7  1  0.90983600  0.47259100  0.50000000  1
  C  C8  1  0.08076500  0.20689600  0.10110100  1
  C  C9  1  0.08076500  0.20689600  0.89889900  1
  C  C10  1  0.58076500  0.79310400  0.39889900  1
  C  C11  1  0.58076500  0.79310400  0.60110100  1
  C  C12  1  0.23173500  0.54204600  0.13773300  1
  C  C13  1  0.23173500  0.54204600  0.86226700  1
  C  C14  1  0.73173500  0.45795400  0.36226700  1
  C  C15  1  0.73173500  0.45795400  0.63773300  1
  C  C16  1  0.80273000  0.17965800  0.00000000  1
  C  C17  1  0.30273000  0.82034200  0.50000000  1
  C  C18  1  0.31263300  0.29364600  0.21116100  1
  C  C19  1  0.31263300  0.29364600  0.78883900  1
  C  C20  1  0.81263300  0.70635400  0.28883900  1
  C  C21  1  0.81263300  0.70635400  0.71116100  1
  C  C22  1  0.61720900  0.50104500  0.12727600  1
  C  C23  1  0.61720900  0.50104500  0.87272400  1
  C  C24  1  0.11720900  0.49895500  0.37272400  1
  C  C25  1  0.11720900  0.49895500  0.62727600  1
  C  C26  1  0.00534100  0.87759700  0.16017300  1
  C  C27  1  0.00534100  0.87759700  0.83982700  1
  C  C28  1  0.50534100  0.12240300  0.33982700  1
  C  C29  1  0.50534100  0.12240300  0.66017300  1
  Ni  Ni30  1  0.47660400  0.07554400  0.00000000  1
  Ni  Ni31  1  0.97660400  0.92445600  0.50000000  1
  Ni  Ni32  1  0.73485200  0.31649000  0.23910800  1
  Ni  Ni33  1  0.73485200  0.31649000  0.76089200  1
  Ni  Ni34  1  0.23485200  0.68351000  0.26089200  1
  Ni  Ni35  1  0.23485200  0.68351000  0.73910800  1
  Cu  Cu36  1  0.19197300  0.48558900  0.08381900  1
  Cu  Cu37  1  0.19197300  0.48558900  0.91618100  1
  Cu  Cu38  1  0.69197300  0.51441100  0.41618100  1
  Cu  Cu39  1  0.69197300  0.51441100  0.58381900  1
  Cu  Cu40  1  0.92390600  0.26533300  0.00000000  1
  Cu  Cu41  1  0.42390600  0.73466700  0.50000000  1
  Cu  Cu42  1  0.25114500  0.16233400  0.19992800  1
  Cu  Cu43  1  0.25114500  0.16233400  0.80007200  1
  Cu  Cu44  1  0.75114500  0.83766600  0.30007200  1
  Cu  Cu45  1  0.75114500  0.83766600  0.69992800  1
  Cu  Cu46  1  0.59965800  0.61181700  0.08753200  1
  Cu  Cu47  1  0.59965800  0.61181700  0.91246800  1
  Cu  Cu48  1  0.09965800  0.38818300  0.41246800  1
  Cu  Cu49  1  0.09965800  0.38818300  0.58753200  1
  Cu  Cu50  1  0.93748900  0.94671000  0.11413300  1
  Cu  Cu51  1  0.93748900  0.94671000  0.88586700  1
  Cu  Cu52  1  0.43748900  0.05329000  0.38586700  1
  Cu  Cu53  1  0.43748900  0.05329000  0.61413300  1
