# generated using pymatgen
data_Cu19Ni12C5
_symmetry_space_group_name_H-M   'P 1'
_cell_length_a   12.85023839
_cell_length_b   12.85023839
_cell_length_c   4.04629700
_cell_angle_alpha   90.00000000
_cell_angle_beta   90.00000000
_cell_angle_gamma   120.00000199
_symmetry_Int_Tables_number   1
_chemical_formula_structural   Cu19Ni12C5
_chemical_formula_sum   'Cu19 Ni12 C5'
_cell_volume   578.64306012
_cell_formula_units_Z   1
loop_
 _symmetry_equiv_pos_site_id
 _symmetry_equiv_pos_as_xyz
  1  'x, y, z'
loop_
 _atom_site_type_symbol
 _atom_site_label
 _atom_site_symmetry_multiplicity
 _atom_site_fract_x
 _atom_site_fract_y
 _atom_site_fract_z
 _atom_site_occupancy
  C  C0  1  0.00000000  0.81372000  0.50000000  1
  C  C1  1  0.18628000  0.18628000  0.50000000  1
  C  C2  1  0.81372000  0.00000000  0.50000000  1
  C  C3  1  0.33333300  0.66666700  0.00000000  1
  C  C4  1  0.66666700  0.33333300  0.00000000  1
  Ni  Ni5  1  0.00000000  0.18188700  0.00000000  1
  Ni  Ni6  1  0.81811300  0.81811300  0.00000000  1
  Ni  Ni7  1  0.18188700  0.00000000  0.00000000  1
  Ni  Ni8  1  0.51885300  0.68946400  0.50000000  1
  Ni  Ni9  1  0.31053600  0.82938900  0.50000000  1
  Ni  Ni10  1  0.17061100  0.48114700  0.50000000  1
  Ni  Ni11  1  0.48114700  0.17061100  0.50000000  1
  Ni  Ni12  1  0.68946400  0.51885300  0.50000000  1
  Ni  Ni13  1  0.82938900  0.31053600  0.50000000  1
  Ni  Ni14  1  0.00000000  0.63708500  0.00000000  1
  Ni  Ni15  1  0.36291500  0.36291500  0.00000000  1
  Ni  Ni16  1  0.63708500  0.00000000  0.00000000  1
  Cu  Cu17  1  0.00000000  0.28683600  0.50000000  1
  Cu  Cu18  1  0.71316400  0.71316400  0.50000000  1
  Cu  Cu19  1  0.28683600  0.00000000  0.50000000  1
  Cu  Cu20  1  0.62070600  0.80131400  0.00000000  1
  Cu  Cu21  1  0.19868600  0.81939200  0.00000000  1
  Cu  Cu22  1  0.18060800  0.37929400  0.00000000  1
  Cu  Cu23  1  0.37929400  0.18060800  0.00000000  1
  Cu  Cu24  1  0.80131400  0.62070600  0.00000000  1
  Cu  Cu25  1  0.81939200  0.19868600  0.00000000  1
  Cu  Cu26  1  0.50870100  0.87119500  0.50000000  1
  Cu  Cu27  1  0.12880500  0.63750600  0.50000000  1
  Cu  Cu28  1  0.36249400  0.49129900  0.50000000  1
  Cu  Cu29  1  0.49129900  0.36249400  0.50000000  1
  Cu  Cu30  1  0.87119500  0.50870100  0.50000000  1
  Cu  Cu31  1  0.63750600  0.12880500  0.50000000  1
  Cu  Cu32  1  0.00000000  0.00000000  0.00000000  1
  Cu  Cu33  1  0.00000000  0.45988000  0.00000000  1
  Cu  Cu34  1  0.54012000  0.54012000  0.00000000  1
  Cu  Cu35  1  0.45988000  0.00000000  0.00000000  1
