# generated using pymatgen
data_CuNiC8
_symmetry_space_group_name_H-M   'P 1'
_cell_length_a   5.81385400
_cell_length_b   5.48893200
_cell_length_c   9.46790764
_cell_angle_alpha   54.84315620
_cell_angle_beta   90.00000000
_cell_angle_gamma   90.00000000
_symmetry_Int_Tables_number   1
_chemical_formula_structural   CuNiC8
_chemical_formula_sum   'Cu2 Ni2 C16'
_cell_volume   247.02199822
_cell_formula_units_Z   2
loop_
 _symmetry_equiv_pos_site_id
 _symmetry_equiv_pos_as_xyz
  1  'x, y, z'
loop_
 _atom_site_type_symbol
 _atom_site_label
 _atom_site_symmetry_multiplicity
 _atom_site_fract_x
 _atom_site_fract_y
 _atom_site_fract_z
 _atom_site_occupancy
  C  C0  1  0.56497000  0.73479500  0.74979000  1
  C  C1  1  0.06497000  0.26520500  0.75021000  1
  C  C2  1  0.43503000  0.26520500  0.25021000  1
  C  C3  1  0.93503000  0.73479500  0.24979000  1
  Ni  Ni4  1  0.50000000  0.00000000  0.00000000  1
  Ni  Ni5  1  0.00000000  0.00000000  0.50000000  1
  Cu  Cu6  1  0.50000000  0.50000000  0.50000000  1
  Cu  Cu7  1  0.00000000  0.50000000  0.00000000  1
  C  C8  1  0.18569900  0.73744900  0.05130300  1
  C  C9  1  0.68569900  0.26255100  0.44869700  1
  C  C10  1  0.80361500  0.65718200  0.54725800  1
  C  C11  1  0.30361500  0.34281800  0.95274200  1
  C  C12  1  0.81430100  0.26255100  0.94869700  1
  C  C13  1  0.31430100  0.73744900  0.55130300  1
  C  C14  1  0.19638500  0.34281800  0.45274200  1
  C  C15  1  0.69638500  0.65718200  0.04725800  1
  C  C16  1  0.97388700  0.84783800  0.74588900  1
  C  C17  1  0.47388700  0.15216200  0.75411100  1
  C  C18  1  0.02611300  0.15216200  0.25411100  1
  C  C19  1  0.52611300  0.84783800  0.24588900  1
