# generated using pymatgen
data_Cu5Ni3C2
_symmetry_space_group_name_H-M   'P 1'
_cell_length_a   10.96495900
_cell_length_b   10.96495900
_cell_length_c   5.48095200
_cell_angle_alpha   90.00000000
_cell_angle_beta   90.00000000
_cell_angle_gamma   90.00000000
_symmetry_Int_Tables_number   1
_chemical_formula_structural   Cu5Ni3C2
_chemical_formula_sum   'Cu20 Ni12 C8'
_cell_volume   658.97664505
_cell_formula_units_Z   4
loop_
 _symmetry_equiv_pos_site_id
 _symmetry_equiv_pos_as_xyz
  1  'x, y, z'
loop_
 _atom_site_type_symbol
 _atom_site_label
 _atom_site_symmetry_multiplicity
 _atom_site_fract_x
 _atom_site_fract_y
 _atom_site_fract_z
 _atom_site_occupancy
  C  C0  1  0.57093700  0.73648000  0.50000000  1
  C  C1  1  0.42906300  0.26352000  0.50000000  1
  C  C2  1  0.07093700  0.76352000  0.00000000  1
  C  C3  1  0.92906300  0.23648000  0.00000000  1
  C  C4  1  0.26352000  0.57093700  0.50000000  1
  C  C5  1  0.73648000  0.42906300  0.50000000  1
  C  C6  1  0.23648000  0.07093700  0.00000000  1
  C  C7  1  0.76352000  0.92906300  0.00000000  1
  Ni  Ni8  1  0.87425900  0.85957400  0.50000000  1
  Ni  Ni9  1  0.12574100  0.14042600  0.50000000  1
  Ni  Ni10  1  0.37425900  0.64042600  0.00000000  1
  Ni  Ni11  1  0.62574100  0.35957400  0.00000000  1
  Ni  Ni12  1  0.14042600  0.87425900  0.50000000  1
  Ni  Ni13  1  0.85957400  0.12574100  0.50000000  1
  Ni  Ni14  1  0.35957400  0.37425900  0.00000000  1
  Ni  Ni15  1  0.64042600  0.62574100  0.00000000  1
  Ni  Ni16  1  0.50000000  0.00000000  0.25000000  1
  Ni  Ni17  1  0.00000000  0.50000000  0.75000000  1
  Ni  Ni18  1  0.00000000  0.50000000  0.25000000  1
  Ni  Ni19  1  0.50000000  0.00000000  0.75000000  1
  Cu  Cu20  1  0.67646400  0.17646400  0.25000000  1
  Cu  Cu21  1  0.32353600  0.82353600  0.25000000  1
  Cu  Cu22  1  0.17646400  0.32353600  0.75000000  1
  Cu  Cu23  1  0.82353600  0.67646400  0.75000000  1
  Cu  Cu24  1  0.82353600  0.67646400  0.25000000  1
  Cu  Cu25  1  0.17646400  0.32353600  0.25000000  1
  Cu  Cu26  1  0.67646400  0.17646400  0.75000000  1
  Cu  Cu27  1  0.32353600  0.82353600  0.75000000  1
  Cu  Cu28  1  0.50000000  0.50000000  0.26831700  1
  Cu  Cu29  1  0.00000000  0.00000000  0.76831700  1
  Cu  Cu30  1  0.50000000  0.50000000  0.73168300  1
  Cu  Cu31  1  0.00000000  0.00000000  0.23168300  1
  Cu  Cu32  1  0.68464600  0.97668500  0.50000000  1
  Cu  Cu33  1  0.31535400  0.02331500  0.50000000  1
  Cu  Cu34  1  0.18464600  0.52331500  0.00000000  1
  Cu  Cu35  1  0.81535400  0.47668500  0.00000000  1
  Cu  Cu36  1  0.02331500  0.68464600  0.50000000  1
  Cu  Cu37  1  0.97668500  0.31535400  0.50000000  1
  Cu  Cu38  1  0.47668500  0.18464600  0.00000000  1
  Cu  Cu39  1  0.52331500  0.81535400  0.00000000  1
