# generated using pymatgen
data_Cu2NiC4
_symmetry_space_group_name_H-M   'P 1'
_cell_length_a   6.96960725
_cell_length_b   6.96960725
_cell_length_c   6.33193832
_cell_angle_alpha   64.56541973
_cell_angle_beta   64.56541973
_cell_angle_gamma   30.63234518
_symmetry_Int_Tables_number   1
_chemical_formula_structural   Cu2NiC4
_chemical_formula_sum   'Cu2 Ni1 C4'
_cell_volume   140.32329743
_cell_formula_units_Z   1
loop_
 _symmetry_equiv_pos_site_id
 _symmetry_equiv_pos_as_xyz
  1  'x, y, z'
loop_
 _atom_site_type_symbol
 _atom_site_label
 _atom_site_symmetry_multiplicity
 _atom_site_fract_x
 _atom_site_fract_y
 _atom_site_fract_z
 _atom_site_occupancy
  Ni  Ni0  1  0.99827600  0.99827600  0.98594800  1
  Cu  Cu1  1  0.74576600  0.74576600  0.23902700  1
  Cu  Cu2  1  0.25951800  0.25951800  0.76119200  1
  C  C3  1  0.12847400  0.12847400  0.20037600  1
  C  C4  1  0.63723300  0.63723300  0.69394600  1
  C  C5  1  0.36922900  0.36922900  0.30075300  1
  C  C6  1  0.86150500  0.86150500  0.81875800  1
