# generated using pymatgen
data_Cu15(NiC8)2
_symmetry_space_group_name_H-M   'P 1'
_cell_length_a   10.22905800
_cell_length_b   12.13086600
_cell_length_c   20.03431000
_cell_angle_alpha   90.00000000
_cell_angle_beta   90.00000000
_cell_angle_gamma   90.00000000
_symmetry_Int_Tables_number   1
_chemical_formula_structural   Cu15(NiC8)2
_chemical_formula_sum   'Cu120 Ni16 C128'
_cell_volume   2486.00407444
_cell_formula_units_Z   8
loop_
 _symmetry_equiv_pos_site_id
 _symmetry_equiv_pos_as_xyz
  1  'x, y, z'
loop_
 _atom_site_type_symbol
 _atom_site_label
 _atom_site_symmetry_multiplicity
 _atom_site_fract_x
 _atom_site_fract_y
 _atom_site_fract_z
 _atom_site_occupancy
  C  C0  1  0.34672200  0.85524400  0.07699700  1
  C  C1  1  0.65327800  0.35524400  0.42300300  1
  C  C2  1  0.15327800  0.14475600  0.57699700  1
  C  C3  1  0.84672200  0.64475600  0.92300300  1
  C  C4  1  0.65327800  0.14475600  0.92300300  1
  C  C5  1  0.34672200  0.64475600  0.57699700  1
  C  C6  1  0.84672200  0.85524400  0.42300300  1
  C  C7  1  0.15327800  0.35524400  0.07699700  1
  C  C8  1  0.37778900  0.90234000  0.00581700  1
  C  C9  1  0.62221100  0.40234000  0.49418300  1
  C  C10  1  0.12221100  0.09766000  0.50581700  1
  C  C11  1  0.87778900  0.59766000  0.99418300  1
  C  C12  1  0.62221100  0.09766000  0.99418300  1
  C  C13  1  0.37778900  0.59766000  0.50581700  1
  C  C14  1  0.87778900  0.90234000  0.49418300  1
  C  C15  1  0.12221100  0.40234000  0.00581700  1
  C  C16  1  0.99912300  0.65349100  0.13351800  1
  C  C17  1  0.00087700  0.15349100  0.36648200  1
  C  C18  1  0.50087700  0.34650900  0.63351800  1
  C  C19  1  0.49912300  0.84650900  0.86648200  1
  C  C20  1  0.00087700  0.34650900  0.86648200  1
  C  C21  1  0.99912300  0.84650900  0.63351800  1
  C  C22  1  0.49912300  0.65349100  0.36648200  1
  C  C23  1  0.50087700  0.15349100  0.13351800  1
  C  C24  1  0.01165700  0.79656200  0.14105400  1
  C  C25  1  0.98834300  0.29656200  0.35894600  1
  C  C26  1  0.48834300  0.20343800  0.64105400  1
  C  C27  1  0.51165700  0.70343800  0.85894600  1
  C  C28  1  0.98834300  0.20343800  0.85894600  1
  C  C29  1  0.01165700  0.70343800  0.64105400  1
  C  C30  1  0.51165700  0.79656200  0.35894600  1
  C  C31  1  0.48834300  0.29656200  0.14105400  1
  C  C32  1  0.03940000  0.71692100  0.21081500  1
  C  C33  1  0.96060000  0.21692100  0.28918500  1
  C  C34  1  0.46060000  0.28307900  0.71081500  1
  C  C35  1  0.53940000  0.78307900  0.78918500  1
  C  C36  1  0.96060000  0.28307900  0.78918500  1
  C  C37  1  0.03940000  0.78307900  0.71081500  1
  C  C38  1  0.53940000  0.71692100  0.28918500  1
  C  C39  1  0.46060000  0.21692100  0.21081500  1
  C  C40  1  0.51202200  0.50757400  0.41175000  1
  C  C41  1  0.48797800  0.00757400  0.08825000  1
  C  C42  1  0.98797800  0.49242600  0.91175000  1
  C  C43  1  0.01202200  0.99242600  0.58825000  1
  C  C44  1  0.48797800  0.49242600  0.58825000  1
  C  C45  1  0.51202200  0.99242600  0.91175000  1
  C  C46  1  0.01202200  0.50757400  0.08825000  1
  C  C47  1  0.98797800  0.00757400  0.41175000  1
  C  C48  1  0.37655400  0.52692000  0.37426800  1
  C  C49  1  0.62344600  0.02692000  0.12573200  1
  C  C50  1  0.12344600  0.47308000  0.87426800  1
  C  C51  1  0.87655400  0.97308000  0.62573200  1
  C  C52  1  0.62344600  0.47308000  0.62573200  1
  C  C53  1  0.37655400  0.97308000  0.87426800  1
  C  C54  1  0.87655400  0.52692000  0.12573200  1
  C  C55  1  0.12344600  0.02692000  0.37426800  1
  C  C56  1  0.26855800  0.49233900  0.05138300  1
  C  C57  1  0.73144200  0.99233900  0.44861700  1
  C  C58  1  0.23144200  0.50766100  0.55138300  1
  C  C59  1  0.76855800  0.00766100  0.94861700  1
  C  C60  1  0.73144200  0.50766100  0.94861700  1
  C  C61  1  0.26855800  0.00766100  0.55138300  1
  C  C62  1  0.76855800  0.49233900  0.44861700  1
  C  C63  1  0.23144200  0.99233900  0.05138300  1
  C  C64  1  0.43003200  0.49139900  0.06909300  1
  C  C65  1  0.56996800  0.99139900  0.43090700  1
  C  C66  1  0.06996800  0.50860100  0.56909300  1
  C  C67  1  0.93003200  0.00860100  0.93090700  1
  C  C68  1  0.56996800  0.50860100  0.93090700  1
  C  C69  1  0.43003200  0.00860100  0.56909300  1
  C  C70  1  0.93003200  0.49139900  0.43090700  1
  C  C71  1  0.06996800  0.99139900  0.06909300  1
  C  C72  1  0.34636300  0.61089000  0.07684400  1
  C  C73  1  0.65363700  0.11089000  0.42315600  1
  C  C74  1  0.15363700  0.38911000  0.57684400  1
  C  C75  1  0.84636300  0.88911000  0.92315600  1
  C  C76  1  0.65363700  0.38911000  0.92315600  1
  C  C77  1  0.34636300  0.88911000  0.57684400  1
  C  C78  1  0.84636300  0.61089000  0.42315600  1
  C  C79  1  0.15363700  0.11089000  0.07684400  1
  C  C80  1  0.40721900  0.87186200  0.43179600  1
  C  C81  1  0.59278100  0.37186200  0.06820400  1
  C  C82  1  0.09278100  0.12813800  0.93179600  1
  C  C83  1  0.90721900  0.62813800  0.56820400  1
  C  C84  1  0.59278100  0.12813800  0.56820400  1
  C  C85  1  0.40721900  0.62813800  0.93179600  1
  C  C86  1  0.90721900  0.87186200  0.06820400  1
  C  C87  1  0.09278100  0.37186200  0.43179600  1
  C  C88  1  0.40333700  0.94800100  0.36814000  1
  C  C89  1  0.59666300  0.44800100  0.13186000  1
  C  C90  1  0.09666300  0.05199900  0.86814000  1
  C  C91  1  0.90333700  0.55199900  0.63186000  1
  C  C92  1  0.59666300  0.05199900  0.63186000  1
  C  C93  1  0.40333700  0.55199900  0.86814000  1
  C  C94  1  0.90333700  0.94800100  0.13186000  1
  C  C95  1  0.09666300  0.44800100  0.36814000  1
  C  C96  1  0.39655200  0.71395700  0.15661100  1
  C  C97  1  0.60344800  0.21395700  0.34338900  1
  C  C98  1  0.10344800  0.28604300  0.65661100  1
  C  C99  1  0.89655200  0.78604300  0.84338900  1
  C  C100  1  0.60344800  0.28604300  0.84338900  1
  C  C101  1  0.39655200  0.78604300  0.65661100  1
  C  C102  1  0.89655200  0.71395700  0.34338900  1
  C  C103  1  0.10344800  0.21395700  0.15661100  1
  C  C104  1  0.24543300  0.71741000  0.14050400  1
  C  C105  1  0.75456700  0.21741000  0.35949600  1
  C  C106  1  0.25456700  0.28259000  0.64050400  1
  C  C107  1  0.74543300  0.78259000  0.85949600  1
  C  C108  1  0.75456700  0.28259000  0.85949600  1
  C  C109  1  0.24543300  0.78259000  0.64050400  1
  C  C110  1  0.74543300  0.71741000  0.35949600  1
  C  C111  1  0.25456700  0.21741000  0.14050400  1
  C  C112  1  0.09735500  0.62769800  0.29225100  1
  C  C113  1  0.90264500  0.12769800  0.20774900  1
  C  C114  1  0.40264500  0.37230200  0.79225100  1
  C  C115  1  0.59735500  0.87230200  0.70774900  1
  C  C116  1  0.90264500  0.37230200  0.70774900  1
  C  C117  1  0.09735500  0.87230200  0.79225100  1
  C  C118  1  0.59735500  0.62769800  0.20774900  1
  C  C119  1  0.40264500  0.12769800  0.29225100  1
  C  C120  1  0.09298100  0.75324300  0.30904700  1
  C  C121  1  0.90701900  0.25324300  0.19095300  1
  C  C122  1  0.40701900  0.24675700  0.80904700  1
  C  C123  1  0.59298100  0.74675700  0.69095300  1
  C  C124  1  0.90701900  0.24675700  0.69095300  1
  C  C125  1  0.09298100  0.74675700  0.80904700  1
  C  C126  1  0.59298100  0.75324300  0.19095300  1
  C  C127  1  0.40701900  0.25324300  0.30904700  1
  Ni  Ni128  1  0.24882300  0.95118500  0.25051700  1
  Ni  Ni129  1  0.75117700  0.45118500  0.24948300  1
  Ni  Ni130  1  0.25117700  0.04881500  0.75051700  1
  Ni  Ni131  1  0.74882300  0.54881500  0.74948300  1
  Ni  Ni132  1  0.75117700  0.04881500  0.74948300  1
  Ni  Ni133  1  0.24882300  0.54881500  0.75051700  1
  Ni  Ni134  1  0.74882300  0.95118500  0.24948300  1
  Ni  Ni135  1  0.25117700  0.45118500  0.25051700  1
  Ni  Ni136  1  0.16258400  0.75948000  0.45095000  1
  Ni  Ni137  1  0.83741600  0.25948000  0.04905000  1
  Ni  Ni138  1  0.33741600  0.24052000  0.95095000  1
  Ni  Ni139  1  0.66258400  0.74052000  0.54905000  1
  Ni  Ni140  1  0.83741600  0.24052000  0.54905000  1
  Ni  Ni141  1  0.16258400  0.74052000  0.95095000  1
  Ni  Ni142  1  0.66258400  0.75948000  0.04905000  1
  Ni  Ni143  1  0.33741600  0.25948000  0.45095000  1
  Cu  Cu144  1  0.30013400  0.00834200  0.19249100  1
  Cu  Cu145  1  0.69986600  0.50834200  0.30750900  1
  Cu  Cu146  1  0.19986600  0.99165800  0.69249100  1
  Cu  Cu147  1  0.80013400  0.49165800  0.80750900  1
  Cu  Cu148  1  0.69986600  0.99165800  0.80750900  1
  Cu  Cu149  1  0.30013400  0.49165800  0.69249100  1
  Cu  Cu150  1  0.80013400  0.00834200  0.30750900  1
  Cu  Cu151  1  0.19986600  0.50834200  0.19249100  1
  Cu  Cu152  1  0.10708800  0.94775900  0.24883000  1
  Cu  Cu153  1  0.89291200  0.44775900  0.25117000  1
  Cu  Cu154  1  0.39291200  0.05224100  0.74883000  1
  Cu  Cu155  1  0.60708800  0.55224100  0.75117000  1
  Cu  Cu156  1  0.89291200  0.05224100  0.75117000  1
  Cu  Cu157  1  0.10708800  0.55224100  0.74883000  1
  Cu  Cu158  1  0.60708800  0.94775900  0.25117000  1
  Cu  Cu159  1  0.39291200  0.44775900  0.24883000  1
  Cu  Cu160  1  0.28921800  0.01522000  0.31199900  1
  Cu  Cu161  1  0.71078200  0.51522000  0.18800100  1
  Cu  Cu162  1  0.21078200  0.98478000  0.81199900  1
  Cu  Cu163  1  0.78921800  0.48478000  0.68800100  1
  Cu  Cu164  1  0.71078200  0.98478000  0.68800100  1
  Cu  Cu165  1  0.28921800  0.48478000  0.81199900  1
  Cu  Cu166  1  0.78921800  0.01522000  0.18800100  1
  Cu  Cu167  1  0.21078200  0.51522000  0.31199900  1
  Cu  Cu168  1  0.30243700  0.84068100  0.25557700  1
  Cu  Cu169  1  0.69756300  0.34068100  0.24442300  1
  Cu  Cu170  1  0.19756300  0.15931900  0.75557700  1
  Cu  Cu171  1  0.80243700  0.65931900  0.74442300  1
  Cu  Cu172  1  0.69756300  0.15931900  0.74442300  1
  Cu  Cu173  1  0.30243700  0.65931900  0.75557700  1
  Cu  Cu174  1  0.80243700  0.84068100  0.24442300  1
  Cu  Cu175  1  0.19756300  0.34068100  0.25557700  1
  Cu  Cu176  1  0.12929500  0.82665700  0.39229000  1
  Cu  Cu177  1  0.87070500  0.32665700  0.10771000  1
  Cu  Cu178  1  0.37070500  0.17334300  0.89229000  1
  Cu  Cu179  1  0.62929500  0.67334300  0.60771000  1
  Cu  Cu180  1  0.87070500  0.17334300  0.60771000  1
  Cu  Cu181  1  0.12929500  0.67334300  0.89229000  1
  Cu  Cu182  1  0.62929500  0.82665700  0.10771000  1
  Cu  Cu183  1  0.37070500  0.32665700  0.39229000  1
  Cu  Cu184  1  0.11911100  0.64657100  0.44086200  1
  Cu  Cu185  1  0.88088900  0.14657100  0.05913800  1
  Cu  Cu186  1  0.38088900  0.35342900  0.94086200  1
  Cu  Cu187  1  0.61911100  0.85342900  0.55913800  1
  Cu  Cu188  1  0.88088900  0.35342900  0.55913800  1
  Cu  Cu189  1  0.11911100  0.85342900  0.94086200  1
  Cu  Cu190  1  0.61911100  0.64657100  0.05913800  1
  Cu  Cu191  1  0.38088900  0.14657100  0.44086200  1
  Cu  Cu192  1  0.10177800  0.80628600  0.51007400  1
  Cu  Cu193  1  0.89822200  0.30628600  0.98992600  1
  Cu  Cu194  1  0.39822200  0.19371400  0.01007400  1
  Cu  Cu195  1  0.60177800  0.69371400  0.48992600  1
  Cu  Cu196  1  0.89822200  0.19371400  0.48992600  1
  Cu  Cu197  1  0.10177800  0.69371400  0.01007400  1
  Cu  Cu198  1  0.60177800  0.80628600  0.98992600  1
  Cu  Cu199  1  0.39822200  0.30628600  0.51007400  1
  Cu  Cu200  1  0.30552100  0.75998900  0.45948700  1
  Cu  Cu201  1  0.69447900  0.25998900  0.04051300  1
  Cu  Cu202  1  0.19447900  0.24001100  0.95948700  1
  Cu  Cu203  1  0.80552100  0.74001100  0.54051300  1
  Cu  Cu204  1  0.69447900  0.24001100  0.54051300  1
  Cu  Cu205  1  0.30552100  0.74001100  0.95948700  1
  Cu  Cu206  1  0.80552100  0.75998900  0.04051300  1
  Cu  Cu207  1  0.19447900  0.25998900  0.45948700  1
  Cu  Cu208  1  0.35494900  0.92537900  0.05154900  1
  Cu  Cu209  1  0.64505100  0.42537900  0.44845100  1
  Cu  Cu210  1  0.14505100  0.07462100  0.55154900  1
  Cu  Cu211  1  0.85494900  0.57462100  0.94845100  1
  Cu  Cu212  1  0.64505100  0.07462100  0.94845100  1
  Cu  Cu213  1  0.35494900  0.57462100  0.55154900  1
  Cu  Cu214  1  0.85494900  0.92537900  0.44845100  1
  Cu  Cu215  1  0.14505100  0.42537900  0.05154900  1
  Cu  Cu216  1  0.04612400  0.72327000  0.15870000  1
  Cu  Cu217  1  0.95387600  0.22327000  0.34130000  1
  Cu  Cu218  1  0.45387600  0.27673000  0.65870000  1
  Cu  Cu219  1  0.54612400  0.77673000  0.84130000  1
  Cu  Cu220  1  0.95387600  0.27673000  0.84130000  1
  Cu  Cu221  1  0.04612400  0.77673000  0.65870000  1
  Cu  Cu222  1  0.54612400  0.72327000  0.34130000  1
  Cu  Cu223  1  0.45387600  0.22327000  0.15870000  1
  Cu  Cu224  1  0.44523600  0.56396900  0.40030600  1
  Cu  Cu225  1  0.55476400  0.06396900  0.09969400  1
  Cu  Cu226  1  0.05476400  0.43603100  0.90030600  1
  Cu  Cu227  1  0.94523600  0.93603100  0.59969400  1
  Cu  Cu228  1  0.55476400  0.43603100  0.59969400  1
  Cu  Cu229  1  0.44523600  0.93603100  0.90030600  1
  Cu  Cu230  1  0.94523600  0.56396900  0.09969400  1
  Cu  Cu231  1  0.05476400  0.06396900  0.40030600  1
  Cu  Cu232  1  0.35538100  0.53822700  0.05035800  1
  Cu  Cu233  1  0.64461900  0.03822700  0.44964200  1
  Cu  Cu234  1  0.14461900  0.46177300  0.55035800  1
  Cu  Cu235  1  0.85538100  0.96177300  0.94964200  1
  Cu  Cu236  1  0.64461900  0.46177300  0.94964200  1
  Cu  Cu237  1  0.35538100  0.96177300  0.55035800  1
  Cu  Cu238  1  0.85538100  0.53822700  0.44964200  1
  Cu  Cu239  1  0.14461900  0.03822700  0.05035800  1
  Cu  Cu240  1  0.46453500  0.90833800  0.39840800  1
  Cu  Cu241  1  0.53546500  0.40833800  0.10159200  1
  Cu  Cu242  1  0.03546500  0.09166200  0.89840800  1
  Cu  Cu243  1  0.96453500  0.59166200  0.60159200  1
  Cu  Cu244  1  0.53546500  0.09166200  0.60159200  1
  Cu  Cu245  1  0.46453500  0.59166200  0.89840800  1
  Cu  Cu246  1  0.96453500  0.90833800  0.10159200  1
  Cu  Cu247  1  0.03546500  0.40833800  0.39840800  1
  Cu  Cu248  1  0.33250100  0.71944200  0.11960600  1
  Cu  Cu249  1  0.66749900  0.21944200  0.38039400  1
  Cu  Cu250  1  0.16749900  0.28055800  0.61960600  1
  Cu  Cu251  1  0.83250100  0.78055800  0.88039400  1
  Cu  Cu252  1  0.66749900  0.28055800  0.88039400  1
  Cu  Cu253  1  0.33250100  0.78055800  0.61960600  1
  Cu  Cu254  1  0.83250100  0.71944200  0.38039400  1
  Cu  Cu255  1  0.16749900  0.21944200  0.11960600  1
  Cu  Cu256  1  0.04438700  0.69523300  0.28493600  1
  Cu  Cu257  1  0.95561300  0.19523300  0.21506400  1
  Cu  Cu258  1  0.45561300  0.30476700  0.78493600  1
  Cu  Cu259  1  0.54438700  0.80476700  0.71506400  1
  Cu  Cu260  1  0.95561300  0.30476700  0.71506400  1
  Cu  Cu261  1  0.04438700  0.80476700  0.78493600  1
  Cu  Cu262  1  0.54438700  0.69523300  0.21506400  1
  Cu  Cu263  1  0.45561300  0.19523300  0.28493600  1
