# generated using pymatgen
data_Cu14NiC16
_symmetry_space_group_name_H-M   'P 1'
_cell_length_a   8.50789794
_cell_length_b   8.96947018
_cell_length_c   4.27315451
_cell_angle_alpha   90.00000000
_cell_angle_beta   90.00000000
_cell_angle_gamma   90.00000000
_symmetry_Int_Tables_number   1
_chemical_formula_structural   Cu14NiC16
_chemical_formula_sum   'Cu14 Ni1 C16'
_cell_volume   326.09013330
_cell_formula_units_Z   1
loop_
 _symmetry_equiv_pos_site_id
 _symmetry_equiv_pos_as_xyz
  1  'x, y, z'
loop_
 _atom_site_type_symbol
 _atom_site_label
 _atom_site_symmetry_multiplicity
 _atom_site_fract_x
 _atom_site_fract_y
 _atom_site_fract_z
 _atom_site_occupancy
  Ni  Ni0  1  0.98960946  0.50000000  0.00000000  1
  Cu  Cu1  1  0.48927187  0.00000000  0.00000000  1
  Cu  Cu2  1  0.49899458  0.50000000  0.00000000  1
  Cu  Cu3  1  0.99918079  0.22224867  0.50000000  1
  Cu  Cu4  1  0.99918079  0.77775133  0.50000000  1
  Cu  Cu5  1  0.49260262  0.24675887  0.50000000  1
  Cu  Cu6  1  0.49260262  0.75324113  0.50000000  1
  Cu  Cu7  1  0.23937306  0.00000000  0.50000000  1
  Cu  Cu8  1  0.25693566  0.50000000  0.50000000  1
  Cu  Cu9  1  0.75163425  0.00000000  0.50000000  1
  Cu  Cu10  1  0.73488265  0.50000000  0.50000000  1
  Cu  Cu11  1  0.24495683  0.25318206  0.00000000  1
  Cu  Cu12  1  0.24495683  0.74681794  -0.00000000  1
  Cu  Cu13  1  0.74483817  0.22809940  -0.00000000  1
  Cu  Cu14  1  0.74483817  0.77190060  -0.00000000  1
  C  C15  1  0.20692821  0.00000000  0.00000000  1
  C  C16  1  0.23879683  0.50000000  0.00000000  1
  C  C17  1  0.72288750  0.00000000  0.00000000  1
  C  C18  1  0.74546020  0.50000000  0.00000000  1
  C  C19  1  0.24337444  0.27237484  0.50000000  1
  C  C20  1  0.24337444  0.72762516  0.50000000  1
  C  C21  1  0.74562616  0.24615237  0.50000000  1
  C  C22  1  0.74562616  0.75384763  0.50000000  1
  C  C23  1  0.99711587  0.00000000  0.50000000  1
  C  C24  1  0.98645112  0.50000000  0.50000000  1
  C  C25  1  0.48509475  0.00000000  0.50000000  1
  C  C26  1  0.49855859  0.50000000  0.50000000  1
  C  C27  1  0.98693832  0.27341204  0.00000000  1
  C  C28  1  0.98693832  0.72658796  0.00000000  1
  C  C29  1  0.49648538  0.25757999  0.00000000  1
  C  C30  1  0.49648538  0.74242001  0.00000000  1
