# generated using pymatgen
data_CuNi3C8
_symmetry_space_group_name_H-M   'P 1'
_cell_length_a   8.54957214
_cell_length_b   8.54957214
_cell_length_c   8.54957171
_cell_angle_alpha   33.52298369
_cell_angle_beta   33.52298369
_cell_angle_gamma   33.52298688
_symmetry_Int_Tables_number   1
_chemical_formula_structural   CuNi3C8
_chemical_formula_sum   'Cu1 Ni3 C8'
_cell_volume   169.76836052
_cell_formula_units_Z   1
loop_
 _symmetry_equiv_pos_site_id
 _symmetry_equiv_pos_as_xyz
  1  'x, y, z'
loop_
 _atom_site_type_symbol
 _atom_site_label
 _atom_site_symmetry_multiplicity
 _atom_site_fract_x
 _atom_site_fract_y
 _atom_site_fract_z
 _atom_site_occupancy
  Ni  Ni0  1  0.62502300  0.62502300  0.62502300  1
  Ni  Ni1  1  0.00093300  0.00093300  0.00093300  1
  Ni  Ni2  1  0.49910600  0.49910600  0.49910600  1
  Cu  Cu3  1  0.12494700  0.12494700  0.12494700  1
  C  C4  1  0.56360200  0.06410200  0.56360200  1
  C  C5  1  0.06198300  0.55992300  0.06198300  1
  C  C6  1  0.06410200  0.56360200  0.56360200  1
  C  C7  1  0.55992300  0.06198300  0.06198300  1
  C  C8  1  0.81227700  0.81227700  0.81227700  1
  C  C9  1  0.31251900  0.31251900  0.31251900  1
  C  C10  1  0.56360200  0.56360200  0.06410200  1
  C  C11  1  0.06198300  0.06198300  0.55992300  1
