# generated using pymatgen
data_Cu3(NiC10)2
_symmetry_space_group_name_H-M   'P 1'
_cell_length_a   7.85598700
_cell_length_b   9.49860830
_cell_length_c   9.64818689
_cell_angle_alpha   81.34380052
_cell_angle_beta   113.66617442
_cell_angle_gamma   113.23380949
_symmetry_Int_Tables_number   1
_chemical_formula_structural   Cu3(NiC10)2
_chemical_formula_sum   'Cu6 Ni4 C40'
_cell_volume   605.90571521
_cell_formula_units_Z   2
loop_
 _symmetry_equiv_pos_site_id
 _symmetry_equiv_pos_as_xyz
  1  'x, y, z'
loop_
 _atom_site_type_symbol
 _atom_site_label
 _atom_site_symmetry_multiplicity
 _atom_site_fract_x
 _atom_site_fract_y
 _atom_site_fract_z
 _atom_site_occupancy
  C  C0  1  0.65251800  0.10219500  0.69928800  1
  C  C1  1  0.44937800  0.30327100  0.10174000  1
  C  C2  1  0.85040300  0.89920100  0.30205100  1
  C  C3  1  0.24995800  0.50118500  0.50089400  1
  C  C4  1  0.04659000  0.69988500  0.89827200  1
  C  C5  1  0.75004200  0.49881500  0.49910600  1
  C  C6  1  0.55062200  0.69672900  0.89826000  1
  C  C7  1  0.95341000  0.30011500  0.10172800  1
  C  C8  1  0.34748200  0.89780500  0.30071200  1
  C  C9  1  0.14959700  0.10079900  0.69794900  1
  Ni  Ni10  1  0.89962500  0.59972000  0.19955400  1
  Ni  Ni11  1  0.30002700  0.19955800  0.40023200  1
  Ni  Ni12  1  0.69997300  0.80044200  0.59976800  1
  Ni  Ni13  1  0.10037500  0.40028000  0.80044600  1
  Cu  Cu14  1  0.80033200  0.20019800  0.40047200  1
  Cu  Cu15  1  0.60025300  0.40047000  0.79969300  1
  Cu  Cu16  1  0.00000000  0.00000000  0.00000000  1
  Cu  Cu17  1  0.39974700  0.59953000  0.20030700  1
  Cu  Cu18  1  0.19966800  0.79980200  0.59952800  1
  Cu  Cu19  1  0.50000000  0.00000000  0.00000000  1
  C  C20  1  0.79273800  0.38013300  0.27749900  1
  C  C21  1  0.19346200  0.98037600  0.47786900  1
  C  C22  1  0.59260600  0.58180000  0.67707900  1
  C  C23  1  0.99378700  0.18080700  0.87735000  1
  C  C24  1  0.39162100  0.78039500  0.07747100  1
  C  C25  1  0.78391300  0.52530000  0.97870500  1
  C  C26  1  0.18391300  0.12591400  0.17905000  1
  C  C27  1  0.58405400  0.72576000  0.37857800  1
  C  C28  1  0.98606400  0.32604200  0.58031000  1
  C  C29  1  0.38557300  0.92592600  0.77878500  1
  C  C30  1  0.17339900  0.58814400  0.24152400  1
  C  C31  1  0.57370500  0.18822100  0.44161500  1
  C  C32  1  0.97346800  0.78919000  0.64096400  1
  C  C33  1  0.37472600  0.38979600  0.84232800  1
  C  C34  1  0.76828000  0.98818800  0.04260000  1
  C  C35  1  0.00621300  0.81919300  0.12265000  1
  C  C36  1  0.40739400  0.41820000  0.32292100  1
  C  C37  1  0.80653800  0.01962400  0.52213100  1
  C  C38  1  0.20726200  0.61986700  0.72250100  1
  C  C39  1  0.60837900  0.21960500  0.92252900  1
  C  C40  1  0.01393600  0.67395800  0.41969000  1
  C  C41  1  0.41594600  0.27424000  0.62142200  1
  C  C42  1  0.81608700  0.87408600  0.82095000  1
  C  C43  1  0.21608700  0.47470000  0.02129500  1
  C  C44  1  0.61442700  0.07407400  0.22121500  1
  C  C45  1  0.62527400  0.61020400  0.15767200  1
  C  C46  1  0.02653200  0.21081000  0.35903600  1
  C  C47  1  0.42629500  0.81177900  0.55838500  1
  C  C48  1  0.82660100  0.41185600  0.75847600  1
  C  C49  1  0.23172000  0.01181200  0.95740000  1
