# generated using pymatgen
data_Cu6NiC22
_symmetry_space_group_name_H-M   'P 1'
_cell_length_a   7.44476950
_cell_length_b   7.44476950
_cell_length_c   7.44476950
_cell_angle_alpha   60.00000000
_cell_angle_beta   60.00000000
_cell_angle_gamma   60.00000000
_symmetry_Int_Tables_number   1
_chemical_formula_structural   Cu6NiC22
_chemical_formula_sum   'Cu6 Ni1 C22'
_cell_volume   291.76874718
_cell_formula_units_Z   1
loop_
 _symmetry_equiv_pos_site_id
 _symmetry_equiv_pos_as_xyz
  1  'x, y, z'
loop_
 _atom_site_type_symbol
 _atom_site_label
 _atom_site_symmetry_multiplicity
 _atom_site_fract_x
 _atom_site_fract_y
 _atom_site_fract_z
 _atom_site_occupancy
  Ni  Ni0  1  0.00000000  0.00000000  0.00000000  1
  C  C1  1  0.85364600  0.38211800  0.38211800  1
  C  C2  1  0.38211800  0.85364600  0.38211800  1
  C  C3  1  0.38211800  0.38211800  0.38211800  1
  C  C4  1  0.38211800  0.38211800  0.85364600  1
  C  C5  1  0.14635400  0.61788200  0.61788200  1
  C  C6  1  0.61788200  0.14635400  0.61788200  1
  C  C7  1  0.61788200  0.61788200  0.61788200  1
  C  C8  1  0.61788200  0.61788200  0.14635400  1
  C  C9  1  0.00000000  0.00000000  0.34394300  1
  C  C10  1  0.65605700  0.00000000  0.34394300  1
  C  C11  1  0.00000000  0.65605700  0.34394300  1
  C  C12  1  0.65605700  0.34394300  0.00000000  1
  C  C13  1  0.00000000  0.34394300  0.00000000  1
  C  C14  1  0.00000000  0.34394300  0.65605700  1
  C  C15  1  0.34394300  0.65605700  0.00000000  1
  C  C16  1  0.34394300  0.00000000  0.65605700  1
  C  C17  1  0.34394300  0.00000000  0.00000000  1
  C  C18  1  0.00000000  0.00000000  0.65605700  1
  C  C19  1  0.00000000  0.65605700  0.00000000  1
  C  C20  1  0.65605700  0.00000000  0.00000000  1
  C  C21  1  0.75000000  0.75000000  0.75000000  1
  C  C22  1  0.25000000  0.25000000  0.25000000  1
  Cu  Cu23  1  0.27503000  0.72497000  0.27503000  1
  Cu  Cu24  1  0.72497000  0.27503000  0.27503000  1
  Cu  Cu25  1  0.72497000  0.72497000  0.27503000  1
  Cu  Cu26  1  0.72497000  0.27503000  0.72497000  1
  Cu  Cu27  1  0.27503000  0.27503000  0.72497000  1
  Cu  Cu28  1  0.27503000  0.72497000  0.72497000  1
