# generated using pymatgen
data_Cu3Ni9C2
_symmetry_space_group_name_H-M   'P 1'
_cell_length_a   13.42284636
_cell_length_b   13.55398835
_cell_length_c   16.18952306
_cell_angle_alpha   90.00000000
_cell_angle_beta   90.00000000
_cell_angle_gamma   90.00000000
_symmetry_Int_Tables_number   1
_chemical_formula_structural   Cu3Ni9C2
_chemical_formula_sum   'Cu48 Ni144 C32'
_cell_volume   2945.41016943
_cell_formula_units_Z   16
loop_
 _symmetry_equiv_pos_site_id
 _symmetry_equiv_pos_as_xyz
  1  'x, y, z'
loop_
 _atom_site_type_symbol
 _atom_site_label
 _atom_site_symmetry_multiplicity
 _atom_site_fract_x
 _atom_site_fract_y
 _atom_site_fract_z
 _atom_site_occupancy
  C  C0  1  0.35687222  0.00730878  0.93580812  1
  C  C1  1  0.85687222  0.49269122  0.06419188  1
  C  C2  1  0.64312778  0.50730878  0.56419188  1
  C  C3  1  0.14312778  0.99269122  0.43580812  1
  C  C4  1  0.64312778  0.99269122  0.06419188  1
  C  C5  1  0.14312778  0.50730878  0.93580812  1
  C  C6  1  0.35687222  0.49269122  0.43580812  1
  C  C7  1  0.85687222  0.00730878  0.56419188  1
  C  C8  1  0.49424888  0.24680092  0.02539822  1
  C  C9  1  0.99424888  0.25319908  0.97460178  1
  C  C10  1  0.50575112  0.74680092  0.47460178  1
  C  C11  1  0.00575112  0.75319908  0.52539822  1
  C  C12  1  0.50575112  0.75319908  0.97460178  1
  C  C13  1  0.00575112  0.74680092  0.02539822  1
  C  C14  1  0.49424888  0.25319908  0.52539822  1
  C  C15  1  0.99424888  0.24680092  0.47460178  1
  C  C16  1  0.39585896  0.12860879  0.16511317  1
  C  C17  1  0.89585896  0.37139121  0.83488683  1
  C  C18  1  0.60414104  0.62860879  0.33488683  1
  C  C19  1  0.10414104  0.87139121  0.66511317  1
  C  C20  1  0.60414104  0.87139121  0.83488683  1
  C  C21  1  0.10414104  0.62860879  0.16511317  1
  C  C22  1  0.39585896  0.37139121  0.66511317  1
  C  C23  1  0.89585896  0.12860879  0.33488683  1
  Ni  Ni24  1  0.57979674  0.28487288  0.89212809  1
  Ni  Ni25  1  0.07979674  0.21512712  0.10787191  1
  Ni  Ni26  1  0.42020326  0.78487288  0.60787191  1
  Ni  Ni27  1  0.92020326  0.71512712  0.39212809  1
  Ni  Ni28  1  0.42020326  0.71512712  0.10787191  1
  Ni  Ni29  1  0.92020326  0.78487288  0.89212809  1
  Ni  Ni30  1  0.57979674  0.21512712  0.39212809  1
  Ni  Ni31  1  0.07979674  0.28487288  0.60787191  1
  Ni  Ni32  1  0.62303981  0.17067728  0.93016926  1
  Ni  Ni33  1  0.12303981  0.32932272  0.06983074  1
  Ni  Ni34  1  0.37696019  0.67067728  0.56983074  1
  Ni  Ni35  1  0.87696019  0.82932272  0.43016926  1
  Ni  Ni36  1  0.37696019  0.82932272  0.06983074  1
  Ni  Ni37  1  0.87696019  0.67067728  0.93016926  1
  Ni  Ni38  1  0.62303981  0.32932272  0.43016926  1
  Ni  Ni39  1  0.12303981  0.17067728  0.56983074  1
  Ni  Ni40  1  0.50608659  0.17848738  0.87895829  1
  Ni  Ni41  1  0.00608659  0.32151262  0.12104171  1
  Ni  Ni42  1  0.49391341  0.67848738  0.62104171  1
  Ni  Ni43  1  0.99391341  0.82151262  0.37895829  1
  Ni  Ni44  1  0.49391341  0.82151262  0.12104171  1
  Ni  Ni45  1  0.99391341  0.67848738  0.87895829  1
  Ni  Ni46  1  0.50608659  0.32151262  0.37895829  1
  Ni  Ni47  1  0.00608659  0.17848738  0.62104171  1
  Ni  Ni48  1  0.61160558  0.38876035  0.04815793  1
  Ni  Ni49  1  0.11160558  0.11123965  0.95184207  1
  Ni  Ni50  1  0.38839442  0.88876035  0.45184207  1
  Ni  Ni51  1  0.88839442  0.61123965  0.54815793  1
  Ni  Ni52  1  0.38839442  0.61123965  0.95184207  1
  Ni  Ni53  1  0.88839442  0.88876035  0.04815793  1
  Ni  Ni54  1  0.61160558  0.11123965  0.54815793  1
  Ni  Ni55  1  0.11160558  0.38876035  0.45184207  1
  Ni  Ni56  1  0.57047205  0.34106214  0.14472399  1
  Ni  Ni57  1  0.07047205  0.15893786  0.85527601  1
  Ni  Ni58  1  0.42952795  0.84106214  0.35527601  1
  Ni  Ni59  1  0.92952795  0.65893786  0.64472399  1
  Ni  Ni60  1  0.42952795  0.65893786  0.85527601  1
  Ni  Ni61  1  0.92952795  0.84106214  0.14472399  1
  Ni  Ni62  1  0.57047205  0.15893786  0.64472399  1
  Ni  Ni63  1  0.07047205  0.34106214  0.35527601  1
  Ni  Ni64  1  0.66367663  0.27729730  0.08775766  1
  Ni  Ni65  1  0.16367663  0.22270270  0.91224234  1
  Ni  Ni66  1  0.33632337  0.77729730  0.41224234  1
  Ni  Ni67  1  0.83632337  0.72270270  0.58775766  1
  Ni  Ni68  1  0.33632337  0.72270270  0.91224234  1
  Ni  Ni69  1  0.83632337  0.77729730  0.08775766  1
  Ni  Ni70  1  0.66367663  0.22270270  0.58775766  1
  Ni  Ni71  1  0.16367663  0.27729730  0.41224234  1
  Ni  Ni72  1  0.42714529  0.40384669  0.96312086  1
  Ni  Ni73  1  0.92714529  0.09615331  0.03687914  1
  Ni  Ni74  1  0.57285471  0.90384669  0.53687914  1
  Ni  Ni75  1  0.07285471  0.59615331  0.46312086  1
  Ni  Ni76  1  0.57285471  0.59615331  0.03687914  1
  Ni  Ni77  1  0.07285471  0.90384669  0.96312086  1
  Ni  Ni78  1  0.42714529  0.09615331  0.46312086  1
  Ni  Ni79  1  0.92714529  0.40384669  0.53687914  1
  Ni  Ni80  1  0.33588649  0.30813570  0.96050730  1
  Ni  Ni81  1  0.83588649  0.19186430  0.03949270  1
  Ni  Ni82  1  0.66411351  0.80813570  0.53949270  1
  Ni  Ni83  1  0.16411351  0.69186430  0.46050730  1
  Ni  Ni84  1  0.66411351  0.69186430  0.03949270  1
  Ni  Ni85  1  0.16411351  0.80813570  0.96050730  1
  Ni  Ni86  1  0.33588649  0.19186430  0.46050730  1
  Ni  Ni87  1  0.83588649  0.30813570  0.53949270  1
  Ni  Ni88  1  0.36040787  0.37218168  0.05467550  1
  Ni  Ni89  1  0.86040787  0.12781832  0.94532450  1
  Ni  Ni90  1  0.63959213  0.87218168  0.44532450  1
  Ni  Ni91  1  0.13959213  0.62781832  0.55467550  1
  Ni  Ni92  1  0.63959213  0.62781832  0.94532450  1
  Ni  Ni93  1  0.13959213  0.87218168  0.05467550  1
  Ni  Ni94  1  0.36040787  0.12781832  0.55467550  1
  Ni  Ni95  1  0.86040787  0.37218168  0.44532450  1
  Ni  Ni96  1  0.24730328  0.03792335  0.21974886  1
  Ni  Ni97  1  0.74730328  0.46207665  0.78025114  1
  Ni  Ni98  1  0.75269672  0.53792335  0.28025114  1
  Ni  Ni99  1  0.25269672  0.96207665  0.71974886  1
  Ni  Ni100  1  0.75269672  0.96207665  0.78025114  1
  Ni  Ni101  1  0.25269672  0.53792335  0.21974886  1
  Ni  Ni102  1  0.24730328  0.46207665  0.71974886  1
  Ni  Ni103  1  0.74730328  0.03792335  0.28025114  1
  Ni  Ni104  1  0.22214362  0.08040414  0.11864409  1
  Ni  Ni105  1  0.72214362  0.41959586  0.88135591  1
  Ni  Ni106  1  0.77785638  0.58040414  0.38135591  1
  Ni  Ni107  1  0.27785638  0.91959586  0.61864409  1
  Ni  Ni108  1  0.77785638  0.91959586  0.88135591  1
  Ni  Ni109  1  0.27785638  0.58040414  0.11864409  1
  Ni  Ni110  1  0.22214362  0.41959586  0.61864409  1
  Ni  Ni111  1  0.72214362  0.08040414  0.38135591  1
  Ni  Ni112  1  0.29728420  0.97315792  0.13499137  1
  Ni  Ni113  1  0.79728420  0.52684208  0.86500863  1
  Ni  Ni114  1  0.70271580  0.47315792  0.36500863  1
  Ni  Ni115  1  0.20271580  0.02684208  0.63499137  1
  Ni  Ni116  1  0.70271580  0.02684208  0.86500863  1
  Ni  Ni117  1  0.20271580  0.47315792  0.13499137  1
  Ni  Ni118  1  0.29728420  0.52684208  0.63499137  1
  Ni  Ni119  1  0.79728420  0.97315792  0.36500863  1
  Ni  Ni120  1  0.43919713  0.05768548  0.30401782  1
  Ni  Ni121  1  0.93919713  0.44231452  0.69598218  1
  Ni  Ni122  1  0.56080287  0.55768548  0.19598218  1
  Ni  Ni123  1  0.06080287  0.94231452  0.80401782  1
  Ni  Ni124  1  0.56080287  0.94231452  0.69598218  1
  Ni  Ni125  1  0.06080287  0.55768548  0.30401782  1
  Ni  Ni126  1  0.43919713  0.44231452  0.80401782  1
  Ni  Ni127  1  0.93919713  0.05768548  0.19598218  1
  Ni  Ni128  1  0.49300126  0.98573261  0.22500680  1
  Ni  Ni129  1  0.99300126  0.51426739  0.77499320  1
  Ni  Ni130  1  0.50699874  0.48573261  0.27499320  1
  Ni  Ni131  1  0.00699874  0.01426739  0.72500680  1
  Ni  Ni132  1  0.50699874  0.01426739  0.77499320  1
  Ni  Ni133  1  0.00699874  0.48573261  0.22500680  1
  Ni  Ni134  1  0.49300126  0.51426739  0.72500680  1
  Ni  Ni135  1  0.99300126  0.98573261  0.27499320  1
  Ni  Ni136  1  0.54820390  0.10063761  0.25395362  1
  Ni  Ni137  1  0.04820390  0.39936239  0.74604638  1
  Ni  Ni138  1  0.45179610  0.60063761  0.24604638  1
  Ni  Ni139  1  0.95179610  0.89936239  0.75395362  1
  Ni  Ni140  1  0.45179610  0.89936239  0.74604638  1
  Ni  Ni141  1  0.95179610  0.60063761  0.25395362  1
  Ni  Ni142  1  0.54820390  0.39936239  0.75395362  1
  Ni  Ni143  1  0.04820390  0.10063761  0.24604638  1
  Ni  Ni144  1  0.32109284  0.22709653  0.28149809  1
  Ni  Ni145  1  0.82109284  0.27290347  0.71850191  1
  Ni  Ni146  1  0.67890716  0.72709653  0.21850191  1
  Ni  Ni147  1  0.17890716  0.77290347  0.78149809  1
  Ni  Ni148  1  0.67890716  0.77290347  0.71850191  1
  Ni  Ni149  1  0.17890716  0.72709653  0.28149809  1
  Ni  Ni150  1  0.32109284  0.27290347  0.78149809  1
  Ni  Ni151  1  0.82109284  0.22709653  0.21850191  1
  Ni  Ni152  1  0.41233120  0.29785311  0.22820788  1
  Ni  Ni153  1  0.91233120  0.20214689  0.77179212  1
  Ni  Ni154  1  0.58766880  0.79785311  0.27179212  1
  Ni  Ni155  1  0.08766880  0.70214689  0.72820788  1
  Ni  Ni156  1  0.58766880  0.70214689  0.77179212  1
  Ni  Ni157  1  0.08766880  0.79785311  0.22820788  1
  Ni  Ni158  1  0.41233120  0.20214689  0.72820788  1
  Ni  Ni159  1  0.91233120  0.29785311  0.27179212  1
  Ni  Ni160  1  0.29159820  0.28162383  0.18481513  1
  Ni  Ni161  1  0.79159820  0.21837617  0.81518487  1
  Ni  Ni162  1  0.70840180  0.78162383  0.31518487  1
  Ni  Ni163  1  0.20840180  0.71837617  0.68481513  1
  Ni  Ni164  1  0.70840180  0.71837617  0.81518487  1
  Ni  Ni165  1  0.20840180  0.78162383  0.18481513  1
  Ni  Ni166  1  0.29159820  0.21837617  0.68481513  1
  Ni  Ni167  1  0.79159820  0.28162383  0.31518487  1
  Cu  Cu168  1  0.55583736  0.21655039  0.92270279  1
  Cu  Cu169  1  0.05583736  0.28344961  0.07729721  1
  Cu  Cu170  1  0.44416264  0.71655039  0.57729721  1
  Cu  Cu171  1  0.94416264  0.78344961  0.42270279  1
  Cu  Cu172  1  0.44416264  0.78344961  0.07729721  1
  Cu  Cu173  1  0.94416264  0.71655039  0.92270279  1
  Cu  Cu174  1  0.55583736  0.28344961  0.42270279  1
  Cu  Cu175  1  0.05583736  0.21655039  0.57729721  1
  Cu  Cu176  1  0.59436609  0.32040819  0.08220972  1
  Cu  Cu177  1  0.09436609  0.17959181  0.91779028  1
  Cu  Cu178  1  0.40563391  0.82040819  0.41779028  1
  Cu  Cu179  1  0.90563391  0.67959181  0.58220972  1
  Cu  Cu180  1  0.40563391  0.67959181  0.91779028  1
  Cu  Cu181  1  0.90563391  0.82040819  0.08220972  1
  Cu  Cu182  1  0.59436609  0.17959181  0.58220972  1
  Cu  Cu183  1  0.09436609  0.32040819  0.41779028  1
  Cu  Cu184  1  0.39473496  0.34213126  0.99840393  1
  Cu  Cu185  1  0.89473496  0.15786874  0.00159607  1
  Cu  Cu186  1  0.60526504  0.84213126  0.50159607  1
  Cu  Cu187  1  0.10526504  0.65786874  0.49840393  1
  Cu  Cu188  1  0.60526504  0.65786874  0.00159607  1
  Cu  Cu189  1  0.10526504  0.84213126  0.99840393  1
  Cu  Cu190  1  0.39473496  0.15786874  0.49840393  1
  Cu  Cu191  1  0.89473496  0.34213126  0.50159607  1
  Cu  Cu192  1  0.28026329  0.04784447  0.15816140  1
  Cu  Cu193  1  0.78026329  0.45215553  0.84183860  1
  Cu  Cu194  1  0.71973671  0.54784447  0.34183860  1
  Cu  Cu195  1  0.21973671  0.95215553  0.65816140  1
  Cu  Cu196  1  0.71973671  0.95215553  0.84183860  1
  Cu  Cu197  1  0.21973671  0.54784447  0.15816140  1
  Cu  Cu198  1  0.28026329  0.45215553  0.65816140  1
  Cu  Cu199  1  0.78026329  0.04784447  0.34183860  1
  Cu  Cu200  1  0.47685929  0.06228275  0.24386134  1
  Cu  Cu201  1  0.97685929  0.43771725  0.75613866  1
  Cu  Cu202  1  0.52314071  0.56228275  0.25613866  1
  Cu  Cu203  1  0.02314071  0.93771725  0.74386134  1
  Cu  Cu204  1  0.52314071  0.93771725  0.75613866  1
  Cu  Cu205  1  0.02314071  0.56228275  0.24386134  1
  Cu  Cu206  1  0.47685929  0.43771725  0.74386134  1
  Cu  Cu207  1  0.97685929  0.06228275  0.25613866  1
  Cu  Cu208  1  0.35118964  0.24481256  0.21990659  1
  Cu  Cu209  1  0.85118964  0.25518744  0.78009341  1
  Cu  Cu210  1  0.64881036  0.74481256  0.28009341  1
  Cu  Cu211  1  0.14881036  0.75518744  0.71990659  1
  Cu  Cu212  1  0.64881036  0.75518744  0.78009341  1
  Cu  Cu213  1  0.14881036  0.74481256  0.21990659  1
  Cu  Cu214  1  0.35118964  0.25518744  0.71990659  1
  Cu  Cu215  1  0.85118964  0.24481256  0.28009341  1
  C  C216  1  0.45340464  0.14337954  0.07232167  1
  C  C217  1  0.95340464  0.35662046  0.92767833  1
  C  C218  1  0.54659536  0.64337954  0.42767833  1
  C  C219  1  0.04659536  0.85662046  0.57232167  1
  C  C220  1  0.54659536  0.85662046  0.92767833  1
  C  C221  1  0.04659536  0.64337954  0.07232167  1
  C  C222  1  0.45340464  0.35662046  0.57232167  1
  C  C223  1  0.95340464  0.14337954  0.42767833  1
