# generated using pymatgen
data_Cu24NiC21
_symmetry_space_group_name_H-M   'P 1'
_cell_length_a   9.05128400
_cell_length_b   9.05128400
_cell_length_c   9.05128400
_cell_angle_alpha   90.00000000
_cell_angle_beta   90.00000000
_cell_angle_gamma   90.00000000
_symmetry_Int_Tables_number   1
_chemical_formula_structural   Cu24NiC21
_chemical_formula_sum   'Cu24 Ni1 C21'
_cell_volume   741.53315819
_cell_formula_units_Z   1
loop_
 _symmetry_equiv_pos_site_id
 _symmetry_equiv_pos_as_xyz
  1  'x, y, z'
loop_
 _atom_site_type_symbol
 _atom_site_label
 _atom_site_symmetry_multiplicity
 _atom_site_fract_x
 _atom_site_fract_y
 _atom_site_fract_z
 _atom_site_occupancy
  C  C0  1  0.30747200  0.69252800  0.30747200  1
  C  C1  1  0.69252800  0.30747200  0.30747200  1
  C  C2  1  0.30747200  0.30747200  0.69252800  1
  C  C3  1  0.69252800  0.69252800  0.69252800  1
  C  C4  1  0.81512500  0.81512500  0.18487500  1
  C  C5  1  0.18487500  0.81512500  0.81512500  1
  C  C6  1  0.81512500  0.18487500  0.81512500  1
  C  C7  1  0.18487500  0.18487500  0.18487500  1
  C  C8  1  0.50000000  0.00000000  0.25007800  1
  C  C9  1  0.00000000  0.74992200  0.50000000  1
  C  C10  1  0.25007800  0.50000000  0.00000000  1
  C  C11  1  0.00000000  0.25007800  0.50000000  1
  C  C12  1  0.74992200  0.50000000  0.00000000  1
  C  C13  1  0.50000000  0.00000000  0.74992200  1
  C  C14  1  0.00000000  0.50000000  0.24982900  1
  C  C15  1  0.50000000  0.75017100  0.00000000  1
  C  C16  1  0.24982900  0.00000000  0.50000000  1
  C  C17  1  0.50000000  0.24982900  0.00000000  1
  C  C18  1  0.75017100  0.00000000  0.50000000  1
  C  C19  1  0.00000000  0.50000000  0.75017100  1
  C  C20  1  0.50000000  0.50000000  0.50000000  1
  Ni  Ni21  1  0.00000000  0.00000000  0.00000000  1
  Cu  Cu22  1  0.34911800  0.94409000  0.35877200  1
  Cu  Cu23  1  0.05591000  0.64122800  0.34911800  1
  Cu  Cu24  1  0.35877200  0.65088200  0.05591000  1
  Cu  Cu25  1  0.65088200  0.05591000  0.35877200  1
  Cu  Cu26  1  0.94409000  0.35877200  0.34911800  1
  Cu  Cu27  1  0.64122800  0.34911800  0.05591000  1
  Cu  Cu28  1  0.34911800  0.05591000  0.64122800  1
  Cu  Cu29  1  0.05591000  0.35877200  0.65088200  1
  Cu  Cu30  1  0.35877200  0.34911800  0.94409000  1
  Cu  Cu31  1  0.65088200  0.94409000  0.64122800  1
  Cu  Cu32  1  0.94409000  0.64122800  0.65088200  1
  Cu  Cu33  1  0.64122800  0.65088200  0.94409000  1
  Cu  Cu34  1  0.84961400  0.85923500  0.44354300  1
  Cu  Cu35  1  0.55645700  0.84961400  0.14076500  1
  Cu  Cu36  1  0.85923500  0.55645700  0.15038600  1
  Cu  Cu37  1  0.15038600  0.85923500  0.55645700  1
  Cu  Cu38  1  0.44354300  0.84961400  0.85923500  1
  Cu  Cu39  1  0.14076500  0.55645700  0.84961400  1
  Cu  Cu40  1  0.84961400  0.14076500  0.55645700  1
  Cu  Cu41  1  0.55645700  0.15038600  0.85923500  1
  Cu  Cu42  1  0.85923500  0.44354300  0.84961400  1
  Cu  Cu43  1  0.15038600  0.14076500  0.44354300  1
  Cu  Cu44  1  0.44354300  0.15038600  0.14076500  1
  Cu  Cu45  1  0.14076500  0.44354300  0.15038600  1
