# generated using pymatgen
data_CuNi3C10
_symmetry_space_group_name_H-M   'P 1'
_cell_length_a   5.90627300
_cell_length_b   9.67142163
_cell_length_c   9.67116530
_cell_angle_alpha   75.27808276
_cell_angle_beta   107.78032920
_cell_angle_gamma   72.22142158
_symmetry_Int_Tables_number   1
_chemical_formula_structural   CuNi3C10
_chemical_formula_sum   'Cu2 Ni6 C20'
_cell_volume   462.71220515
_cell_formula_units_Z   2
loop_
 _symmetry_equiv_pos_site_id
 _symmetry_equiv_pos_as_xyz
  1  'x, y, z'
loop_
 _atom_site_type_symbol
 _atom_site_label
 _atom_site_symmetry_multiplicity
 _atom_site_fract_x
 _atom_site_fract_y
 _atom_site_fract_z
 _atom_site_occupancy
  Ni  Ni0  1  0.99999900  0.25000000  0.25000000  1
  Ni  Ni1  1  0.00000000  0.75000000  0.75000000  1
  Ni  Ni2  1  0.66666600  0.75070800  0.08403900  1
  Ni  Ni3  1  0.66667100  0.25071100  0.58405000  1
  Ni  Ni4  1  0.33332900  0.24928900  0.91594900  1
  Ni  Ni5  1  0.33333400  0.74929200  0.41596100  1
  Cu  Cu6  1  0.00000200  0.99999800  0.00000100  1
  Cu  Cu7  1  0.99999800  0.50000300  0.49999900  1
  C  C8  1  0.33333300  0.02955900  0.69622200  1
  C  C9  1  0.66667100  0.47044000  0.80377800  1
  C  C10  1  0.33332500  0.52958000  0.19622900  1
  C  C11  1  0.66667400  0.97041900  0.30377400  1
  C  C12  1  0.66666300  0.57721200  0.91053900  1
  C  C13  1  0.66667000  0.07722200  0.41055900  1
  C  C14  1  0.33333000  0.42277800  0.08944100  1
  C  C15  1  0.33333600  0.92278700  0.58946000  1
  C  C16  1  0.81889100  0.27893900  0.91670800  1
  C  C17  1  0.81889500  0.77894200  0.41671700  1
  C  C18  1  0.81888000  0.50726200  0.68839700  1
  C  C19  1  0.81887500  0.00727000  0.18839300  1
  C  C20  1  0.36225100  0.50726200  0.68840000  1
  C  C21  1  0.36223600  0.00727000  0.18839200  1
  C  C22  1  0.18110700  0.72105400  0.08328300  1
  C  C23  1  0.18110700  0.22106400  0.58329200  1
  C  C24  1  0.63776300  0.49273000  0.31160700  1
  C  C25  1  0.63775000  0.99273800  0.81160000  1
  C  C26  1  0.18112400  0.49273200  0.31160800  1
  C  C27  1  0.18112100  0.99273900  0.81160400  1
