# generated using pymatgen
data_CuNiC9
_symmetry_space_group_name_H-M   'P 1'
_cell_length_a   7.18911000
_cell_length_b   7.19777876
_cell_length_c   7.22020085
_cell_angle_alpha   61.00038997
_cell_angle_beta   61.36793045
_cell_angle_gamma   60.47222775
_symmetry_Int_Tables_number   1
_chemical_formula_structural   CuNiC9
_chemical_formula_sum   'Cu2 Ni2 C18'
_cell_volume   269.78897279
_cell_formula_units_Z   2
loop_
 _symmetry_equiv_pos_site_id
 _symmetry_equiv_pos_as_xyz
  1  'x, y, z'
loop_
 _atom_site_type_symbol
 _atom_site_label
 _atom_site_symmetry_multiplicity
 _atom_site_fract_x
 _atom_site_fract_y
 _atom_site_fract_z
 _atom_site_occupancy
  C  C0  1  0.50000000  0.00000000  0.00000000  1
  C  C1  1  0.00000000  0.00000000  0.50000000  1
  C  C2  1  0.00000000  0.50000000  0.00000000  1
  C  C3  1  0.50000000  0.50000000  0.50000000  1
  Ni  Ni4  1  0.50000000  0.00000000  0.50000000  1
  Ni  Ni5  1  0.00000000  0.50000000  0.50000000  1
  Cu  Cu6  1  0.50000000  0.50000000  0.00000000  1
  Cu  Cu7  1  0.00000000  0.00000000  0.00000000  1
  C  C8  1  0.12039800  0.11598700  0.10711000  1
  C  C9  1  0.87960200  0.88401300  0.89289000  1
  C  C10  1  0.39132700  0.87577200  0.39277400  1
  C  C11  1  0.87936500  0.39574900  0.39098000  1
  C  C12  1  0.39925000  0.39710100  0.86702900  1
  C  C13  1  0.60867300  0.12422800  0.60722600  1
  C  C14  1  0.12063500  0.60425100  0.60902000  1
  C  C15  1  0.60075000  0.60289900  0.13297100  1
  C  C16  1  0.83118200  0.38078100  0.85437700  1
  C  C17  1  0.40145000  0.83084100  0.83060100  1
  C  C18  1  0.85109600  0.84659100  0.35614500  1
  C  C19  1  0.16881800  0.61921900  0.14562300  1
  C  C20  1  0.59855000  0.16915900  0.16939900  1
  C  C21  1  0.14890400  0.15340900  0.64385500  1
