# generated using pymatgen
data_CuNiC8
_symmetry_space_group_name_H-M   'P 1'
_cell_length_a   5.84000800
_cell_length_b   5.42694300
_cell_length_c   9.49290745
_cell_angle_alpha   55.11193442
_cell_angle_beta   90.00000000
_cell_angle_gamma   90.00000000
_symmetry_Int_Tables_number   1
_chemical_formula_structural   CuNiC8
_chemical_formula_sum   'Cu2 Ni2 C16'
_cell_volume   246.78873061
_cell_formula_units_Z   2
loop_
 _symmetry_equiv_pos_site_id
 _symmetry_equiv_pos_as_xyz
  1  'x, y, z'
loop_
 _atom_site_type_symbol
 _atom_site_label
 _atom_site_symmetry_multiplicity
 _atom_site_fract_x
 _atom_site_fract_y
 _atom_site_fract_z
 _atom_site_occupancy
  C  C0  1  0.42882000  0.22779300  0.74944400  1
  C  C1  1  0.57118000  0.77220700  0.25055600  1
  C  C2  1  0.92882000  0.77220700  0.75055600  1
  C  C3  1  0.07118000  0.22779300  0.24944400  1
  Ni  Ni4  1  0.00000000  0.50000000  0.50000000  1
  Ni  Ni5  1  0.50000000  0.50000000  0.00000000  1
  Cu  Cu6  1  0.00000000  0.00000000  0.00000000  1
  Cu  Cu7  1  0.50000000  0.00000000  0.50000000  1
  C  C8  1  0.04156900  0.36335300  0.74997500  1
  C  C9  1  0.95843100  0.63664700  0.25002500  1
  C  C10  1  0.54156900  0.63664700  0.75002500  1
  C  C11  1  0.45843100  0.36335300  0.24997500  1
  C  C12  1  0.70191400  0.87197200  0.94051900  1
  C  C13  1  0.29808600  0.12802800  0.05948100  1
  C  C14  1  0.20191400  0.12802800  0.55948100  1
  C  C15  1  0.79808600  0.87197200  0.44051900  1
  C  C16  1  0.19309200  0.74438700  0.94640700  1
  C  C17  1  0.80690800  0.25561300  0.05359300  1
  C  C18  1  0.69309200  0.25561300  0.55359300  1
  C  C19  1  0.30690800  0.74438700  0.44640700  1
