# generated using pymatgen
data_Cu2NiC3
_symmetry_space_group_name_H-M   'P 1'
_cell_length_a   6.67356700
_cell_length_b   8.28923600
_cell_length_c   13.14278700
_cell_angle_alpha   90.00000000
_cell_angle_beta   90.00000000
_cell_angle_gamma   90.00000000
_symmetry_Int_Tables_number   1
_chemical_formula_structural   Cu2NiC3
_chemical_formula_sum   'Cu24 Ni12 C36'
_cell_volume   727.04283520
_cell_formula_units_Z   12
loop_
 _symmetry_equiv_pos_site_id
 _symmetry_equiv_pos_as_xyz
  1  'x, y, z'
loop_
 _atom_site_type_symbol
 _atom_site_label
 _atom_site_symmetry_multiplicity
 _atom_site_fract_x
 _atom_site_fract_y
 _atom_site_fract_z
 _atom_site_occupancy
  C  C0  1  0.63688800  0.25011100  0.68124700  1
  C  C1  1  0.86311200  0.25011100  0.18124700  1
  C  C2  1  0.36311200  0.75011100  0.31875300  1
  C  C3  1  0.13688800  0.75011100  0.81875300  1
  C  C4  1  0.57047100  0.60365800  0.88182200  1
  C  C5  1  0.93748600  0.90239000  0.38704300  1
  C  C6  1  0.42952900  0.10365800  0.11817800  1
  C  C7  1  0.06251400  0.40239000  0.61295700  1
  C  C8  1  0.43748600  0.40239000  0.11295700  1
  C  C9  1  0.07047100  0.10365800  0.61817800  1
  C  C10  1  0.56251400  0.90239000  0.88704300  1
  C  C11  1  0.92952900  0.60365800  0.38182200  1
  C  C12  1  0.65647600  0.42071800  0.88944200  1
  C  C13  1  0.85390700  0.08388400  0.39708300  1
  C  C14  1  0.34352400  0.92071800  0.11055800  1
  C  C15  1  0.14609300  0.58388400  0.60291700  1
  C  C16  1  0.35390700  0.58388400  0.10291700  1
  C  C17  1  0.15647600  0.92071800  0.61055800  1
  C  C18  1  0.64609300  0.08388400  0.89708300  1
  C  C19  1  0.84352400  0.42071800  0.38944200  1
  C  C20  1  0.55719700  0.75110100  0.54365500  1
  C  C21  1  0.94280300  0.75110100  0.04365500  1
  C  C22  1  0.44280300  0.25110100  0.45634500  1
  C  C23  1  0.05719700  0.25110100  0.95634500  1
  C  C24  1  0.65539500  0.64736500  0.64116700  1
  C  C25  1  0.84497900  0.85335700  0.14193800  1
  C  C26  1  0.34460500  0.14736500  0.35883300  1
  C  C27  1  0.15502100  0.35335700  0.85806200  1
  C  C28  1  0.34497900  0.35335700  0.35806200  1
  C  C29  1  0.15539500  0.14736500  0.85883300  1
  C  C30  1  0.65502100  0.85335700  0.64193800  1
  C  C31  1  0.84460500  0.64736500  0.14116700  1
  C  C32  1  0.51159400  0.50213900  0.99473700  1
  C  C33  1  0.48840600  0.00213900  0.00526300  1
  C  C34  1  0.01159400  0.00213900  0.50526300  1
  C  C35  1  0.98840600  0.50213900  0.49473700  1
  Ni  Ni36  1  0.62846900  0.52127900  0.92898100  1
  Ni  Ni37  1  0.88462800  0.98356600  0.43572500  1
  Ni  Ni38  1  0.37153100  0.02127900  0.07101900  1
  Ni  Ni39  1  0.11537200  0.48356600  0.56427500  1
  Ni  Ni40  1  0.38462800  0.48356600  0.06427500  1
  Ni  Ni41  1  0.12846900  0.02127900  0.57101900  1
  Ni  Ni42  1  0.61537200  0.98356600  0.93572500  1
  Ni  Ni43  1  0.87153100  0.52127900  0.42898100  1
  Ni  Ni44  1  0.66294100  0.75080300  0.59956700  1
  Ni  Ni45  1  0.83705900  0.75080300  0.09956700  1
  Ni  Ni46  1  0.33705900  0.25080300  0.40043300  1
  Ni  Ni47  1  0.16294100  0.25080300  0.90043300  1
  Cu  Cu48  1  0.68964200  0.25266800  0.82706600  1
  Cu  Cu49  1  0.81035800  0.25266800  0.32706600  1
  Cu  Cu50  1  0.31035800  0.75266800  0.17293400  1
  Cu  Cu51  1  0.18964200  0.75266800  0.67293400  1
  Cu  Cu52  1  0.65118200  0.47832600  0.68470200  1
  Cu  Cu53  1  0.85159400  0.02240400  0.18639200  1
  Cu  Cu54  1  0.34881800  0.97832600  0.31529800  1
  Cu  Cu55  1  0.14840600  0.52240400  0.81360800  1
  Cu  Cu56  1  0.35159400  0.52240400  0.31360800  1
  Cu  Cu57  1  0.15118200  0.97832600  0.81529800  1
  Cu  Cu58  1  0.64840600  0.02240400  0.68639200  1
  Cu  Cu59  1  0.84881800  0.47832600  0.18470200  1
  Cu  Cu60  1  0.92636500  0.24883000  0.65927300  1
  Cu  Cu61  1  0.57363500  0.24883000  0.15927300  1
  Cu  Cu62  1  0.07363500  0.74883000  0.34072700  1
  Cu  Cu63  1  0.42636500  0.74883000  0.84072700  1
  Cu  Cu64  1  0.60196400  0.25005300  0.53806200  1
  Cu  Cu65  1  0.89803600  0.25005300  0.03806200  1
  Cu  Cu66  1  0.39803600  0.75005300  0.46193800  1
  Cu  Cu67  1  0.10196400  0.75005300  0.96193800  1
  Cu  Cu68  1  0.36934300  0.25134800  0.70429900  1
  Cu  Cu69  1  0.13065700  0.25134800  0.20429900  1
  Cu  Cu70  1  0.63065700  0.75134800  0.29570100  1
  Cu  Cu71  1  0.86934300  0.75134800  0.79570100  1
