# generated using pymatgen
data_Cu3(NiC2)2
_symmetry_space_group_name_H-M   'P 1'
_cell_length_a   7.03433700
_cell_length_b   7.21291800
_cell_length_c   13.75232600
_cell_angle_alpha   90.00000000
_cell_angle_beta   90.00000000
_cell_angle_gamma   90.00000000
_symmetry_Int_Tables_number   1
_chemical_formula_structural   Cu3(NiC2)2
_chemical_formula_sum   'Cu12 Ni8 C16'
_cell_volume   697.76683633
_cell_formula_units_Z   4
loop_
 _symmetry_equiv_pos_site_id
 _symmetry_equiv_pos_as_xyz
  1  'x, y, z'
loop_
 _atom_site_type_symbol
 _atom_site_label
 _atom_site_symmetry_multiplicity
 _atom_site_fract_x
 _atom_site_fract_y
 _atom_site_fract_z
 _atom_site_occupancy
  Ni  Ni0  1  0.36326200  0.34169900  0.62426500  1
  Ni  Ni1  1  0.63673800  0.65830100  0.37573500  1
  Ni  Ni2  1  0.13673800  0.84169900  0.37573500  1
  Ni  Ni3  1  0.63673800  0.65830100  0.12426500  1
  Ni  Ni4  1  0.86326200  0.15830100  0.62426500  1
  Ni  Ni5  1  0.36326200  0.34169900  0.87573500  1
  Ni  Ni6  1  0.86326200  0.15830100  0.87573500  1
  Ni  Ni7  1  0.13673800  0.84169900  0.12426500  1
  Cu  Cu8  1  0.17772600  0.00378700  0.75000000  1
  Cu  Cu9  1  0.82227400  0.99621300  0.25000000  1
  Cu  Cu10  1  0.32227400  0.50378700  0.25000000  1
  Cu  Cu11  1  0.67772600  0.49621300  0.75000000  1
  Cu  Cu12  1  0.03710200  0.68120400  0.59366300  1
  Cu  Cu13  1  0.96289800  0.31879600  0.40633700  1
  Cu  Cu14  1  0.46289800  0.18120400  0.40633700  1
  Cu  Cu15  1  0.96289800  0.31879600  0.09366300  1
  Cu  Cu16  1  0.53710200  0.81879600  0.59366300  1
  Cu  Cu17  1  0.03710200  0.68120400  0.90633700  1
  Cu  Cu18  1  0.53710200  0.81879600  0.90633700  1
  Cu  Cu19  1  0.46289800  0.18120400  0.09366300  1
  C  C20  1  0.21920800  0.01286200  0.54893400  1
  C  C21  1  0.78079200  0.98713800  0.45106600  1
  C  C22  1  0.28079200  0.51286200  0.45106600  1
  C  C23  1  0.78079200  0.98713800  0.04893400  1
  C  C24  1  0.71920800  0.48713800  0.54893400  1
  C  C25  1  0.21920800  0.01286200  0.95106600  1
  C  C26  1  0.71920800  0.48713800  0.95106600  1
  C  C27  1  0.28079200  0.51286200  0.04893400  1
  C  C28  1  0.04680800  0.42387700  0.75000000  1
  C  C29  1  0.95319200  0.57612300  0.25000000  1
  C  C30  1  0.45319200  0.92387700  0.25000000  1
  C  C31  1  0.54680800  0.07612300  0.75000000  1
  C  C32  1  0.32559600  0.66846600  0.75000000  1
  C  C33  1  0.67440400  0.33153400  0.25000000  1
  C  C34  1  0.17440400  0.16846600  0.25000000  1
  C  C35  1  0.82559600  0.83153400  0.75000000  1
