# generated using pymatgen
data_Cu7NiC5
_symmetry_space_group_name_H-M   'P 1'
_cell_length_a   10.23952200
_cell_length_b   7.59997200
_cell_length_c   11.13851662
_cell_angle_alpha   70.74186907
_cell_angle_beta   90.00000000
_cell_angle_gamma   90.00000000
_symmetry_Int_Tables_number   1
_chemical_formula_structural   Cu7NiC5
_chemical_formula_sum   'Cu28 Ni4 C20'
_cell_volume   818.29604501
_cell_formula_units_Z   4
loop_
 _symmetry_equiv_pos_site_id
 _symmetry_equiv_pos_as_xyz
  1  'x, y, z'
loop_
 _atom_site_type_symbol
 _atom_site_label
 _atom_site_symmetry_multiplicity
 _atom_site_fract_x
 _atom_site_fract_y
 _atom_site_fract_z
 _atom_site_occupancy
  C  C0  1  0.40628400  0.34669800  0.18833500  1
  C  C1  1  0.90628400  0.65330200  0.31166500  1
  C  C2  1  0.59371600  0.65330200  0.81166500  1
  C  C3  1  0.09371600  0.34669800  0.68833500  1
  C  C4  1  0.24731100  0.95477300  0.01556600  1
  C  C5  1  0.74731100  0.04522700  0.48443400  1
  C  C6  1  0.75268900  0.04522700  0.98443400  1
  C  C7  1  0.25268900  0.95477300  0.51556600  1
  C  C8  1  0.55185500  0.64011800  0.41981200  1
  C  C9  1  0.05185500  0.35988200  0.08018800  1
  C  C10  1  0.44814500  0.35988200  0.58018800  1
  C  C11  1  0.94814500  0.64011800  0.91981200  1
  C  C12  1  0.25355900  0.55562500  0.37523900  1
  C  C13  1  0.75355900  0.44437500  0.12476100  1
  C  C14  1  0.74644100  0.44437500  0.62476100  1
  C  C15  1  0.24644100  0.55562500  0.87523900  1
  C  C16  1  0.54265800  0.91219500  0.26506900  1
  C  C17  1  0.04265800  0.08780500  0.23493100  1
  C  C18  1  0.45734200  0.08780500  0.73493100  1
  C  C19  1  0.95734200  0.91219500  0.76506900  1
  Ni  Ni20  1  0.48884200  0.68640800  0.34310600  1
  Ni  Ni21  1  0.98884200  0.31359200  0.15689400  1
  Ni  Ni22  1  0.51115800  0.31359200  0.65689400  1
  Ni  Ni23  1  0.01115800  0.68640800  0.84310600  1
  Cu  Cu24  1  0.36390600  0.70032000  0.40262600  1
  Cu  Cu25  1  0.86390600  0.29968000  0.09737400  1
  Cu  Cu26  1  0.63609400  0.29968000  0.59737400  1
  Cu  Cu27  1  0.13609400  0.70032000  0.90262600  1
  Cu  Cu28  1  0.30736900  0.36766500  0.43324300  1
  Cu  Cu29  1  0.80736900  0.63233500  0.06675700  1
  Cu  Cu30  1  0.69263100  0.63233500  0.56675700  1
  Cu  Cu31  1  0.19263100  0.36766500  0.93324300  1
  Cu  Cu32  1  0.23720000  0.60999700  0.23813100  1
  Cu  Cu33  1  0.73720000  0.39000300  0.26186900  1
  Cu  Cu34  1  0.76280000  0.39000300  0.76186900  1
  Cu  Cu35  1  0.26280000  0.60999700  0.73813100  1
  Cu  Cu36  1  0.14386900  0.59917800  0.44476600  1
  Cu  Cu37  1  0.64386900  0.40082200  0.05523400  1
  Cu  Cu38  1  0.85613100  0.40082200  0.55523400  1
  Cu  Cu39  1  0.35613100  0.59917800  0.94476600  1
  Cu  Cu40  1  0.51829500  0.01989600  0.35087100  1
  Cu  Cu41  1  0.01829500  0.98010400  0.14912900  1
  Cu  Cu42  1  0.48170500  0.98010400  0.64912900  1
  Cu  Cu43  1  0.98170500  0.01989600  0.85087100  1
  Cu  Cu44  1  0.46951800  0.98061600  0.14640300  1
  Cu  Cu45  1  0.96951800  0.01938400  0.35359700  1
  Cu  Cu46  1  0.53048200  0.01938400  0.85359700  1
  Cu  Cu47  1  0.03048200  0.98061600  0.64640300  1
  Cu  Cu48  1  0.68115600  0.87736100  0.24890700  1
  Cu  Cu49  1  0.18115600  0.12263900  0.25109300  1
  Cu  Cu50  1  0.31884400  0.12263900  0.75109300  1
  Cu  Cu51  1  0.81884400  0.87736100  0.74890700  1
