# generated using pymatgen
data_Cu6(NiC)5
_symmetry_space_group_name_H-M   'P 1'
_cell_length_a   5.97973500
_cell_length_b   12.56428700
_cell_length_c   15.06996400
_cell_angle_alpha   90.00000000
_cell_angle_beta   90.00000000
_cell_angle_gamma   90.00000000
_symmetry_Int_Tables_number   1
_chemical_formula_structural   Cu6(NiC)5
_chemical_formula_sum   'Cu24 Ni20 C20'
_cell_volume   1132.22307361
_cell_formula_units_Z   4
loop_
 _symmetry_equiv_pos_site_id
 _symmetry_equiv_pos_as_xyz
  1  'x, y, z'
loop_
 _atom_site_type_symbol
 _atom_site_label
 _atom_site_symmetry_multiplicity
 _atom_site_fract_x
 _atom_site_fract_y
 _atom_site_fract_z
 _atom_site_occupancy
  C  C0  1  0.05942600  0.76213400  0.73183100  1
  C  C1  1  0.55942600  0.73786600  0.26816900  1
  C  C2  1  0.94057400  0.26213400  0.76816900  1
  C  C3  1  0.44057400  0.23786600  0.23183100  1
  C  C4  1  0.42850900  0.02391300  0.83157900  1
  C  C5  1  0.92850900  0.47608700  0.16842100  1
  C  C6  1  0.57149100  0.52391300  0.66842100  1
  C  C7  1  0.07149100  0.97608700  0.33157900  1
  C  C8  1  0.53191100  0.85327700  0.56945000  1
  C  C9  1  0.03191100  0.64672300  0.43055000  1
  C  C10  1  0.46808900  0.35327700  0.93055000  1
  C  C11  1  0.96808900  0.14672300  0.06945000  1
  C  C12  1  0.45727600  0.22480000  0.59310300  1
  C  C13  1  0.95727600  0.27520000  0.40689700  1
  C  C14  1  0.54272400  0.72480000  0.90689700  1
  C  C15  1  0.04272400  0.77520000  0.09310300  1
  C  C16  1  0.98928900  0.53187700  0.92184700  1
  C  C17  1  0.48928900  0.96812300  0.07815300  1
  C  C18  1  0.01071100  0.03187700  0.57815300  1
  C  C19  1  0.51071100  0.46812300  0.42184700  1
  Ni  Ni20  1  0.13258000  0.44566000  0.85759300  1
  Ni  Ni21  1  0.63258000  0.05434000  0.14240700  1
  Ni  Ni22  1  0.86742000  0.94566000  0.64240700  1
  Ni  Ni23  1  0.36742000  0.55434000  0.35759300  1
  Ni  Ni24  1  0.13934700  0.12089100  0.64457100  1
  Ni  Ni25  1  0.63934700  0.37910900  0.35542900  1
  Ni  Ni26  1  0.86065300  0.62089100  0.85542900  1
  Ni  Ni27  1  0.36065300  0.87910900  0.14457100  1
  Ni  Ni28  1  0.20536400  0.96813400  0.51754900  1
  Ni  Ni29  1  0.70536400  0.53186600  0.48245100  1
  Ni  Ni30  1  0.79463600  0.46813400  0.98245100  1
  Ni  Ni31  1  0.29463600  0.03186600  0.01754900  1
  Ni  Ni32  1  0.32979400  0.40545200  0.48948100  1
  Ni  Ni33  1  0.82979400  0.09454800  0.51051900  1
  Ni  Ni34  1  0.67020600  0.90545200  0.01051900  1
  Ni  Ni35  1  0.17020600  0.59454800  0.98948100  1
  Ni  Ni36  1  0.06862700  0.52428900  0.67607100  1
  Ni  Ni37  1  0.56862700  0.97571100  0.32392900  1
  Ni  Ni38  1  0.93137300  0.02428900  0.82392900  1
  Ni  Ni39  1  0.43137300  0.47571100  0.17607100  1
  Cu  Cu40  1  0.40414800  0.89335800  0.68500600  1
  Cu  Cu41  1  0.90414800  0.60664200  0.31499400  1
  Cu  Cu42  1  0.59585200  0.39335800  0.81499400  1
  Cu  Cu43  1  0.09585200  0.10664200  0.18500600  1
  Cu  Cu44  1  0.28846700  0.74186200  0.56470400  1
  Cu  Cu45  1  0.78846700  0.75813800  0.43529600  1
  Cu  Cu46  1  0.71153300  0.24186200  0.93529600  1
  Cu  Cu47  1  0.21153300  0.25813800  0.06470400  1
  Cu  Cu48  1  0.30087300  0.23549500  0.87123100  1
  Cu  Cu49  1  0.80087300  0.26450500  0.12876900  1
  Cu  Cu50  1  0.69912700  0.73549500  0.62876900  1
  Cu  Cu51  1  0.19912700  0.76450500  0.37123100  1
  Cu  Cu52  1  0.42142900  0.65178500  0.80120800  1
  Cu  Cu53  1  0.92142900  0.84821500  0.19879200  1
  Cu  Cu54  1  0.57857100  0.15178500  0.69879200  1
  Cu  Cu55  1  0.07857100  0.34821500  0.30120800  1
  Cu  Cu56  1  0.28252600  0.82341500  0.88791000  1
  Cu  Cu57  1  0.78252600  0.67658500  0.11209000  1
  Cu  Cu58  1  0.71747400  0.32341500  0.61209000  1
  Cu  Cu59  1  0.21747400  0.17658500  0.38791000  1
  Cu  Cu60  1  0.28969500  0.32393500  0.66862200  1
  Cu  Cu61  1  0.78969500  0.17606500  0.33137800  1
  Cu  Cu62  1  0.71030500  0.82393500  0.83137800  1
  Cu  Cu63  1  0.21030500  0.67606500  0.16862200  1
