# generated using pymatgen
data_CuNiC5
_symmetry_space_group_name_H-M   'P 1'
_cell_length_a   4.88336737
_cell_length_b   8.99819200
_cell_length_c   14.10333821
_cell_angle_alpha   90.00000000
_cell_angle_beta   89.64969974
_cell_angle_gamma   90.00000000
_symmetry_Int_Tables_number   1
_chemical_formula_structural   CuNiC5
_chemical_formula_sum   'Cu8 Ni8 C40'
_cell_volume   619.70993162
_cell_formula_units_Z   8
loop_
 _symmetry_equiv_pos_site_id
 _symmetry_equiv_pos_as_xyz
  1  'x, y, z'
loop_
 _atom_site_type_symbol
 _atom_site_label
 _atom_site_symmetry_multiplicity
 _atom_site_fract_x
 _atom_site_fract_y
 _atom_site_fract_z
 _atom_site_occupancy
  Ni  Ni0  1  0.39970100  0.36711400  0.54683500  1
  Ni  Ni1  1  0.10029900  0.86711400  0.95316500  1
  Ni  Ni2  1  0.60010300  0.63257700  0.04789600  1
  Ni  Ni3  1  0.89989700  0.13257700  0.45210400  1
  Ni  Ni4  1  0.60029900  0.63288600  0.45316500  1
  Ni  Ni5  1  0.89970100  0.13288600  0.04683500  1
  Ni  Ni6  1  0.39989700  0.36742300  0.95210400  1
  Ni  Ni7  1  0.10010300  0.86742300  0.54789600  1
  C  C8  1  0.35741100  0.35297100  0.74945100  1
  C  C9  1  0.14258900  0.85297100  0.75054900  1
  C  C10  1  0.64258900  0.64702900  0.25054900  1
  C  C11  1  0.85741100  0.14702900  0.24945100  1
  Cu  Cu12  1  0.59448300  0.05926600  0.64525600  1
  Cu  Cu13  1  0.90551700  0.55926600  0.85474400  1
  Cu  Cu14  1  0.40892300  0.93918900  0.14706000  1
  Cu  Cu15  1  0.09107700  0.43918900  0.35294000  1
  Cu  Cu16  1  0.40551700  0.94073400  0.35474400  1
  Cu  Cu17  1  0.09448300  0.44073400  0.14525600  1
  Cu  Cu18  1  0.59107700  0.06081100  0.85294000  1
  Cu  Cu19  1  0.90892300  0.56081100  0.64706000  1
  C  C20  1  0.80656000  0.00896700  0.56046700  1
  C  C21  1  0.69344000  0.50896700  0.93953300  1
  C  C22  1  0.19886100  0.98206000  0.06052500  1
  C  C23  1  0.30113900  0.48206000  0.43947500  1
  C  C24  1  0.19344000  0.99103300  0.43953300  1
  C  C25  1  0.30656000  0.49103300  0.06046700  1
  C  C26  1  0.80113900  0.01794000  0.93947500  1
  C  C27  1  0.69886100  0.51794000  0.56052500  1
  C  C28  1  0.19722400  0.46670600  0.85447400  1
  C  C29  1  0.30277600  0.96670600  0.64552600  1
  C  C30  1  0.80379200  0.53656200  0.35613700  1
  C  C31  1  0.69620800  0.03656200  0.14386300  1
  C  C32  1  0.80277600  0.53329400  0.14552600  1
  C  C33  1  0.69722400  0.03329400  0.35447400  1
  C  C34  1  0.19620800  0.46343800  0.64386300  1
  C  C35  1  0.30379200  0.96343800  0.85613700  1
  C  C36  1  0.73821500  0.02455200  0.74942400  1
  C  C37  1  0.76178500  0.52455200  0.75057600  1
  C  C38  1  0.26178500  0.97544800  0.25057600  1
  C  C39  1  0.23821500  0.47544800  0.24942400  1
  C  C40  1  0.53068500  0.24249900  0.64659400  1
  C  C41  1  0.96931500  0.74249900  0.85340600  1
  C  C42  1  0.47929800  0.75865200  0.14864000  1
  C  C43  1  0.02070200  0.25865200  0.35136000  1
  C  C44  1  0.46931500  0.75750100  0.35340600  1
  C  C45  1  0.03068500  0.25750100  0.14659400  1
  C  C46  1  0.52070200  0.24134800  0.85136000  1
  C  C47  1  0.97929800  0.74134800  0.64864000  1
  C  C48  1  0.60494700  0.24473000  0.47794000  1
  C  C49  1  0.89505300  0.74473000  0.02206000  1
  C  C50  1  0.39505300  0.75527000  0.52206000  1
  C  C51  1  0.10494700  0.25527000  0.97794000  1
  C  C52  1  0.39838800  0.74568600  0.96633700  1
  C  C53  1  0.10161200  0.24568600  0.53366300  1
  C  C54  1  0.60161200  0.25431400  0.03366300  1
  C  C55  1  0.89838800  0.75431400  0.46633700  1
