# generated using pymatgen
data_Cu2NiC
_symmetry_space_group_name_H-M   'P 1'
_cell_length_a   4.33832058
_cell_length_b   5.18810869
_cell_length_c   15.81493597
_cell_angle_alpha   29.96849337
_cell_angle_beta   105.58790252
_cell_angle_gamma   77.59552262
_symmetry_Int_Tables_number   1
_chemical_formula_structural   Cu2NiC
_chemical_formula_sum   'Cu2 Ni1 C1'
_cell_volume   62.83403358
_cell_formula_units_Z   1
loop_
 _symmetry_equiv_pos_site_id
 _symmetry_equiv_pos_as_xyz
  1  'x, y, z'
loop_
 _atom_site_type_symbol
 _atom_site_label
 _atom_site_symmetry_multiplicity
 _atom_site_fract_x
 _atom_site_fract_y
 _atom_site_fract_z
 _atom_site_occupancy
  C  C0  1  0.00000000  0.99919900  0.00030000  1
  Ni  Ni1  1  0.00000000  0.00028400  0.49988400  1
  Cu  Cu2  1  0.00000000  0.74429400  0.50729100  1
  Cu  Cu3  1  0.00000000  0.25612300  0.49252500  1
