# generated using pymatgen
data_CuNi3C136
_symmetry_space_group_name_H-M   'P 1'
_cell_length_a   8.93422688
_cell_length_b   8.93422688
_cell_length_c   31.41429116
_cell_angle_alpha   81.82482684
_cell_angle_beta   81.82482684
_cell_angle_gamma   59.99999937
_symmetry_Int_Tables_number   1
_chemical_formula_structural   CuNi3C136
_chemical_formula_sum   'Cu1 Ni3 C136'
_cell_volume   2142.08619065
_cell_formula_units_Z   1
loop_
 _symmetry_equiv_pos_site_id
 _symmetry_equiv_pos_as_xyz
  1  'x, y, z'
loop_
 _atom_site_type_symbol
 _atom_site_label
 _atom_site_symmetry_multiplicity
 _atom_site_fract_x
 _atom_site_fract_y
 _atom_site_fract_z
 _atom_site_occupancy
  Ni  Ni0  1  0.25001498  0.25001498  0.24995507  1
  Ni  Ni1  1  0.50000000  0.50000000  0.50000000  1
  Ni  Ni2  1  0.74998502  0.74998502  0.75004493  1
  Cu  Cu3  1  0.00000000  0.00000000  -0.00000000  1
  C  C4  1  0.66013029  0.66013029  0.01960912  1
  C  C5  1  0.91015707  0.91015707  0.26952878  1
  C  C6  1  0.16015088  0.16015088  0.51954736  1
  C  C7  1  0.41014473  0.41014473  0.76956581  1
  C  C8  1  0.58985527  0.58985527  0.23043419  1
  C  C9  1  0.83984912  0.83984912  0.48045264  1
  C  C10  1  0.08984293  0.08984293  0.73047122  1
  C  C11  1  0.33986971  0.33986971  0.98039088  1
  C  C12  1  0.28754625  0.28754525  0.13736224  1
  C  C13  1  0.53741460  0.53741360  0.38775721  1
  C  C14  1  0.78741461  0.78741361  0.63775716  1
  C  C15  1  0.03719504  0.03719404  0.88841589  1
  C  C16  1  0.96280496  0.96280596  0.11158411  1
  C  C17  1  0.21258539  0.21258639  0.36224284  1
  C  C18  1  0.46258540  0.46258640  0.61224179  1
  C  C19  1  0.71245475  0.71245475  0.86263776  1
  C  C20  1  0.02934260  0.30392975  0.06035880  1
  C  C21  1  0.27925861  0.55500089  0.31084116  1
  C  C22  1  0.52925132  0.80500663  0.56084347  1
  C  C23  1  0.77943083  0.05481146  0.81095246  1
  C  C24  1  0.30392975  0.60636885  0.06035880  1
  C  C25  1  0.55500089  0.85489934  0.31084116  1
  C  C26  1  0.80500663  0.10489858  0.56084347  1
  C  C27  1  0.05481146  0.35480525  0.81095246  1
  C  C28  1  0.60636885  0.02934260  0.06035880  1
  C  C29  1  0.85489934  0.27925861  0.31084116  1
  C  C30  1  0.10489858  0.52925132  0.56084347  1
  C  C31  1  0.35480525  0.77943083  0.81095246  1
  C  C32  1  0.22056917  0.94518854  0.18904754  1
  C  C33  1  0.47074868  0.19499337  0.43915653  1
  C  C34  1  0.72074139  0.44499911  0.68915884  1
  C  C35  1  0.97065740  0.69607025  0.93964120  1
  C  C36  1  0.94518854  0.64519475  0.18904754  1
  C  C37  1  0.19499337  0.89510142  0.43915653  1
  C  C38  1  0.44499911  0.14510066  0.68915884  1
  C  C39  1  0.69607025  0.39363115  0.93964120  1
  C  C40  1  0.64519475  0.22056917  0.18904754  1
  C  C41  1  0.89510142  0.47074868  0.43915653  1
  C  C42  1  0.14510066  0.72074139  0.68915884  1
  C  C43  1  0.39363115  0.97065740  0.93964120  1
  C  C44  1  0.71308417  0.09151802  0.22881119  1
  C  C45  1  0.96305876  0.34151293  0.47887054  1
  C  C46  1  0.21308606  0.59147880  0.72887827  1
  C  C47  1  0.46423182  0.84085533  0.97901913  1
  C  C48  1  0.09151802  0.96658662  0.22881119  1
  C  C49  1  0.34151293  0.21655777  0.47887054  1
  C  C50  1  0.59147880  0.46655687  0.72887827  1
  C  C51  1  0.84085533  0.71589372  0.97901913  1
  C  C52  1  0.96658662  0.71308417  0.22881119  1
  C  C53  1  0.21655777  0.96305876  0.47887054  1
  C  C54  1  0.46655687  0.21308606  0.72887827  1
  C  C55  1  0.71589372  0.46423182  0.97901913  1
  C  C56  1  0.53576818  0.15914467  0.02098087  1
  C  C57  1  0.78691394  0.40852120  0.27112173  1
  C  C58  1  0.03694124  0.65848707  0.52112946  1
  C  C59  1  0.28691583  0.90848198  0.77118881  1
  C  C60  1  0.15914467  0.28410628  0.02098087  1
  C  C61  1  0.40852120  0.53344313  0.27112173  1
  C  C62  1  0.65848707  0.78344223  0.52112946  1
  C  C63  1  0.90848198  0.03341338  0.77118881  1
  C  C64  1  0.28410628  0.53576818  0.02098087  1
  C  C65  1  0.53344313  0.78691394  0.27112173  1
  C  C66  1  0.78344223  0.03694124  0.52112946  1
  C  C67  1  0.03341338  0.28691583  0.77118881  1
  C  C68  1  0.60705936  0.85952759  0.05642982  1
  C  C69  1  0.85618824  0.10941987  0.30634442  1
  C  C70  1  0.10617122  0.35941841  0.55635314  1
  C  C71  1  0.35610151  0.60957425  0.80637864  1
  C  C72  1  0.85952759  0.47698323  0.05642982  1
  C  C73  1  0.10941987  0.72804748  0.30634442  1
  C  C74  1  0.35941841  0.97805723  0.55635314  1
  C  C75  1  0.60957425  0.22794560  0.80637864  1
  C  C76  1  0.47698323  0.60705936  0.05642982  1
  C  C77  1  0.72804748  0.85618824  0.30634442  1
  C  C78  1  0.97805723  0.10617122  0.55635314  1
  C  C79  1  0.22794560  0.35610151  0.80637864  1
  C  C80  1  0.64389849  0.39042575  0.19362136  1
  C  C81  1  0.89382878  0.64058159  0.44364686  1
  C  C82  1  0.14381176  0.89058013  0.69365558  1
  C  C83  1  0.39294064  0.14047241  0.94357018  1
  C  C84  1  0.39042575  0.77205440  0.19362136  1
  C  C85  1  0.64058159  0.02194277  0.44364686  1
  C  C86  1  0.89058013  0.27195252  0.69365558  1
  C  C87  1  0.14047241  0.52301677  0.94357018  1
  C  C88  1  0.77205440  0.64389849  0.19362136  1
  C  C89  1  0.02194277  0.89382878  0.44364686  1
  C  C90  1  0.27195252  0.14381176  0.69365558  1
  C  C91  1  0.52301677  0.39294064  0.94357018  1
  C  C92  1  0.26195738  0.09711287  0.18501255  1
  C  C93  1  0.51210444  0.34698896  0.43513503  1
  C  C94  1  0.76204630  0.59701603  0.68513312  1
  C  C95  1  0.01092473  0.84889695  0.93705788  1
  C  C96  1  0.09711287  0.45591720  0.18501255  1
  C  C97  1  0.34698896  0.70577156  0.43513503  1
  C  C98  1  0.59701603  0.95580454  0.68513312  1
  C  C99  1  0.84889695  0.20312044  0.93705788  1
  C  C100  1  0.45591720  0.26195738  0.18501255  1
  C  C101  1  0.70577156  0.51210444  0.43513503  1
  C  C102  1  0.95580454  0.76204630  0.68513312  1
  C  C103  1  0.20312044  0.01092473  0.93705788  1
  C  C104  1  0.98907527  0.15110305  0.06294212  1
  C  C105  1  0.23795370  0.40298397  0.31486688  1
  C  C106  1  0.48789556  0.65301104  0.56486497  1
  C  C107  1  0.73804262  0.90288713  0.81498745  1
  C  C108  1  0.15110305  0.79687956  0.06294212  1
  C  C109  1  0.40298397  0.04419546  0.31486688  1
  C  C110  1  0.65301104  0.29422844  0.56486497  1
  C  C111  1  0.90288713  0.54408280  0.81498745  1
  C  C112  1  0.79687956  0.98907527  0.06294212  1
  C  C113  1  0.04419546  0.23795370  0.31486688  1
  C  C114  1  0.29422844  0.48789556  0.56486497  1
  C  C115  1  0.54408280  0.73804262  0.81498745  1
  C  C116  1  0.10774713  0.29473491  0.10219670  1
  C  C117  1  0.35806779  0.54683497  0.35237356  1
  C  C118  1  0.60806285  0.79682053  0.60237502  1
  C  C119  1  0.85850028  0.04686615  0.85255370  1
  C  C120  1  0.29473491  0.49532127  0.10219670  1
  C  C121  1  0.54683497  0.74272368  0.35237356  1
  C  C122  1  0.79682053  0.99274160  0.60237502  1
  C  C123  1  0.04686615  0.24207987  0.85255370  1
  C  C124  1  0.49532127  0.10774713  0.10219670  1
  C  C125  1  0.74272368  0.35806779  0.35237356  1
  C  C126  1  0.99274160  0.60806285  0.60237502  1
  C  C127  1  0.24207987  0.85850028  0.85255370  1
  C  C128  1  0.14149972  0.95313385  0.14744630  1
  C  C129  1  0.39193715  0.20317947  0.39762498  1
  C  C130  1  0.64193221  0.45316503  0.64762644  1
  C  C131  1  0.89225287  0.70526509  0.89780330  1
  C  C132  1  0.95313385  0.75792013  0.14744630  1
  C  C133  1  0.20317947  0.00725840  0.39762498  1
  C  C134  1  0.45316503  0.25727632  0.64762644  1
  C  C135  1  0.70526509  0.50467873  0.89780330  1
  C  C136  1  0.75792013  0.14149972  0.14744630  1
  C  C137  1  0.00725840  0.39193715  0.39762498  1
  C  C138  1  0.25727632  0.64193221  0.64762644  1
  C  C139  1  0.50467873  0.89225287  0.89780330  1
