# generated using pymatgen
data_Cu4NiC20
_symmetry_space_group_name_H-M   'P 1'
_cell_length_a   4.76505400
_cell_length_b   7.40151800
_cell_length_c   7.40151800
_cell_angle_alpha   90.00000000
_cell_angle_beta   90.00000000
_cell_angle_gamma   90.00000000
_symmetry_Int_Tables_number   1
_chemical_formula_structural   Cu4NiC20
_chemical_formula_sum   'Cu4 Ni1 C20'
_cell_volume   261.04142163
_cell_formula_units_Z   1
loop_
 _symmetry_equiv_pos_site_id
 _symmetry_equiv_pos_as_xyz
  1  'x, y, z'
loop_
 _atom_site_type_symbol
 _atom_site_label
 _atom_site_symmetry_multiplicity
 _atom_site_fract_x
 _atom_site_fract_y
 _atom_site_fract_z
 _atom_site_occupancy
  Ni  Ni0  1  0.50000000  0.00000000  0.00000000  1
  Cu  Cu1  1  0.51170700  0.16626000  0.64279200  1
  Cu  Cu2  1  0.51170700  0.83374000  0.35720800  1
  Cu  Cu3  1  0.48829200  0.64279200  0.83374000  1
  Cu  Cu4  1  0.48829200  0.35720800  0.16626000  1
  C  C5  1  0.96158100  0.63599500  0.13540900  1
  C  C6  1  0.96158100  0.36400500  0.86459100  1
  C  C7  1  0.03841900  0.13540900  0.36400500  1
  C  C8  1  0.03841900  0.86459100  0.63599500  1
  C  C9  1  0.00000000  0.00000000  0.00000000  1
  C  C10  1  0.00000000  0.50000000  0.50000000  1
  C  C11  1  0.18136100  0.00000000  0.50000000  1
  C  C12  1  0.81863900  0.50000000  0.00000000  1
  C  C13  1  0.29465100  0.64354300  0.13967200  1
  C  C14  1  0.29465100  0.35645700  0.86032800  1
  C  C15  1  0.70534900  0.13967200  0.35645700  1
  C  C16  1  0.70534900  0.86032800  0.64354300  1
  C  C17  1  0.20972700  0.08122300  0.15811500  1
  C  C18  1  0.20972700  0.91877700  0.84188500  1
  C  C19  1  0.79027300  0.15811500  0.91877700  1
  C  C20  1  0.79850400  0.42075600  0.66323800  1
  C  C21  1  0.79027300  0.84188500  0.08122300  1
  C  C22  1  0.79850400  0.57924400  0.33676200  1
  C  C23  1  0.20149600  0.33676200  0.42075600  1
  C  C24  1  0.20149600  0.66323800  0.57924400  1
