# generated using pymatgen
data_CuNiC
_symmetry_space_group_name_H-M   'P 1'
_cell_length_a   7.81211000
_cell_length_b   7.76554500
_cell_length_c   7.96870587
_cell_angle_alpha   90.00000000
_cell_angle_beta   102.81895155
_cell_angle_gamma   90.00000000
_symmetry_Int_Tables_number   1
_chemical_formula_structural   CuNiC
_chemical_formula_sum   'Cu8 Ni8 C8'
_cell_volume   471.37501943
_cell_formula_units_Z   8
loop_
 _symmetry_equiv_pos_site_id
 _symmetry_equiv_pos_as_xyz
  1  'x, y, z'
loop_
 _atom_site_type_symbol
 _atom_site_label
 _atom_site_symmetry_multiplicity
 _atom_site_fract_x
 _atom_site_fract_y
 _atom_site_fract_z
 _atom_site_occupancy
  C  C0  1  0.50000000  0.75361600  0.25000000  1
  C  C1  1  0.50000000  0.24638400  0.75000000  1
  C  C2  1  0.50000000  0.74362600  0.75000000  1
  C  C3  1  0.50000000  0.25637400  0.25000000  1
  C  C4  1  0.00000000  0.00000000  0.00000000  1
  C  C5  1  0.00000000  0.00000000  0.50000000  1
  C  C6  1  0.00000000  0.56364200  0.25000000  1
  C  C7  1  0.00000000  0.43635800  0.75000000  1
  Ni  Ni8  1  0.21559400  0.92385800  0.91003300  1
  Ni  Ni9  1  0.78440600  0.92385800  0.58996700  1
  Ni  Ni10  1  0.78440600  0.07614200  0.08996700  1
  Ni  Ni11  1  0.21559400  0.07614200  0.41003300  1
  Ni  Ni12  1  0.21416000  0.58204300  0.45536900  1
  Ni  Ni13  1  0.78584000  0.58204300  0.04463100  1
  Ni  Ni14  1  0.78584000  0.41795700  0.54463100  1
  Ni  Ni15  1  0.21416000  0.41795700  0.95536900  1
  Cu  Cu16  1  0.33672100  0.87476300  0.85825600  1
  Cu  Cu17  1  0.66327900  0.87476300  0.64174400  1
  Cu  Cu18  1  0.66327900  0.12523700  0.14174400  1
  Cu  Cu19  1  0.33672100  0.12523700  0.35825600  1
  Cu  Cu20  1  0.33518900  0.61167500  0.56904200  1
  Cu  Cu21  1  0.66481100  0.61167500  0.93095800  1
  Cu  Cu22  1  0.66481100  0.38832500  0.43095800  1
  Cu  Cu23  1  0.33518900  0.38832500  0.06904200  1
