# generated using pymatgen
data_Cu6NiC15
_symmetry_space_group_name_H-M   'P 1'
_cell_length_a   8.21253752
_cell_length_b   8.21253752
_cell_length_c   8.76486456
_cell_angle_alpha   62.25686186
_cell_angle_beta   62.25686186
_cell_angle_gamma   59.84505248
_symmetry_Int_Tables_number   1
_chemical_formula_structural   Cu6NiC15
_chemical_formula_sum   'Cu12 Ni2 C30'
_cell_volume   431.16516243
_cell_formula_units_Z   2
loop_
 _symmetry_equiv_pos_site_id
 _symmetry_equiv_pos_as_xyz
  1  'x, y, z'
loop_
 _atom_site_type_symbol
 _atom_site_label
 _atom_site_symmetry_multiplicity
 _atom_site_fract_x
 _atom_site_fract_y
 _atom_site_fract_z
 _atom_site_occupancy
  C  C0  1  0.50439400  0.99854800  0.50009000  1
  C  C1  1  0.99854800  0.50439400  0.00009000  1
  C  C2  1  0.40916500  0.89664000  0.97657500  1
  C  C3  1  0.15925300  0.88701000  0.09553400  1
  C  C4  1  0.36526500  0.67547800  0.05507500  1
  C  C5  1  0.89664000  0.40916500  0.47657500  1
  C  C6  1  0.67547800  0.36526500  0.55507500  1
  C  C7  1  0.88701000  0.15925300  0.59553400  1
  C  C8  1  0.61398200  0.14172800  0.90347300  1
  C  C9  1  0.82500300  0.09411900  0.94484100  1
  C  C10  1  0.60311100  0.28174200  0.02414300  1
  C  C11  1  0.14172800  0.61398200  0.40347300  1
  C  C12  1  0.28174200  0.60311100  0.52414300  1
  C  C13  1  0.09411900  0.82500300  0.44484100  1
  C  C14  1  0.25014100  0.33336200  0.25087500  1
  C  C15  1  0.66149800  0.75208200  0.24863800  1
  C  C16  1  0.83539200  0.16640600  0.25092200  1
  C  C17  1  0.33336200  0.25014100  0.75087500  1
  C  C18  1  0.16640600  0.83539200  0.75092200  1
  C  C19  1  0.75208200  0.66149800  0.74863800  1
  C  C20  1  0.31759600  0.81247500  0.08649100  1
  C  C21  1  0.81247500  0.31759600  0.58649100  1
  C  C22  1  0.68813200  0.21579100  0.91352800  1
  C  C23  1  0.21579100  0.68813200  0.41352800  1
  C  C24  1  0.24788200  0.19992600  0.24930300  1
  C  C25  1  0.79605500  0.75405400  0.24737000  1
  C  C26  1  0.69833700  0.30055700  0.25330400  1
  C  C27  1  0.19992600  0.24788200  0.74930300  1
  C  C28  1  0.30055700  0.69833700  0.75330400  1
  C  C29  1  0.75405400  0.79605500  0.74737000  1
  Ni  Ni30  1  0.35402800  0.75024500  0.25059700  1
  Ni  Ni31  1  0.75024500  0.35402800  0.75059700  1
  Cu  Cu32  1  0.34679900  0.03310300  0.33758600  1
  Cu  Cu33  1  0.77599600  0.85426200  0.33435800  1
  Cu  Cu34  1  0.53322500  0.27867800  0.34034400  1
  Cu  Cu35  1  0.03310300  0.34679900  0.83758600  1
  Cu  Cu36  1  0.27867800  0.53322500  0.84034400  1
  Cu  Cu37  1  0.85426200  0.77599600  0.83435800  1
  Cu  Cu38  1  0.65515600  0.96393100  0.65951900  1
  Cu  Cu39  1  0.22361000  0.14783800  0.66101600  1
  Cu  Cu40  1  0.46689600  0.71811500  0.66664900  1
  Cu  Cu41  1  0.96393100  0.65515600  0.15951900  1
  Cu  Cu42  1  0.71811500  0.46689600  0.16664900  1
  Cu  Cu43  1  0.14783800  0.22361000  0.16101600  1
