# generated using pymatgen
data_Cu(Ni3C4)4
_symmetry_space_group_name_H-M   'P 1'
_cell_length_a   9.15112210
_cell_length_b   9.15112210
_cell_length_c   9.15112212
_cell_angle_alpha   109.43210681
_cell_angle_beta   109.43210681
_cell_angle_gamma   109.43210514
_symmetry_Int_Tables_number   1
_chemical_formula_structural   Cu(Ni3C4)4
_chemical_formula_sum   'Cu1 Ni12 C16'
_cell_volume   590.78369888
_cell_formula_units_Z   1
loop_
 _symmetry_equiv_pos_site_id
 _symmetry_equiv_pos_as_xyz
  1  'x, y, z'
loop_
 _atom_site_type_symbol
 _atom_site_label
 _atom_site_symmetry_multiplicity
 _atom_site_fract_x
 _atom_site_fract_y
 _atom_site_fract_z
 _atom_site_occupancy
  C  C0  1  0.68402900  0.68402900  0.28568500  1
  C  C1  1  0.39838800  0.39838800  0.71035300  1
  C  C2  1  0.00213400  0.00213400  0.00213400  1
  C  C3  1  0.99949800  0.99949800  0.34593400  1
  C  C4  1  0.59902500  0.31730600  0.00089100  1
  C  C5  1  0.71035300  0.39838800  0.39838800  1
  C  C6  1  0.31730600  0.00089100  0.59902500  1
  C  C7  1  0.34593400  0.99949800  0.99949800  1
  C  C8  1  0.68402900  0.28568500  0.68402900  1
  C  C9  1  0.00089100  0.59902500  0.31730600  1
  C  C10  1  0.59902500  0.00089100  0.31730600  1
  C  C11  1  0.28568500  0.68402900  0.68402900  1
  C  C12  1  0.99949800  0.34593400  0.99949800  1
  C  C13  1  0.00089100  0.31730600  0.59902500  1
  C  C14  1  0.39838800  0.71035300  0.39838800  1
  C  C15  1  0.31730600  0.59902500  0.00089100  1
  Ni  Ni16  1  0.36256700  0.36256700  0.17567400  1
  Ni  Ni17  1  0.18420500  0.18420500  0.81553500  1
  Ni  Ni18  1  0.81672000  0.63190900  0.00472100  1
  Ni  Ni19  1  0.36256700  0.17567400  0.36256700  1
  Ni  Ni20  1  0.00472100  0.81672000  0.63190900  1
  Ni  Ni21  1  0.18420500  0.81553500  0.18420500  1
  Ni  Ni22  1  0.00472100  0.63190900  0.81672000  1
  Ni  Ni23  1  0.63190900  0.00472100  0.81672000  1
  Ni  Ni24  1  0.81553500  0.18420500  0.18420500  1
  Ni  Ni25  1  0.81672000  0.00472100  0.63190900  1
  Ni  Ni26  1  0.17567400  0.36256700  0.36256700  1
  Ni  Ni27  1  0.63190900  0.81672000  0.00472100  1
  Cu  Cu28  1  0.66613700  0.66613700  0.66613700  1
