# generated using pymatgen
data_Cu12Ni3C7
_symmetry_space_group_name_H-M   'P 1'
_cell_length_a   6.79296900
_cell_length_b   9.83783300
_cell_length_c   14.77367317
_cell_angle_alpha   68.91831513
_cell_angle_beta   90.00000000
_cell_angle_gamma   90.00000000
_symmetry_Int_Tables_number   1
_chemical_formula_structural   Cu12Ni3C7
_chemical_formula_sum   'Cu24 Ni6 C14'
_cell_volume   921.21525979
_cell_formula_units_Z   2
loop_
 _symmetry_equiv_pos_site_id
 _symmetry_equiv_pos_as_xyz
  1  'x, y, z'
loop_
 _atom_site_type_symbol
 _atom_site_label
 _atom_site_symmetry_multiplicity
 _atom_site_fract_x
 _atom_site_fract_y
 _atom_site_fract_z
 _atom_site_occupancy
  C  C0  1  0.96711300  0.50000000  0.75000000  1
  C  C1  1  0.03288700  0.50000000  0.25000000  1
  C  C2  1  0.82805700  0.00000000  0.25000000  1
  C  C3  1  0.17194300  0.00000000  0.75000000  1
  C  C4  1  0.50000000  0.50000000  0.50000000  1
  C  C5  1  0.50000000  0.50000000  0.00000000  1
  C  C6  1  0.50000000  0.00000000  0.00000000  1
  C  C7  1  0.50000000  0.00000000  0.50000000  1
  C  C8  1  0.47696400  0.50000000  0.75000000  1
  C  C9  1  0.52303600  0.50000000  0.25000000  1
  C  C10  1  0.78585300  0.73147300  0.45882600  1
  C  C11  1  0.78585300  0.26852700  0.04117400  1
  C  C12  1  0.21414700  0.73147300  0.95882600  1
  C  C13  1  0.21414700  0.26852700  0.54117400  1
  Ni  Ni14  1  0.12694400  0.84456700  0.14370900  1
  Ni  Ni15  1  0.12694400  0.15543300  0.35629100  1
  Ni  Ni16  1  0.87305600  0.84456700  0.64370900  1
  Ni  Ni17  1  0.87305600  0.15543300  0.85629100  1
  Ni  Ni18  1  0.35645300  0.00000000  0.25000000  1
  Ni  Ni19  1  0.64354700  0.00000000  0.75000000  1
  Cu  Cu20  1  0.31359800  0.75051300  0.47688500  1
  Cu  Cu21  1  0.31359800  0.24948700  0.02311500  1
  Cu  Cu22  1  0.68640200  0.75051300  0.97688500  1
  Cu  Cu23  1  0.68640200  0.24948700  0.52311500  1
  Cu  Cu24  1  0.35683400  0.90410600  0.15088100  1
  Cu  Cu25  1  0.35683400  0.09589400  0.34911900  1
  Cu  Cu26  1  0.64316600  0.90410600  0.65088100  1
  Cu  Cu27  1  0.64316600  0.09589400  0.84911900  1
  Cu  Cu28  1  0.49664200  0.55761500  0.35625100  1
  Cu  Cu29  1  0.49664200  0.44238500  0.14374900  1
  Cu  Cu30  1  0.50335800  0.55761500  0.85625100  1
  Cu  Cu31  1  0.50335800  0.44238500  0.64374900  1
  Cu  Cu32  1  0.29692100  0.18405800  0.95641900  1
  Cu  Cu33  1  0.29692100  0.81594200  0.54358100  1
  Cu  Cu34  1  0.70307900  0.18405800  0.45641900  1
  Cu  Cu35  1  0.70307900  0.81594200  0.04358100  1
  Cu  Cu36  1  0.76392100  0.38879600  0.49174400  1
  Cu  Cu37  1  0.76392100  0.61120400  0.00825600  1
  Cu  Cu38  1  0.23607900  0.38879600  0.99174400  1
  Cu  Cu39  1  0.23607900  0.61120400  0.50825600  1
  Cu  Cu40  1  0.30795000  0.91310700  0.93106400  1
  Cu  Cu41  1  0.30795000  0.08689300  0.56893600  1
  Cu  Cu42  1  0.69205000  0.91310700  0.43106400  1
  Cu  Cu43  1  0.69205000  0.08689300  0.06893600  1
