# generated using pymatgen
data_Cu3NiC22
_symmetry_space_group_name_H-M   'P 1'
_cell_length_a   13.95660900
_cell_length_b   8.64762500
_cell_length_c   9.81383777
_cell_angle_alpha   73.21782015
_cell_angle_beta   90.00000000
_cell_angle_gamma   90.00000000
_symmetry_Int_Tables_number   1
_chemical_formula_structural   Cu3NiC22
_chemical_formula_sum   'Cu6 Ni2 C44'
_cell_volume   1134.00063360
_cell_formula_units_Z   2
loop_
 _symmetry_equiv_pos_site_id
 _symmetry_equiv_pos_as_xyz
  1  'x, y, z'
loop_
 _atom_site_type_symbol
 _atom_site_label
 _atom_site_symmetry_multiplicity
 _atom_site_fract_x
 _atom_site_fract_y
 _atom_site_fract_z
 _atom_site_occupancy
  C  C0  1  0.25000000  0.50872600  0.01571600  1
  C  C1  1  0.75000000  0.49127400  0.98428400  1
  C  C2  1  0.49159400  0.73843300  0.26239500  1
  C  C3  1  0.99159400  0.26156700  0.73760500  1
  C  C4  1  0.50840600  0.26156700  0.73760500  1
  C  C5  1  0.00840600  0.73843300  0.26239500  1
  C  C6  1  0.75000000  0.96579700  0.51015700  1
  C  C7  1  0.25000000  0.03420300  0.48984300  1
  Ni  Ni8  1  0.25000000  0.02111300  0.99346400  1
  Ni  Ni9  1  0.75000000  0.97888700  0.00653600  1
  Cu  Cu10  1  0.00783800  0.75172700  0.71840100  1
  Cu  Cu11  1  0.50783800  0.24827300  0.28159900  1
  Cu  Cu12  1  0.99216200  0.24827300  0.28159900  1
  Cu  Cu13  1  0.49216200  0.75172700  0.71840100  1
  Cu  Cu14  1  0.25000000  0.51290400  0.49040600  1
  Cu  Cu15  1  0.75000000  0.48709600  0.50959400  1
  C  C16  1  0.84728100  0.81228500  0.03972100  1
  C  C17  1  0.34728100  0.18771500  0.96027900  1
  C  C18  1  0.15271900  0.18771500  0.96027900  1
  C  C19  1  0.65271900  0.81228500  0.03972100  1
  C  C20  1  0.75000000  0.88604400  0.21207000  1
  C  C21  1  0.25000000  0.11395600  0.78793000  1
  C  C22  1  0.25000000  0.95289600  0.19821300  1
  C  C23  1  0.75000000  0.04710400  0.80178700  1
  C  C24  1  0.15267500  0.85738400  0.01464700  1
  C  C25  1  0.65267500  0.14261600  0.98535300  1
  C  C26  1  0.84732500  0.14261600  0.98535300  1
  C  C27  1  0.34732500  0.85738400  0.01464700  1
  C  C28  1  0.90220400  0.69525900  0.72571100  1
  C  C29  1  0.40220400  0.30474100  0.27428900  1
  C  C30  1  0.09779600  0.30474100  0.27428900  1
  C  C31  1  0.59779600  0.69525900  0.72571100  1
  C  C32  1  0.04701700  0.81823300  0.56576300  1
  C  C33  1  0.54701700  0.18176700  0.43423700  1
  C  C34  1  0.95298300  0.18176700  0.43423700  1
  C  C35  1  0.45298300  0.81823300  0.56576300  1
  C  C36  1  0.00209700  0.88460700  0.79540800  1
  C  C37  1  0.50209700  0.11539300  0.20459200  1
  C  C38  1  0.99790300  0.11539300  0.20459200  1
  C  C39  1  0.49790300  0.88460700  0.79540800  1
  C  C40  1  0.07768400  0.61358900  0.78750600  1
  C  C41  1  0.57768400  0.38641100  0.21249400  1
  C  C42  1  0.92231600  0.38641100  0.21249400  1
  C  C43  1  0.42231600  0.61358900  0.78750600  1
  C  C44  1  0.25000000  0.60760700  0.33097700  1
  C  C45  1  0.75000000  0.39239300  0.66902300  1
  C  C46  1  0.25000000  0.62903700  0.58417500  1
  C  C47  1  0.75000000  0.37096300  0.41582500  1
  C  C48  1  0.65737600  0.58821600  0.47647700  1
  C  C49  1  0.15737600  0.41178400  0.52352300  1
  C  C50  1  0.34262400  0.41178400  0.52352300  1
  C  C51  1  0.84262400  0.58821600  0.47647700  1
