# generated using pymatgen
data_CuNiC14
_symmetry_space_group_name_H-M   'P 1'
_cell_length_a   6.36128533
_cell_length_b   6.36128482
_cell_length_c   10.29153421
_cell_angle_alpha   90.00000000
_cell_angle_beta   90.00000000
_cell_angle_gamma   120.00000273
_symmetry_Int_Tables_number   1
_chemical_formula_structural   CuNiC14
_chemical_formula_sum   'Cu1 Ni1 C14'
_cell_volume   360.66205967
_cell_formula_units_Z   1
loop_
 _symmetry_equiv_pos_site_id
 _symmetry_equiv_pos_as_xyz
  1  'x, y, z'
loop_
 _atom_site_type_symbol
 _atom_site_label
 _atom_site_symmetry_multiplicity
 _atom_site_fract_x
 _atom_site_fract_y
 _atom_site_fract_z
 _atom_site_occupancy
  C  C0  1  0.16697342  0.83348621  0.12500000  1
  C  C1  1  0.16586315  0.83293108  0.62500000  1
  C  C2  1  0.66651379  0.33302658  0.12500000  1
  C  C3  1  0.66706892  0.33413685  0.62500000  1
  C  C4  1  0.66651379  0.83348621  0.12500000  1
  C  C5  1  0.66706892  0.83293108  0.62500000  1
  C  C6  1  0.33391151  0.16608849  0.37232034  1
  C  C7  1  0.33391151  0.16608849  0.87767966  1
  C  C8  1  0.33391151  0.66782402  0.37232034  1
  C  C9  1  0.33391151  0.66782402  0.87767966  1
  C  C10  1  0.83217598  0.16608849  0.37232034  1
  C  C11  1  0.83217598  0.16608849  0.87767966  1
  C  C12  1  0.83333300  0.66666700  0.37529296  1
  C  C13  1  0.83333300  0.66666700  0.87470704  1
  Ni  Ni14  1  0.16666700  0.33333300  0.12500000  1
  Cu  Cu15  1  0.16666700  0.33333300  0.62500000  1
