# generated using pymatgen
data_Cu2NiC4
_symmetry_space_group_name_H-M   'P 1'
_cell_length_a   13.74347587
_cell_length_b   11.69743150
_cell_length_c   11.19498313
_cell_angle_alpha   73.75324094
_cell_angle_beta   54.79921422
_cell_angle_gamma   51.44754484
_symmetry_Int_Tables_number   1
_chemical_formula_structural   Cu2NiC4
_chemical_formula_sum   'Cu16 Ni8 C32'
_cell_volume   1141.16283379
_cell_formula_units_Z   8
loop_
 _symmetry_equiv_pos_site_id
 _symmetry_equiv_pos_as_xyz
  1  'x, y, z'
loop_
 _atom_site_type_symbol
 _atom_site_label
 _atom_site_symmetry_multiplicity
 _atom_site_fract_x
 _atom_site_fract_y
 _atom_site_fract_z
 _atom_site_occupancy
  Ni  Ni0  1  0.00000000  0.00000000  0.00000000  1
  Ni  Ni1  1  0.25000000  0.25000000  0.25000000  1
  Ni  Ni2  1  0.50000000  0.50000000  0.50000000  1
  Ni  Ni3  1  0.75000000  0.75000000  0.75000000  1
  Ni  Ni4  1  0.74425600  0.25574400  0.74425600  1
  Ni  Ni5  1  0.25574400  0.74425600  0.25574400  1
  Ni  Ni6  1  0.50574400  0.99425600  0.50574400  1
  Ni  Ni7  1  0.99425600  0.50574400  0.99425600  1
  Cu  Cu8  1  0.16004500  0.48083200  0.59333900  1
  Cu  Cu9  1  0.59333900  0.76578300  0.16004500  1
  Cu  Cu10  1  0.48083200  0.16004500  0.76578300  1
  Cu  Cu11  1  0.76578300  0.59333900  0.48083200  1
  Cu  Cu12  1  0.08995500  0.76916800  0.65666100  1
  Cu  Cu13  1  0.65666100  0.48421700  0.08995500  1
  Cu  Cu14  1  0.76916800  0.08995500  0.48421700  1
  Cu  Cu15  1  0.48421700  0.65666100  0.76916800  1
  Cu  Cu16  1  0.51132200  0.26142500  0.24101600  1
  Cu  Cu17  1  0.24101600  0.98623600  0.51132200  1
  Cu  Cu18  1  0.26142500  0.51132200  0.98623600  1
  Cu  Cu19  1  0.98623600  0.24101600  0.26142500  1
  Cu  Cu20  1  0.73867800  0.98857500  0.00898400  1
  Cu  Cu21  1  0.00898400  0.26376400  0.73867800  1
  Cu  Cu22  1  0.98857500  0.73867800  0.26376400  1
  Cu  Cu23  1  0.26376400  0.00898400  0.98857500  1
  C  C24  1  0.03600600  0.72566200  0.03295500  1
  C  C25  1  0.03295500  0.20537800  0.03600600  1
  C  C26  1  0.72566200  0.03600600  0.20537800  1
  C  C27  1  0.20537800  0.03295500  0.72566200  1
  C  C28  1  0.21399400  0.52433800  0.21704500  1
  C  C29  1  0.21704500  0.04462200  0.21399400  1
  C  C30  1  0.52433800  0.21399400  0.04462200  1
  C  C31  1  0.04462200  0.21704500  0.52433800  1
  C  C32  1  0.52943900  0.71832100  0.53817200  1
  C  C33  1  0.53817200  0.21406800  0.52943900  1
  C  C34  1  0.71832100  0.52943900  0.21406800  1
  C  C35  1  0.21406800  0.53817200  0.71832100  1
  C  C36  1  0.72056100  0.53167900  0.71182800  1
  C  C37  1  0.71182800  0.03593200  0.72056100  1
  C  C38  1  0.53167900  0.72056100  0.03593200  1
  C  C39  1  0.03593200  0.71182800  0.53167900  1
  C  C40  1  0.78784500  0.77264900  0.96355500  1
  C  C41  1  0.96355500  0.47595100  0.78784500  1
  C  C42  1  0.77264900  0.78784500  0.47595100  1
  C  C43  1  0.47595100  0.96355500  0.77264800  1
  C  C44  1  0.46215500  0.47735200  0.28644500  1
  C  C45  1  0.28644500  0.77404900  0.46215500  1
  C  C46  1  0.47735200  0.46215500  0.77404900  1
  C  C47  1  0.77404900  0.28644500  0.47735100  1
  C  C48  1  0.44776600  0.97386000  0.31417200  1
  C  C49  1  0.31417200  0.26420200  0.44776600  1
  C  C50  1  0.97386000  0.44776600  0.26420200  1
  C  C51  1  0.26420200  0.31417200  0.97386000  1
  C  C52  1  0.80223400  0.27614000  0.93582800  1
  C  C53  1  0.93582800  0.98579800  0.80223400  1
  C  C54  1  0.27614000  0.80223400  0.98579800  1
  C  C55  1  0.98579800  0.93582800  0.27614000  1
