# generated using pymatgen
data_Cu8NiC16
_symmetry_space_group_name_H-M   'P 1'
_cell_length_a   4.77655457
_cell_length_b   4.95314396
_cell_length_c   12.52386040
_cell_angle_alpha   88.36039098
_cell_angle_beta   91.00448255
_cell_angle_gamma   89.44561388
_symmetry_Int_Tables_number   1
_chemical_formula_structural   Cu8NiC16
_chemical_formula_sum   'Cu8 Ni1 C16'
_cell_volume   296.11935957
_cell_formula_units_Z   1
loop_
 _symmetry_equiv_pos_site_id
 _symmetry_equiv_pos_as_xyz
  1  'x, y, z'
loop_
 _atom_site_type_symbol
 _atom_site_label
 _atom_site_symmetry_multiplicity
 _atom_site_fract_x
 _atom_site_fract_y
 _atom_site_fract_z
 _atom_site_occupancy
  Ni  Ni0  1  0.02297200  0.47368500  0.00449000  1
  Cu  Cu1  1  0.90819800  0.96712600  0.99975300  1
  Cu  Cu2  1  0.04370200  0.03015600  0.25510000  1
  Cu  Cu3  1  0.98998900  0.96252500  0.50134100  1
  Cu  Cu4  1  0.06628600  0.00970200  0.74881500  1
  Cu  Cu5  1  0.49126900  0.52456600  0.62278000  1
  Cu  Cu6  1  0.53138600  0.46177400  0.13926400  1
  Cu  Cu7  1  0.48327800  0.52634300  0.38065600  1
  Cu  Cu8  1  0.47976500  0.53341800  0.86643700  1
  C  C9  1  0.18964500  0.80870400  0.37227300  1
  C  C10  1  0.17999300  0.79707500  0.61922600  1
  C  C11  1  0.14669900  0.75150300  0.89141700  1
  C  C12  1  0.34678700  0.30372100  0.25916200  1
  C  C13  1  0.33538300  0.34103600  0.74882500  1
  C  C14  1  0.65216100  0.64972000  0.00770900  1
  C  C15  1  0.67085300  0.69409000  0.49990400  1
  C  C16  1  0.85657700  0.21911500  0.12627700  1
  C  C17  1  0.18381500  0.71521800  0.12018400  1
  C  C18  1  0.32615400  0.22156300  0.00309300  1
  C  C19  1  0.28697800  0.28059200  0.50090400  1
  C  C20  1  0.71777200  0.74299400  0.24813900  1
  C  C21  1  0.67838200  0.77314600  0.75211400  1
  C  C22  1  0.80627000  0.21021000  0.38569600  1
  C  C23  1  0.80159200  0.22829600  0.62399400  1
  C  C24  1  0.83187000  0.25983500  0.87973800  1
