# generated using pymatgen
data_Cu3Ni2C19
_symmetry_space_group_name_H-M   'P 1'
_cell_length_a   7.76709534
_cell_length_b   7.76709534
_cell_length_c   10.22228843
_cell_angle_alpha   71.19604388
_cell_angle_beta   71.19604388
_cell_angle_gamma   21.70444666
_symmetry_Int_Tables_number   1
_chemical_formula_structural   Cu3Ni2C19
_chemical_formula_sum   'Cu3 Ni2 C19'
_cell_volume   215.42996431
_cell_formula_units_Z   1
loop_
 _symmetry_equiv_pos_site_id
 _symmetry_equiv_pos_as_xyz
  1  'x, y, z'
loop_
 _atom_site_type_symbol
 _atom_site_label
 _atom_site_symmetry_multiplicity
 _atom_site_fract_x
 _atom_site_fract_y
 _atom_site_fract_z
 _atom_site_occupancy
  C  C0  1  0.49519600  0.49519600  0.24383700  1
  C  C1  1  0.16343800  0.16343800  0.75511400  1
  C  C2  1  0.83656200  0.83656200  0.24488600  1
  C  C3  1  0.50480400  0.50480400  0.75616300  1
  C  C4  1  0.16393800  0.16393800  0.25355000  1
  C  C5  1  0.83606200  0.83606200  0.74645000  1
  C  C6  1  0.00000000  0.00000000  0.00000000  1
  Ni  Ni7  1  0.33730700  0.33730700  0.00309000  1
  Ni  Ni8  1  0.66269300  0.66269300  0.99691000  1
  Cu  Cu9  1  0.00000000  0.00000000  0.50000000  1
  Cu  Cu10  1  0.33344300  0.33344300  0.49880600  1
  Cu  Cu11  1  0.66655700  0.66655700  0.50119400  1
  C  C12  1  0.59335400  0.59335400  0.88300200  1
  C  C13  1  0.24355900  0.24355900  0.38655500  1
  C  C14  1  0.90493000  0.90493000  0.88963200  1
  C  C15  1  0.57847700  0.57847700  0.38456300  1
  C  C16  1  0.24524000  0.24524000  0.89406400  1
  C  C17  1  0.91300800  0.91300800  0.38281200  1
  C  C18  1  0.42152300  0.42152300  0.61543700  1
  C  C19  1  0.09507000  0.09507000  0.11036800  1
  C  C20  1  0.75644100  0.75644100  0.61344500  1
  C  C21  1  0.40664600  0.40664600  0.11699800  1
  C  C22  1  0.08699200  0.08699200  0.61718800  1
  C  C23  1  0.75476000  0.75476000  0.10593600  1
