# generated using pymatgen
data_CuNi3C
_symmetry_space_group_name_H-M   'P 1'
_cell_length_a   6.31829072
_cell_length_b   12.98275303
_cell_length_c   12.95229542
_cell_angle_alpha   90.00000000
_cell_angle_beta   90.00000000
_cell_angle_gamma   90.00000000
_symmetry_Int_Tables_number   1
_chemical_formula_structural   CuNi3C
_chemical_formula_sum   'Cu8 Ni24 C8'
_cell_volume   1062.46135403
_cell_formula_units_Z   8
loop_
 _symmetry_equiv_pos_site_id
 _symmetry_equiv_pos_as_xyz
  1  'x, y, z'
loop_
 _atom_site_type_symbol
 _atom_site_label
 _atom_site_symmetry_multiplicity
 _atom_site_fract_x
 _atom_site_fract_y
 _atom_site_fract_z
 _atom_site_occupancy
  C  C0  1  0.72589100  0.80941566  0.75000000  1
  C  C1  1  0.27410900  0.19058434  0.25000000  1
  C  C2  1  0.22589100  0.19058434  0.75000000  1
  C  C3  1  0.77410900  0.80941566  0.25000000  1
  C  C4  1  0.75000000  0.19935891  -0.00000000  1
  C  C5  1  0.25000000  0.80064109  0.00000000  1
  C  C6  1  0.25000000  0.80064109  0.50000000  1
  C  C7  1  0.75000000  0.19935891  0.50000000  1
  Ni  Ni8  1  0.73239726  0.27354177  0.75000000  1
  Ni  Ni9  1  0.26760274  0.72645823  0.25000000  1
  Ni  Ni10  1  0.23239726  0.72645823  0.75000000  1
  Ni  Ni11  1  0.76760274  0.27354177  0.25000000  1
  Ni  Ni12  1  0.75000000  0.47399195  -0.00000000  1
  Ni  Ni13  1  0.25000000  0.52600805  0.00000000  1
  Ni  Ni14  1  0.25000000  0.52600805  0.50000000  1
  Ni  Ni15  1  0.75000000  0.47399195  0.50000000  1
  Ni  Ni16  1  0.57892468  0.56316048  0.75000000  1
  Ni  Ni17  1  0.42107532  0.43683952  0.25000000  1
  Ni  Ni18  1  0.07892468  0.43683952  0.75000000  1
  Ni  Ni19  1  0.92107532  0.56316048  0.25000000  1
  Ni  Ni20  1  0.75000000  0.73486196  -0.00000000  1
  Ni  Ni21  1  0.25000000  0.26513804  0.00000000  1
  Ni  Ni22  1  0.25000000  0.26513804  0.50000000  1
  Ni  Ni23  1  0.75000000  0.73486196  0.50000000  1
  Ni  Ni24  1  0.98584575  0.99748421  0.87930024  1
  Ni  Ni25  1  0.01415425  0.00251579  0.12069976  1
  Ni  Ni26  1  0.01415425  0.00251579  0.37930024  1
  Ni  Ni27  1  0.48584575  0.00251579  0.62069976  1
  Ni  Ni28  1  0.98584575  0.99748421  0.62069976  1
  Ni  Ni29  1  0.51415425  0.99748421  0.37930024  1
  Ni  Ni30  1  0.51415425  0.99748421  0.12069976  1
  Ni  Ni31  1  0.48584575  0.00251579  0.87930024  1
  Cu  Cu32  1  0.95085549  0.60224390  0.86531927  1
  Cu  Cu33  1  0.04914451  0.39775610  0.13468073  1
  Cu  Cu34  1  0.04914451  0.39775610  0.36531927  1
  Cu  Cu35  1  0.45085549  0.39775610  0.63468073  1
  Cu  Cu36  1  0.95085549  0.60224390  0.63468073  1
  Cu  Cu37  1  0.54914451  0.60224390  0.36531927  1
  Cu  Cu38  1  0.54914451  0.60224390  0.13468073  1
  Cu  Cu39  1  0.45085549  0.39775610  0.86531927  1
