# generated using pymatgen
data_Cu4Ni2C9
_symmetry_space_group_name_H-M   'P 1'
_cell_length_a   5.26038608
_cell_length_b   5.26038608
_cell_length_c   14.38239300
_cell_angle_alpha   90.00000000
_cell_angle_beta   90.00000000
_cell_angle_gamma   120.00000098
_symmetry_Int_Tables_number   1
_chemical_formula_structural   Cu4Ni2C9
_chemical_formula_sum   'Cu8 Ni4 C18'
_cell_volume   344.66486872
_cell_formula_units_Z   2
loop_
 _symmetry_equiv_pos_site_id
 _symmetry_equiv_pos_as_xyz
  1  'x, y, z'
loop_
 _atom_site_type_symbol
 _atom_site_label
 _atom_site_symmetry_multiplicity
 _atom_site_fract_x
 _atom_site_fract_y
 _atom_site_fract_z
 _atom_site_occupancy
  Ni  Ni0  1  0.00000000  0.00000000  0.36092900  1
  Ni  Ni1  1  0.00000000  0.00000000  0.13907100  1
  Ni  Ni2  1  0.00000000  0.00000000  0.63907100  1
  Ni  Ni3  1  0.00000000  0.00000000  0.86092900  1
  Cu  Cu4  1  0.33333300  0.66666700  0.01423500  1
  Cu  Cu5  1  0.66666700  0.33333300  0.48576500  1
  Cu  Cu6  1  0.66666700  0.33333300  0.98576500  1
  Cu  Cu7  1  0.33333300  0.66666700  0.51423500  1
  Cu  Cu8  1  0.33333300  0.66666700  0.79459500  1
  Cu  Cu9  1  0.66666700  0.33333300  0.70540500  1
  Cu  Cu10  1  0.66666700  0.33333300  0.20540500  1
  Cu  Cu11  1  0.33333300  0.66666700  0.29459500  1
  C  C12  1  0.28588200  0.28588200  0.75000000  1
  C  C13  1  0.00000000  0.71411800  0.75000000  1
  C  C14  1  0.71411800  0.00000000  0.75000000  1
  C  C15  1  0.71411800  0.71411800  0.25000000  1
  C  C16  1  0.00000000  0.28588200  0.25000000  1
  C  C17  1  0.28588200  0.00000000  0.25000000  1
  C  C18  1  0.68008600  0.66039900  0.58351700  1
  C  C19  1  0.33960100  0.01968700  0.58351700  1
  C  C20  1  0.98031300  0.31991400  0.58351700  1
  C  C21  1  0.01968700  0.33960100  0.91648300  1
  C  C22  1  0.31991400  0.98031300  0.91648300  1
  C  C23  1  0.66039900  0.68008600  0.91648300  1
  C  C24  1  0.33960100  0.31991400  0.08351700  1
  C  C25  1  0.68008600  0.01968700  0.08351700  1
  C  C26  1  0.98031300  0.66039900  0.08351700  1
  C  C27  1  0.01968700  0.68008600  0.41648300  1
  C  C28  1  0.66039900  0.98031300  0.41648300  1
  C  C29  1  0.31991400  0.33960100  0.41648300  1
