# generated using pymatgen
data_Cu3Ni4C3
_symmetry_space_group_name_H-M   'P 1'
_cell_length_a   7.45925400
_cell_length_b   9.24827600
_cell_length_c   17.11885000
_cell_angle_alpha   90.00000000
_cell_angle_beta   90.00000000
_cell_angle_gamma   90.00000000
_symmetry_Int_Tables_number   1
_chemical_formula_structural   Cu3Ni4C3
_chemical_formula_sum   'Cu12 Ni16 C12'
_cell_volume   1180.94797143
_cell_formula_units_Z   4
loop_
 _symmetry_equiv_pos_site_id
 _symmetry_equiv_pos_as_xyz
  1  'x, y, z'
loop_
 _atom_site_type_symbol
 _atom_site_label
 _atom_site_symmetry_multiplicity
 _atom_site_fract_x
 _atom_site_fract_y
 _atom_site_fract_z
 _atom_site_occupancy
  C  C0  1  0.54480400  0.53122200  0.41797600  1
  C  C1  1  0.95519600  0.96877800  0.91797600  1
  C  C2  1  0.04480400  0.46877800  0.58202400  1
  C  C3  1  0.45519600  0.03122200  0.08202400  1
  C  C4  1  0.45519600  0.46877800  0.58202400  1
  C  C5  1  0.04480400  0.03122200  0.08202400  1
  C  C6  1  0.95519600  0.53122200  0.41797600  1
  C  C7  1  0.54480400  0.96877800  0.91797600  1
  Ni  Ni8  1  0.25000000  0.90130200  0.54311500  1
  Ni  Ni9  1  0.25000000  0.59869800  0.04311500  1
  Ni  Ni10  1  0.75000000  0.09869800  0.45688500  1
  Ni  Ni11  1  0.75000000  0.40130200  0.95688500  1
  Ni  Ni12  1  0.25000000  0.03212500  0.72373000  1
  Ni  Ni13  1  0.25000000  0.46787500  0.22373000  1
  Ni  Ni14  1  0.75000000  0.96787500  0.27627000  1
  Ni  Ni15  1  0.75000000  0.53212500  0.77627000  1
  Ni  Ni16  1  0.37838600  0.89083600  0.60237200  1
  Ni  Ni17  1  0.12161400  0.60916400  0.10237200  1
  Ni  Ni18  1  0.87838600  0.10916400  0.39762800  1
  Ni  Ni19  1  0.62161400  0.39083600  0.89762800  1
  Ni  Ni20  1  0.62161400  0.10916400  0.39762800  1
  Ni  Ni21  1  0.87838600  0.39083600  0.89762800  1
  Ni  Ni22  1  0.12161400  0.89083600  0.60237200  1
  Ni  Ni23  1  0.37838600  0.60916400  0.10237200  1
  Cu  Cu24  1  0.75000000  0.54222600  0.28450900  1
  Cu  Cu25  1  0.75000000  0.95777400  0.78450900  1
  Cu  Cu26  1  0.25000000  0.45777400  0.71549100  1
  Cu  Cu27  1  0.25000000  0.04222600  0.21549100  1
  Cu  Cu28  1  0.75000000  0.64985700  0.55346300  1
  Cu  Cu29  1  0.75000000  0.85014300  0.05346300  1
  Cu  Cu30  1  0.25000000  0.35014300  0.44653700  1
  Cu  Cu31  1  0.25000000  0.14985700  0.94653700  1
  Cu  Cu32  1  0.25000000  0.86019100  0.42550100  1
  Cu  Cu33  1  0.25000000  0.63980900  0.92550100  1
  Cu  Cu34  1  0.75000000  0.13980900  0.57449900  1
  Cu  Cu35  1  0.75000000  0.36019100  0.07449900  1
  C  C36  1  0.25000000  0.95195900  0.66682600  1
  C  C37  1  0.25000000  0.54804100  0.16682600  1
  C  C38  1  0.75000000  0.04804100  0.33317400  1
  C  C39  1  0.75000000  0.45195900  0.83317400  1
