# generated using pymatgen
data_Cu26Ni10C9
_symmetry_space_group_name_H-M   'P 1'
_cell_length_a   6.67552700
_cell_length_b   7.30745426
_cell_length_c   18.51473163
_cell_angle_alpha   80.53053000
_cell_angle_beta   79.61415652
_cell_angle_gamma   62.82166835
_symmetry_Int_Tables_number   1
_chemical_formula_structural   Cu26Ni10C9
_chemical_formula_sum   'Cu52 Ni20 C18'
_cell_volume   786.79274840
_cell_formula_units_Z   2
loop_
 _symmetry_equiv_pos_site_id
 _symmetry_equiv_pos_as_xyz
  1  'x, y, z'
loop_
 _atom_site_type_symbol
 _atom_site_label
 _atom_site_symmetry_multiplicity
 _atom_site_fract_x
 _atom_site_fract_y
 _atom_site_fract_z
 _atom_site_occupancy
  C  C0  1  0.00000000  0.00000000  0.50000000  1
  C  C1  1  0.50000000  0.50000000  0.00000000  1
  Ni  Ni2  1  0.31277300  0.37997000  0.65465800  1
  Ni  Ni3  1  0.34740100  0.12003000  0.84534200  1
  Ni  Ni4  1  0.68722700  0.62003000  0.34534200  1
  Ni  Ni5  1  0.65259900  0.87997000  0.15465800  1
  Ni  Ni6  1  0.10411100  0.37102100  0.72127400  1
  Ni  Ni7  1  0.19640600  0.12897900  0.77872600  1
  Ni  Ni8  1  0.89588900  0.62897900  0.27872600  1
  Ni  Ni9  1  0.80359400  0.87102100  0.22127400  1
  Ni  Ni10  1  0.30362400  0.46797500  0.73548300  1
  Ni  Ni11  1  0.50708300  0.03202500  0.76451700  1
  Ni  Ni12  1  0.69637600  0.53202500  0.26451700  1
  Ni  Ni13  1  0.49291700  0.96797500  0.23548300  1
  Ni  Ni14  1  0.54134900  0.23417400  0.70133700  1
  Ni  Ni15  1  0.47686000  0.26582600  0.79866300  1
  Ni  Ni16  1  0.45865100  0.76582600  0.29866300  1
  Ni  Ni17  1  0.52314000  0.73417400  0.20133700  1
  Ni  Ni18  1  0.16740200  0.36170500  0.81266100  1
  Ni  Ni19  1  0.34176700  0.13829500  0.68733900  1
  Ni  Ni20  1  0.83259800  0.63829500  0.18733900  1
  Ni  Ni21  1  0.65823300  0.86170500  0.31266100  1
  Cu  Cu22  1  0.34271300  0.28037300  0.94384200  1
  Cu  Cu23  1  0.56692800  0.21962700  0.55615800  1
  Cu  Cu24  1  0.65728700  0.71962700  0.05615800  1
  Cu  Cu25  1  0.43307200  0.78037300  0.44384200  1
  Cu  Cu26  1  0.25915400  0.25670600  0.02903500  1
  Cu  Cu27  1  0.54489600  0.24329400  0.47096500  1
  Cu  Cu28  1  0.74084600  0.74329400  0.97096500  1
  Cu  Cu29  1  0.45510400  0.75670600  0.52903500  1
  Cu  Cu30  1  0.12562300  0.19572800  0.58403200  1
  Cu  Cu31  1  0.90538400  0.30427200  0.91596800  1
  Cu  Cu32  1  0.87437700  0.80427200  0.41596800  1
  Cu  Cu33  1  0.09461600  0.69572800  0.08403200  1
  Cu  Cu34  1  0.89398000  0.36565200  0.55707800  1
  Cu  Cu35  1  0.81671100  0.13434800  0.94292200  1
  Cu  Cu36  1  0.10602000  0.63434800  0.44292200  1
  Cu  Cu37  1  0.18328900  0.86565200  0.05707800  1
  Cu  Cu38  1  0.06599900  0.72287200  0.62784900  1
  Cu  Cu39  1  0.41671900  0.77712800  0.87215100  1
  Cu  Cu40  1  0.93400100  0.27712800  0.37215100  1
  Cu  Cu41  1  0.58328100  0.22287200  0.12784900  1
  Cu  Cu42  1  0.86460700  0.94029400  0.64654700  1
  Cu  Cu43  1  0.45144800  0.55970600  0.85345300  1
  Cu  Cu44  1  0.13539300  0.05970600  0.35345300  1
  Cu  Cu45  1  0.54855200  0.44029400  0.14654700  1
  Cu  Cu46  1  0.03263700  0.80146100  0.91052800  1
  Cu  Cu47  1  0.74462600  0.69853900  0.58947200  1
  Cu  Cu48  1  0.96736300  0.19853900  0.08947200  1
  Cu  Cu49  1  0.25537400  0.30146100  0.41052800  1
  Cu  Cu50  1  0.81842200  0.91907500  0.86756500  1
  Cu  Cu51  1  0.60506200  0.58092500  0.63243500  1
  Cu  Cu52  1  0.18157800  0.08092500  0.13243500  1
  Cu  Cu53  1  0.39493800  0.41907500  0.36756500  1
  Cu  Cu54  1  0.30204600  0.46311700  0.59279900  1
  Cu  Cu55  1  0.35796200  0.03688300  0.90720100  1
  Cu  Cu56  1  0.69795400  0.53688300  0.40720100  1
  Cu  Cu57  1  0.64203800  0.96311700  0.09279900  1
  Cu  Cu58  1  0.90927400  0.45838500  0.71011500  1
  Cu  Cu59  1  0.07777400  0.04161500  0.78988500  1
  Cu  Cu60  1  0.09072600  0.54161500  0.28988500  1
  Cu  Cu61  1  0.92222600  0.95838500  0.21011500  1
  Cu  Cu62  1  0.28462600  0.63969500  0.73600500  1
  Cu  Cu63  1  0.66032600  0.86030500  0.76399500  1
  Cu  Cu64  1  0.71537400  0.36030500  0.26399500  1
  Cu  Cu65  1  0.33967400  0.13969500  0.23600500  1
  Cu  Cu66  1  0.73026900  0.20272400  0.67298700  1
  Cu  Cu67  1  0.60598000  0.29727600  0.82701300  1
  Cu  Cu68  1  0.26973100  0.79727600  0.32701300  1
  Cu  Cu69  1  0.39402000  0.70272400  0.17298700  1
  Cu  Cu70  1  0.02320100  0.47973800  0.85420100  1
  Cu  Cu71  1  0.35714000  0.02026200  0.64579900  1
  Cu  Cu72  1  0.97679900  0.52026200  0.14579900  1
  Cu  Cu73  1  0.64286000  0.97973800  0.35420100  1
  C  C74  1  0.33004000  0.33076200  0.99122400  1
  C  C75  1  0.65202500  0.16923800  0.50877600  1
  C  C76  1  0.66996000  0.66923800  0.00877600  1
  C  C77  1  0.34797500  0.83076200  0.49122400  1
  C  C78  1  0.02645500  0.23294500  0.54544300  1
  C  C79  1  0.80484300  0.26705400  0.95455700  1
  C  C80  1  0.97354500  0.76705400  0.45455700  1
  C  C81  1  0.19515700  0.73294600  0.04544300  1
  C  C82  1  0.94302700  0.84789700  0.60693100  1
  C  C83  1  0.39785500  0.65210300  0.89306900  1
  C  C84  1  0.05697300  0.15210300  0.39306900  1
  C  C85  1  0.60214500  0.34789700  0.10693100  1
  C  C86  1  0.86689900  0.88520800  0.91688800  1
  C  C87  1  0.66899500  0.61479200  0.58311200  1
  C  C88  1  0.13310100  0.11479200  0.08311200  1
  C  C89  1  0.33100500  0.38520800  0.41688800  1
