# generated using pymatgen
data_Cu3Ni3C20
_symmetry_space_group_name_H-M   'P 1'
_cell_length_a   5.17231400
_cell_length_b   9.06855000
_cell_length_c   15.51842801
_cell_angle_alpha   71.74207282
_cell_angle_beta   90.00000000
_cell_angle_gamma   90.00000000
_symmetry_Int_Tables_number   1
_chemical_formula_structural   Cu3Ni3C20
_chemical_formula_sum   'Cu6 Ni6 C40'
_cell_volume   691.25244418
_cell_formula_units_Z   2
loop_
 _symmetry_equiv_pos_site_id
 _symmetry_equiv_pos_as_xyz
  1  'x, y, z'
loop_
 _atom_site_type_symbol
 _atom_site_label
 _atom_site_symmetry_multiplicity
 _atom_site_fract_x
 _atom_site_fract_y
 _atom_site_fract_z
 _atom_site_occupancy
  Ni  Ni0  1  0.44074800  0.24149300  0.61921200  1
  Ni  Ni1  1  0.55925200  0.75850700  0.38078800  1
  Ni  Ni2  1  0.94074800  0.75850700  0.88078800  1
  Ni  Ni3  1  0.05925200  0.24149300  0.11921200  1
  Ni  Ni4  1  0.00000000  0.50000000  0.50000000  1
  Ni  Ni5  1  0.50000000  0.50000000  0.00000000  1
  Cu  Cu6  1  0.54580200  0.27936100  0.22486500  1
  Cu  Cu7  1  0.04580200  0.72063900  0.27513500  1
  Cu  Cu8  1  0.45419800  0.72063900  0.77513500  1
  Cu  Cu9  1  0.95419800  0.27936100  0.72486500  1
  Cu  Cu10  1  0.50000000  0.00000000  0.50000000  1
  Cu  Cu11  1  0.00000000  0.00000000  0.00000000  1
  C  C12  1  0.98859300  0.05262600  0.34593500  1
  C  C13  1  0.53053400  0.38606800  0.40234000  1
  C  C14  1  0.03053400  0.61393200  0.09766000  1
  C  C15  1  0.96946600  0.38606800  0.90234000  1
  C  C16  1  0.01140700  0.94737400  0.65406500  1
  C  C17  1  0.46946600  0.61393200  0.59766000  1
  C  C18  1  0.51140700  0.05262600  0.84593500  1
  C  C19  1  0.48859300  0.94737400  0.15406500  1
  C  C20  1  0.41686600  0.79020200  0.25671000  1
  C  C21  1  0.90009600  0.77303000  0.00079500  1
  C  C22  1  0.37268600  0.36491800  0.30839200  1
  C  C23  1  0.35501400  0.10091400  0.18312600  1
  C  C24  1  0.62731400  0.63508200  0.69160800  1
  C  C25  1  0.08313400  0.79020200  0.75671000  1
  C  C26  1  0.87268600  0.63508200  0.19160800  1
  C  C27  1  0.66897800  0.61479400  0.88928000  1
  C  C28  1  0.68639200  0.10653900  0.92294700  1
  C  C29  1  0.58313400  0.20979800  0.74329000  1
  C  C30  1  0.14498600  0.10091400  0.68312600  1
  C  C31  1  0.33102200  0.38520600  0.11072000  1
  C  C32  1  0.32270300  0.54973500  0.42191900  1
  C  C33  1  0.31360800  0.89346100  0.07705300  1
  C  C34  1  0.69586200  0.00089900  0.62506000  1
  C  C35  1  0.19586200  0.99910100  0.87494000  1
  C  C36  1  0.82270300  0.45026500  0.07808100  1
  C  C37  1  0.12731400  0.36491800  0.80839200  1
  C  C38  1  0.18639200  0.89346100  0.57705300  1
  C  C39  1  0.16897800  0.38520600  0.61072000  1
  C  C40  1  0.80413800  0.00089900  0.12506000  1
  C  C41  1  0.30413800  0.99910100  0.37494000  1
  C  C42  1  0.09990400  0.22697000  0.99920500  1
  C  C43  1  0.40009600  0.22697000  0.49920500  1
  C  C44  1  0.67729700  0.45026500  0.57808100  1
  C  C45  1  0.91686600  0.20979800  0.24329000  1
  C  C46  1  0.64498600  0.89908600  0.81687400  1
  C  C47  1  0.81360800  0.10653900  0.42294700  1
  C  C48  1  0.59990400  0.77303000  0.50079500  1
  C  C49  1  0.83102200  0.61479400  0.38928000  1
  C  C50  1  0.17729700  0.54973500  0.92191900  1
  C  C51  1  0.85501400  0.89908600  0.31687400  1
