# generated using pymatgen
data_Cu3Ni4C13
_symmetry_space_group_name_H-M   'P 1'
_cell_length_a   6.47628346
_cell_length_b   6.47628346
_cell_length_c   6.47628346
_cell_angle_alpha   109.47122063
_cell_angle_beta   109.47122063
_cell_angle_gamma   109.47122063
_symmetry_Int_Tables_number   1
_chemical_formula_structural   Cu3Ni4C13
_chemical_formula_sum   'Cu3 Ni4 C13'
_cell_volume   209.10078195
_cell_formula_units_Z   1
loop_
 _symmetry_equiv_pos_site_id
 _symmetry_equiv_pos_as_xyz
  1  'x, y, z'
loop_
 _atom_site_type_symbol
 _atom_site_label
 _atom_site_symmetry_multiplicity
 _atom_site_fract_x
 _atom_site_fract_y
 _atom_site_fract_z
 _atom_site_occupancy
  C  C0  1  0.00000000  0.00000000  0.00000000  1
  Ni  Ni1  1  0.00000000  0.00000000  0.50000000  1
  Ni  Ni2  1  0.50000000  0.00000000  0.00000000  1
  Ni  Ni3  1  0.00000000  0.50000000  0.00000000  1
  Ni  Ni4  1  0.50000000  0.50000000  0.50000000  1
  Cu  Cu5  1  0.50000000  0.00000000  0.50000000  1
  Cu  Cu6  1  0.00000000  0.50000000  0.50000000  1
  Cu  Cu7  1  0.50000000  0.50000000  0.00000000  1
  C  C8  1  0.16503600  0.85558300  0.69054700  1
  C  C9  1  0.83496400  0.14441700  0.30945300  1
  C  C10  1  0.83496400  0.52551000  0.69054700  1
  C  C11  1  0.16503600  0.47449000  0.30945300  1
  C  C12  1  0.85558300  0.69054700  0.16503600  1
  C  C13  1  0.14441700  0.30945300  0.83496400  1
  C  C14  1  0.52551000  0.69054700  0.83496400  1
  C  C15  1  0.47449000  0.30945300  0.16503600  1
  C  C16  1  0.69054700  0.16503600  0.85558300  1
  C  C17  1  0.30945300  0.83496400  0.14441700  1
  C  C18  1  0.69054700  0.83496400  0.52551000  1
  C  C19  1  0.30945300  0.16503600  0.47449000  1
