# generated using pymatgen
data_CuNiC8
_symmetry_space_group_name_H-M   'P 1'
_cell_length_a   7.74334400
_cell_length_b   5.34384200
_cell_length_c   5.46176915
_cell_angle_alpha   88.63400821
_cell_angle_beta   90.00000000
_cell_angle_gamma   90.00000000
_symmetry_Int_Tables_number   1
_chemical_formula_structural   CuNiC8
_chemical_formula_sum   'Cu2 Ni2 C16'
_cell_volume   225.93944889
_cell_formula_units_Z   2
loop_
 _symmetry_equiv_pos_site_id
 _symmetry_equiv_pos_as_xyz
  1  'x, y, z'
loop_
 _atom_site_type_symbol
 _atom_site_label
 _atom_site_symmetry_multiplicity
 _atom_site_fract_x
 _atom_site_fract_y
 _atom_site_fract_z
 _atom_site_occupancy
  C  C0  1  0.75000000  0.00586500  0.03489800  1
  C  C1  1  0.75000000  0.49906800  0.54910800  1
  C  C2  1  0.25000000  0.50093200  0.45089200  1
  C  C3  1  0.25000000  0.99413500  0.96510200  1
  Ni  Ni4  1  0.00000000  0.00000000  0.50000000  1
  Ni  Ni5  1  0.50000000  0.00000000  0.50000000  1
  Cu  Cu6  1  0.00000000  0.50000000  0.00000000  1
  Cu  Cu7  1  0.50000000  0.50000000  0.00000000  1
  C  C8  1  0.43024200  0.15701100  0.18675900  1
  C  C9  1  0.56894600  0.68826800  0.33472100  1
  C  C10  1  0.56975800  0.84298900  0.81324100  1
  C  C11  1  0.06894600  0.31173200  0.66527900  1
  C  C12  1  0.25000000  0.87110100  0.57257800  1
  C  C13  1  0.43105400  0.31173200  0.66527900  1
  C  C14  1  0.93105400  0.68826800  0.33472100  1
  C  C15  1  0.06975800  0.15701100  0.18675900  1
  C  C16  1  0.75000000  0.36194500  0.90621200  1
  C  C17  1  0.93024200  0.84298900  0.81324100  1
  C  C18  1  0.25000000  0.63805500  0.09378800  1
  C  C19  1  0.75000000  0.12889900  0.42742200  1
