# generated using pymatgen
data_Cu(NiC3)3
_symmetry_space_group_name_H-M   'P 1'
_cell_length_a   6.28589769
_cell_length_b   6.28589769
_cell_length_c   10.20868400
_cell_angle_alpha   90.00000000
_cell_angle_beta   90.00000000
_cell_angle_gamma   119.99999678
_symmetry_Int_Tables_number   1
_chemical_formula_structural   Cu(NiC3)3
_chemical_formula_sum   'Cu2 Ni6 C18'
_cell_volume   349.32930787
_cell_formula_units_Z   2
loop_
 _symmetry_equiv_pos_site_id
 _symmetry_equiv_pos_as_xyz
  1  'x, y, z'
loop_
 _atom_site_type_symbol
 _atom_site_label
 _atom_site_symmetry_multiplicity
 _atom_site_fract_x
 _atom_site_fract_y
 _atom_site_fract_z
 _atom_site_occupancy
  C  C0  1  0.66666700  0.33333300  0.99865600  1
  C  C1  1  0.33333300  0.66666700  0.49865600  1
  C  C2  1  0.66666700  0.33333300  0.63207300  1
  C  C3  1  0.33333300  0.66666700  0.13207300  1
  Ni  Ni4  1  0.17312300  0.82687700  0.81261000  1
  Ni  Ni5  1  0.65375400  0.82687700  0.81261000  1
  Ni  Ni6  1  0.17312300  0.34624600  0.81261000  1
  Ni  Ni7  1  0.82687700  0.17312300  0.31261000  1
  Ni  Ni8  1  0.34624600  0.17312300  0.31261000  1
  Ni  Ni9  1  0.82687700  0.65375400  0.31261000  1
  Cu  Cu10  1  0.00000000  0.00000000  0.06355600  1
  Cu  Cu11  1  0.00000000  0.00000000  0.56355600  1
  C  C12  1  0.50766300  0.49233700  0.74514000  1
  C  C13  1  0.98467400  0.49233700  0.74514000  1
  C  C14  1  0.50766300  0.01532600  0.74514000  1
  C  C15  1  0.49233700  0.50766300  0.24514000  1
  C  C16  1  0.01532600  0.50766300  0.24514000  1
  C  C17  1  0.49233700  0.98467400  0.24514000  1
  C  C18  1  0.00000000  0.00000000  0.24742800  1
  C  C19  1  0.00000000  0.00000000  0.74742800  1
  C  C20  1  0.16436700  0.83563300  0.00734900  1
  C  C21  1  0.67126600  0.83563300  0.00734900  1
  C  C22  1  0.16436700  0.32873400  0.00734900  1
  C  C23  1  0.83563300  0.16436700  0.50734900  1
  C  C24  1  0.32873400  0.16436700  0.50734900  1
  C  C25  1  0.83563300  0.67126600  0.50734900  1
