# generated using pymatgen
data_Cu3Ni2C19
_symmetry_space_group_name_H-M   'P 1'
_cell_length_a   5.90632374
_cell_length_b   11.79492804
_cell_length_c   6.49773922
_cell_angle_alpha   103.02510671
_cell_angle_beta   103.74089532
_cell_angle_gamma   89.79037443
_symmetry_Int_Tables_number   1
_chemical_formula_structural   Cu3Ni2C19
_chemical_formula_sum   'Cu6 Ni4 C38'
_cell_volume   427.79914119
_cell_formula_units_Z   2
loop_
 _symmetry_equiv_pos_site_id
 _symmetry_equiv_pos_as_xyz
  1  'x, y, z'
loop_
 _atom_site_type_symbol
 _atom_site_label
 _atom_site_symmetry_multiplicity
 _atom_site_fract_x
 _atom_site_fract_y
 _atom_site_fract_z
 _atom_site_occupancy
  C  C0  1  0.16661200  0.08331600  0.66670100  1
  C  C1  1  0.16666100  0.58334100  0.66662100  1
  C  C2  1  0.16663000  0.33334000  0.66664700  1
  C  C3  1  0.16664500  0.83332700  0.66661800  1
  C  C4  1  0.66664200  0.08331600  0.66664600  1
  C  C5  1  0.66669900  0.58334100  0.66666700  1
  C  C6  1  0.82867200  0.16584700  0.33506300  1
  C  C7  1  0.82885000  0.66584600  0.33508200  1
  C  C8  1  0.50448400  0.00084400  0.99821400  1
  C  C9  1  0.50459400  0.50081600  0.99819400  1
  C  C10  1  0.50268000  0.24536700  0.99065300  1
  C  C11  1  0.50273200  0.74535900  0.99061800  1
  C  C12  1  0.83061300  0.42132800  0.34266500  1
  C  C13  1  0.83057500  0.92134000  0.34267800  1
  Ni  Ni14  1  0.99465600  0.50152900  0.99619100  1
  Ni  Ni15  1  0.33869500  0.16525600  0.33741300  1
  Ni  Ni16  1  0.99449700  0.00150600  0.99607600  1
  Ni  Ni17  1  0.33903400  0.66520700  0.33728900  1
  Cu  Cu18  1  0.66670200  0.83334800  0.66669100  1
  Cu  Cu19  1  0.99193300  0.24773800  0.99368800  1
  Cu  Cu20  1  0.34135000  0.41890500  0.33959500  1
  Cu  Cu21  1  0.66667500  0.33334600  0.66667900  1
  Cu  Cu22  1  0.99199800  0.74774600  0.99373600  1
  Cu  Cu23  1  0.34133900  0.91891000  0.33959500  1
  C  C24  1  0.91876800  0.45832500  0.68855300  1
  C  C25  1  0.91873400  0.95833400  0.68863100  1
  C  C26  1  0.41453300  0.20834200  0.64483000  1
  C  C27  1  0.41463300  0.70831800  0.64472500  1
  C  C28  1  0.55889700  0.04744800  0.33264500  1
  C  C29  1  0.55907900  0.54741300  0.33262900  1
  C  C30  1  0.77433200  0.11920800  0.00069600  1
  C  C31  1  0.77438500  0.61922700  0.00068600  1
  C  C32  1  0.23515700  0.12010400  0.01005500  1
  C  C33  1  0.23530300  0.62009800  0.00997300  1
  C  C34  1  0.09804000  0.04654800  0.32338600  1
  C  C35  1  0.09819100  0.54655000  0.32329500  1
  C  C36  1  0.90586800  0.22127300  0.68873200  1
  C  C37  1  0.90594900  0.72129000  0.68877300  1
  C  C38  1  0.42743100  0.44538200  0.64456400  1
  C  C39  1  0.42738100  0.94536100  0.64453200  1
  C  C40  1  0.56447100  0.28192200  0.32841200  1
  C  C41  1  0.56459100  0.78193800  0.32837500  1
  C  C42  1  0.76883100  0.38473000  0.00490800  1
  C  C43  1  0.76876800  0.88469800  0.00493900  1
  C  C44  1  0.23381200  0.38283300  0.01642300  1
  C  C45  1  0.23380600  0.88284500  0.01644600  1
  C  C46  1  0.09947700  0.28382300  0.31690900  1
  C  C47  1  0.09959400  0.78377800  0.31686400  1
