# generated using pymatgen
data_Cu10NiC2
_symmetry_space_group_name_H-M   'P 1'
_cell_length_a   4.14694800
_cell_length_b   5.55916000
_cell_length_c   11.10066700
_cell_angle_alpha   90.00000000
_cell_angle_beta   90.00000000
_cell_angle_gamma   90.00000000
_symmetry_Int_Tables_number   1
_chemical_formula_structural   Cu10NiC2
_chemical_formula_sum   'Cu20 Ni2 C4'
_cell_volume   255.90975334
_cell_formula_units_Z   2
loop_
 _symmetry_equiv_pos_site_id
 _symmetry_equiv_pos_as_xyz
  1  'x, y, z'
loop_
 _atom_site_type_symbol
 _atom_site_label
 _atom_site_symmetry_multiplicity
 _atom_site_fract_x
 _atom_site_fract_y
 _atom_site_fract_z
 _atom_site_occupancy
  C  C0  1  0.50000000  0.19328400  0.36363300  1
  C  C1  1  0.50000000  0.80671600  0.63636700  1
  C  C2  1  0.50000000  0.30671600  0.86363300  1
  C  C3  1  0.50000000  0.69328400  0.13636700  1
  Ni  Ni4  1  0.00000000  0.00000000  0.00000000  1
  Ni  Ni5  1  0.00000000  0.50000000  0.50000000  1
  Cu  Cu6  1  0.00000000  0.37511000  0.04101300  1
  Cu  Cu7  1  0.00000000  0.62489000  0.95898700  1
  Cu  Cu8  1  0.00000000  0.12489000  0.54101300  1
  Cu  Cu9  1  0.00000000  0.87511000  0.45898700  1
  Cu  Cu10  1  0.00000000  0.34624100  0.19736100  1
  Cu  Cu11  1  0.00000000  0.65375900  0.80263900  1
  Cu  Cu12  1  0.00000000  0.15375900  0.69736100  1
  Cu  Cu13  1  0.00000000  0.84624100  0.30263900  1
  Cu  Cu14  1  0.00000000  0.03565000  0.18800700  1
  Cu  Cu15  1  0.00000000  0.96435000  0.81199300  1
  Cu  Cu16  1  0.00000000  0.46435000  0.68800700  1
  Cu  Cu17  1  0.00000000  0.53565000  0.31199300  1
  Cu  Cu18  1  0.30088800  0.20353900  0.11386500  1
  Cu  Cu19  1  0.69911200  0.79646100  0.88613500  1
  Cu  Cu20  1  0.30088800  0.79646100  0.88613500  1
  Cu  Cu21  1  0.69911200  0.29646100  0.61386500  1
  Cu  Cu22  1  0.69911200  0.20353900  0.11386500  1
  Cu  Cu23  1  0.30088800  0.70353900  0.38613500  1
  Cu  Cu24  1  0.69911200  0.70353900  0.38613500  1
  Cu  Cu25  1  0.30088800  0.29646100  0.61386500  1
