# generated using pymatgen
data_Cu(NiC2)11
_symmetry_space_group_name_H-M   'P 1'
_cell_length_a   9.91945830
_cell_length_b   9.91945830
_cell_length_c   5.19349061
_cell_angle_alpha   75.58505747
_cell_angle_beta   75.58505747
_cell_angle_gamma   73.68117943
_symmetry_Int_Tables_number   1
_chemical_formula_structural   Cu(NiC2)11
_chemical_formula_sum   'Cu1 Ni11 C22'
_cell_volume   466.09970038
_cell_formula_units_Z   1
loop_
 _symmetry_equiv_pos_site_id
 _symmetry_equiv_pos_as_xyz
  1  'x, y, z'
loop_
 _atom_site_type_symbol
 _atom_site_label
 _atom_site_symmetry_multiplicity
 _atom_site_fract_x
 _atom_site_fract_y
 _atom_site_fract_z
 _atom_site_occupancy
  C  C0  1  0.00003100  0.00003100  0.00047200  1
  C  C1  1  0.28346700  0.28346700  0.74869600  1
  Ni  Ni2  1  0.36414500  0.63439700  0.49662800  1
  Ni  Ni3  1  0.63439700  0.36414500  0.49662800  1
  Ni  Ni4  1  0.84710200  0.42032800  0.84374500  1
  Ni  Ni5  1  0.57577100  0.15031900  0.15818400  1
  Ni  Ni6  1  0.15031900  0.57577100  0.15818400  1
  Ni  Ni7  1  0.42032800  0.84710200  0.84374500  1
  Ni  Ni8  1  0.99017200  0.71657400  0.65913400  1
  Ni  Ni9  1  0.28511400  0.00887700  0.34487800  1
  Ni  Ni10  1  0.00887700  0.28511400  0.34487800  1
  Ni  Ni11  1  0.71657400  0.99017200  0.65913400  1
  Ni  Ni12  1  0.50084000  0.50084000  0.00721300  1
  Cu  Cu13  1  0.71137200  0.71137200  0.36536200  1
  C  C14  1  0.86607800  0.60544900  0.64045000  1
  C  C15  1  0.39803200  0.12716900  0.34352900  1
  C  C16  1  0.12716900  0.39803200  0.34352900  1
  C  C17  1  0.60544900  0.86607800  0.64045000  1
  C  C18  1  0.43865400  0.43865400  0.39410100  1
  C  C19  1  0.57355500  0.57355500  0.60942800  1
  C  C20  1  0.70509300  0.99732200  0.01469200  1
  C  C21  1  0.99748100  0.29328400  0.98792400  1
  C  C22  1  0.29328400  0.99748100  0.98792400  1
  C  C23  1  0.99732200  0.70509300  0.01469200  1
  C  C24  1  0.54805300  0.31186300  0.88497500  1
  C  C25  1  0.69296400  0.45723400  0.11587600  1
  C  C26  1  0.45723400  0.69296400  0.11587600  1
  C  C27  1  0.31186300  0.54805300  0.88497500  1
  C  C28  1  0.89983800  0.89983800  0.51872400  1
  C  C29  1  0.09714600  0.09714600  0.47502400  1
  C  C30  1  0.16645300  0.66762800  0.42537600  1
  C  C31  1  0.33243700  0.82976000  0.57554900  1
  C  C32  1  0.82976000  0.33243700  0.57554900  1
  C  C33  1  0.66762800  0.16645300  0.42537600  1
