# generated using pymatgen
data_Cu(NiC2)3
_symmetry_space_group_name_H-M   'P 1'
_cell_length_a   8.65991400
_cell_length_b   8.98901709
_cell_length_c   16.55828478
_cell_angle_alpha   98.87976404
_cell_angle_beta   90.08319478
_cell_angle_gamma   115.93086400
_symmetry_Int_Tables_number   1
_chemical_formula_structural   Cu(NiC2)3
_chemical_formula_sum   'Cu1 Ni3 C6'
_cell_volume   1141.84777055
_cell_formula_units_Z   1
loop_
 _symmetry_equiv_pos_site_id
 _symmetry_equiv_pos_as_xyz
  1  'x, y, z'
loop_
 _atom_site_type_symbol
 _atom_site_label
 _atom_site_symmetry_multiplicity
 _atom_site_fract_x
 _atom_site_fract_y
 _atom_site_fract_z
 _atom_site_occupancy
  Ni  Ni0  1  0.00000000  0.00000000  0.50000000  1
  Ni  Ni1  1  0.00000000  0.50000000  0.00000000  1
  Ni  Ni2  1  0.50000000  0.00000000  0.00000000  1
  Cu  Cu3  1  0.00000000  0.00000000  0.00000000  1
  C  C4  1  0.37062600  0.01708200  0.91798400  1
  C  C5  1  0.62937400  0.98291800  0.08201600  1
  C  C6  1  0.01696700  0.07337500  0.61006800  1
  C  C7  1  0.98303300  0.92662500  0.38993200  1
  C  C8  1  0.10773400  0.36585200  0.97426800  1
  C  C9  1  0.89226600  0.63414800  0.02573200  1
