# generated using pymatgen
data_Cu(NiC2)3
_symmetry_space_group_name_H-M   'P 1'
_cell_length_a   6.59136100
_cell_length_b   6.38355500
_cell_length_c   11.10578316
_cell_angle_alpha   55.33601758
_cell_angle_beta   90.00000000
_cell_angle_gamma   90.00000000
_symmetry_Int_Tables_number   1
_chemical_formula_structural   Cu(NiC2)3
_chemical_formula_sum   'Cu2 Ni6 C12'
_cell_volume   384.34719763
_cell_formula_units_Z   2
loop_
 _symmetry_equiv_pos_site_id
 _symmetry_equiv_pos_as_xyz
  1  'x, y, z'
loop_
 _atom_site_type_symbol
 _atom_site_label
 _atom_site_symmetry_multiplicity
 _atom_site_fract_x
 _atom_site_fract_y
 _atom_site_fract_z
 _atom_site_occupancy
  Ni  Ni0  1  0.50000000  0.50000000  0.00000000  1
  Ni  Ni1  1  0.00000000  0.50000000  0.50000000  1
  Ni  Ni2  1  0.04935000  0.73492300  0.75314300  1
  Ni  Ni3  1  0.95065000  0.26507700  0.24685700  1
  Ni  Ni4  1  0.54935000  0.26507700  0.74685700  1
  Ni  Ni5  1  0.45065000  0.73492300  0.25314300  1
  Cu  Cu6  1  0.50000000  0.00000000  0.50000000  1
  Cu  Cu7  1  0.00000000  0.00000000  0.00000000  1
  C  C8  1  0.77258200  0.76676800  0.56449400  1
  C  C9  1  0.22741800  0.23323200  0.43550600  1
  C  C10  1  0.27258200  0.23323200  0.93550600  1
  C  C11  1  0.72741800  0.76676800  0.06449400  1
  C  C12  1  0.44976400  0.88245900  0.72380800  1
  C  C13  1  0.55023600  0.11754100  0.27619200  1
  C  C14  1  0.94976400  0.11754100  0.77619200  1
  C  C15  1  0.05023600  0.88245900  0.22380800  1
  C  C16  1  0.32443400  0.67417200  0.54750200  1
  C  C17  1  0.67556600  0.32582800  0.45249800  1
  C  C18  1  0.82443400  0.32582800  0.95249800  1
  C  C19  1  0.17556600  0.67417200  0.04750200  1
