# generated using pymatgen
data_Cu(NiC5)3
_symmetry_space_group_name_H-M   'P 1'
_cell_length_a   6.26988700
_cell_length_b   10.00812000
_cell_length_c   17.77870100
_cell_angle_alpha   90.00000000
_cell_angle_beta   90.00000000
_cell_angle_gamma   90.00000000
_symmetry_Int_Tables_number   1
_chemical_formula_structural   Cu(NiC5)3
_chemical_formula_sum   'Cu4 Ni12 C60'
_cell_volume   1115.60960279
_cell_formula_units_Z   4
loop_
 _symmetry_equiv_pos_site_id
 _symmetry_equiv_pos_as_xyz
  1  'x, y, z'
loop_
 _atom_site_type_symbol
 _atom_site_label
 _atom_site_symmetry_multiplicity
 _atom_site_fract_x
 _atom_site_fract_y
 _atom_site_fract_z
 _atom_site_occupancy
  Ni  Ni0  1  0.00511200  0.98323500  0.08092300  1
  Ni  Ni1  1  0.50511200  0.01676500  0.91907700  1
  Ni  Ni2  1  0.00511200  0.51676500  0.58092300  1
  Ni  Ni3  1  0.50511200  0.48323500  0.41907700  1
  Ni  Ni4  1  0.00833100  0.64164400  0.36378200  1
  Ni  Ni5  1  0.50833100  0.35835600  0.63621800  1
  Ni  Ni6  1  0.00833100  0.85835600  0.86378200  1
  Ni  Ni7  1  0.50833100  0.14164400  0.13621800  1
  Ni  Ni8  1  0.99097300  0.37556100  0.04297100  1
  Ni  Ni9  1  0.49097300  0.62443900  0.95702900  1
  Ni  Ni10  1  0.99097300  0.12443900  0.54297100  1
  Ni  Ni11  1  0.49097300  0.87556100  0.45702900  1
  Cu  Cu12  1  0.63896200  0.67559900  0.16683700  1
  Cu  Cu13  1  0.13896200  0.32440100  0.83316300  1
  Cu  Cu14  1  0.63896200  0.82440100  0.66683700  1
  Cu  Cu15  1  0.13896200  0.17559900  0.33316300  1
  C  C16  1  0.98978600  0.93848700  0.39880500  1
  C  C17  1  0.48978600  0.06151300  0.60119500  1
  C  C18  1  0.98978600  0.56151300  0.89880500  1
  C  C19  1  0.48978600  0.43848700  0.10119500  1
  C  C20  1  0.48800200  0.88346000  0.07563200  1
  C  C21  1  0.98800200  0.11654000  0.92436800  1
  C  C22  1  0.48800200  0.61654000  0.57563200  1
  C  C23  1  0.98800200  0.38346000  0.42436800  1
  C  C24  1  0.48903000  0.70454600  0.31178100  1
  C  C25  1  0.98903000  0.29545400  0.68821900  1
  C  C26  1  0.48903000  0.79545400  0.81178100  1
  C  C27  1  0.98903000  0.20454600  0.18821900  1
  C  C28  1  0.42881400  0.48692200  0.16549700  1
  C  C29  1  0.92881400  0.51307800  0.83450300  1
  C  C30  1  0.42881400  0.01307800  0.66549700  1
  C  C31  1  0.92881400  0.98692200  0.33450300  1
  C  C32  1  0.42425400  0.77538800  0.25521200  1
  C  C33  1  0.92425400  0.22461200  0.74478800  1
  C  C34  1  0.42425400  0.72461200  0.75521200  1
  C  C35  1  0.92425400  0.27538800  0.24478800  1
  C  C36  1  0.44957500  0.75748400  0.06272200  1
  C  C37  1  0.94957500  0.24251600  0.93727800  1
  C  C38  1  0.44957500  0.74251600  0.56272200  1
  C  C39  1  0.94957500  0.25748400  0.43727800  1
  C  C40  1  0.89146800  0.84053400  0.42905800  1
  C  C41  1  0.39146800  0.15946600  0.57094200  1
  C  C42  1  0.89146800  0.65946600  0.92905800  1
  C  C43  1  0.39146800  0.34053400  0.07094200  1
  C  C44  1  0.65340000  0.49669200  0.06861000  1
  C  C45  1  0.15340000  0.50330800  0.93139000  1
  C  C46  1  0.65340000  0.00330800  0.56861000  1
  C  C47  1  0.15340000  0.99669200  0.43139000  1
  C  C48  1  0.10551500  0.68118300  0.16804000  1
  C  C49  1  0.60551500  0.31881700  0.83196000  1
  C  C50  1  0.10551500  0.81881700  0.66804000  1
  C  C51  1  0.60551500  0.18118300  0.33196000  1
  C  C52  1  0.63712200  0.90949300  0.12495700  1
  C  C53  1  0.13712200  0.09050700  0.87504300  1
  C  C54  1  0.63712200  0.59050700  0.62495700  1
  C  C55  1  0.13712200  0.40949300  0.37504300  1
  C  C56  1  0.99235800  0.59128500  0.20707300  1
  C  C57  1  0.49235800  0.40871500  0.79292700  1
  C  C58  1  0.99235800  0.90871500  0.70707300  1
  C  C59  1  0.49235800  0.09128500  0.29292700  1
  C  C60  1  0.38225600  0.97699600  0.04356500  1
  C  C61  1  0.88225600  0.02300400  0.95643500  1
  C  C62  1  0.38225600  0.52300400  0.54356500  1
  C  C63  1  0.88225600  0.47699600  0.45643500  1
  C  C64  1  0.66260300  0.63362900  0.30102300  1
  C  C65  1  0.16260300  0.36637100  0.69897700  1
  C  C66  1  0.66260300  0.86637100  0.80102300  1
  C  C67  1  0.16260300  0.13362900  0.19897700  1
  C  C68  1  0.38832100  0.69989700  0.37426600  1
  C  C69  1  0.88832100  0.30010300  0.62573400  1
  C  C70  1  0.38832100  0.80010300  0.87426600  1
  C  C71  1  0.88832100  0.19989700  0.12573400  1
  C  C72  1  0.98181900  0.74838600  0.11844800  1
  C  C73  1  0.48181900  0.25161400  0.88155200  1
  C  C74  1  0.98181900  0.75161400  0.61844800  1
  C  C75  1  0.48181900  0.24838600  0.38155200  1
