# generated using pymatgen
data_CuNiC
_symmetry_space_group_name_H-M   'P 1'
_cell_length_a   8.11323300
_cell_length_b   10.64004600
_cell_length_c   6.97577200
_cell_angle_alpha   90.00000000
_cell_angle_beta   90.00000000
_cell_angle_gamma   90.00000000
_symmetry_Int_Tables_number   1
_chemical_formula_structural   CuNiC
_chemical_formula_sum   'Cu8 Ni8 C8'
_cell_volume   602.18472003
_cell_formula_units_Z   8
loop_
 _symmetry_equiv_pos_site_id
 _symmetry_equiv_pos_as_xyz
  1  'x, y, z'
loop_
 _atom_site_type_symbol
 _atom_site_label
 _atom_site_symmetry_multiplicity
 _atom_site_fract_x
 _atom_site_fract_y
 _atom_site_fract_z
 _atom_site_occupancy
  C  C0  1  0.75000000  0.77522600  0.29756900  1
  C  C1  1  0.25000000  0.22477400  0.70243100  1
  C  C2  1  0.25000000  0.72477400  0.79756900  1
  C  C3  1  0.75000000  0.27522600  0.20243100  1
  C  C4  1  0.75000000  0.96399600  0.79274100  1
  C  C5  1  0.25000000  0.03600400  0.20725900  1
  C  C6  1  0.25000000  0.53600400  0.29274100  1
  C  C7  1  0.75000000  0.46399600  0.70725900  1
  Ni  Ni8  1  0.00200200  0.94103600  0.61530300  1
  Ni  Ni9  1  0.99799800  0.05896400  0.38469700  1
  Ni  Ni10  1  0.99799800  0.55896400  0.11530300  1
  Ni  Ni11  1  0.50200200  0.05896400  0.38469700  1
  Ni  Ni12  1  0.00200200  0.44103600  0.88469700  1
  Ni  Ni13  1  0.49799800  0.94103600  0.61530300  1
  Ni  Ni14  1  0.49799800  0.44103600  0.88469700  1
  Ni  Ni15  1  0.50200200  0.55896400  0.11530300  1
  Cu  Cu16  1  0.75000000  0.59435000  0.59621100  1
  Cu  Cu17  1  0.25000000  0.40565000  0.40378900  1
  Cu  Cu18  1  0.25000000  0.90565000  0.09621100  1
  Cu  Cu19  1  0.75000000  0.09435000  0.90378900  1
  Cu  Cu20  1  0.75000000  0.84424600  0.93190600  1
  Cu  Cu21  1  0.25000000  0.15575400  0.06809400  1
  Cu  Cu22  1  0.25000000  0.65575400  0.43190600  1
  Cu  Cu23  1  0.75000000  0.34424600  0.56809400  1
