# generated using pymatgen
data_Cu10NiC
_symmetry_space_group_name_H-M   'P 1'
_cell_length_a   11.33943900
_cell_length_b   11.33943900
_cell_length_c   11.33943900
_cell_angle_alpha   90.00000000
_cell_angle_beta   90.00000000
_cell_angle_gamma   90.00000000
_symmetry_Int_Tables_number   1
_chemical_formula_structural   Cu10NiC
_chemical_formula_sum   'Cu80 Ni8 C8'
_cell_volume   1458.05768831
_cell_formula_units_Z   8
loop_
 _symmetry_equiv_pos_site_id
 _symmetry_equiv_pos_as_xyz
  1  'x, y, z'
loop_
 _atom_site_type_symbol
 _atom_site_label
 _atom_site_symmetry_multiplicity
 _atom_site_fract_x
 _atom_site_fract_y
 _atom_site_fract_z
 _atom_site_occupancy
  C  C0  1  0.00000000  0.00000000  0.00000000  1
  C  C1  1  0.50000000  0.00000000  0.50000000  1
  C  C2  1  0.00000000  0.50000000  0.50000000  1
  C  C3  1  0.50000000  0.50000000  0.00000000  1
  C  C4  1  0.50000000  0.50000000  0.50000000  1
  C  C5  1  0.00000000  0.50000000  0.00000000  1
  C  C6  1  0.50000000  0.00000000  0.00000000  1
  C  C7  1  0.00000000  0.00000000  0.50000000  1
  Ni  Ni8  1  0.19810500  0.19810500  0.19810500  1
  Ni  Ni9  1  0.80189500  0.80189500  0.80189500  1
  Ni  Ni10  1  0.30189500  0.80189500  0.69810500  1
  Ni  Ni11  1  0.80189500  0.69810500  0.30189500  1
  Ni  Ni12  1  0.69810500  0.19810500  0.30189500  1
  Ni  Ni13  1  0.19810500  0.30189500  0.69810500  1
  Ni  Ni14  1  0.69810500  0.30189500  0.80189500  1
  Ni  Ni15  1  0.30189500  0.69810500  0.19810500  1
  Cu  Cu16  1  0.98348800  0.98727600  0.31660500  1
  Cu  Cu17  1  0.01651200  0.01272400  0.68339500  1
  Cu  Cu18  1  0.51651200  0.01272400  0.81660500  1
  Cu  Cu19  1  0.01651200  0.48727600  0.18339500  1
  Cu  Cu20  1  0.31660500  0.98348800  0.98727600  1
  Cu  Cu21  1  0.48348800  0.98727600  0.18339500  1
  Cu  Cu22  1  0.98348800  0.51272400  0.81660500  1
  Cu  Cu23  1  0.68339500  0.01651200  0.01272400  1
  Cu  Cu24  1  0.48348800  0.51272400  0.68339500  1
  Cu  Cu25  1  0.81660500  0.51651200  0.01272400  1
  Cu  Cu26  1  0.51651200  0.48727600  0.31660500  1
  Cu  Cu27  1  0.18339500  0.48348800  0.98727600  1
  Cu  Cu28  1  0.18339500  0.01651200  0.48727600  1
  Cu  Cu29  1  0.81660500  0.98348800  0.51272400  1
  Cu  Cu30  1  0.68339500  0.48348800  0.51272400  1
  Cu  Cu31  1  0.31660500  0.51651200  0.48727600  1
  Cu  Cu32  1  0.98727600  0.31660500  0.98348800  1
  Cu  Cu33  1  0.01272400  0.68339500  0.01651200  1
  Cu  Cu34  1  0.48727600  0.18339500  0.01651200  1
  Cu  Cu35  1  0.51272400  0.81660500  0.98348800  1
  Cu  Cu36  1  0.51272400  0.68339500  0.48348800  1
  Cu  Cu37  1  0.48727600  0.31660500  0.51651200  1
  Cu  Cu38  1  0.01272400  0.81660500  0.51651200  1
  Cu  Cu39  1  0.98727600  0.18339500  0.48348800  1
  Cu  Cu40  1  0.24910400  0.47237200  0.41077100  1
  Cu  Cu41  1  0.75089600  0.52762800  0.58922900  1
  Cu  Cu42  1  0.25089600  0.52762800  0.91077100  1
  Cu  Cu43  1  0.75089600  0.97237200  0.08922900  1
  Cu  Cu44  1  0.41077100  0.24910400  0.47237200  1
  Cu  Cu45  1  0.74910400  0.47237200  0.08922900  1
  Cu  Cu46  1  0.24910400  0.02762800  0.91077100  1
  Cu  Cu47  1  0.58922900  0.75089600  0.52762800  1
  Cu  Cu48  1  0.74910400  0.02762800  0.58922900  1
  Cu  Cu49  1  0.91077100  0.25089600  0.52762800  1
  Cu  Cu50  1  0.25089600  0.97237200  0.41077100  1
  Cu  Cu51  1  0.08922900  0.74910400  0.47237200  1
  Cu  Cu52  1  0.08922900  0.75089600  0.97237200  1
  Cu  Cu53  1  0.91077100  0.24910400  0.02762800  1
  Cu  Cu54  1  0.58922900  0.74910400  0.02762800  1
  Cu  Cu55  1  0.41077100  0.25089600  0.97237200  1
  Cu  Cu56  1  0.47237200  0.41077100  0.24910400  1
  Cu  Cu57  1  0.52762800  0.58922900  0.75089600  1
  Cu  Cu58  1  0.97237200  0.08922900  0.75089600  1
  Cu  Cu59  1  0.02762800  0.91077100  0.24910400  1
  Cu  Cu60  1  0.02762800  0.58922900  0.74910400  1
  Cu  Cu61  1  0.97237200  0.41077100  0.25089600  1
  Cu  Cu62  1  0.52762800  0.91077100  0.25089600  1
  Cu  Cu63  1  0.47237200  0.08922900  0.74910400  1
  Cu  Cu64  1  0.07515100  0.19527800  0.24473000  1
  Cu  Cu65  1  0.92484900  0.80472200  0.75527000  1
  Cu  Cu66  1  0.42484900  0.80472200  0.74473000  1
  Cu  Cu67  1  0.92484900  0.69527800  0.25527000  1
  Cu  Cu68  1  0.24473000  0.07515100  0.19527800  1
  Cu  Cu69  1  0.57515100  0.19527800  0.25527000  1
  Cu  Cu70  1  0.07515100  0.30472200  0.74473000  1
  Cu  Cu71  1  0.75527000  0.92484900  0.80472200  1
  Cu  Cu72  1  0.57515100  0.30472200  0.75527000  1
  Cu  Cu73  1  0.74473000  0.42484900  0.80472200  1
  Cu  Cu74  1  0.42484900  0.69527800  0.24473000  1
  Cu  Cu75  1  0.25527000  0.57515100  0.19527800  1
  Cu  Cu76  1  0.25527000  0.92484900  0.69527800  1
  Cu  Cu77  1  0.74473000  0.07515100  0.30472200  1
  Cu  Cu78  1  0.75527000  0.57515100  0.30472200  1
  Cu  Cu79  1  0.24473000  0.42484900  0.69527800  1
  Cu  Cu80  1  0.19527800  0.24473000  0.07515100  1
  Cu  Cu81  1  0.80472200  0.75527000  0.92484900  1
  Cu  Cu82  1  0.69527800  0.25527000  0.92484900  1
  Cu  Cu83  1  0.30472200  0.74473000  0.07515100  1
  Cu  Cu84  1  0.30472200  0.75527000  0.57515100  1
  Cu  Cu85  1  0.69527800  0.24473000  0.42484900  1
  Cu  Cu86  1  0.80472200  0.74473000  0.42484900  1
  Cu  Cu87  1  0.19527800  0.25527000  0.57515100  1
  Cu  Cu88  1  0.27347900  0.27347900  0.27347900  1
  Cu  Cu89  1  0.72652100  0.72652100  0.72652100  1
  Cu  Cu90  1  0.22652100  0.72652100  0.77347900  1
  Cu  Cu91  1  0.72652100  0.77347900  0.22652100  1
  Cu  Cu92  1  0.77347900  0.27347900  0.22652100  1
  Cu  Cu93  1  0.27347900  0.22652100  0.77347900  1
  Cu  Cu94  1  0.77347900  0.22652100  0.72652100  1
  Cu  Cu95  1  0.22652100  0.77347900  0.27347900  1
