# generated using pymatgen
data_Cu3(Ni2C)2
_symmetry_space_group_name_H-M   'P 1'
_cell_length_a   6.90471571
_cell_length_b   12.24131405
_cell_length_c   11.61722425
_cell_angle_alpha   90.00000000
_cell_angle_beta   90.00000000
_cell_angle_gamma   90.00000000
_symmetry_Int_Tables_number   1
_chemical_formula_structural   Cu3(Ni2C)2
_chemical_formula_sum   'Cu12 Ni16 C8'
_cell_volume   981.92024554
_cell_formula_units_Z   4
loop_
 _symmetry_equiv_pos_site_id
 _symmetry_equiv_pos_as_xyz
  1  'x, y, z'
loop_
 _atom_site_type_symbol
 _atom_site_label
 _atom_site_symmetry_multiplicity
 _atom_site_fract_x
 _atom_site_fract_y
 _atom_site_fract_z
 _atom_site_occupancy
  Ni  Ni0  1  0.74088265  0.25000000  0.94682920  1
  Ni  Ni1  1  0.24088265  0.25000000  0.55317080  1
  Ni  Ni2  1  0.25911735  0.75000000  0.05317080  1
  Ni  Ni3  1  0.75911735  0.75000000  0.44682920  1
  Ni  Ni4  1  0.87619247  0.25000000  0.38972247  1
  Ni  Ni5  1  0.37619247  0.25000000  0.11027753  1
  Ni  Ni6  1  0.12380753  0.75000000  0.61027753  1
  Ni  Ni7  1  0.62380753  0.75000000  0.88972247  1
  Ni  Ni8  1  0.63541136  0.52373597  0.10636918  1
  Ni  Ni9  1  0.13541136  0.97626403  0.39363082  1
  Ni  Ni10  1  0.36458864  0.02373597  0.89363082  1
  Ni  Ni11  1  0.86458864  0.47626403  0.60636918  1
  Ni  Ni12  1  0.36458864  0.47626403  0.89363082  1
  Ni  Ni13  1  0.86458864  0.02373597  0.60636918  1
  Ni  Ni14  1  0.63541136  0.97626403  0.10636918  1
  Ni  Ni15  1  0.13541136  0.52373597  0.39363082  1
  Cu  Cu16  1  0.98221547  0.25000000  0.15246807  1
  Cu  Cu17  1  0.48221547  0.25000000  0.34753193  1
  Cu  Cu18  1  0.01778453  0.75000000  0.84753193  1
  Cu  Cu19  1  0.51778453  0.75000000  0.65246807  1
  Cu  Cu20  1  0.54349763  0.55765305  0.34629634  1
  Cu  Cu21  1  0.04349763  0.94234695  0.15370366  1
  Cu  Cu22  1  0.45650237  0.05765305  0.65370366  1
  Cu  Cu23  1  0.95650237  0.44234695  0.84629634  1
  Cu  Cu24  1  0.45650237  0.44234695  0.65370366  1
  Cu  Cu25  1  0.95650237  0.05765305  0.84629634  1
  Cu  Cu26  1  0.54349763  0.94234695  0.34629634  1
  Cu  Cu27  1  0.04349763  0.55765305  0.15370366  1
  C  C28  1  0.47097547  0.62417181  0.98424019  1
  C  C29  1  0.97097547  0.87582819  0.51575981  1
  C  C30  1  0.52902453  0.12417181  0.01575981  1
  C  C31  1  0.02902453  0.37582819  0.48424019  1
  C  C32  1  0.52902453  0.37582819  0.01575981  1
  C  C33  1  0.02902453  0.12417181  0.48424019  1
  C  C34  1  0.47097547  0.87582819  0.98424019  1
  C  C35  1  0.97097547  0.62417181  0.51575981  1
