# generated using pymatgen
data_Cu7NiC4
_symmetry_space_group_name_H-M   'P 1'
_cell_length_a   7.90204600
_cell_length_b   7.93239000
_cell_length_c   11.78493300
_cell_angle_alpha   90.00000000
_cell_angle_beta   90.00000000
_cell_angle_gamma   90.00000000
_symmetry_Int_Tables_number   1
_chemical_formula_structural   Cu7NiC4
_chemical_formula_sum   'Cu28 Ni4 C16'
_cell_volume   738.70447454
_cell_formula_units_Z   4
loop_
 _symmetry_equiv_pos_site_id
 _symmetry_equiv_pos_as_xyz
  1  'x, y, z'
loop_
 _atom_site_type_symbol
 _atom_site_label
 _atom_site_symmetry_multiplicity
 _atom_site_fract_x
 _atom_site_fract_y
 _atom_site_fract_z
 _atom_site_occupancy
  C  C0  1  0.00002300  0.23664600  0.00000000  1
  C  C1  1  0.99997700  0.76335400  0.00000000  1
  C  C2  1  0.50002300  0.26335400  0.00000000  1
  C  C3  1  0.49997700  0.73664600  0.00000000  1
  C  C4  1  0.75172100  0.50016000  0.18910700  1
  C  C5  1  0.24827900  0.49984000  0.18910700  1
  C  C6  1  0.25172100  0.99984000  0.81089300  1
  C  C7  1  0.74827900  0.00016000  0.81089300  1
  C  C8  1  0.24827900  0.49984000  0.81089300  1
  C  C9  1  0.75172100  0.50016000  0.81089300  1
  C  C10  1  0.74827900  0.00016000  0.18910700  1
  C  C11  1  0.25172100  0.99984000  0.18910700  1
  C  C12  1  0.77171800  0.49484600  0.50000000  1
  C  C13  1  0.22828200  0.50515400  0.50000000  1
  C  C14  1  0.27171800  0.00515400  0.50000000  1
  C  C15  1  0.72828200  0.99484600  0.50000000  1
  Ni  Ni16  1  0.94393300  0.22948900  0.50000000  1
  Ni  Ni17  1  0.05606700  0.77051100  0.50000000  1
  Ni  Ni18  1  0.44393300  0.27051100  0.50000000  1
  Ni  Ni19  1  0.55606700  0.72948900  0.50000000  1
  Cu  Cu20  1  0.00000000  0.50000000  0.13355300  1
  Cu  Cu21  1  0.50000000  0.00000000  0.86644700  1
  Cu  Cu22  1  0.00000000  0.50000000  0.86644700  1
  Cu  Cu23  1  0.50000000  0.00000000  0.13355300  1
  Cu  Cu24  1  0.50000000  0.50000000  0.18237900  1
  Cu  Cu25  1  0.00000000  0.00000000  0.81762100  1
  Cu  Cu26  1  0.50000000  0.50000000  0.81762100  1
  Cu  Cu27  1  0.00000000  0.00000000  0.18237900  1
  Cu  Cu28  1  0.74984200  0.25003100  0.15137900  1
  Cu  Cu29  1  0.25015800  0.74996900  0.15137900  1
  Cu  Cu30  1  0.24984200  0.24996900  0.84862100  1
  Cu  Cu31  1  0.75015800  0.75003100  0.84862100  1
  Cu  Cu32  1  0.25015800  0.74996900  0.84862100  1
  Cu  Cu33  1  0.74984200  0.25003100  0.84862100  1
  Cu  Cu34  1  0.75015800  0.75003100  0.15137900  1
  Cu  Cu35  1  0.24984200  0.24996900  0.15137900  1
  Cu  Cu36  1  0.69863400  0.49999400  0.00000000  1
  Cu  Cu37  1  0.30136600  0.50000600  0.00000000  1
  Cu  Cu38  1  0.19863400  0.00000600  0.00000000  1
  Cu  Cu39  1  0.80136600  0.99999400  0.00000000  1
  Cu  Cu40  1  0.77942900  0.49971300  0.34137100  1
  Cu  Cu41  1  0.22057100  0.50028700  0.34137100  1
  Cu  Cu42  1  0.27942900  0.00028700  0.65862900  1
  Cu  Cu43  1  0.72057100  0.99971300  0.65862900  1
  Cu  Cu44  1  0.22057100  0.50028700  0.65862900  1
  Cu  Cu45  1  0.77942900  0.49971300  0.65862900  1
  Cu  Cu46  1  0.72057100  0.99971300  0.34137100  1
  Cu  Cu47  1  0.27942900  0.00028700  0.34137100  1
