# generated using pymatgen
data_Cu(NiC4)2
_symmetry_space_group_name_H-M   'P 1'
_cell_length_a   7.36257953
_cell_length_b   7.36257953
_cell_length_c   12.46312619
_cell_angle_alpha   74.39542879
_cell_angle_beta   74.39542879
_cell_angle_gamma   65.38660390
_symmetry_Int_Tables_number   1
_chemical_formula_structural   Cu(NiC4)2
_chemical_formula_sum   'Cu2 Ni4 C16'
_cell_volume   581.98933083
_cell_formula_units_Z   2
loop_
 _symmetry_equiv_pos_site_id
 _symmetry_equiv_pos_as_xyz
  1  'x, y, z'
loop_
 _atom_site_type_symbol
 _atom_site_label
 _atom_site_symmetry_multiplicity
 _atom_site_fract_x
 _atom_site_fract_y
 _atom_site_fract_z
 _atom_site_occupancy
  C  C0  1  0.90658300  0.53186200  0.34291700  1
  C  C1  1  0.53186200  0.90658300  0.84291700  1
  C  C2  1  0.07389000  0.92643800  0.50041500  1
  C  C3  1  0.92643800  0.07389000  0.00041500  1
  Ni  Ni4  1  0.61351700  0.45571800  0.69320400  1
  Ni  Ni5  1  0.45571800  0.61351700  0.19320400  1
  Ni  Ni6  1  0.28758900  0.41692900  0.99765800  1
  Ni  Ni7  1  0.41692900  0.28758900  0.49765800  1
  Cu  Cu8  1  0.06774900  0.51171200  0.74854300  1
  Cu  Cu9  1  0.51171200  0.06774900  0.24854300  1
  C  C10  1  0.73800500  0.29332500  0.52380400  1
  C  C11  1  0.29332500  0.73800500  0.02380400  1
  C  C12  1  0.60677000  0.22219800  0.87895700  1
  C  C13  1  0.22219800  0.60677000  0.37895700  1
  C  C14  1  0.25217100  0.70705200  0.69909700  1
  C  C15  1  0.70705200  0.25217100  0.19909700  1
  C  C16  1  0.21543200  0.21216300  0.69251000  1
  C  C17  1  0.21216300  0.21543200  0.19251000  1
  C  C18  1  0.79179400  0.69812800  0.66684000  1
  C  C19  1  0.69812800  0.79179400  0.16684000  1
  C  C20  1  0.96813500  0.46855800  0.93620500  1
  C  C21  1  0.46855800  0.96813500  0.43620500  1
