# generated using pymatgen
data_Cu2Ni5C16
_symmetry_space_group_name_H-M   'P 1'
_cell_length_a   12.59470000
_cell_length_b   12.59470000
_cell_length_c   3.91669800
_cell_angle_alpha   90.00000000
_cell_angle_beta   90.00000000
_cell_angle_gamma   90.00000000
_symmetry_Int_Tables_number   1
_chemical_formula_structural   Cu2Ni5C16
_chemical_formula_sum   'Cu4 Ni10 C32'
_cell_volume   621.29197032
_cell_formula_units_Z   2
loop_
 _symmetry_equiv_pos_site_id
 _symmetry_equiv_pos_as_xyz
  1  'x, y, z'
loop_
 _atom_site_type_symbol
 _atom_site_label
 _atom_site_symmetry_multiplicity
 _atom_site_fract_x
 _atom_site_fract_y
 _atom_site_fract_z
 _atom_site_occupancy
  C  C0  1  0.00000000  0.00000000  0.50000000  1
  C  C1  1  0.50000000  0.50000000  0.50000000  1
  Ni  Ni2  1  0.50000000  0.00000000  0.00000000  1
  Ni  Ni3  1  0.00000000  0.50000000  0.00000000  1
  Ni  Ni4  1  0.21105000  0.07856600  0.00000000  1
  Ni  Ni5  1  0.78895000  0.92143400  0.00000000  1
  Ni  Ni6  1  0.07856600  0.78895000  0.00000000  1
  Ni  Ni7  1  0.71105000  0.42143400  0.00000000  1
  Ni  Ni8  1  0.92143400  0.21105000  0.00000000  1
  Ni  Ni9  1  0.28895000  0.57856600  0.00000000  1
  Ni  Ni10  1  0.57856600  0.71105000  0.00000000  1
  Ni  Ni11  1  0.42143400  0.28895000  0.00000000  1
  Cu  Cu12  1  0.67182200  0.17182200  0.50000000  1
  Cu  Cu13  1  0.32817800  0.82817800  0.50000000  1
  Cu  Cu14  1  0.17182200  0.32817800  0.50000000  1
  Cu  Cu15  1  0.82817800  0.67182200  0.50000000  1
  C  C16  1  0.18918100  0.07973300  0.50000000  1
  C  C17  1  0.81081900  0.92026700  0.50000000  1
  C  C18  1  0.07973300  0.81081900  0.50000000  1
  C  C19  1  0.68918100  0.42026700  0.50000000  1
  C  C20  1  0.92026700  0.18918100  0.50000000  1
  C  C21  1  0.31081900  0.57973300  0.50000000  1
  C  C22  1  0.57973300  0.68918100  0.50000000  1
  C  C23  1  0.42026700  0.31081900  0.50000000  1
  C  C24  1  0.22437300  0.72437300  0.00000000  1
  C  C25  1  0.77562700  0.27562700  0.00000000  1
  C  C26  1  0.72437300  0.77562700  0.00000000  1
  C  C27  1  0.27562700  0.22437300  0.00000000  1
  C  C28  1  0.50000000  0.00000000  0.50000000  1
  C  C29  1  0.00000000  0.50000000  0.50000000  1
  C  C30  1  0.05677800  0.13006300  0.00000000  1
  C  C31  1  0.94322200  0.86993700  0.00000000  1
  C  C32  1  0.13006300  0.94322200  0.00000000  1
  C  C33  1  0.55677800  0.36993700  0.00000000  1
  C  C34  1  0.86993700  0.05677800  0.00000000  1
  C  C35  1  0.44322200  0.63006300  0.00000000  1
  C  C36  1  0.63006300  0.55677800  0.00000000  1
  C  C37  1  0.36993700  0.44322200  0.00000000  1
  C  C38  1  0.34104000  0.99909900  0.00000000  1
  C  C39  1  0.65896000  0.00090100  0.00000000  1
  C  C40  1  0.99909900  0.65896000  0.00000000  1
  C  C41  1  0.84104000  0.50090100  0.00000000  1
  C  C42  1  0.00090100  0.34104000  0.00000000  1
  C  C43  1  0.15896000  0.49909900  0.00000000  1
  C  C44  1  0.49909900  0.84104000  0.00000000  1
  C  C45  1  0.50090100  0.15896000  0.00000000  1
