# generated using pymatgen
data_Cu2NiC20
_symmetry_space_group_name_H-M   'P 1'
_cell_length_a   16.18726700
_cell_length_b   16.18726700
_cell_length_c   9.68837400
_cell_angle_alpha   90.00000000
_cell_angle_beta   90.00000000
_cell_angle_gamma   90.00000000
_symmetry_Int_Tables_number   1
_chemical_formula_structural   Cu2NiC20
_chemical_formula_sum   'Cu8 Ni4 C80'
_cell_volume   2538.62151239
_cell_formula_units_Z   4
loop_
 _symmetry_equiv_pos_site_id
 _symmetry_equiv_pos_as_xyz
  1  'x, y, z'
loop_
 _atom_site_type_symbol
 _atom_site_label
 _atom_site_symmetry_multiplicity
 _atom_site_fract_x
 _atom_site_fract_y
 _atom_site_fract_z
 _atom_site_occupancy
  C  C0  1  0.50000000  0.00000000  0.78234100  1
  C  C1  1  0.00000000  0.50000000  0.78234100  1
  C  C2  1  0.50000000  0.00000000  0.21756300  1
  C  C3  1  0.00000000  0.50000000  0.21756300  1
  C  C4  1  0.70252000  0.20283300  0.00067900  1
  C  C5  1  0.29748000  0.79716700  0.00067900  1
  C  C6  1  0.20283300  0.29748000  0.00067900  1
  C  C7  1  0.79716700  0.70252000  0.00067900  1
  C  C8  1  0.23779500  0.73790900  0.49924500  1
  C  C9  1  0.76220500  0.26209100  0.49924500  1
  C  C10  1  0.73790900  0.76220500  0.49924500  1
  C  C11  1  0.26209100  0.23779500  0.49924500  1
  C  C12  1  0.51092100  0.71224100  0.75404100  1
  C  C13  1  0.48907900  0.28775900  0.75404100  1
  C  C14  1  0.01105700  0.78801100  0.75616900  1
  C  C15  1  0.98894300  0.21198900  0.75616900  1
  C  C16  1  0.28775900  0.51092100  0.75404100  1
  C  C17  1  0.71224100  0.48907900  0.75404100  1
  C  C18  1  0.21198900  0.01105700  0.75616900  1
  C  C19  1  0.78801100  0.98894300  0.75616900  1
  C  C20  1  0.48902800  0.28172700  0.24515500  1
  C  C21  1  0.51097200  0.71827300  0.24515500  1
  C  C22  1  0.98869900  0.21875500  0.24730900  1
  C  C23  1  0.01130100  0.78124500  0.24730900  1
  C  C24  1  0.71827300  0.48902800  0.24515500  1
  C  C25  1  0.28172700  0.51097200  0.24515500  1
  C  C26  1  0.78124500  0.98869900  0.24730900  1
  C  C27  1  0.21875500  0.01130100  0.24730900  1
  Ni  Ni28  1  0.50000000  0.50000000  0.02457300  1
  Ni  Ni29  1  0.00000000  0.00000000  0.02827500  1
  Ni  Ni30  1  0.00000000  0.00000000  0.47457000  1
  Ni  Ni31  1  0.50000000  0.50000000  0.47106200  1
  Cu  Cu32  1  0.60323900  0.10314000  0.50029900  1
  Cu  Cu33  1  0.39676100  0.89686000  0.50029900  1
  Cu  Cu34  1  0.10314000  0.39676100  0.50029900  1
  Cu  Cu35  1  0.89686000  0.60323900  0.50029900  1
  Cu  Cu36  1  0.13640900  0.63631900  0.99960100  1
  Cu  Cu37  1  0.86359100  0.36368100  0.99960100  1
  Cu  Cu38  1  0.63631900  0.86359100  0.99960100  1
  Cu  Cu39  1  0.36368100  0.13640900  0.99960100  1
  C  C40  1  0.65304500  0.15270600  0.70365800  1
  C  C41  1  0.34695500  0.84729400  0.70365800  1
  C  C42  1  0.15270600  0.34695500  0.70365800  1
  C  C43  1  0.84729400  0.65304500  0.70365800  1
  C  C44  1  0.34772300  0.84757000  0.29635100  1
  C  C45  1  0.65227700  0.15243000  0.29635100  1
  C  C46  1  0.84757000  0.65227700  0.29635100  1
  C  C47  1  0.15243000  0.34772300  0.29635100  1
  C  C48  1  0.84299100  0.50296500  0.99847000  1
  C  C49  1  0.15700900  0.49703500  0.99847000  1
  C  C50  1  0.34312600  0.99712300  0.99939200  1
  C  C51  1  0.65687400  0.00287700  0.99939200  1
  C  C52  1  0.49703500  0.84299100  0.99847000  1
  C  C53  1  0.50296500  0.15700900  0.99847000  1
  C  C54  1  0.00287700  0.34312600  0.99939200  1
  C  C55  1  0.99712300  0.65687400  0.99939200  1
  C  C56  1  0.61767800  0.61009100  0.48673400  1
  C  C57  1  0.38232200  0.38990900  0.48673400  1
  C  C58  1  0.11751900  0.89017800  0.49238200  1
  C  C59  1  0.88248100  0.10982200  0.49238200  1
  C  C60  1  0.38990900  0.61767800  0.48673400  1
  C  C61  1  0.61009100  0.38232200  0.48673400  1
  C  C62  1  0.10982200  0.11751900  0.49238200  1
  C  C63  1  0.89017800  0.88248100  0.49238200  1
  C  C64  1  0.54189000  0.86590000  0.50042400  1
  C  C65  1  0.45811000  0.13410000  0.50042400  1
  C  C66  1  0.04195700  0.63428500  0.49964400  1
  C  C67  1  0.95804300  0.36571500  0.49964400  1
  C  C68  1  0.13410000  0.54189000  0.50042400  1
  C  C69  1  0.86590000  0.45811000  0.50042400  1
  C  C70  1  0.36571500  0.04195700  0.49964400  1
  C  C71  1  0.63428500  0.95804300  0.49964400  1
  C  C72  1  0.18615000  0.68649600  0.79684600  1
  C  C73  1  0.81385000  0.31350400  0.79684600  1
  C  C74  1  0.68649600  0.81385000  0.79684600  1
  C  C75  1  0.31350400  0.18615000  0.79684600  1
  C  C76  1  0.81408300  0.31435000  0.20277800  1
  C  C77  1  0.18591700  0.68565000  0.20277800  1
  C  C78  1  0.31435000  0.18591700  0.20277800  1
  C  C79  1  0.68565000  0.81408300  0.20277800  1
  C  C80  1  0.62137600  0.60498100  0.00744400  1
  C  C81  1  0.37862400  0.39501900  0.00744400  1
  C  C82  1  0.12126800  0.89518600  0.01351700  1
  C  C83  1  0.87873200  0.10481400  0.01351700  1
  C  C84  1  0.39501900  0.62137600  0.00744400  1
  C  C85  1  0.60498100  0.37862400  0.00744400  1
  C  C86  1  0.10481400  0.12126800  0.01351700  1
  C  C87  1  0.89518600  0.87873200  0.01351700  1
  C  C88  1  0.50000000  0.50000000  0.74747800  1
  C  C89  1  0.00000000  0.00000000  0.75165800  1
  C  C90  1  0.50000000  0.50000000  0.24781000  1
  C  C91  1  0.00000000  0.00000000  0.25422200  1
