# generated using pymatgen
data_Cu3NiC8
_symmetry_space_group_name_H-M   'P 1'
_cell_length_a   3.23692000
_cell_length_b   5.60931100
_cell_length_c   13.07117200
_cell_angle_alpha   90.00000000
_cell_angle_beta   90.00000000
_cell_angle_gamma   90.00000000
_symmetry_Int_Tables_number   1
_chemical_formula_structural   Cu3NiC8
_chemical_formula_sum   'Cu3 Ni1 C8'
_cell_volume   237.33184475
_cell_formula_units_Z   1
loop_
 _symmetry_equiv_pos_site_id
 _symmetry_equiv_pos_as_xyz
  1  'x, y, z'
loop_
 _atom_site_type_symbol
 _atom_site_label
 _atom_site_symmetry_multiplicity
 _atom_site_fract_x
 _atom_site_fract_y
 _atom_site_fract_z
 _atom_site_occupancy
  Ni  Ni0  1  0.50000000  0.82801600  0.50000000  1
  Cu  Cu1  1  0.00000000  0.33853800  0.50000000  1
  Cu  Cu2  1  0.00000000  0.66653000  0.00000000  1
  Cu  Cu3  1  0.50000000  0.16659400  0.00000000  1
  C  C4  1  0.50000000  0.83323700  0.88090100  1
  C  C5  1  0.00000000  0.33332000  0.88090700  1
  C  C6  1  0.00000000  0.66131100  0.62235700  1
  C  C7  1  0.50000000  0.17229400  0.61879400  1
  C  C8  1  0.00000000  0.66131100  0.37764300  1
  C  C9  1  0.50000000  0.17229400  0.38120600  1
  C  C10  1  0.50000000  0.83323700  0.11909900  1
  C  C11  1  0.00000000  0.33332000  0.11909300  1
