# generated using pymatgen
data_CuNiC4
_symmetry_space_group_name_H-M   'P 1'
_cell_length_a   10.02551537
_cell_length_b   10.02551537
_cell_length_c   10.02551537
_cell_angle_alpha   109.47122063
_cell_angle_beta   109.47122063
_cell_angle_gamma   109.47122063
_symmetry_Int_Tables_number   1
_chemical_formula_structural   CuNiC4
_chemical_formula_sum   'Cu12 Ni12 C48'
_cell_volume   775.70792994
_cell_formula_units_Z   12
loop_
 _symmetry_equiv_pos_site_id
 _symmetry_equiv_pos_as_xyz
  1  'x, y, z'
loop_
 _atom_site_type_symbol
 _atom_site_label
 _atom_site_symmetry_multiplicity
 _atom_site_fract_x
 _atom_site_fract_y
 _atom_site_fract_z
 _atom_site_occupancy
  Ni  Ni0  1  0.12500000  0.87500000  0.25000000  1
  Ni  Ni1  1  0.25000000  0.12500000  0.87500000  1
  Ni  Ni2  1  0.75000000  0.37500000  0.62500000  1
  Ni  Ni3  1  0.62500000  0.37500000  0.25000000  1
  Ni  Ni4  1  0.62500000  0.75000000  0.37500000  1
  Ni  Ni5  1  0.37500000  0.62500000  0.75000000  1
  Ni  Ni6  1  0.12500000  0.75000000  0.87500000  1
  Ni  Ni7  1  0.75000000  0.87500000  0.12500000  1
  Ni  Ni8  1  0.87500000  0.25000000  0.12500000  1
  Ni  Ni9  1  0.37500000  0.25000000  0.62500000  1
  Ni  Ni10  1  0.25000000  0.62500000  0.37500000  1
  Ni  Ni11  1  0.87500000  0.12500000  0.75000000  1
  Cu  Cu12  1  0.87500000  0.62500000  0.25000000  1
  Cu  Cu13  1  0.62500000  0.25000000  0.87500000  1
  Cu  Cu14  1  0.87500000  0.75000000  0.62500000  1
  Cu  Cu15  1  0.75000000  0.62500000  0.87500000  1
  Cu  Cu16  1  0.25000000  0.87500000  0.62500000  1
  Cu  Cu17  1  0.62500000  0.87500000  0.75000000  1
  Cu  Cu18  1  0.12500000  0.37500000  0.75000000  1
  Cu  Cu19  1  0.37500000  0.75000000  0.12500000  1
  Cu  Cu20  1  0.12500000  0.25000000  0.37500000  1
  Cu  Cu21  1  0.25000000  0.37500000  0.12500000  1
  Cu  Cu22  1  0.75000000  0.12500000  0.37500000  1
  Cu  Cu23  1  0.37500000  0.12500000  0.25000000  1
  C  C24  1  0.46706800  0.36873000  0.27081300  1
  C  C25  1  0.30374500  0.90166200  0.03293200  1
  C  C26  1  0.59833800  0.90208300  0.13127000  1
  C  C27  1  0.59791700  0.19625500  0.22918700  1
  C  C28  1  0.13127000  0.03293200  0.22918700  1
  C  C29  1  0.19625500  0.22918700  0.59791700  1
  C  C30  1  0.19625500  0.46706800  0.59833800  1
  C  C31  1  0.22918700  0.59791700  0.19625500  1
  C  C32  1  0.36873000  0.59791700  0.90166200  1
  C  C33  1  0.90208300  0.27081300  0.30374500  1
  C  C34  1  0.27081300  0.30374500  0.90208300  1
  C  C35  1  0.22918700  0.13127000  0.03293200  1
  C  C36  1  0.46706800  0.59833800  0.19625500  1
  C  C37  1  0.90166200  0.36873000  0.59791700  1
  C  C38  1  0.03293200  0.22918700  0.13127000  1
  C  C39  1  0.59833800  0.19625500  0.46706800  1
  C  C40  1  0.59791700  0.90166200  0.36873000  1
  C  C41  1  0.03293200  0.30374500  0.90166200  1
  C  C42  1  0.90208300  0.13127000  0.59833800  1
  C  C43  1  0.63127000  0.40208300  0.09833800  1
  C  C44  1  0.36873000  0.27081300  0.46706800  1
  C  C45  1  0.27081300  0.46706800  0.36873000  1
  C  C46  1  0.90166200  0.03293200  0.30374500  1
  C  C47  1  0.30374500  0.90208300  0.27081300  1
  C  C48  1  0.53293200  0.63127000  0.72918700  1
  C  C49  1  0.69625500  0.09833800  0.96706800  1
  C  C50  1  0.40166200  0.09791700  0.86873000  1
  C  C51  1  0.40208300  0.80374500  0.77081300  1
  C  C52  1  0.86873000  0.96706800  0.77081300  1
  C  C53  1  0.80374500  0.77081300  0.40208300  1
  C  C54  1  0.80374500  0.53293200  0.40166200  1
  C  C55  1  0.77081300  0.40208300  0.80374500  1
  C  C56  1  0.69625500  0.09791700  0.72918700  1
  C  C57  1  0.09833800  0.96706800  0.69625500  1
  C  C58  1  0.72918700  0.53293200  0.63127000  1
  C  C59  1  0.63127000  0.72918700  0.53293200  1
  C  C60  1  0.86873000  0.40166200  0.09791700  1
  C  C61  1  0.09791700  0.86873000  0.40166200  1
  C  C62  1  0.96706800  0.69625500  0.09833800  1
  C  C63  1  0.40208300  0.09833800  0.63127000  1
  C  C64  1  0.40166200  0.80374500  0.53293200  1
  C  C65  1  0.96706800  0.77081300  0.86873000  1
  C  C66  1  0.09833800  0.63127000  0.40208300  1
  C  C67  1  0.53293200  0.40166200  0.80374500  1
  C  C68  1  0.77081300  0.86873000  0.96706800  1
  C  C69  1  0.72918700  0.69625500  0.09791700  1
  C  C70  1  0.09791700  0.72918700  0.69625500  1
  C  C71  1  0.13127000  0.59833800  0.90208300  1
