# generated using pymatgen
data_CuNi14C17
_symmetry_space_group_name_H-M   'P 1'
_cell_length_a   8.59795252
_cell_length_b   8.55338600
_cell_length_c   4.27016861
_cell_angle_alpha   90.00000000
_cell_angle_beta   90.00000000
_cell_angle_gamma   90.00000000
_symmetry_Int_Tables_number   1
_chemical_formula_structural   CuNi14C17
_chemical_formula_sum   'Cu1 Ni14 C17'
_cell_volume   314.03506052
_cell_formula_units_Z   1
loop_
 _symmetry_equiv_pos_site_id
 _symmetry_equiv_pos_as_xyz
  1  'x, y, z'
loop_
 _atom_site_type_symbol
 _atom_site_label
 _atom_site_symmetry_multiplicity
 _atom_site_fract_x
 _atom_site_fract_y
 _atom_site_fract_z
 _atom_site_occupancy
  Ni  Ni0  1  0.50000000  0.00000000  0.00000000  1
  Ni  Ni1  1  0.50000000  0.50000000  0.00000000  1
  Ni  Ni2  1  0.00000000  0.24563073  0.50000000  1
  Ni  Ni3  1  0.00000000  0.75436927  0.50000000  1
  Ni  Ni4  1  0.50000000  0.24892809  0.50000000  1
  Ni  Ni5  1  0.50000000  0.75107191  0.50000000  1
  Ni  Ni6  1  0.25034858  0.00000000  0.50000000  1
  Ni  Ni7  1  0.25256354  0.50000000  0.50000000  1
  Ni  Ni8  1  0.74965142  0.00000000  0.50000000  1
  Ni  Ni9  1  0.74743646  0.50000000  0.50000000  1
  Ni  Ni10  1  0.25079754  0.24668559  0.00000000  1
  Ni  Ni11  1  0.25079754  0.75331441  0.00000000  1
  Ni  Ni12  1  0.74920246  0.24668559  0.00000000  1
  Ni  Ni13  1  0.74920246  0.75331441  0.00000000  1
  Cu  Cu14  1  0.00000000  0.00000000  0.00000000  1
  C  C15  1  0.00000000  0.50000000  0.00000000  1
  C  C16  1  0.26061080  0.00000000  0.00000000  1
  C  C17  1  0.25230002  0.50000000  0.00000000  1
  C  C18  1  0.73938920  0.00000000  0.00000000  1
  C  C19  1  0.74769998  0.50000000  0.00000000  1
  C  C20  1  0.24847089  0.25049207  0.50000000  1
  C  C21  1  0.24847089  0.74950793  0.50000000  1
  C  C22  1  0.75152911  0.25049207  0.50000000  1
  C  C23  1  0.75152911  0.74950793  0.50000000  1
  C  C24  1  0.00000000  0.00000000  0.50000000  1
  C  C25  1  0.00000000  0.50000000  0.50000000  1
  C  C26  1  0.50000000  0.00000000  0.50000000  1
  C  C27  1  0.50000000  0.50000000  0.50000000  1
  C  C28  1  0.00000000  0.27323828  0.00000000  1
  C  C29  1  0.00000000  0.72676172  0.00000000  1
  C  C30  1  0.50000000  0.25205080  0.00000000  1
  C  C31  1  0.50000000  0.74794920  0.00000000  1
