# generated using pymatgen
data_CuNi3C8
_symmetry_space_group_name_H-M   'P 1'
_cell_length_a   3.45561083
_cell_length_b   3.45561083
_cell_length_c   39.32124300
_cell_angle_alpha   90.00000000
_cell_angle_beta   90.00000000
_cell_angle_gamma   120.00001582
_symmetry_Int_Tables_number   1
_chemical_formula_structural   CuNi3C8
_chemical_formula_sum   'Cu1 Ni3 C8'
_cell_volume   406.63752416
_cell_formula_units_Z   1
loop_
 _symmetry_equiv_pos_site_id
 _symmetry_equiv_pos_as_xyz
  1  'x, y, z'
loop_
 _atom_site_type_symbol
 _atom_site_label
 _atom_site_symmetry_multiplicity
 _atom_site_fract_x
 _atom_site_fract_y
 _atom_site_fract_z
 _atom_site_occupancy
  C  C0  1  0.00000000  0.00000000  0.32873400  1
  C  C1  1  0.00000000  0.00000000  0.70464000  1
  C  C2  1  0.33333300  0.66666700  0.42239400  1
  C  C3  1  0.33333300  0.66666700  0.51690300  1
  C  C4  1  0.00000000  0.00000000  0.23463600  1
  C  C5  1  0.00000000  0.00000000  0.61057300  1
  Ni  Ni6  1  0.00000000  0.00000000  0.09394200  1
  Ni  Ni7  1  0.33333300  0.66666700  0.28169700  1
  Ni  Ni8  1  0.33333300  0.66666700  0.65763700  1
  Cu  Cu9  1  0.00000000  0.00000000  0.46967100  1
  C  C10  1  0.33333300  0.66666700  0.05605700  1
  C  C11  1  0.33333300  0.66666700  0.13186400  1
