# generated using pymatgen
data_Cu4NiC5
_symmetry_space_group_name_H-M   'P 1'
_cell_length_a   4.35479400
_cell_length_b   9.30634100
_cell_length_c   15.95092400
_cell_angle_alpha   90.00000000
_cell_angle_beta   90.00000000
_cell_angle_gamma   90.00000000
_symmetry_Int_Tables_number   1
_chemical_formula_structural   Cu4NiC5
_chemical_formula_sum   'Cu16 Ni4 C20'
_cell_volume   646.44625441
_cell_formula_units_Z   4
loop_
 _symmetry_equiv_pos_site_id
 _symmetry_equiv_pos_as_xyz
  1  'x, y, z'
loop_
 _atom_site_type_symbol
 _atom_site_label
 _atom_site_symmetry_multiplicity
 _atom_site_fract_x
 _atom_site_fract_y
 _atom_site_fract_z
 _atom_site_occupancy
  C  C0  1  0.75000000  0.68243300  0.37725300  1
  C  C1  1  0.75000000  0.81756700  0.87725300  1
  C  C2  1  0.25000000  0.31756700  0.62274700  1
  C  C3  1  0.25000000  0.18243300  0.12274700  1
  C  C4  1  0.75000000  0.26431800  0.45711400  1
  C  C5  1  0.75000000  0.23568200  0.95711400  1
  C  C6  1  0.25000000  0.73568200  0.54288600  1
  C  C7  1  0.25000000  0.76431800  0.04288600  1
  Ni  Ni8  1  0.75000000  0.00299400  0.22444500  1
  Ni  Ni9  1  0.75000000  0.49700600  0.72444500  1
  Ni  Ni10  1  0.25000000  0.99700600  0.77555500  1
  Ni  Ni11  1  0.25000000  0.50299400  0.27555500  1
  Cu  Cu12  1  0.75000000  0.54244100  0.29621400  1
  Cu  Cu13  1  0.75000000  0.95755900  0.79621400  1
  Cu  Cu14  1  0.25000000  0.45755900  0.70378600  1
  Cu  Cu15  1  0.25000000  0.04244100  0.20378600  1
  Cu  Cu16  1  0.75000000  0.80208900  0.99852500  1
  Cu  Cu17  1  0.75000000  0.69791100  0.49852500  1
  Cu  Cu18  1  0.25000000  0.19791100  0.00147500  1
  Cu  Cu19  1  0.25000000  0.30208900  0.50147500  1
  Cu  Cu20  1  0.12085400  0.80434000  0.36117100  1
  Cu  Cu21  1  0.37914600  0.69566000  0.86117100  1
  Cu  Cu22  1  0.62085400  0.19566000  0.63882900  1
  Cu  Cu23  1  0.87914600  0.30434000  0.13882900  1
  Cu  Cu24  1  0.87914600  0.19566000  0.63882900  1
  Cu  Cu25  1  0.62085400  0.30434000  0.13882900  1
  Cu  Cu26  1  0.37914600  0.80434000  0.36117100  1
  Cu  Cu27  1  0.12085400  0.69566000  0.86117100  1
  C  C28  1  0.75000000  0.13597600  0.46156000  1
  C  C29  1  0.75000000  0.36402400  0.96156000  1
  C  C30  1  0.25000000  0.86402400  0.53844000  1
  C  C31  1  0.25000000  0.63597600  0.03844000  1
  C  C32  1  0.99704800  0.35874600  0.45675200  1
  C  C33  1  0.50295200  0.14125400  0.95675200  1
  C  C34  1  0.49704800  0.64125400  0.54324800  1
  C  C35  1  0.00295200  0.85874600  0.04324800  1
  C  C36  1  0.00295200  0.64125400  0.54324800  1
  C  C37  1  0.49704800  0.85874600  0.04324800  1
  C  C38  1  0.50295200  0.35874600  0.45675200  1
  C  C39  1  0.99704800  0.14125400  0.95675200  1
