# generated using pymatgen
data_Cu6Ni2C
_symmetry_space_group_name_H-M   'P 1'
_cell_length_a   5.50404900
_cell_length_b   6.39972017
_cell_length_c   7.86627222
_cell_angle_alpha   75.49002310
_cell_angle_beta   69.52178415
_cell_angle_gamma   64.53099871
_symmetry_Int_Tables_number   1
_chemical_formula_structural   Cu6Ni2C
_chemical_formula_sum   'Cu12 Ni4 C2'
_cell_volume   232.70101612
_cell_formula_units_Z   2
loop_
 _symmetry_equiv_pos_site_id
 _symmetry_equiv_pos_as_xyz
  1  'x, y, z'
loop_
 _atom_site_type_symbol
 _atom_site_label
 _atom_site_symmetry_multiplicity
 _atom_site_fract_x
 _atom_site_fract_y
 _atom_site_fract_z
 _atom_site_occupancy
  C  C0  1  0.16749200  0.25000000  0.75000000  1
  C  C1  1  0.83250800  0.75000000  0.25000000  1
  Ni  Ni2  1  0.61340200  0.24606900  0.85756100  1
  Ni  Ni3  1  0.71703300  0.25393100  0.64243900  1
  Ni  Ni4  1  0.38659800  0.75393100  0.14243900  1
  Ni  Ni5  1  0.28296700  0.74606900  0.35756100  1
  Cu  Cu6  1  0.36888900  0.25155900  0.93172900  1
  Cu  Cu7  1  0.55217800  0.24844100  0.56827100  1
  Cu  Cu8  1  0.63111100  0.74844100  0.06827100  1
  Cu  Cu9  1  0.44782200  0.75155900  0.43172900  1
  Cu  Cu10  1  0.78967600  0.23278500  0.93261400  1
  Cu  Cu11  1  0.95507600  0.26721500  0.56738600  1
  Cu  Cu12  1  0.21032400  0.76721500  0.06738600  1
  Cu  Cu13  1  0.04492400  0.73278500  0.43261400  1
  Cu  Cu14  1  0.00107000  0.62331500  0.73912300  1
  Cu  Cu15  1  0.36350900  0.87668500  0.76087700  1
  Cu  Cu16  1  0.99893000  0.37668500  0.26087700  1
  Cu  Cu17  1  0.63649100  0.12331500  0.23912300  1
