# generated using pymatgen
data_Cu3Ni2C11
_symmetry_space_group_name_H-M   'P 1'
_cell_length_a   11.15777430
_cell_length_b   11.15777430
_cell_length_c   11.15777430
_cell_angle_alpha   114.41701832
_cell_angle_beta   114.41701832
_cell_angle_gamma   99.97684568
_symmetry_Int_Tables_number   1
_chemical_formula_structural   Cu3Ni2C11
_chemical_formula_sum   'Cu12 Ni8 C44'
_cell_volume   1047.84103816
_cell_formula_units_Z   4
loop_
 _symmetry_equiv_pos_site_id
 _symmetry_equiv_pos_as_xyz
  1  'x, y, z'
loop_
 _atom_site_type_symbol
 _atom_site_label
 _atom_site_symmetry_multiplicity
 _atom_site_fract_x
 _atom_site_fract_y
 _atom_site_fract_z
 _atom_site_occupancy
  C  C0  1  0.92254500  0.42254500  0.84508900  1
  C  C1  1  0.17254500  0.82745500  0.00000000  1
  C  C2  1  0.82745500  0.17254500  0.00000000  1
  C  C3  1  0.57745500  0.07745500  0.15491100  1
  C  C4  1  0.82745500  0.82745500  0.65491100  1
  C  C5  1  0.57745500  0.42254500  0.50000000  1
  C  C6  1  0.92254500  0.07745500  0.50000000  1
  C  C7  1  0.17254500  0.17254500  0.34508900  1
  C  C8  1  0.54162700  0.30229600  0.76066900  1
  C  C9  1  0.54162700  0.78095800  0.23933100  1
  C  C10  1  0.69770400  0.45837300  0.23933100  1
  C  C11  1  0.53095800  0.79162700  0.73933100  1
  C  C12  1  0.05229600  0.79162700  0.26066900  1
  C  C13  1  0.20837300  0.46904200  0.26066900  1
  C  C14  1  0.20837300  0.94770400  0.73933100  1
  C  C15  1  0.21904200  0.45837300  0.76066900  1
  Ni  Ni16  1  0.78171800  0.90596500  0.12424700  1
  Ni  Ni17  1  0.78171800  0.65747000  0.87575300  1
  Ni  Ni18  1  0.09403500  0.21828200  0.87575300  1
  Ni  Ni19  1  0.40747000  0.03171800  0.37575300  1
  Ni  Ni20  1  0.65596500  0.03171800  0.62424700  1
  Ni  Ni21  1  0.96828200  0.59253000  0.62424700  1
  Ni  Ni22  1  0.96828200  0.34403500  0.37575300  1
  Ni  Ni23  1  0.34253000  0.21828200  0.12424700  1
  Cu  Cu24  1  0.00000000  0.00000000  0.00000000  1
  Cu  Cu25  1  0.75000000  0.25000000  0.50000000  1
  Cu  Cu26  1  0.25000000  0.75000000  0.50000000  1
  Cu  Cu27  1  0.50000000  0.50000000  0.00000000  1
  Cu  Cu28  1  0.37500000  0.47938500  0.60438500  1
  Cu  Cu29  1  0.22938500  0.12500000  0.60438500  1
  Cu  Cu30  1  0.52061500  0.62500000  0.39561500  1
  Cu  Cu31  1  0.87500000  0.77061500  0.39561500  1
  Cu  Cu32  1  0.37500000  0.77061500  0.89561500  1
  Cu  Cu33  1  0.52061500  0.12500000  0.89561500  1
  Cu  Cu34  1  0.22938500  0.62500000  0.10438500  1
  Cu  Cu35  1  0.87500000  0.47938500  0.10438500  1
  C  C36  1  0.26656000  0.26656000  0.00000000  1
  C  C37  1  0.01656000  0.51656000  0.50000000  1
  C  C38  1  0.48344000  0.98344000  0.50000000  1
  C  C39  1  0.73344000  0.73344000  0.00000000  1
  C  C40  1  0.70566500  0.47742800  0.77176300  1
  C  C41  1  0.70566500  0.93390200  0.22823700  1
  C  C42  1  0.52257200  0.29433500  0.22823700  1
  C  C43  1  0.68390200  0.95566500  0.72823700  1
  C  C44  1  0.22742800  0.95566500  0.27176300  1
  C  C45  1  0.04433500  0.31609800  0.27176300  1
  C  C46  1  0.04433500  0.77257200  0.72823700  1
  C  C47  1  0.06609800  0.29433500  0.77176300  1
  C  C48  1  0.79575500  0.55623600  0.52086100  1
  C  C49  1  0.03537600  0.27489400  0.47913900  1
  C  C50  1  0.44376400  0.20424500  0.47913900  1
  C  C51  1  0.02489400  0.04575500  0.73951800  1
  C  C52  1  0.30623600  0.28537600  0.26048200  1
  C  C53  1  0.95424500  0.97510600  0.26048200  1
  C  C54  1  0.71462400  0.69376400  0.73951800  1
  C  C55  1  0.72510600  0.96462400  0.52086100  1
  C  C56  1  0.95424500  0.69376400  0.97913900  1
  C  C57  1  0.71462400  0.97510600  0.02086100  1
  C  C58  1  0.30623600  0.04575500  0.02086100  1
  C  C59  1  0.72510600  0.20424500  0.76048200  1
  C  C60  1  0.44376400  0.96462400  0.23951800  1
  C  C61  1  0.79575500  0.27489400  0.23951800  1
  C  C62  1  0.03537600  0.55623600  0.76048200  1
  C  C63  1  0.02489400  0.28537600  0.97913900  1
