# generated using pymatgen
data_Cu8NiC2
_symmetry_space_group_name_H-M   'P 1'
_cell_length_a   11.68811722
_cell_length_b   5.45028400
_cell_length_c   6.30571471
_cell_angle_alpha   90.00000000
_cell_angle_beta   123.23307085
_cell_angle_gamma   90.00000000
_symmetry_Int_Tables_number   1
_chemical_formula_structural   Cu8NiC2
_chemical_formula_sum   'Cu16 Ni2 C4'
_cell_volume   335.99825402
_cell_formula_units_Z   2
loop_
 _symmetry_equiv_pos_site_id
 _symmetry_equiv_pos_as_xyz
  1  'x, y, z'
loop_
 _atom_site_type_symbol
 _atom_site_label
 _atom_site_symmetry_multiplicity
 _atom_site_fract_x
 _atom_site_fract_y
 _atom_site_fract_z
 _atom_site_occupancy
  C  C0  1  0.60800000  0.05412400  0.59424100  1
  C  C1  1  0.39200000  0.55412400  0.40575900  1
  C  C2  1  0.90957600  0.95372600  0.12776000  1
  C  C3  1  0.09042400  0.45372600  0.87224000  1
  Ni  Ni4  1  0.75958800  0.53529300  0.72600400  1
  Ni  Ni5  1  0.24041200  0.03529300  0.27399600  1
  Cu  Cu6  1  0.43954300  0.89363800  0.42893200  1
  Cu  Cu7  1  0.56045700  0.39363800  0.57106800  1
  Cu  Cu8  1  0.05565900  0.12740000  0.13239000  1
  Cu  Cu9  1  0.94434100  0.62740000  0.86761000  1
  Cu  Cu10  1  0.32273600  0.29805900  0.50410600  1
  Cu  Cu11  1  0.67726400  0.79805900  0.49589400  1
  Cu  Cu12  1  0.21377000  0.66817300  0.14983100  1
  Cu  Cu13  1  0.78623000  0.16817300  0.85016900  1
  Cu  Cu14  1  0.30521800  0.73325200  0.73403000  1
  Cu  Cu15  1  0.69478200  0.23325200  0.26597000  1
  Cu  Cu16  1  0.23998600  0.19568000  0.01306700  1
  Cu  Cu17  1  0.76001400  0.69568000  0.98693300  1
  Cu  Cu18  1  0.58890500  0.28663600  0.06198400  1
  Cu  Cu19  1  0.41109500  0.78663600  0.93801600  1
  Cu  Cu20  1  0.00737400  0.33301900  0.56116000  1
  Cu  Cu21  1  0.99262600  0.83301900  0.43884000  1
