# generated using pymatgen
data_CuNiC10
_symmetry_space_group_name_H-M   'P 1'
_cell_length_a   8.22169548
_cell_length_b   8.22169548
_cell_length_c   6.33936900
_cell_angle_alpha   90.00000000
_cell_angle_beta   90.00000000
_cell_angle_gamma   119.99999583
_symmetry_Int_Tables_number   1
_chemical_formula_structural   CuNiC10
_chemical_formula_sum   'Cu3 Ni3 C30'
_cell_volume   371.10726473
_cell_formula_units_Z   3
loop_
 _symmetry_equiv_pos_site_id
 _symmetry_equiv_pos_as_xyz
  1  'x, y, z'
loop_
 _atom_site_type_symbol
 _atom_site_label
 _atom_site_symmetry_multiplicity
 _atom_site_fract_x
 _atom_site_fract_y
 _atom_site_fract_z
 _atom_site_occupancy
  C  C0  1  0.28220900  0.98181300  0.25292000  1
  C  C1  1  0.28220900  0.98181300  0.74708000  1
  C  C2  1  0.01818700  0.30039600  0.25292000  1
  C  C3  1  0.01818700  0.30039600  0.74708000  1
  C  C4  1  0.69960400  0.71779100  0.74708000  1
  C  C5  1  0.69960400  0.71779100  0.25292000  1
  Ni  Ni6  1  0.37077800  0.35811500  0.00000000  1
  Ni  Ni7  1  0.64188500  0.01266400  0.00000000  1
  Ni  Ni8  1  0.98733600  0.62922200  0.00000000  1
  Cu  Cu9  1  0.37196700  0.36212300  0.50000000  1
  Cu  Cu10  1  0.63787700  0.00984400  0.50000000  1
  Cu  Cu11  1  0.99015600  0.62803300  0.50000000  1
  C  C12  1  0.00000000  0.00000000  0.00000000  1
  C  C13  1  0.00000000  0.00000000  0.50000000  1
  C  C14  1  0.33333300  0.66666700  0.25595500  1
  C  C15  1  0.33333300  0.66666700  0.74404500  1
  C  C16  1  0.66666700  0.33333300  0.25360100  1
  C  C17  1  0.66666700  0.33333300  0.74639900  1
  C  C18  1  0.10922200  0.91331900  0.50000000  1
  C  C19  1  0.11849800  0.92408400  0.00000000  1
  C  C20  1  0.13864100  0.57977700  0.25421000  1
  C  C21  1  0.13864100  0.57977700  0.74579000  1
  C  C22  1  0.07591600  0.19441400  0.00000000  1
  C  C23  1  0.08668100  0.19590300  0.50000000  1
  C  C24  1  0.44113700  0.86135900  0.25421000  1
  C  C25  1  0.44113700  0.86135900  0.74579000  1
  C  C26  1  0.42022300  0.55886300  0.25421000  1
  C  C27  1  0.42022300  0.55886300  0.74579000  1
  C  C28  1  0.47185600  0.25053000  0.25256600  1
  C  C29  1  0.47185600  0.25053000  0.74743400  1
  C  C30  1  0.80558600  0.88150200  0.00000000  1
  C  C31  1  0.80409700  0.89077800  0.50000000  1
  C  C32  1  0.77867400  0.52814400  0.25256600  1
  C  C33  1  0.77867400  0.52814400  0.74743400  1
  C  C34  1  0.74947000  0.22132600  0.74743400  1
  C  C35  1  0.74947000  0.22132600  0.25256600  1
