# generated using pymatgen
data_Cu2Ni3C20
_symmetry_space_group_name_H-M   'P 1'
_cell_length_a   12.60306047
_cell_length_b   12.60306047
_cell_length_c   12.60306065
_cell_angle_alpha   26.78191724
_cell_angle_beta   26.78191724
_cell_angle_gamma   26.78191573
_symmetry_Int_Tables_number   1
_chemical_formula_structural   Cu2Ni3C20
_chemical_formula_sum   'Cu2 Ni3 C20'
_cell_volume   358.39529299
_cell_formula_units_Z   1
loop_
 _symmetry_equiv_pos_site_id
 _symmetry_equiv_pos_as_xyz
  1  'x, y, z'
loop_
 _atom_site_type_symbol
 _atom_site_label
 _atom_site_symmetry_multiplicity
 _atom_site_fract_x
 _atom_site_fract_y
 _atom_site_fract_z
 _atom_site_occupancy
  Ni  Ni0  1  0.39667000  0.39667000  0.39667000  1
  Ni  Ni1  1  0.99463600  0.99463600  0.99463600  1
  Ni  Ni2  1  0.59200000  0.59200000  0.59200000  1
  Cu  Cu3  1  0.19180100  0.19180100  0.19180100  1
  Cu  Cu4  1  0.79442600  0.79442600  0.79442600  1
  C  C5  1  0.28180700  0.28180700  0.28180700  1
  C  C6  1  0.88366800  0.88366800  0.88366800  1
  C  C7  1  0.48991100  0.48991100  0.48991100  1
  C  C8  1  0.08837900  0.08837900  0.08837900  1
  C  C9  1  0.68468600  0.68468600  0.68468600  1
  C  C10  1  0.91880000  0.38723900  0.38723900  1
  C  C11  1  0.50410700  0.99948200  0.99948200  1
  C  C12  1  0.10146700  0.60553000  0.60553000  1
  C  C13  1  0.71782600  0.19509200  0.19509200  1
  C  C14  1  0.31707500  0.79173800  0.79173800  1
  C  C15  1  0.38723900  0.38723900  0.91880000  1
  C  C16  1  0.99948200  0.99948200  0.50410700  1
  C  C17  1  0.60553000  0.60553000  0.10146700  1
  C  C18  1  0.19509200  0.19509200  0.71782600  1
  C  C19  1  0.79173800  0.79173800  0.31707500  1
  C  C20  1  0.38723900  0.91880000  0.38723900  1
  C  C21  1  0.99948200  0.50410700  0.99948200  1
  C  C22  1  0.60553000  0.10146700  0.60553000  1
  C  C23  1  0.19509200  0.71782600  0.19509200  1
  C  C24  1  0.79173800  0.31707500  0.79173800  1
