# generated using pymatgen
data_Cu18Ni3C7
_symmetry_space_group_name_H-M   'P 1'
_cell_length_a   15.91249843
_cell_length_b   15.91249843
_cell_length_c   4.37874700
_cell_angle_alpha   90.00000000
_cell_angle_beta   90.00000000
_cell_angle_gamma   120.00000178
_symmetry_Int_Tables_number   1
_chemical_formula_structural   Cu18Ni3C7
_chemical_formula_sum   'Cu36 Ni6 C14'
_cell_volume   960.19010072
_cell_formula_units_Z   2
loop_
 _symmetry_equiv_pos_site_id
 _symmetry_equiv_pos_as_xyz
  1  'x, y, z'
loop_
 _atom_site_type_symbol
 _atom_site_label
 _atom_site_symmetry_multiplicity
 _atom_site_fract_x
 _atom_site_fract_y
 _atom_site_fract_z
 _atom_site_occupancy
  C  C0  1  0.65336600  0.54079700  0.75000000  1
  C  C1  1  0.34663400  0.45920300  0.25000000  1
  C  C2  1  0.88743000  0.34663400  0.75000000  1
  C  C3  1  0.11257000  0.65336600  0.25000000  1
  C  C4  1  0.45920300  0.11257000  0.75000000  1
  C  C5  1  0.54079700  0.88743000  0.25000000  1
  C  C6  1  0.74020300  0.89324200  0.75000000  1
  C  C7  1  0.25979700  0.10675800  0.25000000  1
  C  C8  1  0.15303800  0.25979700  0.75000000  1
  C  C9  1  0.84696200  0.74020300  0.25000000  1
  C  C10  1  0.10675800  0.84696200  0.75000000  1
  C  C11  1  0.89324200  0.15303800  0.25000000  1
  C  C12  1  0.33333300  0.66666700  0.75000000  1
  C  C13  1  0.66666700  0.33333300  0.25000000  1
  Ni  Ni14  1  0.93795500  0.55581800  0.75000000  1
  Ni  Ni15  1  0.06204500  0.44418200  0.25000000  1
  Ni  Ni16  1  0.61786200  0.06204500  0.75000000  1
  Ni  Ni17  1  0.38213800  0.93795500  0.25000000  1
  Ni  Ni18  1  0.44418200  0.38213800  0.75000000  1
  Ni  Ni19  1  0.55581800  0.61786200  0.25000000  1
  Cu  Cu20  1  0.47458800  0.83535700  0.75000000  1
  Cu  Cu21  1  0.52541200  0.16464300  0.25000000  1
  Cu  Cu22  1  0.36076900  0.52541200  0.75000000  1
  Cu  Cu23  1  0.63923100  0.47458800  0.25000000  1
  Cu  Cu24  1  0.16464300  0.63923100  0.75000000  1
  Cu  Cu25  1  0.83535700  0.36076900  0.25000000  1
  Cu  Cu26  1  0.74916800  0.72251700  0.75000000  1
  Cu  Cu27  1  0.25083200  0.27748300  0.25000000  1
  Cu  Cu28  1  0.97334900  0.25083200  0.75000000  1
  Cu  Cu29  1  0.02665100  0.74916800  0.25000000  1
  Cu  Cu30  1  0.27748300  0.02665100  0.75000000  1
  Cu  Cu31  1  0.72251700  0.97334900  0.25000000  1
  Cu  Cu32  1  0.84068600  0.81472300  0.75000000  1
  Cu  Cu33  1  0.15931400  0.18527700  0.25000000  1
  Cu  Cu34  1  0.97403700  0.15931400  0.75000000  1
  Cu  Cu35  1  0.02596300  0.84068600  0.25000000  1
  Cu  Cu36  1  0.18527700  0.02596300  0.75000000  1
  Cu  Cu37  1  0.81472300  0.97403700  0.25000000  1
  Cu  Cu38  1  0.56224400  0.82366700  0.75000000  1
  Cu  Cu39  1  0.43775600  0.17633300  0.25000000  1
  Cu  Cu40  1  0.26142400  0.43775600  0.75000000  1
  Cu  Cu41  1  0.73857600  0.56224400  0.25000000  1
  Cu  Cu42  1  0.17633300  0.73857600  0.75000000  1
  Cu  Cu43  1  0.82366700  0.26142400  0.25000000  1
  Cu  Cu44  1  0.92192600  0.73459500  0.75000000  1
  Cu  Cu45  1  0.07807400  0.26540500  0.25000000  1
  Cu  Cu46  1  0.81266800  0.07807400  0.75000000  1
  Cu  Cu47  1  0.18733200  0.92192600  0.25000000  1
  Cu  Cu48  1  0.26540500  0.18733200  0.75000000  1
  Cu  Cu49  1  0.73459500  0.81266800  0.25000000  1
  Cu  Cu50  1  0.71988300  0.42804400  0.75000000  1
  Cu  Cu51  1  0.28011700  0.57195600  0.25000000  1
  Cu  Cu52  1  0.70816200  0.28011700  0.75000000  1
  Cu  Cu53  1  0.29183800  0.71988300  0.25000000  1
  Cu  Cu54  1  0.57195600  0.29183800  0.75000000  1
  Cu  Cu55  1  0.42804400  0.70816200  0.25000000  1
