# generated using pymatgen
data_Cu4NiC9
_symmetry_space_group_name_H-M   'P 1'
_cell_length_a   7.07305761
_cell_length_b   7.07305761
_cell_length_c   7.07305761
_cell_angle_alpha   60.00000000
_cell_angle_beta   60.00000000
_cell_angle_gamma   60.00000000
_symmetry_Int_Tables_number   1
_chemical_formula_structural   Cu4NiC9
_chemical_formula_sum   'Cu4 Ni1 C9'
_cell_volume   250.21110940
_cell_formula_units_Z   1
loop_
 _symmetry_equiv_pos_site_id
 _symmetry_equiv_pos_as_xyz
  1  'x, y, z'
loop_
 _atom_site_type_symbol
 _atom_site_label
 _atom_site_symmetry_multiplicity
 _atom_site_fract_x
 _atom_site_fract_y
 _atom_site_fract_z
 _atom_site_occupancy
  Ni  Ni0  1  0.50000000  0.50000000  0.50000000  1
  Cu  Cu1  1  0.62872500  0.12375800  0.12375800  1
  Cu  Cu2  1  0.12375800  0.62872500  0.12375800  1
  Cu  Cu3  1  0.12375800  0.12375800  0.62872500  1
  Cu  Cu4  1  0.12375800  0.12375800  0.12375800  1
  C  C5  1  0.75000000  0.75000000  0.75000000  1
  C  C6  1  0.35458400  0.88180500  0.88180500  1
  C  C7  1  0.88180500  0.35458400  0.88180500  1
  C  C8  1  0.88180500  0.88180500  0.35458400  1
  C  C9  1  0.88180500  0.88180500  0.88180500  1
  C  C10  1  0.90630800  0.36456400  0.36456400  1
  C  C11  1  0.36456400  0.90630800  0.36456400  1
  C  C12  1  0.36456400  0.36456400  0.90630800  1
  C  C13  1  0.36456400  0.36456400  0.36456400  1
