# generated using pymatgen
data_CuNiC8
_symmetry_space_group_name_H-M   'P 1'
_cell_length_a   5.54978589
_cell_length_b   5.73043400
_cell_length_c   8.29749441
_cell_angle_alpha   90.00000000
_cell_angle_beta   90.66213175
_cell_angle_gamma   90.00000000
_symmetry_Int_Tables_number   1
_chemical_formula_structural   CuNiC8
_chemical_formula_sum   'Cu2 Ni2 C16'
_cell_volume   263.86495339
_cell_formula_units_Z   2
loop_
 _symmetry_equiv_pos_site_id
 _symmetry_equiv_pos_as_xyz
  1  'x, y, z'
loop_
 _atom_site_type_symbol
 _atom_site_label
 _atom_site_symmetry_multiplicity
 _atom_site_fract_x
 _atom_site_fract_y
 _atom_site_fract_z
 _atom_site_occupancy
  C  C0  1  0.24556300  0.74855600  0.00361400  1
  C  C1  1  0.75443700  0.24855600  0.99638600  1
  C  C2  1  0.25831000  0.83709200  0.50185100  1
  C  C3  1  0.74169000  0.33709200  0.49814900  1
  Ni  Ni4  1  0.74886500  0.78056300  0.25159800  1
  Ni  Ni5  1  0.25113500  0.28056300  0.74840200  1
  Cu  Cu6  1  0.76535200  0.76963400  0.74435100  1
  Cu  Cu7  1  0.23464800  0.26963400  0.25564900  1
  C  C8  1  0.56489200  0.04248800  0.67722700  1
  C  C9  1  0.43510800  0.54248800  0.32277300  1
  C  C10  1  0.52606900  0.07701400  0.32479200  1
  C  C11  1  0.47393100  0.57701400  0.67520800  1
  C  C12  1  0.94463600  0.44640900  0.24740600  1
  C  C13  1  0.05536400  0.94640900  0.75259400  1
  C  C14  1  0.92574500  0.47099400  0.75635600  1
  C  C15  1  0.07425500  0.97099400  0.24364400  1
  C  C16  1  0.85629300  0.73012800  0.50373100  1
  C  C17  1  0.14370700  0.23012800  0.49626900  1
  C  C18  1  0.71018300  0.78051100  0.96666800  1
  C  C19  1  0.28981700  0.28051100  0.03333200  1
