# generated using pymatgen
data_CuNiC10
_symmetry_space_group_name_H-M   'P 1'
_cell_length_a   6.12615200
_cell_length_b   10.08591064
_cell_length_c   10.12698182
_cell_angle_alpha   87.98532915
_cell_angle_beta   90.00071554
_cell_angle_gamma   90.00058038
_symmetry_Int_Tables_number   1
_chemical_formula_structural   CuNiC10
_chemical_formula_sum   'Cu4 Ni4 C40'
_cell_volume   625.33736032
_cell_formula_units_Z   4
loop_
 _symmetry_equiv_pos_site_id
 _symmetry_equiv_pos_as_xyz
  1  'x, y, z'
loop_
 _atom_site_type_symbol
 _atom_site_label
 _atom_site_symmetry_multiplicity
 _atom_site_fract_x
 _atom_site_fract_y
 _atom_site_fract_z
 _atom_site_occupancy
  Ni  Ni0  1  0.75001600  0.70595200  0.21494500  1
  Ni  Ni1  1  0.25000000  0.27776700  0.76785600  1
  Ni  Ni2  1  0.74999800  0.22272200  0.23209400  1
  Ni  Ni3  1  0.24998500  0.79405600  0.78567200  1
  Cu  Cu4  1  0.25001200  0.47345500  0.29143200  1
  Cu  Cu5  1  0.24998700  0.97658700  0.27040900  1
  Cu  Cu6  1  0.74998000  0.02670900  0.70886900  1
  Cu  Cu7  1  0.75001200  0.52325100  0.72925900  1
  C  C8  1  0.24999600  0.19710000  0.08970900  1
  C  C9  1  0.25001000  0.70114000  0.09725800  1
  C  C10  1  0.75001200  0.30325000  0.91048000  1
  C  C11  1  0.74999900  0.79833800  0.90267200  1
  C  C12  1  0.75001200  0.43827400  0.41199900  1
  C  C13  1  0.74999100  0.94257000  0.39700700  1
  C  C14  1  0.24997500  0.06181500  0.58822000  1
  C  C15  1  0.25000600  0.55750500  0.60260400  1
  C  C16  1  0.75001900  0.32578300  0.05695500  1
  C  C17  1  0.74998200  0.81539700  0.04943700  1
  C  C18  1  0.24998300  0.17494000  0.94315900  1
  C  C19  1  0.25002600  0.68359400  0.95051600  1
  C  C20  1  0.25001800  0.34302900  0.12156100  1
  C  C21  1  0.24998200  0.85626600  0.11999200  1
  C  C22  1  0.75000100  0.15721900  0.87889200  1
  C  C23  1  0.75003800  0.64335500  0.87960300  1
  C  C24  1  0.74999400  0.09207000  0.38418800  1
  C  C25  1  0.74999900  0.58578000  0.37962600  1
  C  C26  1  0.24999500  0.40791100  0.61510200  1
  C  C27  1  0.25000800  0.91446100  0.62120100  1
  C  C28  1  0.24996900  0.08526700  0.43153600  1
  C  C29  1  0.25000400  0.61375300  0.46140700  1
  C  C30  1  0.75002000  0.41417100  0.56856900  1
  C  C31  1  0.75001300  0.88674700  0.53838300  1
  C  C32  1  0.05652000  0.11650300  0.16783000  1
  C  C33  1  0.05258800  0.63182900  0.16959300  1
  C  C34  1  0.44346600  0.11649000  0.16782300  1
  C  C35  1  0.44742600  0.63184600  0.16961100  1
  C  C36  1  0.55651300  0.38366800  0.83218400  1
  C  C37  1  0.55263300  0.86781900  0.83045600  1
  C  C38  1  0.94351200  0.38366500  0.83218300  1
  C  C39  1  0.94736100  0.86784700  0.83047200  1
  C  C40  1  0.94647000  0.36030700  0.35416800  1
  C  C41  1  0.95662300  0.88099900  0.32132100  1
  C  C42  1  0.55355800  0.36029200  0.35417700  1
  C  C43  1  0.54333600  0.88100200  0.32133900  1
  C  C44  1  0.05343000  0.13995500  0.64584200  1
  C  C45  1  0.04322600  0.61878400  0.67827300  1
  C  C46  1  0.44649700  0.13998600  0.64583800  1
  C  C47  1  0.45679600  0.61877600  0.67827500  1
