# generated using pymatgen
data_CuNi2C17
_symmetry_space_group_name_H-M   'P 1'
_cell_length_a   8.77199082
_cell_length_b   8.77199082
_cell_length_c   8.77199082
_cell_angle_alpha   143.12009227
_cell_angle_beta   143.12009227
_cell_angle_gamma   53.14511776
_symmetry_Int_Tables_number   1
_chemical_formula_structural   CuNi2C17
_chemical_formula_sum   'Cu1 Ni2 C17'
_cell_volume   241.60094254
_cell_formula_units_Z   1
loop_
 _symmetry_equiv_pos_site_id
 _symmetry_equiv_pos_as_xyz
  1  'x, y, z'
loop_
 _atom_site_type_symbol
 _atom_site_label
 _atom_site_symmetry_multiplicity
 _atom_site_fract_x
 _atom_site_fract_y
 _atom_site_fract_z
 _atom_site_occupancy
  Ni  Ni0  1  0.24827300  0.24827300  0.00000000  1
  Ni  Ni1  1  0.75172700  0.75172700  0.00000000  1
  C  C2  1  0.00000000  0.00000000  0.00000000  1
  Cu  Cu3  1  0.50000000  0.50000000  0.00000000  1
  C  C4  1  0.87627100  0.37627100  0.50000000  1
  C  C5  1  0.12372900  0.62372900  0.50000000  1
  C  C6  1  0.37627100  0.87627100  0.50000000  1
  C  C7  1  0.62372900  0.12372900  0.50000000  1
  C  C8  1  0.62022800  0.13295700  0.00000000  1
  C  C9  1  0.86704300  0.37977200  0.00000000  1
  C  C10  1  0.13295700  0.62022800  0.00000000  1
  C  C11  1  0.37977200  0.86704300  0.00000000  1
  C  C12  1  0.75000000  0.25000000  0.50000000  1
  C  C13  1  0.00000000  0.50000000  0.50000000  1
  C  C14  1  0.25000000  0.75000000  0.50000000  1
  C  C15  1  0.50000000  0.00000000  0.50000000  1
  C  C16  1  0.62022800  0.62022800  0.48727100  1
  C  C17  1  0.86704300  0.86704300  0.48727100  1
  C  C18  1  0.13295700  0.13295700  0.51272900  1
  C  C19  1  0.37977200  0.37977200  0.51272900  1
