# generated using pymatgen
data_CuNiC15
_symmetry_space_group_name_H-M   'P 1'
_cell_length_a   8.70595000
_cell_length_b   8.70595000
_cell_length_c   11.87193400
_cell_angle_alpha   90.00000000
_cell_angle_beta   90.00000000
_cell_angle_gamma   90.00000000
_symmetry_Int_Tables_number   1
_chemical_formula_structural   CuNiC15
_chemical_formula_sum   'Cu4 Ni4 C60'
_cell_volume   899.81620608
_cell_formula_units_Z   4
loop_
 _symmetry_equiv_pos_site_id
 _symmetry_equiv_pos_as_xyz
  1  'x, y, z'
loop_
 _atom_site_type_symbol
 _atom_site_label
 _atom_site_symmetry_multiplicity
 _atom_site_fract_x
 _atom_site_fract_y
 _atom_site_fract_z
 _atom_site_occupancy
  Ni  Ni0  1  0.23281900  0.76718100  0.50000000  1
  Ni  Ni1  1  0.76718100  0.23281900  0.50000000  1
  Ni  Ni2  1  0.26718200  0.26718200  0.00000000  1
  Ni  Ni3  1  0.73281900  0.73281900  0.00000000  1
  Cu  Cu4  1  0.64354600  0.64354600  0.50000000  1
  Cu  Cu5  1  0.35645400  0.35645400  0.50000000  1
  Cu  Cu6  1  0.85645400  0.14354600  0.00000000  1
  Cu  Cu7  1  0.14354600  0.85645400  0.00000000  1
  C  C8  1  0.18288300  0.81711700  0.25340600  1
  C  C9  1  0.81711700  0.18288300  0.25340600  1
  C  C10  1  0.31711700  0.31711700  0.75340600  1
  C  C11  1  0.68288300  0.68288300  0.75340600  1
  C  C12  1  0.81711700  0.18288300  0.74659400  1
  C  C13  1  0.18288300  0.81711700  0.74659400  1
  C  C14  1  0.68288300  0.68288300  0.24659400  1
  C  C15  1  0.31711700  0.31711700  0.24659400  1
  C  C16  1  0.93355000  0.72464500  0.37329200  1
  C  C17  1  0.06645000  0.27535500  0.37329200  1
  C  C18  1  0.56645000  0.22464500  0.87329200  1
  C  C19  1  0.43355000  0.77535500  0.87329200  1
  C  C20  1  0.06645000  0.27535500  0.62670800  1
  C  C21  1  0.93355000  0.72464500  0.62670800  1
  C  C22  1  0.43355000  0.77535500  0.12670800  1
  C  C23  1  0.56645000  0.22464500  0.12670800  1
  C  C24  1  0.72464500  0.93355000  0.37329200  1
  C  C25  1  0.27535500  0.06645000  0.37329200  1
  C  C26  1  0.22464500  0.56645000  0.87329200  1
  C  C27  1  0.77535500  0.43355000  0.87329200  1
  C  C28  1  0.27535500  0.06645000  0.62670800  1
  C  C29  1  0.72464500  0.93355000  0.62670800  1
  C  C30  1  0.77535500  0.43355000  0.12670800  1
  C  C31  1  0.22464500  0.56645000  0.12670800  1
  C  C32  1  0.50000000  0.50000000  0.11504800  1
  C  C33  1  0.00000000  0.00000000  0.61504800  1
  C  C34  1  0.50000000  0.50000000  0.88495200  1
  C  C35  1  0.00000000  0.00000000  0.38495200  1
  C  C36  1  0.14152500  0.53693700  0.32552900  1
  C  C37  1  0.85847500  0.46306300  0.32552900  1
  C  C38  1  0.35847500  0.03693700  0.82552900  1
  C  C39  1  0.64152500  0.96306300  0.82552900  1
  C  C40  1  0.85847500  0.46306300  0.67447100  1
  C  C41  1  0.14152500  0.53693700  0.67447100  1
  C  C42  1  0.64152500  0.96306300  0.17447100  1
  C  C43  1  0.35847500  0.03693700  0.17447100  1
  C  C44  1  0.53693700  0.14152500  0.32552900  1
  C  C45  1  0.46306300  0.85847500  0.32552900  1
  C  C46  1  0.03693700  0.35847500  0.82552900  1
  C  C47  1  0.96306300  0.64152500  0.82552900  1
  C  C48  1  0.46306300  0.85847500  0.67447100  1
  C  C49  1  0.53693700  0.14152500  0.67447100  1
  C  C50  1  0.96306300  0.64152500  0.17447100  1
  C  C51  1  0.03693700  0.35847500  0.17447100  1
  C  C52  1  0.00000000  0.50000000  0.50000000  1
  C  C53  1  0.50000000  0.00000000  0.00000000  1
  C  C54  1  0.50000000  0.00000000  0.50000000  1
  C  C55  1  0.00000000  0.50000000  0.00000000  1
  C  C56  1  0.40332200  0.59667800  0.30009300  1
  C  C57  1  0.59667800  0.40332200  0.30009300  1
  C  C58  1  0.09667800  0.09667800  0.80009300  1
  C  C59  1  0.90332200  0.90332200  0.80009300  1
  C  C60  1  0.59667800  0.40332200  0.69990700  1
  C  C61  1  0.40332200  0.59667800  0.69990700  1
  C  C62  1  0.90332200  0.90332200  0.19990700  1
  C  C63  1  0.09667800  0.09667800  0.19990700  1
  C  C64  1  0.87233100  0.87233100  0.50000000  1
  C  C65  1  0.12766900  0.12766900  0.50000000  1
  C  C66  1  0.62766900  0.37233100  0.00000000  1
  C  C67  1  0.37233100  0.62766900  0.00000000  1
