# generated using pymatgen
data_Cu9Ni8C21
_symmetry_space_group_name_H-M   'P 1'
_cell_length_a   13.67694500
_cell_length_b   13.67694500
_cell_length_c   13.67694500
_cell_angle_alpha   90.00000000
_cell_angle_beta   90.00000000
_cell_angle_gamma   90.00000000
_symmetry_Int_Tables_number   1
_chemical_formula_structural   Cu9Ni8C21
_chemical_formula_sum   'Cu36 Ni32 C84'
_cell_volume   2558.39325490
_cell_formula_units_Z   4
loop_
 _symmetry_equiv_pos_site_id
 _symmetry_equiv_pos_as_xyz
  1  'x, y, z'
loop_
 _atom_site_type_symbol
 _atom_site_label
 _atom_site_symmetry_multiplicity
 _atom_site_fract_x
 _atom_site_fract_y
 _atom_site_fract_z
 _atom_site_occupancy
  Ni  Ni0  1  0.21863200  0.45291200  0.10613500  1
  Ni  Ni1  1  0.10613500  0.21863200  0.45291200  1
  Ni  Ni2  1  0.45291200  0.10613500  0.21863200  1
  Ni  Ni3  1  0.04708800  0.89386500  0.71863200  1
  Ni  Ni4  1  0.60613500  0.28136800  0.54708800  1
  Ni  Ni5  1  0.54708800  0.60613500  0.28136800  1
  Ni  Ni6  1  0.39386500  0.78136800  0.95291200  1
  Ni  Ni7  1  0.89386500  0.71863200  0.04708800  1
  Ni  Ni8  1  0.95291200  0.39386500  0.78136800  1
  Ni  Ni9  1  0.71863200  0.04708800  0.89386500  1
  Ni  Ni10  1  0.78136800  0.95291200  0.39386500  1
  Ni  Ni11  1  0.28136800  0.54708800  0.60613500  1
  Ni  Ni12  1  0.78136800  0.54708800  0.89386500  1
  Ni  Ni13  1  0.89386500  0.78136800  0.54708800  1
  Ni  Ni14  1  0.54708800  0.89386500  0.78136800  1
  Ni  Ni15  1  0.95291200  0.10613500  0.28136800  1
  Ni  Ni16  1  0.39386500  0.71863200  0.45291200  1
  Ni  Ni17  1  0.45291200  0.39386500  0.71863200  1
  Ni  Ni18  1  0.60613500  0.21863200  0.04708800  1
  Ni  Ni19  1  0.10613500  0.28136800  0.95291200  1
  Ni  Ni20  1  0.04708800  0.60613500  0.21863200  1
  Ni  Ni21  1  0.28136800  0.95291200  0.10613500  1
  Ni  Ni22  1  0.21863200  0.04708800  0.60613500  1
  Ni  Ni23  1  0.71863200  0.45291200  0.39386500  1
  Ni  Ni24  1  0.07681500  0.07681500  0.07681500  1
  Ni  Ni25  1  0.42318500  0.92318500  0.57681500  1
  Ni  Ni26  1  0.57681500  0.42318500  0.92318500  1
  Ni  Ni27  1  0.92318500  0.57681500  0.42318500  1
  Ni  Ni28  1  0.92318500  0.92318500  0.92318500  1
  Ni  Ni29  1  0.57681500  0.07681500  0.42318500  1
  Ni  Ni30  1  0.42318500  0.57681500  0.07681500  1
  Ni  Ni31  1  0.07681500  0.42318500  0.57681500  1
  Cu  Cu32  1  0.26130400  0.95924000  0.37738400  1
  Cu  Cu33  1  0.37738400  0.26130400  0.95924000  1
  Cu  Cu34  1  0.95924000  0.37738400  0.26130400  1
  Cu  Cu35  1  0.54076000  0.62261600  0.76130400  1
  Cu  Cu36  1  0.87738400  0.23869600  0.04076000  1
  Cu  Cu37  1  0.04076000  0.87738400  0.23869600  1
  Cu  Cu38  1  0.12261600  0.73869600  0.45924000  1
  Cu  Cu39  1  0.62261600  0.76130400  0.54076000  1
  Cu  Cu40  1  0.45924000  0.12261600  0.73869600  1
  Cu  Cu41  1  0.76130400  0.54076000  0.62261600  1
  Cu  Cu42  1  0.73869600  0.45924000  0.12261600  1
  Cu  Cu43  1  0.23869600  0.04076000  0.87738400  1
  Cu  Cu44  1  0.73869600  0.04076000  0.62261600  1
  Cu  Cu45  1  0.62261600  0.73869600  0.04076000  1
  Cu  Cu46  1  0.04076000  0.62261600  0.73869600  1
  Cu  Cu47  1  0.45924000  0.37738400  0.23869600  1
  Cu  Cu48  1  0.12261600  0.76130400  0.95924000  1
  Cu  Cu49  1  0.95924000  0.12261600  0.76130400  1
  Cu  Cu50  1  0.87738400  0.26130400  0.54076000  1
  Cu  Cu51  1  0.37738400  0.23869600  0.45924000  1
  Cu  Cu52  1  0.54076000  0.87738400  0.26130400  1
  Cu  Cu53  1  0.23869600  0.45924000  0.37738400  1
  Cu  Cu54  1  0.26130400  0.54076000  0.87738400  1
  Cu  Cu55  1  0.76130400  0.95924000  0.12261600  1
  Cu  Cu56  1  0.50000000  0.50000000  0.50000000  1
  Cu  Cu57  1  0.00000000  0.50000000  0.00000000  1
  Cu  Cu58  1  0.00000000  0.00000000  0.50000000  1
  Cu  Cu59  1  0.50000000  0.00000000  0.00000000  1
  Cu  Cu60  1  0.22572000  0.22572000  0.22572000  1
  Cu  Cu61  1  0.27428000  0.77428000  0.72572000  1
  Cu  Cu62  1  0.72572000  0.27428000  0.77428000  1
  Cu  Cu63  1  0.77428000  0.72572000  0.27428000  1
  Cu  Cu64  1  0.77428000  0.77428000  0.77428000  1
  Cu  Cu65  1  0.72572000  0.22572000  0.27428000  1
  Cu  Cu66  1  0.27428000  0.72572000  0.22572000  1
  Cu  Cu67  1  0.22572000  0.27428000  0.72572000  1
  C  C68  1  0.05695900  0.05088900  0.21043000  1
  C  C69  1  0.21043000  0.05695900  0.05088900  1
  C  C70  1  0.05088900  0.21043000  0.05695900  1
  C  C71  1  0.44911100  0.78957000  0.55695900  1
  C  C72  1  0.71043000  0.44304100  0.94911100  1
  C  C73  1  0.94911100  0.71043000  0.44304100  1
  C  C74  1  0.28957000  0.94304100  0.55088900  1
  C  C75  1  0.78957000  0.55695900  0.44911100  1
  C  C76  1  0.55088900  0.28957000  0.94304100  1
  C  C77  1  0.55695900  0.44911100  0.78957000  1
  C  C78  1  0.94304100  0.55088900  0.28957000  1
  C  C79  1  0.44304100  0.94911100  0.71043000  1
  C  C80  1  0.94304100  0.94911100  0.78957000  1
  C  C81  1  0.78957000  0.94304100  0.94911100  1
  C  C82  1  0.94911100  0.78957000  0.94304100  1
  C  C83  1  0.55088900  0.21043000  0.44304100  1
  C  C84  1  0.28957000  0.55695900  0.05088900  1
  C  C85  1  0.05088900  0.28957000  0.55695900  1
  C  C86  1  0.71043000  0.05695900  0.44911100  1
  C  C87  1  0.21043000  0.44304100  0.55088900  1
  C  C88  1  0.44911100  0.71043000  0.05695900  1
  C  C89  1  0.44304100  0.55088900  0.21043000  1
  C  C90  1  0.05695900  0.44911100  0.71043000  1
  C  C91  1  0.55695900  0.05088900  0.28957000  1
  C  C92  1  0.70738300  0.62582100  0.81229300  1
  C  C93  1  0.81229300  0.70738300  0.62582100  1
  C  C94  1  0.62582100  0.81229300  0.70738300  1
  C  C95  1  0.87417900  0.18770700  0.20738300  1
  C  C96  1  0.31229300  0.79261700  0.37417900  1
  C  C97  1  0.37417900  0.31229300  0.79261700  1
  C  C98  1  0.68770700  0.29261700  0.12582100  1
  C  C99  1  0.18770700  0.20738300  0.87417900  1
  C  C100  1  0.12582100  0.68770700  0.29261700  1
  C  C101  1  0.20738300  0.87417900  0.18770700  1
  C  C102  1  0.29261700  0.12582100  0.68770700  1
  C  C103  1  0.79261700  0.37417900  0.31229300  1
  C  C104  1  0.29261700  0.37417900  0.18770700  1
  C  C105  1  0.18770700  0.29261700  0.37417900  1
  C  C106  1  0.37417900  0.18770700  0.29261700  1
  C  C107  1  0.12582100  0.81229300  0.79261700  1
  C  C108  1  0.68770700  0.20738300  0.62582100  1
  C  C109  1  0.62582100  0.68770700  0.20738300  1
  C  C110  1  0.31229300  0.70738300  0.87417900  1
  C  C111  1  0.81229300  0.79261700  0.12582100  1
  C  C112  1  0.87417900  0.31229300  0.70738300  1
  C  C113  1  0.79261700  0.12582100  0.81229300  1
  C  C114  1  0.70738300  0.87417900  0.31229300  1
  C  C115  1  0.20738300  0.62582100  0.68770700  1
  C  C116  1  0.00000000  0.00000000  0.00000000  1
  C  C117  1  0.50000000  0.00000000  0.50000000  1
  C  C118  1  0.50000000  0.50000000  0.00000000  1
  C  C119  1  0.00000000  0.50000000  0.50000000  1
  C  C120  1  0.39460800  0.50865700  0.67179400  1
  C  C121  1  0.67179400  0.39460800  0.50865700  1
  C  C122  1  0.50865700  0.67179400  0.39460800  1
  C  C123  1  0.99134300  0.32820600  0.89460800  1
  C  C124  1  0.17179400  0.10539200  0.49134300  1
  C  C125  1  0.49134300  0.17179400  0.10539200  1
  C  C126  1  0.82820600  0.60539200  0.00865700  1
  C  C127  1  0.32820600  0.89460800  0.99134300  1
  C  C128  1  0.00865700  0.82820600  0.60539200  1
  C  C129  1  0.89460800  0.99134300  0.32820600  1
  C  C130  1  0.60539200  0.00865700  0.82820600  1
  C  C131  1  0.10539200  0.49134300  0.17179400  1
  C  C132  1  0.60539200  0.49134300  0.32820600  1
  C  C133  1  0.32820600  0.60539200  0.49134300  1
  C  C134  1  0.49134300  0.32820600  0.60539200  1
  C  C135  1  0.00865700  0.67179400  0.10539200  1
  C  C136  1  0.82820600  0.89460800  0.50865700  1
  C  C137  1  0.50865700  0.82820600  0.89460800  1
  C  C138  1  0.17179400  0.39460800  0.99134300  1
  C  C139  1  0.67179400  0.10539200  0.00865700  1
  C  C140  1  0.99134300  0.17179400  0.39460800  1
  C  C141  1  0.10539200  0.00865700  0.67179400  1
  C  C142  1  0.39460800  0.99134300  0.17179400  1
  C  C143  1  0.89460800  0.50865700  0.82820600  1
  C  C144  1  0.39168900  0.39168900  0.39168900  1
  C  C145  1  0.10831100  0.60831100  0.89168900  1
  C  C146  1  0.89168900  0.10831100  0.60831100  1
  C  C147  1  0.60831100  0.89168900  0.10831100  1
  C  C148  1  0.60831100  0.60831100  0.60831100  1
  C  C149  1  0.89168900  0.39168900  0.10831100  1
  C  C150  1  0.10831100  0.89168900  0.39168900  1
  C  C151  1  0.39168900  0.10831100  0.89168900  1
