# generated using pymatgen
data_Cu2Ni2C11
_symmetry_space_group_name_H-M   'P 1'
_cell_length_a   13.08623000
_cell_length_b   5.91076200
_cell_length_c   8.92507598
_cell_angle_alpha   89.84423365
_cell_angle_beta   90.00000000
_cell_angle_gamma   90.00000000
_symmetry_Int_Tables_number   1
_chemical_formula_structural   Cu2Ni2C11
_chemical_formula_sum   'Cu8 Ni8 C44'
_cell_volume   690.34842577
_cell_formula_units_Z   4
loop_
 _symmetry_equiv_pos_site_id
 _symmetry_equiv_pos_as_xyz
  1  'x, y, z'
loop_
 _atom_site_type_symbol
 _atom_site_label
 _atom_site_symmetry_multiplicity
 _atom_site_fract_x
 _atom_site_fract_y
 _atom_site_fract_z
 _atom_site_occupancy
  C  C0  1  0.50000000  0.99439600  0.67180900  1
  C  C1  1  0.00000000  0.50388800  0.83605900  1
  C  C2  1  0.00000000  0.00395100  0.33702800  1
  C  C3  1  0.50000000  0.49496600  0.16295000  1
  Ni  Ni4  1  0.75167200  0.25094200  0.75001300  1
  Ni  Ni5  1  0.75049900  0.74988800  0.24995200  1
  Ni  Ni6  1  0.24950100  0.74988800  0.24995200  1
  Ni  Ni7  1  0.24832800  0.25094200  0.75001300  1
  Ni  Ni8  1  0.75062300  0.25016100  0.25001600  1
  Ni  Ni9  1  0.75182000  0.74893600  0.75006600  1
  Ni  Ni10  1  0.24937700  0.25016100  0.25001600  1
  Ni  Ni11  1  0.24818000  0.74893600  0.75006600  1
  Cu  Cu12  1  0.62050000  0.50094300  0.51931800  1
  Cu  Cu13  1  0.61990600  0.00126100  0.02307100  1
  Cu  Cu14  1  0.11858300  0.49881200  0.47907800  1
  Cu  Cu15  1  0.11865400  0.99876000  0.97928200  1
  Cu  Cu16  1  0.88141700  0.49881200  0.47907800  1
  Cu  Cu17  1  0.88134600  0.99876000  0.97928200  1
  Cu  Cu18  1  0.37950000  0.50094300  0.51931800  1
  Cu  Cu19  1  0.38009400  0.00126100  0.02307100  1
  C  C20  1  0.69148100  0.49948900  0.85143500  1
  C  C21  1  0.69130300  0.99969700  0.35111800  1
  C  C22  1  0.19041800  0.50044700  0.14818900  1
  C  C23  1  0.19040100  0.00044600  0.64934300  1
  C  C24  1  0.80958200  0.50044700  0.14818900  1
  C  C25  1  0.80959900  0.00044600  0.64934300  1
  C  C26  1  0.30851900  0.49948900  0.85143500  1
  C  C27  1  0.30869700  0.99969700  0.35111800  1
  C  C28  1  0.36332300  0.23127100  0.12250300  1
  C  C29  1  0.35929900  0.72702100  0.61927800  1
  C  C30  1  0.86508300  0.77025200  0.87865400  1
  C  C31  1  0.86458500  0.27021300  0.37799700  1
  C  C32  1  0.13491700  0.77025200  0.87865400  1
  C  C33  1  0.13541500  0.27021300  0.37799700  1
  C  C34  1  0.63667700  0.23127100  0.12250300  1
  C  C35  1  0.64070100  0.72702100  0.61927800  1
  C  C36  1  0.68420200  0.49936100  0.36014100  1
  C  C37  1  0.68340500  0.99931600  0.86310300  1
  C  C38  1  0.18180700  0.50035000  0.63872000  1
  C  C39  1  0.18446600  0.00039900  0.13701900  1
  C  C40  1  0.81819300  0.50035000  0.63872000  1
  C  C41  1  0.81553400  0.00039900  0.13701900  1
  C  C42  1  0.31579800  0.49936100  0.36014100  1
  C  C43  1  0.31659500  0.99931600  0.86310300  1
  C  C44  1  0.00000000  0.47387600  0.11261000  1
  C  C45  1  0.00000000  0.97390100  0.61255000  1
  C  C46  1  0.50000000  0.52803700  0.88726800  1
  C  C47  1  0.50000000  0.02833100  0.37357900  1
  C  C48  1  0.63508500  0.77151300  0.12462300  1
  C  C49  1  0.63889800  0.27509400  0.62161400  1
  C  C50  1  0.13382200  0.22704300  0.87668900  1
  C  C51  1  0.13433000  0.72724600  0.37608900  1
  C  C52  1  0.86617800  0.22704300  0.87668900  1
  C  C53  1  0.86567000  0.72724600  0.37608900  1
  C  C54  1  0.36491500  0.77151300  0.12462300  1
  C  C55  1  0.36110200  0.27509400  0.62161400  1
  C  C56  1  0.00000000  0.49633000  0.54547500  1
  C  C57  1  0.00000000  0.99640900  0.04695100  1
  C  C58  1  0.50000000  0.50388200  0.45702800  1
  C  C59  1  0.50000000  0.00431400  0.96207200  1
