# generated using pymatgen
data_Cu2Ni2C21
_symmetry_space_group_name_H-M   'P 1'
_cell_length_a   6.39859400
_cell_length_b   9.47318864
_cell_length_c   10.25995137
_cell_angle_alpha   62.60241699
_cell_angle_beta   86.13212033
_cell_angle_gamma   83.81864204
_symmetry_Int_Tables_number   1
_chemical_formula_structural   Cu2Ni2C21
_chemical_formula_sum   'Cu4 Ni4 C42'
_cell_volume   548.82827076
_cell_formula_units_Z   2
loop_
 _symmetry_equiv_pos_site_id
 _symmetry_equiv_pos_as_xyz
  1  'x, y, z'
loop_
 _atom_site_type_symbol
 _atom_site_label
 _atom_site_symmetry_multiplicity
 _atom_site_fract_x
 _atom_site_fract_y
 _atom_site_fract_z
 _atom_site_occupancy
  C  C0  1  0.25700000  0.89569500  0.69979500  1
  C  C1  1  0.52258500  0.76149100  0.54880600  1
  C  C2  1  0.05371400  0.74892100  0.51317600  1
  C  C3  1  0.94628600  0.25107900  0.48682400  1
  C  C4  1  0.47741500  0.23850900  0.45119400  1
  C  C5  1  0.50168400  0.76168600  0.06022200  1
  C  C6  1  0.74300000  0.10430500  0.30020500  1
  C  C7  1  0.04234100  0.74389700  0.01585800  1
  C  C8  1  0.95765900  0.25610300  0.98414200  1
  C  C9  1  0.49831600  0.23831400  0.93977800  1
  C  C10  1  0.24637800  0.34333000  0.66892600  1
  C  C11  1  0.75362200  0.65667000  0.33107400  1
  C  C12  1  0.24358800  0.33694500  0.17938700  1
  C  C13  1  0.75641200  0.66305500  0.82061300  1
  Ni  Ni14  1  0.74374200  0.41322200  0.68010000  1
  Ni  Ni15  1  0.25625800  0.58677800  0.31990000  1
  Ni  Ni16  1  0.74020600  0.42389000  0.18122000  1
  Ni  Ni17  1  0.25979400  0.57611000  0.81878000  1
  Cu  Cu18  1  0.75700000  0.95337600  0.61386900  1
  Cu  Cu19  1  0.75315000  0.94924800  0.14205300  1
  Cu  Cu20  1  0.24300000  0.04662400  0.38613100  1
  Cu  Cu21  1  0.24685000  0.05075200  0.85794700  1
  C  C22  1  0.73567700  0.92498000  0.74769200  1
  C  C23  1  0.44246300  0.68610200  0.76461000  1
  C  C24  1  0.79260200  0.83154300  0.58296100  1
  C  C25  1  0.20110900  0.54627200  0.68680500  1
  C  C26  1  0.25750600  0.90268100  0.49849500  1
  C  C27  1  0.55507800  0.30954700  0.71951300  1
  C  C28  1  0.68476100  0.57752100  0.54395200  1
  C  C29  1  0.26947200  0.09627300  0.71651900  1
  C  C30  1  0.94007300  0.33203700  0.63506700  1
  C  C31  1  0.73052800  0.90372700  0.28348100  1
  C  C32  1  0.31523900  0.42247900  0.45604800  1
  C  C33  1  0.05992700  0.66796300  0.36493300  1
  C  C34  1  0.44492200  0.69045300  0.28048700  1
  C  C35  1  0.74249400  0.09731900  0.50150500  1
  C  C36  1  0.79889100  0.45372800  0.31319500  1
  C  C37  1  0.20739800  0.16845700  0.41703900  1
  C  C38  1  0.78369000  0.83024200  0.10749200  1
  C  C39  1  0.20874000  0.56698100  0.18405800  1
  C  C40  1  0.25599600  0.90460500  0.95076700  1
  C  C41  1  0.55753700  0.31389800  0.23539000  1
  C  C42  1  0.68389800  0.58478900  0.04796700  1
  C  C43  1  0.26432300  0.07502000  0.25230800  1
  C  C44  1  0.92661100  0.32402500  0.14929600  1
  C  C45  1  0.31610200  0.41521100  0.95203300  1
  C  C46  1  0.07338900  0.67597500  0.85070400  1
  C  C47  1  0.74400400  0.09539500  0.04923300  1
  C  C48  1  0.79126000  0.43301900  0.81594200  1
  C  C49  1  0.21631000  0.16975800  0.89250800  1
