# generated using pymatgen
data_CuNiC61
_symmetry_space_group_name_H-M   'P 1'
_cell_length_a   8.64460100
_cell_length_b   8.64460100
_cell_length_c   8.60871500
_cell_angle_alpha   90.00000000
_cell_angle_beta   90.00000000
_cell_angle_gamma   90.00000000
_symmetry_Int_Tables_number   1
_chemical_formula_structural   CuNiC61
_chemical_formula_sum   'Cu1 Ni1 C61'
_cell_volume   643.32175180
_cell_formula_units_Z   1
loop_
 _symmetry_equiv_pos_site_id
 _symmetry_equiv_pos_as_xyz
  1  'x, y, z'
loop_
 _atom_site_type_symbol
 _atom_site_label
 _atom_site_symmetry_multiplicity
 _atom_site_fract_x
 _atom_site_fract_y
 _atom_site_fract_z
 _atom_site_occupancy
  Ni  Ni0  1  0.50000000  0.50000000  0.99758400  1
  Cu  Cu1  1  0.00000000  0.00000000  0.97665400  1
  C  C2  1  0.50000000  0.00000000  0.99513200  1
  C  C3  1  0.00000000  0.50000000  0.99513200  1
  C  C4  1  0.00000000  0.00000000  0.52120500  1
  C  C5  1  0.50000000  0.00000000  0.50255800  1
  C  C6  1  0.00000000  0.50000000  0.50255800  1
  C  C7  1  0.50000000  0.50000000  0.49985500  1
  C  C8  1  0.24351800  0.24351800  0.00097200  1
  C  C9  1  0.75648200  0.24351800  0.00097200  1
  C  C10  1  0.24351800  0.75648200  0.00097200  1
  C  C11  1  0.75648200  0.75648200  0.00097200  1
  C  C12  1  0.24909400  0.24909400  0.49963600  1
  C  C13  1  0.75090600  0.24909400  0.49963600  1
  C  C14  1  0.24909400  0.75090600  0.49963600  1
  C  C15  1  0.75090600  0.75090600  0.49963600  1
  C  C16  1  0.27158600  0.00000000  0.24587100  1
  C  C17  1  0.72841400  0.00000000  0.24587100  1
  C  C18  1  0.25006600  0.50000000  0.25131700  1
  C  C19  1  0.74993400  0.50000000  0.25131700  1
  C  C20  1  0.24826000  0.00000000  0.75676100  1
  C  C21  1  0.75174000  0.00000000  0.75676100  1
  C  C22  1  0.24804600  0.50000000  0.74802800  1
  C  C23  1  0.75195400  0.50000000  0.74802800  1
  C  C24  1  0.00000000  0.27158600  0.24587100  1
  C  C25  1  0.50000000  0.25006600  0.25131700  1
  C  C26  1  0.00000000  0.72841400  0.24587100  1
  C  C27  1  0.50000000  0.74993400  0.25131700  1
  C  C28  1  0.00000000  0.24826000  0.75676100  1
  C  C29  1  0.50000000  0.24804600  0.74802800  1
  C  C30  1  0.00000000  0.75174000  0.75676100  1
  C  C31  1  0.50000000  0.75195400  0.74802800  1
  C  C32  1  0.50000000  0.00000000  0.25844300  1
  C  C33  1  0.00000000  0.50000000  0.25844300  1
  C  C34  1  0.50000000  0.50000000  0.27822300  1
  C  C35  1  0.00000000  0.00000000  0.74912100  1
  C  C36  1  0.50000000  0.00000000  0.74354300  1
  C  C37  1  0.00000000  0.50000000  0.74354300  1
  C  C38  1  0.50000000  0.50000000  0.72004800  1
  C  C39  1  0.24508800  0.24508800  0.25046100  1
  C  C40  1  0.75491200  0.24508800  0.25046100  1
  C  C41  1  0.24508800  0.75491200  0.25046100  1
  C  C42  1  0.75491200  0.75491200  0.25046100  1
  C  C43  1  0.24855100  0.24855100  0.74979200  1
  C  C44  1  0.75144900  0.24855100  0.74979200  1
  C  C45  1  0.24855100  0.75144900  0.74979200  1
  C  C46  1  0.75144900  0.75144900  0.74979200  1
  C  C47  1  0.24655000  0.00000000  0.00580100  1
  C  C48  1  0.75345000  0.00000000  0.00580100  1
  C  C49  1  0.22090400  0.50000000  0.00271600  1
  C  C50  1  0.77909600  0.50000000  0.00271600  1
  C  C51  1  0.24168600  0.00000000  0.49210100  1
  C  C52  1  0.75831400  0.00000000  0.49210100  1
  C  C53  1  0.24306900  0.50000000  0.49853300  1
  C  C54  1  0.75693100  0.50000000  0.49853300  1
  C  C55  1  0.00000000  0.24655000  0.00580100  1
  C  C56  1  0.50000000  0.22090400  0.00271600  1
  C  C57  1  0.00000000  0.75345000  0.00580100  1
  C  C58  1  0.50000000  0.77909600  0.00271600  1
  C  C59  1  0.00000000  0.24168600  0.49210100  1
  C  C60  1  0.50000000  0.24306900  0.49853300  1
  C  C61  1  0.00000000  0.75831400  0.49210100  1
  C  C62  1  0.50000000  0.75693100  0.49853300  1
