# generated using pymatgen
data_Cu3NiC32
_symmetry_space_group_name_H-M   'P 1'
_cell_length_a   11.12278900
_cell_length_b   6.44012300
_cell_length_c   13.26918615
_cell_angle_alpha   61.19925192
_cell_angle_beta   90.00000000
_cell_angle_gamma   90.00000000
_symmetry_Int_Tables_number   1
_chemical_formula_structural   Cu3NiC32
_chemical_formula_sum   'Cu6 Ni2 C64'
_cell_volume   832.92357122
_cell_formula_units_Z   2
loop_
 _symmetry_equiv_pos_site_id
 _symmetry_equiv_pos_as_xyz
  1  'x, y, z'
loop_
 _atom_site_type_symbol
 _atom_site_label
 _atom_site_symmetry_multiplicity
 _atom_site_fract_x
 _atom_site_fract_y
 _atom_site_fract_z
 _atom_site_occupancy
  C  C0  1  0.27347600  0.85355100  0.15351000  1
  C  C1  1  0.77347600  0.14644900  0.34649000  1
  C  C2  1  0.72647700  0.66031400  0.84684500  1
  C  C3  1  0.22647700  0.33968600  0.65315500  1
  C  C4  1  0.72652400  0.14644900  0.84649000  1
  C  C5  1  0.22652400  0.85355100  0.65351000  1
  C  C6  1  0.27352300  0.33968600  0.15315500  1
  C  C7  1  0.77352300  0.66031400  0.34684500  1
  C  C8  1  0.22275400  0.34213400  0.90805900  1
  C  C9  1  0.72275400  0.65786600  0.59194100  1
  C  C10  1  0.77724600  0.65786600  0.09194100  1
  C  C11  1  0.27724600  0.34213400  0.40805900  1
  C  C12  1  0.54936500  0.01751600  0.23221600  1
  C  C13  1  0.04936500  0.98248400  0.26778400  1
  C  C14  1  0.45063500  0.98248400  0.76778400  1
  C  C15  1  0.95063500  0.01751600  0.73221600  1
  Ni  Ni16  1  0.50000000  0.00000000  0.00000000  1
  Ni  Ni17  1  0.00000000  0.00000000  0.50000000  1
  Cu  Cu18  1  0.50000000  0.50000000  0.00000000  1
  Cu  Cu19  1  0.00000000  0.50000000  0.50000000  1
  Cu  Cu20  1  0.50000000  0.50000000  0.50000000  1
  Cu  Cu21  1  0.00000000  0.50000000  0.00000000  1
  Cu  Cu22  1  0.50000000  0.00000000  0.50000000  1
  Cu  Cu23  1  0.00000000  0.00000000  0.00000000  1
  C  C24  1  0.25394600  0.82957900  0.41966100  1
  C  C25  1  0.75394600  0.17042100  0.08033900  1
  C  C26  1  0.74605400  0.17042100  0.58033900  1
  C  C27  1  0.24605400  0.82957900  0.91966100  1
  C  C28  1  0.45978900  0.49341600  0.75678700  1
  C  C29  1  0.95978900  0.50658400  0.74321300  1
  C  C30  1  0.54021100  0.50658400  0.24321300  1
  C  C31  1  0.04021100  0.49341600  0.25678700  1
  C  C32  1  0.00939500  0.37894700  0.86943600  1
  C  C33  1  0.50939500  0.62105300  0.63056400  1
  C  C34  1  0.99060500  0.62105300  0.13056400  1
  C  C35  1  0.49060500  0.37894700  0.36943600  1
  C  C36  1  0.12767700  0.76680300  0.48165900  1
  C  C37  1  0.62767700  0.23319700  0.01834100  1
  C  C38  1  0.87232300  0.23319700  0.51834100  1
  C  C39  1  0.37232300  0.76680300  0.98165900  1
  C  C40  1  0.32119700  0.49165800  0.75869800  1
  C  C41  1  0.82119700  0.50834200  0.74130200  1
  C  C42  1  0.67880300  0.50834200  0.24130200  1
  C  C43  1  0.17880300  0.49165800  0.25869800  1
  C  C44  1  0.49121400  0.36999100  0.18002600  1
  C  C45  1  0.99121400  0.63000900  0.31997400  1
  C  C46  1  0.50938600  0.23310900  0.81650400  1
  C  C47  1  0.00938600  0.76689100  0.68349600  1
  C  C48  1  0.50878600  0.63000900  0.81997400  1
  C  C49  1  0.00878600  0.36999100  0.68002600  1
  C  C50  1  0.49061400  0.76689100  0.18349600  1
  C  C51  1  0.99061400  0.23310900  0.31650400  1
  C  C52  1  0.32036600  0.58869400  0.46212900  1
  C  C53  1  0.82036600  0.41130600  0.03787100  1
  C  C54  1  0.68033300  0.01368000  0.53761200  1
  C  C55  1  0.18033300  0.98632000  0.96238800  1
  C  C56  1  0.67963400  0.41130600  0.53787100  1
  C  C57  1  0.17963400  0.58869400  0.96212900  1
  C  C58  1  0.31966700  0.98632000  0.46238800  1
  C  C59  1  0.81966700  0.01368000  0.03761200  1
  C  C60  1  0.23449700  0.96001100  0.28986200  1
  C  C61  1  0.73449700  0.03998900  0.21013800  1
  C  C62  1  0.76550300  0.03998900  0.71013800  1
  C  C63  1  0.26550300  0.96001100  0.78986200  1
  C  C64  1  0.06324600  0.14329700  0.10672600  1
  C  C65  1  0.56324600  0.85670300  0.39327400  1
  C  C66  1  0.93675400  0.85670300  0.89327400  1
  C  C67  1  0.43675400  0.14329700  0.60672600  1
  C  C68  1  0.36842200  0.22313000  0.02849200  1
  C  C69  1  0.86842200  0.77687000  0.47150800  1
  C  C70  1  0.63157800  0.77687000  0.97150800  1
  C  C71  1  0.13157800  0.22313000  0.52849200  1
