# generated using pymatgen
data_CuNi2C7
_symmetry_space_group_name_H-M   'P 1'
_cell_length_a   11.21595100
_cell_length_b   12.17456000
_cell_length_c   15.89853800
_cell_angle_alpha   90.00000000
_cell_angle_beta   90.00000000
_cell_angle_gamma   90.00000000
_symmetry_Int_Tables_number   1
_chemical_formula_structural   CuNi2C7
_chemical_formula_sum   'Cu12 Ni24 C84'
_cell_volume   2170.93373263
_cell_formula_units_Z   12
loop_
 _symmetry_equiv_pos_site_id
 _symmetry_equiv_pos_as_xyz
  1  'x, y, z'
loop_
 _atom_site_type_symbol
 _atom_site_label
 _atom_site_symmetry_multiplicity
 _atom_site_fract_x
 _atom_site_fract_y
 _atom_site_fract_z
 _atom_site_occupancy
  C  C0  1  0.30111600  0.25000000  0.02783000  1
  C  C1  1  0.80111600  0.25000000  0.47217000  1
  C  C2  1  0.69888400  0.75000000  0.97217000  1
  C  C3  1  0.19888400  0.75000000  0.52783000  1
  C  C4  1  0.12042300  0.25000000  0.91698200  1
  C  C5  1  0.62042300  0.25000000  0.58301800  1
  C  C6  1  0.87957700  0.75000000  0.08301800  1
  C  C7  1  0.37957700  0.75000000  0.41698200  1
  C  C8  1  0.48217800  0.25000000  0.13514100  1
  C  C9  1  0.98217800  0.25000000  0.36485900  1
  C  C10  1  0.51782200  0.75000000  0.86485900  1
  C  C11  1  0.01782200  0.75000000  0.63514100  1
  C  C12  1  0.12363400  0.04888400  0.87941300  1
  C  C13  1  0.62363400  0.45111600  0.62058700  1
  C  C14  1  0.87636600  0.54888400  0.12058700  1
  C  C15  1  0.37636600  0.95111600  0.37941300  1
  C  C16  1  0.87636600  0.95111600  0.12058700  1
  C  C17  1  0.37636600  0.54888400  0.37941300  1
  C  C18  1  0.12363400  0.45111600  0.87941300  1
  C  C19  1  0.62363400  0.04888400  0.62058700  1
  C  C20  1  0.04063100  0.12166600  0.80036600  1
  C  C21  1  0.54063100  0.37833400  0.69963400  1
  C  C22  1  0.95936900  0.62166600  0.19963400  1
  C  C23  1  0.45936900  0.87833400  0.30036600  1
  C  C24  1  0.95936900  0.87833400  0.19963400  1
  C  C25  1  0.45936900  0.62166600  0.30036600  1
  C  C26  1  0.04063100  0.37833400  0.80036600  1
  C  C27  1  0.54063100  0.12166600  0.69963400  1
  C  C28  1  0.20071100  0.12684400  0.80147100  1
  C  C29  1  0.70071100  0.37315600  0.69852900  1
  C  C30  1  0.79928900  0.62684400  0.19852900  1
  C  C31  1  0.29928900  0.87315600  0.30147100  1
  C  C32  1  0.79928900  0.87315600  0.19852900  1
  C  C33  1  0.29928900  0.62684400  0.30147100  1
  C  C34  1  0.20071100  0.37315600  0.80147100  1
  C  C35  1  0.70071100  0.12684400  0.69852900  1
  C  C36  1  0.94546000  0.17650600  0.99983400  1
  C  C37  1  0.44546000  0.32349400  0.50016600  1
  C  C38  1  0.05454000  0.67650600  0.00016600  1
  C  C39  1  0.55454000  0.82349400  0.49983400  1
  C  C40  1  0.05454000  0.82349400  0.00016600  1
  C  C41  1  0.55454000  0.67650600  0.49983400  1
  C  C42  1  0.94546000  0.32349400  0.99983400  1
  C  C43  1  0.44546000  0.17650600  0.50016600  1
  C  C44  1  0.88815800  0.25000000  0.91105300  1
  C  C45  1  0.38815800  0.25000000  0.58894700  1
  C  C46  1  0.11184200  0.75000000  0.08894700  1
  C  C47  1  0.61184200  0.75000000  0.41105300  1
  C  C48  1  0.53892500  0.04847900  0.13047600  1
  C  C49  1  0.03892500  0.45152100  0.36952400  1
  C  C50  1  0.46107500  0.54847900  0.86952400  1
  C  C51  1  0.96107500  0.95152100  0.63047600  1
  C  C52  1  0.46107500  0.95152100  0.86952400  1
  C  C53  1  0.96107500  0.54847900  0.63047600  1
  C  C54  1  0.53892500  0.45152100  0.13047600  1
  C  C55  1  0.03892500  0.04847900  0.36952400  1
  C  C56  1  0.63658900  0.12803400  0.06652400  1
  C  C57  1  0.13658900  0.37196600  0.43347600  1
  C  C58  1  0.36341100  0.62803400  0.93347600  1
  C  C59  1  0.86341100  0.87196600  0.56652400  1
  C  C60  1  0.36341100  0.87196600  0.93347600  1
  C  C61  1  0.86341100  0.62803400  0.56652400  1
  C  C62  1  0.63658900  0.37196600  0.06652400  1
  C  C63  1  0.13658900  0.12803400  0.43347600  1
  C  C64  1  0.65672500  0.12564100  0.17893300  1
  C  C65  1  0.15672500  0.37435900  0.32106700  1
  C  C66  1  0.34327500  0.62564100  0.82106700  1
  C  C67  1  0.84327500  0.87435900  0.67893300  1
  C  C68  1  0.34327500  0.87435900  0.82106700  1
  C  C69  1  0.84327500  0.62564100  0.67893300  1
  C  C70  1  0.65672500  0.37435900  0.17893300  1
  C  C71  1  0.15672500  0.12564100  0.32106700  1
  C  C72  1  0.38319800  0.17651000  0.26617100  1
  C  C73  1  0.88319800  0.32349000  0.23382900  1
  C  C74  1  0.61680200  0.67651000  0.73382900  1
  C  C75  1  0.11680200  0.82349000  0.76617100  1
  C  C76  1  0.61680200  0.82349000  0.73382900  1
  C  C77  1  0.11680200  0.67651000  0.76617100  1
  C  C78  1  0.38319800  0.32349000  0.26617100  1
  C  C79  1  0.88319800  0.17651000  0.23382900  1
  C  C80  1  0.51554500  0.25000000  0.29600800  1
  C  C81  1  0.01554500  0.25000000  0.20399200  1
  C  C82  1  0.48445500  0.75000000  0.70399200  1
  C  C83  1  0.98445500  0.75000000  0.79600800  1
  Ni  Ni84  1  0.12025100  0.12278500  0.84049100  1
  Ni  Ni85  1  0.62025100  0.37721500  0.65950900  1
  Ni  Ni86  1  0.87974900  0.62278500  0.15950900  1
  Ni  Ni87  1  0.37974900  0.87721500  0.34049100  1
  Ni  Ni88  1  0.87974900  0.87721500  0.15950900  1
  Ni  Ni89  1  0.37974900  0.62278500  0.34049100  1
  Ni  Ni90  1  0.12025100  0.37721500  0.84049100  1
  Ni  Ni91  1  0.62025100  0.12278500  0.65950900  1
  Ni  Ni92  1  0.95559000  0.25000000  0.96095400  1
  Ni  Ni93  1  0.45559000  0.25000000  0.53904600  1
  Ni  Ni94  1  0.04441000  0.75000000  0.03904600  1
  Ni  Ni95  1  0.54441000  0.75000000  0.46095400  1
  Ni  Ni96  1  0.59144300  0.12392900  0.12752900  1
  Ni  Ni97  1  0.09144300  0.37607100  0.37247100  1
  Ni  Ni98  1  0.40855700  0.62392900  0.87247100  1
  Ni  Ni99  1  0.90855700  0.87607100  0.62752900  1
  Ni  Ni100  1  0.40855700  0.87607100  0.87247100  1
  Ni  Ni101  1  0.90855700  0.62392900  0.62752900  1
  Ni  Ni102  1  0.59144300  0.37607100  0.12752900  1
  Ni  Ni103  1  0.09144300  0.12392900  0.37247100  1
  Ni  Ni104  1  0.43690700  0.25000000  0.25482600  1
  Ni  Ni105  1  0.93690700  0.25000000  0.24517400  1
  Ni  Ni106  1  0.56309300  0.75000000  0.74517400  1
  Ni  Ni107  1  0.06309300  0.75000000  0.75482600  1
  Cu  Cu108  1  0.22644100  0.06805300  0.09248300  1
  Cu  Cu109  1  0.72644100  0.43194700  0.40751700  1
  Cu  Cu110  1  0.77355900  0.56805300  0.90751700  1
  Cu  Cu111  1  0.27355900  0.93194700  0.59248300  1
  Cu  Cu112  1  0.77355900  0.93194700  0.90751700  1
  Cu  Cu113  1  0.27355900  0.56805300  0.59248300  1
  Cu  Cu114  1  0.22644100  0.43194700  0.09248300  1
  Cu  Cu115  1  0.72644100  0.06805300  0.40751700  1
  Cu  Cu116  1  0.44988700  0.25000000  0.90411900  1
  Cu  Cu117  1  0.94988700  0.25000000  0.59588100  1
  Cu  Cu118  1  0.55011300  0.75000000  0.09588100  1
  Cu  Cu119  1  0.05011300  0.75000000  0.40411900  1
