# generated using pymatgen
data_CuNiC4
_symmetry_space_group_name_H-M   'P 1'
_cell_length_a   3.45063289
_cell_length_b   3.45063289
_cell_length_c   39.33342600
_cell_angle_alpha   90.00000000
_cell_angle_beta   90.00000000
_cell_angle_gamma   120.00001708
_symmetry_Int_Tables_number   1
_chemical_formula_structural   CuNiC4
_chemical_formula_sum   'Cu2 Ni2 C8'
_cell_volume   405.59243679
_cell_formula_units_Z   2
loop_
 _symmetry_equiv_pos_site_id
 _symmetry_equiv_pos_as_xyz
  1  'x, y, z'
loop_
 _atom_site_type_symbol
 _atom_site_label
 _atom_site_symmetry_multiplicity
 _atom_site_fract_x
 _atom_site_fract_y
 _atom_site_fract_z
 _atom_site_occupancy
  C  C0  1  0.00000000  0.00000000  0.32890300  1
  C  C1  1  0.00000000  0.00000000  0.70485000  1
  C  C2  1  0.33333300  0.66666700  0.04680800  1
  C  C3  1  0.33333300  0.66666700  0.14092000  1
  C  C4  1  0.00000000  0.00000000  0.23479200  1
  C  C5  1  0.00000000  0.00000000  0.61022100  1
  Ni  Ni6  1  0.00000000  0.00000000  0.09384900  1
  Ni  Ni7  1  0.33333300  0.66666700  0.28192000  1
  Cu  Cu8  1  0.00000000  0.00000000  0.46966900  1
  Cu  Cu9  1  0.33333300  0.66666700  0.65751900  1
  C  C10  1  0.33333300  0.66666700  0.43171500  1
  C  C11  1  0.33333300  0.66666700  0.50758500  1
