# generated using pymatgen
data_Cu5Ni2C5
_symmetry_space_group_name_H-M   'P 1'
_cell_length_a   8.15992800
_cell_length_b   8.15992800
_cell_length_c   10.76677100
_cell_angle_alpha   90.00000000
_cell_angle_beta   90.00000000
_cell_angle_gamma   90.00000000
_symmetry_Int_Tables_number   1
_chemical_formula_structural   Cu5Ni2C5
_chemical_formula_sum   'Cu20 Ni8 C20'
_cell_volume   716.89925577
_cell_formula_units_Z   4
loop_
 _symmetry_equiv_pos_site_id
 _symmetry_equiv_pos_as_xyz
  1  'x, y, z'
loop_
 _atom_site_type_symbol
 _atom_site_label
 _atom_site_symmetry_multiplicity
 _atom_site_fract_x
 _atom_site_fract_y
 _atom_site_fract_z
 _atom_site_occupancy
  C  C0  1  0.50000000  0.00000000  0.63894900  1
  C  C1  1  0.00000000  0.50000000  0.86105100  1
  C  C2  1  0.00000000  0.50000000  0.36105100  1
  C  C3  1  0.50000000  0.00000000  0.13894900  1
  C  C4  1  0.28667300  0.40659900  0.60026200  1
  C  C5  1  0.71332700  0.59340100  0.60026200  1
  C  C6  1  0.40659900  0.28667300  0.89973800  1
  C  C7  1  0.90659900  0.21332700  0.60026200  1
  C  C8  1  0.09340100  0.78667300  0.60026200  1
  C  C9  1  0.21332700  0.90659900  0.89973800  1
  C  C10  1  0.78667300  0.09340100  0.89973800  1
  C  C11  1  0.59340100  0.71332700  0.89973800  1
  C  C12  1  0.21332700  0.09340100  0.39973800  1
  C  C13  1  0.78667300  0.90659900  0.39973800  1
  C  C14  1  0.09340100  0.21332700  0.10026200  1
  C  C15  1  0.59340100  0.28667300  0.39973800  1
  C  C16  1  0.40659900  0.71332700  0.39973800  1
  C  C17  1  0.28667300  0.59340100  0.10026200  1
  C  C18  1  0.71332700  0.40659900  0.10026200  1
  C  C19  1  0.90659900  0.78667300  0.10026200  1
  Ni  Ni20  1  0.34391700  0.34391700  0.25000000  1
  Ni  Ni21  1  0.84391700  0.84391700  0.75000000  1
  Ni  Ni22  1  0.65608300  0.34391700  0.75000000  1
  Ni  Ni23  1  0.34391700  0.65608300  0.75000000  1
  Ni  Ni24  1  0.15608300  0.15608300  0.75000000  1
  Ni  Ni25  1  0.15608300  0.84391700  0.25000000  1
  Ni  Ni26  1  0.84391700  0.15608300  0.25000000  1
  Ni  Ni27  1  0.65608300  0.65608300  0.25000000  1
  Cu  Cu28  1  0.00000000  0.50000000  0.59700500  1
  Cu  Cu29  1  0.00000000  0.50000000  0.09700500  1
  Cu  Cu30  1  0.50000000  0.00000000  0.40299500  1
  Cu  Cu31  1  0.50000000  0.00000000  0.90299500  1
  Cu  Cu32  1  0.30216300  0.39812800  0.37581500  1
  Cu  Cu33  1  0.69783700  0.60187200  0.37581500  1
  Cu  Cu34  1  0.39812800  0.30216300  0.12418500  1
  Cu  Cu35  1  0.89812800  0.19783700  0.37581500  1
  Cu  Cu36  1  0.10187200  0.80216300  0.37581500  1
  Cu  Cu37  1  0.19783700  0.89812800  0.12418500  1
  Cu  Cu38  1  0.80216300  0.10187200  0.12418500  1
  Cu  Cu39  1  0.60187200  0.69783700  0.12418500  1
  Cu  Cu40  1  0.89812800  0.80216300  0.87581500  1
  Cu  Cu41  1  0.69783700  0.39812800  0.87581500  1
  Cu  Cu42  1  0.30216300  0.60187200  0.87581500  1
  Cu  Cu43  1  0.39812800  0.69783700  0.62418500  1
  Cu  Cu44  1  0.60187200  0.30216300  0.62418500  1
  Cu  Cu45  1  0.10187200  0.19783700  0.87581500  1
  Cu  Cu46  1  0.80216300  0.89812800  0.62418500  1
  Cu  Cu47  1  0.19783700  0.10187200  0.62418500  1
