# generated using pymatgen
data_CuNiC2
_symmetry_space_group_name_H-M   'P 1'
_cell_length_a   7.92362577
_cell_length_b   7.92362577
_cell_length_c   7.92362577
_cell_angle_alpha   129.67910016
_cell_angle_beta   129.67910016
_cell_angle_gamma   73.92029937
_symmetry_Int_Tables_number   1
_chemical_formula_structural   CuNiC2
_chemical_formula_sum   'Cu4 Ni4 C8'
_cell_volume   287.40988971
_cell_formula_units_Z   4
loop_
 _symmetry_equiv_pos_site_id
 _symmetry_equiv_pos_as_xyz
  1  'x, y, z'
loop_
 _atom_site_type_symbol
 _atom_site_label
 _atom_site_symmetry_multiplicity
 _atom_site_fract_x
 _atom_site_fract_y
 _atom_site_fract_z
 _atom_site_occupancy
  Ni  Ni0  1  0.37500000  0.12500000  0.25000000  1
  Ni  Ni1  1  0.87500000  0.12500000  0.75000000  1
  Ni  Ni2  1  0.87500000  0.12500000  0.25000000  1
  Ni  Ni3  1  0.87500000  0.62500000  0.75000000  1
  Cu  Cu4  1  0.87500000  0.62500000  0.25000000  1
  Cu  Cu5  1  0.37500000  0.62500000  0.75000000  1
  Cu  Cu6  1  0.37500000  0.62500000  0.25000000  1
  Cu  Cu7  1  0.37500000  0.12500000  0.75000000  1
  C  C8  1  0.18782300  0.46948600  0.28166300  1
  C  C9  1  0.18782300  0.90615900  0.71833700  1
  C  C10  1  0.21948600  0.43782300  0.78166300  1
  C  C11  1  0.56217700  0.78051400  0.21833700  1
  C  C12  1  0.65615900  0.43782300  0.21833700  1
  C  C13  1  0.56217700  0.34384100  0.78166300  1
  C  C14  1  0.53051400  0.81217700  0.71833700  1
  C  C15  1  0.09384100  0.81217700  0.28166300  1
