# generated using pymatgen
data_Cu(NiC)3
_symmetry_space_group_name_H-M   'P 1'
_cell_length_a   15.06434900
_cell_length_b   7.13273800
_cell_length_c   7.92172054
_cell_angle_alpha   57.35263583
_cell_angle_beta   90.00000000
_cell_angle_gamma   90.00000000
_symmetry_Int_Tables_number   1
_chemical_formula_structural   Cu(NiC)3
_chemical_formula_sum   'Cu8 Ni24 C24'
_cell_volume   716.70712181
_cell_formula_units_Z   8
loop_
 _symmetry_equiv_pos_site_id
 _symmetry_equiv_pos_as_xyz
  1  'x, y, z'
loop_
 _atom_site_type_symbol
 _atom_site_label
 _atom_site_symmetry_multiplicity
 _atom_site_fract_x
 _atom_site_fract_y
 _atom_site_fract_z
 _atom_site_occupancy
  C  C0  1  0.50000000  0.50000000  0.50000000  1
  C  C1  1  0.00000000  0.50000000  0.00000000  1
  C  C2  1  0.00688900  0.74435800  0.24337900  1
  C  C3  1  0.49311100  0.74435800  0.74337900  1
  C  C4  1  0.99311100  0.25564200  0.75662100  1
  C  C5  1  0.50688900  0.25564200  0.25662100  1
  C  C6  1  0.50000000  0.00000000  0.00000000  1
  C  C7  1  0.00000000  0.00000000  0.50000000  1
  C  C8  1  0.18739800  0.37534100  0.37306900  1
  C  C9  1  0.31260200  0.37534100  0.87306900  1
  C  C10  1  0.81260200  0.62465900  0.62693100  1
  C  C11  1  0.68739800  0.62465900  0.12693100  1
  C  C12  1  0.21346900  0.87658100  0.87078700  1
  C  C13  1  0.28653100  0.87658100  0.37078700  1
  C  C14  1  0.78653100  0.12341900  0.12921300  1
  C  C15  1  0.71346900  0.12341900  0.62921300  1
  C  C16  1  0.86781100  0.35646500  0.39211100  1
  C  C17  1  0.63218900  0.35646500  0.89211100  1
  C  C18  1  0.13218900  0.64353500  0.60788900  1
  C  C19  1  0.36781100  0.64353500  0.10788900  1
  C  C20  1  0.13634300  0.11173400  0.13178000  1
  C  C21  1  0.36365700  0.11173400  0.63178000  1
  C  C22  1  0.86365700  0.88826600  0.86822000  1
  C  C23  1  0.63634300  0.88826600  0.36822000  1
  Ni  Ni24  1  0.05623800  0.14217500  0.07300100  1
  Ni  Ni25  1  0.44376200  0.14217500  0.57300100  1
  Ni  Ni26  1  0.94376200  0.85782500  0.92699900  1
  Ni  Ni27  1  0.55623800  0.85782500  0.42699900  1
  Ni  Ni28  1  0.29990600  0.06372100  0.54600600  1
  Ni  Ni29  1  0.20009400  0.06372100  0.04600600  1
  Ni  Ni30  1  0.70009400  0.93627900  0.45399400  1
  Ni  Ni31  1  0.79990600  0.93627900  0.95399400  1
  Ni  Ni32  1  0.15951700  0.63631200  0.45524700  1
  Ni  Ni33  1  0.34048300  0.63631200  0.95524700  1
  Ni  Ni34  1  0.84048300  0.36368800  0.54475300  1
  Ni  Ni35  1  0.65951700  0.36368800  0.04475300  1
  Ni  Ni36  1  0.19394000  0.68159700  0.70342200  1
  Ni  Ni37  1  0.30606000  0.68159700  0.20342200  1
  Ni  Ni38  1  0.80606000  0.31840300  0.29657800  1
  Ni  Ni39  1  0.69394000  0.31840300  0.79657800  1
  Ni  Ni40  1  0.95012300  0.37707200  0.34479800  1
  Ni  Ni41  1  0.54987700  0.37707200  0.84479800  1
  Ni  Ni42  1  0.04987700  0.62292800  0.65520200  1
  Ni  Ni43  1  0.45012300  0.62292800  0.15520200  1
  Ni  Ni44  1  0.16130800  0.11690000  0.28692500  1
  Ni  Ni45  1  0.33869200  0.11690000  0.78692500  1
  Ni  Ni46  1  0.83869200  0.88310000  0.71307500  1
  Ni  Ni47  1  0.66130800  0.88310000  0.21307500  1
  Cu  Cu48  1  0.11121000  0.10719300  0.66591800  1
  Cu  Cu49  1  0.38879000  0.10719300  0.16591800  1
  Cu  Cu50  1  0.88879000  0.89280700  0.33408200  1
  Cu  Cu51  1  0.61121000  0.89280700  0.83408200  1
  Cu  Cu52  1  0.11798000  0.63797100  0.08620800  1
  Cu  Cu53  1  0.38202000  0.63797100  0.58620800  1
  Cu  Cu54  1  0.88202000  0.36202900  0.91379200  1
  Cu  Cu55  1  0.61798000  0.36202900  0.41379200  1
