# generated using pymatgen
data_Cu7NiC37
_symmetry_space_group_name_H-M   'P 1'
_cell_length_a   9.12805498
_cell_length_b   9.12805498
_cell_length_c   18.29125966
_cell_angle_alpha   71.96826015
_cell_angle_beta   71.96826015
_cell_angle_gamma   72.55489857
_symmetry_Int_Tables_number   1
_chemical_formula_structural   Cu7NiC37
_chemical_formula_sum   'Cu14 Ni2 C74'
_cell_volume   1342.50020771
_cell_formula_units_Z   2
loop_
 _symmetry_equiv_pos_site_id
 _symmetry_equiv_pos_as_xyz
  1  'x, y, z'
loop_
 _atom_site_type_symbol
 _atom_site_label
 _atom_site_symmetry_multiplicity
 _atom_site_fract_x
 _atom_site_fract_y
 _atom_site_fract_z
 _atom_site_occupancy
  C  C0  1  0.95464000  0.50509200  0.25305800  1
  C  C1  1  0.49598700  0.04018100  0.24966900  1
  C  C2  1  0.04018100  0.49598700  0.74966900  1
  C  C3  1  0.50509200  0.95464000  0.75305800  1
  C  C4  1  0.15868600  0.72835200  0.86023300  1
  C  C5  1  0.27019700  0.84535600  0.64021600  1
  C  C6  1  0.84535600  0.27019700  0.14021600  1
  C  C7  1  0.72835200  0.15868600  0.36023300  1
  C  C8  1  0.28720500  0.28256000  0.41238000  1
  C  C9  1  0.71990000  0.71397400  0.08750900  1
  C  C10  1  0.71397400  0.71990000  0.58750900  1
  C  C11  1  0.28256000  0.28720500  0.91238000  1
  C  C12  1  0.16502400  0.72013300  0.36510500  1
  C  C13  1  0.27897600  0.83846800  0.13586900  1
  C  C14  1  0.83846800  0.27897600  0.63586900  1
  C  C15  1  0.72013300  0.16502400  0.86510500  1
  C  C16  1  0.49512700  0.49293500  0.51469400  1
  C  C17  1  0.49293500  0.49512700  0.01469400  1
  Ni  Ni18  1  0.00091700  0.00052500  0.49977100  1
  Ni  Ni19  1  0.00052500  0.00091700  0.99977100  1
  Cu  Cu20  1  0.10433700  0.11565100  0.79393300  1
  Cu  Cu21  1  0.88434800  0.89601800  0.70623900  1
  Cu  Cu22  1  0.89601800  0.88434800  0.20623900  1
  Cu  Cu23  1  0.11565100  0.10433700  0.29393300  1
  Cu  Cu24  1  0.41244300  0.89416900  0.94317200  1
  Cu  Cu25  1  0.10556200  0.58662300  0.55779500  1
  Cu  Cu26  1  0.58662300  0.10556200  0.05779500  1
  Cu  Cu27  1  0.89416900  0.41244300  0.44317200  1
  Cu  Cu28  1  0.41193700  0.88601400  0.44854500  1
  Cu  Cu29  1  0.11314600  0.58815500  0.05222600  1
  Cu  Cu30  1  0.58815500  0.11314600  0.55222600  1
  Cu  Cu31  1  0.88601400  0.41193700  0.94854500  1
  Cu  Cu32  1  0.47313200  0.52590800  0.74810400  1
  Cu  Cu33  1  0.52590800  0.47313200  0.24810400  1
  C  C34  1  0.61527900  0.21100500  0.59992400  1
  C  C35  1  0.78998300  0.38321200  0.90084000  1
  C  C36  1  0.38321200  0.78998300  0.40084000  1
  C  C37  1  0.21100500  0.61527900  0.09992400  1
  C  C38  1  0.61306900  0.20684000  0.10474800  1
  C  C39  1  0.79557900  0.38325300  0.39610700  1
  C  C40  1  0.38325300  0.79557900  0.89610700  1
  C  C41  1  0.20684000  0.61306900  0.60474800  1
  C  C42  1  0.47636100  0.57949800  0.17093900  1
  C  C43  1  0.41252700  0.52858000  0.32208700  1
  C  C44  1  0.52858000  0.41252700  0.82208700  1
  C  C45  1  0.57949800  0.47636100  0.67093900  1
  C  C46  1  0.50404900  0.97431200  0.11646100  1
  C  C47  1  0.02444300  0.49703200  0.38491700  1
  C  C48  1  0.49703200  0.02444300  0.88491700  1
  C  C49  1  0.97431200  0.50404900  0.61646100  1
  C  C50  1  0.22686300  0.50546000  0.98641300  1
  C  C51  1  0.49316600  0.77368700  0.51527100  1
  C  C52  1  0.77368700  0.49316600  0.01527100  1
  C  C53  1  0.50546000  0.22686300  0.48641300  1
  C  C54  1  0.21581100  0.49516500  0.49538500  1
  C  C55  1  0.50223000  0.78410100  0.00635600  1
  C  C56  1  0.78410100  0.50223000  0.50635600  1
  C  C57  1  0.49516500  0.21581100  0.99538500  1
  C  C58  1  0.70333500  0.47520000  0.23452700  1
  C  C59  1  0.52713900  0.29405800  0.26423600  1
  C  C60  1  0.29405800  0.52713900  0.76423600  1
  C  C61  1  0.47520000  0.70333500  0.73452700  1
  C  C62  1  0.01452900  0.01957000  0.87597900  1
  C  C63  1  0.98018000  0.98569000  0.62406100  1
  C  C64  1  0.98569000  0.98018000  0.12406100  1
  C  C65  1  0.01957000  0.01452900  0.37597900  1
  C  C66  1  0.24862100  0.98287300  0.49263600  1
  C  C67  1  0.01782000  0.75173800  0.00811200  1
  C  C68  1  0.75173800  0.01782000  0.50811200  1
  C  C69  1  0.98287300  0.24862100  0.99263600  1
  C  C70  1  0.98948000  0.21400100  0.24907400  1
  C  C71  1  0.78665400  0.01070200  0.25099400  1
  C  C72  1  0.01070200  0.78665400  0.75099400  1
  C  C73  1  0.21400100  0.98948000  0.74907400  1
  C  C74  1  0.49614400  0.98757000  0.60783500  1
  C  C75  1  0.01152700  0.50497300  0.89344900  1
  C  C76  1  0.50497300  0.01152700  0.39344900  1
  C  C77  1  0.98757000  0.49614400  0.10783500  1
  C  C78  1  0.79788400  0.78861700  0.19253200  1
  C  C79  1  0.21182700  0.20195600  0.30764800  1
  C  C80  1  0.20195600  0.21182700  0.80764800  1
  C  C81  1  0.78861700  0.79788400  0.69253200  1
  C  C82  1  0.24975000  0.98494000  0.99016700  1
  C  C83  1  0.01640700  0.74991500  0.51090900  1
  C  C84  1  0.74991500  0.01640700  0.01090900  1
  C  C85  1  0.98494000  0.24975000  0.49016700  1
  C  C86  1  0.97419200  0.22892700  0.75215100  1
  C  C87  1  0.77079800  0.02639700  0.74772400  1
  C  C88  1  0.02639700  0.77079800  0.24772400  1
  C  C89  1  0.22892700  0.97419200  0.25215100  1
