# generated using pymatgen
data_CuNi2C39
_symmetry_space_group_name_H-M   'P 1'
_cell_length_a   9.35933607
_cell_length_b   9.35933607
_cell_length_c   19.03028936
_cell_angle_alpha   98.02094811
_cell_angle_beta   98.02094811
_cell_angle_gamma   112.79875806
_symmetry_Int_Tables_number   1
_chemical_formula_structural   CuNi2C39
_chemical_formula_sum   'Cu2 Ni4 C78'
_cell_volume   1487.10739413
_cell_formula_units_Z   2
loop_
 _symmetry_equiv_pos_site_id
 _symmetry_equiv_pos_as_xyz
  1  'x, y, z'
loop_
 _atom_site_type_symbol
 _atom_site_label
 _atom_site_symmetry_multiplicity
 _atom_site_fract_x
 _atom_site_fract_y
 _atom_site_fract_z
 _atom_site_occupancy
  Ni  Ni0  1  0.02813131  0.05046834  0.15345606  1
  Ni  Ni1  1  0.94953166  0.97186869  0.34654394  1
  Ni  Ni2  1  0.97186869  0.94953166  0.84654394  1
  Ni  Ni3  1  0.05046834  0.02813131  0.65345606  1
  Cu  Cu4  1  0.62595385  0.37404615  0.25000000  1
  Cu  Cu5  1  0.37404615  0.62595385  0.75000000  1
  C  C6  1  0.02480710  0.49493591  0.24455022  1
  C  C7  1  0.50506409  0.97519290  0.25544978  1
  C  C8  1  0.97519290  0.50506409  0.75544978  1
  C  C9  1  0.49493591  0.02480710  0.74455022  1
  C  C10  1  0.84409975  0.24271825  0.86308535  1
  C  C11  1  0.75728175  0.15590025  0.63691465  1
  C  C12  1  0.15590025  0.75728175  0.13691465  1
  C  C13  1  0.24271825  0.84409975  0.36308535  1
  C  C14  1  0.25258726  0.85523293  0.86266911  1
  C  C15  1  0.14476707  0.74741274  0.63733089  1
  C  C16  1  0.74741274  0.14476707  0.13733089  1
  C  C17  1  0.85523293  0.25258726  0.36266911  1
  C  C18  1  0.71123370  0.29734254  0.00143008  1
  C  C19  1  0.70265746  0.28876630  0.49856992  1
  C  C20  1  0.28876630  0.70265746  0.99856992  1
  C  C21  1  0.29734254  0.71123370  0.50143008  1
  C  C22  1  0.81347401  0.60196009  0.11975861  1
  C  C23  1  0.39803991  0.18652599  0.38024139  1
  C  C24  1  0.18652599  0.39803991  0.88024139  1
  C  C25  1  0.60196009  0.81347401  0.61975861  1
  C  C26  1  0.60193249  0.79155605  0.11610939  1
  C  C27  1  0.20844395  0.39806751  0.38389061  1
  C  C28  1  0.39806751  0.20844395  0.88389061  1
  C  C29  1  0.79155605  0.60193249  0.61610939  1
  C  C30  1  0.66766478  0.65488913  0.11039116  1
  C  C31  1  0.34511087  0.33233522  0.38960884  1
  C  C32  1  0.33233522  0.34511087  0.88960884  1
  C  C33  1  0.65488913  0.66766478  0.61039116  1
  C  C34  1  0.81187071  0.51747561  0.18921981  1
  C  C35  1  0.48252439  0.18812929  0.31078019  1
  C  C36  1  0.18812929  0.48252439  0.81078019  1
  C  C37  1  0.51747561  0.81187071  0.68921981  1
  C  C38  1  0.97807716  0.76634256  0.13035314  1
  C  C39  1  0.23365744  0.02192284  0.36964686  1
  C  C40  1  0.02192284  0.23365744  0.86964686  1
  C  C41  1  0.76634256  0.97807716  0.63035314  1
  C  C42  1  0.79339466  0.48249559  0.04426646  1
  C  C43  1  0.51750441  0.20660534  0.45573354  1
  C  C44  1  0.20660534  0.51750441  0.95573354  1
  C  C45  1  0.48249559  0.79339466  0.54426646  1
  C  C46  1  0.54075784  0.80478164  0.19106851  1
  C  C47  1  0.19521836  0.45924216  0.30893149  1
  C  C48  1  0.45924216  0.19521836  0.80893149  1
  C  C49  1  0.80478164  0.54075784  0.69106851  1
  C  C50  1  0.74916522  0.96455189  0.11812627  1
  C  C51  1  0.03544811  0.25083478  0.38187373  1
  C  C52  1  0.25083478  0.03544811  0.88187373  1
  C  C53  1  0.96455189  0.74916522  0.61812627  1
  C  C54  1  0.46638508  0.74640105  0.04348081  1
  C  C55  1  0.25359895  0.53361492  0.45651919  1
  C  C56  1  0.53361492  0.25359895  0.95651919  1
  C  C57  1  0.74640105  0.46638508  0.54348081  1
  C  C58  1  0.17976791  0.73176573  0.05310343  1
  C  C59  1  0.26823427  0.82023209  0.44689657  1
  C  C60  1  0.82023209  0.26823427  0.94689657  1
  C  C61  1  0.73176573  0.17976791  0.55310343  1
  C  C62  1  0.69497344  0.18274332  0.05902406  1
  C  C63  1  0.81725668  0.30502656  0.44097594  1
  C  C64  1  0.30502656  0.81725668  0.94097594  1
  C  C65  1  0.18274332  0.69497344  0.55902406  1
  C  C66  1  0.85953068  0.39630092  0.82875631  1
  C  C67  1  0.60369908  0.14046932  0.67124369  1
  C  C68  1  0.14046932  0.60369908  0.17124369  1
  C  C69  1  0.39630092  0.85953068  0.32875631  1
  C  C70  1  0.38380038  0.85849628  0.81376252  1
  C  C71  1  0.14150372  0.61619962  0.68623748  1
  C  C72  1  0.61619962  0.14150372  0.18623748  1
  C  C73  1  0.85849628  0.38380038  0.31376252  1
  C  C74  1  0.71434240  0.07442213  0.81418563  1
  C  C75  1  0.92557787  0.28565760  0.68581437  1
  C  C76  1  0.28565760  0.92557787  0.18581437  1
  C  C77  1  0.07442213  0.71434240  0.31418563  1
  C  C78  1  0.93081668  0.25990020  0.17731794  1
  C  C79  1  0.74009980  0.06918332  0.32268206  1
  C  C80  1  0.06918332  0.74009980  0.82268206  1
  C  C81  1  0.25990020  0.93081668  0.67731794  1
  C  C82  1  0.46950071  0.53049929  0.25000000  1
  C  C83  1  0.53049929  0.46950071  0.75000000  1
