# generated using pymatgen
data_Cu13Ni3C5
_symmetry_space_group_name_H-M   'P 1'
_cell_length_a   7.29480200
_cell_length_b   11.16285756
_cell_length_c   15.76888526
_cell_angle_alpha   83.56986924
_cell_angle_beta   76.62616372
_cell_angle_gamma   70.92870859
_symmetry_Int_Tables_number   1
_chemical_formula_structural   Cu13Ni3C5
_chemical_formula_sum   'Cu52 Ni12 C20'
_cell_volume   1179.75725158
_cell_formula_units_Z   4
loop_
 _symmetry_equiv_pos_site_id
 _symmetry_equiv_pos_as_xyz
  1  'x, y, z'
loop_
 _atom_site_type_symbol
 _atom_site_label
 _atom_site_symmetry_multiplicity
 _atom_site_fract_x
 _atom_site_fract_y
 _atom_site_fract_z
 _atom_site_occupancy
  C  C0  1  0.12307300  0.10289300  0.33938600  1
  C  C1  1  0.56535200  0.89710700  0.66061400  1
  C  C2  1  0.99669100  0.50485500  0.20858400  1
  C  C3  1  0.71013100  0.49514500  0.79141600  1
  C  C4  1  0.15935000  0.50000000  0.50000000  1
  C  C5  1  0.75052600  0.00000000  0.00000000  1
  C  C6  1  0.63361200  0.22880400  0.23072600  1
  C  C7  1  0.09314200  0.77119600  0.76927400  1
  C  C8  1  0.73751400  0.24481400  0.58383800  1
  C  C9  1  0.56616600  0.75518600  0.41616200  1
  C  C10  1  0.23113200  0.31683000  0.92249100  1
  C  C11  1  0.47045300  0.68317000  0.07750900  1
  C  C12  1  0.18718000  0.20487600  0.55717700  1
  C  C13  1  0.94923300  0.79512400  0.44282300  1
  C  C14  1  0.10839000  0.22319000  0.65938200  1
  C  C15  1  0.99096200  0.77681000  0.34061800  1
  C  C16  1  0.23332900  0.03857300  0.90036400  1
  C  C17  1  0.17226600  0.96142700  0.09963600  1
  C  C18  1  0.05779200  0.13452800  0.86457000  1
  C  C19  1  0.05688900  0.86547200  0.13543000  1
  Ni  Ni20  1  0.78111300  0.39173300  0.40542200  1
  Ni  Ni21  1  0.57826700  0.60826700  0.59457800  1
  Ni  Ni22  1  0.20160700  0.20659500  0.11182000  1
  Ni  Ni23  1  0.52002200  0.79340500  0.88818000  1
  Ni  Ni24  1  0.01898800  0.64353500  0.00227800  1
  Ni  Ni25  1  0.66480100  0.35646500  0.99772200  1
  Ni  Ni26  1  0.71354900  0.13943800  0.77644000  1
  Ni  Ni27  1  0.62942700  0.86056200  0.22356000  1
  Ni  Ni28  1  0.24533900  0.40789400  0.72679700  1
  Ni  Ni29  1  0.38003100  0.59210600  0.27320300  1
  Ni  Ni30  1  0.56489800  0.07700900  0.45251500  1
  Ni  Ni31  1  0.09442200  0.92299100  0.54748500  1
  Cu  Cu32  1  0.07399300  0.24769500  0.60218900  1
  Cu  Cu33  1  0.92387700  0.75230500  0.39781100  1
  Cu  Cu34  1  0.13625300  0.12428800  0.90913700  1
  Cu  Cu35  1  0.16967900  0.87571200  0.09086300  1
  Cu  Cu36  1  0.77296100  0.52729900  0.39699800  1
  Cu  Cu37  1  0.69725800  0.47270100  0.60300200  1
  Cu  Cu38  1  0.94038100  0.31761200  0.45480000  1
  Cu  Cu39  1  0.71279200  0.68238800  0.54520000  1
  Cu  Cu40  1  0.82491300  0.34095300  0.31882500  1
  Cu  Cu41  1  0.48469100  0.65904700  0.68117500  1
  Cu  Cu42  1  0.59605500  0.37241400  0.46254000  1
  Cu  Cu43  1  0.43100900  0.62758600  0.53746000  1
  Cu  Cu44  1  0.07489300  0.32982300  0.07469000  1
  Cu  Cu45  1  0.47940600  0.67017700  0.92531000  1
  Cu  Cu46  1  0.08437000  0.12085300  0.14859500  1
  Cu  Cu47  1  0.35381900  0.87914700  0.85140500  1
  Cu  Cu48  1  0.35175300  0.15271100  0.03022600  1
  Cu  Cu49  1  0.53469100  0.84728900  0.96977400  1
  Cu  Cu50  1  0.29275600  0.23570700  0.17722800  1
  Cu  Cu51  1  0.70569100  0.76429300  0.82277200  1
  Cu  Cu52  1  0.15235200  0.62854700  0.06380700  1
  Cu  Cu53  1  0.84470600  0.37145300  0.93619300  1
  Cu  Cu54  1  0.99801100  0.75983900  0.94830300  1
  Cu  Cu55  1  0.70615300  0.24016100  0.05169700  1
  Cu  Cu56  1  0.82120400  0.63829200  0.05552400  1
  Cu  Cu57  1  0.51501900  0.36170800  0.94447600  1
  Cu  Cu58  1  0.09824200  0.53077600  0.94486000  1
  Cu  Cu59  1  0.57387800  0.46922400  0.05514000  1
  Cu  Cu60  1  0.52052500  0.16478500  0.83952100  1
  Cu  Cu61  1  0.52483100  0.83521500  0.16047900  1
  Cu  Cu62  1  0.74916300  0.26122800  0.73625700  1
  Cu  Cu63  1  0.74664700  0.73877200  0.26374300  1
  Cu  Cu64  1  0.70409700  0.07665000  0.69856300  1
  Cu  Cu65  1  0.47931000  0.92335000  0.30143700  1
  Cu  Cu66  1  0.87456800  0.06225800  0.81880200  1
  Cu  Cu67  1  0.75562800  0.93774200  0.18119800  1
  Cu  Cu68  1  0.39776400  0.33836800  0.65255300  1
  Cu  Cu69  1  0.38868500  0.66163200  0.34744700  1
  Cu  Cu70  1  0.34372200  0.43807500  0.79153400  1
  Cu  Cu71  1  0.57333000  0.56192500  0.20846600  1
  Cu  Cu72  1  0.13671900  0.31973900  0.77780600  1
  Cu  Cu73  1  0.23426400  0.68026100  0.22219400  1
  Cu  Cu74  1  0.10879200  0.52100400  0.69339700  1
  Cu  Cu75  1  0.32319300  0.47899600  0.30660300  1
  Cu  Cu76  1  0.57383600  0.93928700  0.47263300  1
  Cu  Cu77  1  0.98575600  0.06071300  0.52736700  1
  Cu  Cu78  1  0.57233000  0.12290700  0.53881600  1
  Cu  Cu79  1  0.23405300  0.87709300  0.46118400  1
  Cu  Cu80  1  0.37382900  0.15143300  0.43083800  1
  Cu  Cu81  1  0.95610000  0.84856700  0.56916200  1
  Cu  Cu82  1  0.73573300  0.08463900  0.38469000  1
  Cu  Cu83  1  0.20506200  0.91536100  0.61531000  1
