# generated using pymatgen
data_Cu(NiC4)3
_symmetry_space_group_name_H-M   'P 1'
_cell_length_a   6.56876604
_cell_length_b   6.56876604
_cell_length_c   9.98047800
_cell_angle_alpha   90.00000000
_cell_angle_beta   90.00000000
_cell_angle_gamma   114.22648641
_symmetry_Int_Tables_number   1
_chemical_formula_structural   Cu(NiC4)3
_chemical_formula_sum   'Cu2 Ni6 C24'
_cell_volume   392.71788547
_cell_formula_units_Z   2
loop_
 _symmetry_equiv_pos_site_id
 _symmetry_equiv_pos_as_xyz
  1  'x, y, z'
loop_
 _atom_site_type_symbol
 _atom_site_label
 _atom_site_symmetry_multiplicity
 _atom_site_fract_x
 _atom_site_fract_y
 _atom_site_fract_z
 _atom_site_occupancy
  Ni  Ni0  1  0.40491600  0.36812900  0.25000000  1
  Ni  Ni1  1  0.36812900  0.40491600  0.75000000  1
  Ni  Ni2  1  0.79689000  0.20554700  0.25000000  1
  Ni  Ni3  1  0.20554700  0.79689000  0.75000000  1
  Ni  Ni4  1  0.06868500  0.06868500  0.00000000  1
  Ni  Ni5  1  0.06868500  0.06868500  0.50000000  1
  Cu  Cu6  1  0.22625600  0.77141200  0.25000000  1
  Cu  Cu7  1  0.77141200  0.22625600  0.75000000  1
  C  C8  1  0.78558200  0.76164800  0.25000000  1
  C  C9  1  0.76164800  0.78558200  0.75000000  1
  C  C10  1  0.11979300  0.53305200  0.00121000  1
  C  C11  1  0.53305200  0.11979300  0.99879000  1
  C  C12  1  0.11979300  0.53305200  0.49879000  1
  C  C13  1  0.53305200  0.11979300  0.50121000  1
  C  C14  1  0.59173100  0.76761900  0.25000000  1
  C  C15  1  0.76761900  0.59173100  0.75000000  1
  C  C16  1  0.81012800  0.57582200  0.25000000  1
  C  C17  1  0.57582200  0.81012800  0.75000000  1
  C  C18  1  0.10619600  0.72237600  0.01220700  1
  C  C19  1  0.72237600  0.10619600  0.98779300  1
  C  C20  1  0.10619600  0.72237600  0.48779300  1
  C  C21  1  0.72237600  0.10619600  0.51220700  1
  C  C22  1  0.96965500  0.94767600  0.25000000  1
  C  C23  1  0.94767600  0.96965500  0.75000000  1
  C  C24  1  0.43377600  0.09885500  0.11339700  1
  C  C25  1  0.09885500  0.43377600  0.88660300  1
  C  C26  1  0.43377600  0.09885500  0.38660300  1
  C  C27  1  0.09885500  0.43377600  0.61339700  1
  C  C28  1  0.16118000  0.44551300  0.10979200  1
  C  C29  1  0.44551300  0.16118000  0.89020800  1
  C  C30  1  0.16118000  0.44551300  0.39020800  1
  C  C31  1  0.44551300  0.16118000  0.60979200  1
