# generated using pymatgen
data_Cu(NiC7)2
_symmetry_space_group_name_H-M   'P 1'
_cell_length_a   12.57991500
_cell_length_b   9.35235800
_cell_length_c   9.52099600
_cell_angle_alpha   90.00000000
_cell_angle_beta   90.00000000
_cell_angle_gamma   90.00000000
_symmetry_Int_Tables_number   1
_chemical_formula_structural   Cu(NiC7)2
_chemical_formula_sum   'Cu4 Ni8 C56'
_cell_volume   1120.16297119
_cell_formula_units_Z   4
loop_
 _symmetry_equiv_pos_site_id
 _symmetry_equiv_pos_as_xyz
  1  'x, y, z'
loop_
 _atom_site_type_symbol
 _atom_site_label
 _atom_site_symmetry_multiplicity
 _atom_site_fract_x
 _atom_site_fract_y
 _atom_site_fract_z
 _atom_site_occupancy
  Ni  Ni0  1  0.13020600  0.72490700  0.45299300  1
  Ni  Ni1  1  0.63020600  0.77509300  0.54700700  1
  Ni  Ni2  1  0.13020600  0.27509300  0.95299300  1
  Ni  Ni3  1  0.36979400  0.77509300  0.95299300  1
  Ni  Ni4  1  0.63020600  0.22490700  0.04700700  1
  Ni  Ni5  1  0.36979400  0.22490700  0.45299300  1
  Ni  Ni6  1  0.86979400  0.27509300  0.54700700  1
  Ni  Ni7  1  0.86979400  0.72490700  0.04700700  1
  C  C8  1  0.14285500  0.38139900  0.60373600  1
  C  C9  1  0.85714500  0.38139900  0.89626400  1
  C  C10  1  0.35714500  0.11860100  0.10373600  1
  C  C11  1  0.64285500  0.11860100  0.39626400  1
  C  C12  1  0.85714500  0.61860100  0.39626400  1
  C  C13  1  0.14285500  0.61860100  0.10373600  1
  C  C14  1  0.64285500  0.88139900  0.89626400  1
  C  C15  1  0.35714500  0.88139900  0.60373600  1
  Cu  Cu16  1  0.50000000  0.53846000  0.25000000  1
  Cu  Cu17  1  0.50000000  0.46154000  0.75000000  1
  Cu  Cu18  1  0.00000000  0.03846000  0.25000000  1
  Cu  Cu19  1  0.00000000  0.96154000  0.75000000  1
  C  C20  1  0.67271800  0.14192400  0.23994400  1
  C  C21  1  0.32728200  0.14192400  0.26005600  1
  C  C22  1  0.82728200  0.35807600  0.73994400  1
  C  C23  1  0.17271800  0.35807600  0.76005600  1
  C  C24  1  0.32728200  0.85807600  0.76005600  1
  C  C25  1  0.67271800  0.85807600  0.73994400  1
  C  C26  1  0.17271800  0.64192400  0.26005600  1
  C  C27  1  0.82728200  0.64192400  0.23994400  1
  C  C28  1  0.59348700  0.42556600  0.15760400  1
  C  C29  1  0.40651300  0.42556600  0.34239600  1
  C  C30  1  0.90651300  0.07443400  0.65760400  1
  C  C31  1  0.09348700  0.07443400  0.84239600  1
  C  C32  1  0.40651300  0.57443400  0.84239600  1
  C  C33  1  0.59348700  0.57443400  0.65760400  1
  C  C34  1  0.09348700  0.92556600  0.34239600  1
  C  C35  1  0.90651300  0.92556600  0.15760400  1
  C  C36  1  0.22029500  0.70207000  0.00817400  1
  C  C37  1  0.22029500  0.29793000  0.50817400  1
  C  C38  1  0.72029500  0.20207000  0.49182600  1
  C  C39  1  0.27970500  0.20207000  0.00817400  1
  C  C40  1  0.92797900  0.84874300  0.87166100  1
  C  C41  1  0.07202100  0.84874300  0.62833900  1
  C  C42  1  0.57202100  0.65125700  0.37166100  1
  C  C43  1  0.42797900  0.65125700  0.12833900  1
  C  C44  1  0.07202100  0.15125700  0.12833900  1
  C  C45  1  0.92797900  0.15125700  0.37166100  1
  C  C46  1  0.42797900  0.34874300  0.62833900  1
  C  C47  1  0.57202100  0.34874300  0.87166100  1
  C  C48  1  0.84837200  0.54237000  0.93073500  1
  C  C49  1  0.15162800  0.54237000  0.56926500  1
  C  C50  1  0.65162800  0.95763000  0.43073500  1
  C  C51  1  0.34837200  0.95763000  0.06926500  1
  C  C52  1  0.15162800  0.45763000  0.06926500  1
  C  C53  1  0.84837200  0.45763000  0.43073500  1
  C  C54  1  0.34837200  0.04237000  0.56926500  1
  C  C55  1  0.65162800  0.04237000  0.93073500  1
  C  C56  1  0.02891600  0.67145800  0.07808200  1
  C  C57  1  0.97108400  0.67145800  0.42191800  1
  C  C58  1  0.47108400  0.82854200  0.57808200  1
  C  C59  1  0.52891600  0.82854200  0.92191800  1
  C  C60  1  0.97108400  0.32854200  0.92191800  1
  C  C61  1  0.02891600  0.32854200  0.57808200  1
  C  C62  1  0.52891600  0.17145800  0.42191800  1
  C  C63  1  0.47108400  0.17145800  0.07808200  1
  C  C64  1  0.72029500  0.79793000  0.99182600  1
  C  C65  1  0.27970500  0.79793000  0.50817400  1
  C  C66  1  0.77970500  0.70207000  0.49182600  1
  C  C67  1  0.77970500  0.29793000  0.99182600  1
