# generated using pymatgen
data_Cu2NiC
_symmetry_space_group_name_H-M   'P 1'
_cell_length_a   3.92452000
_cell_length_b   5.59567000
_cell_length_c   12.42091600
_cell_angle_alpha   90.00000000
_cell_angle_beta   90.00000000
_cell_angle_gamma   90.00000000
_symmetry_Int_Tables_number   1
_chemical_formula_structural   Cu2NiC
_chemical_formula_sum   'Cu8 Ni4 C4'
_cell_volume   272.76727550
_cell_formula_units_Z   4
loop_
 _symmetry_equiv_pos_site_id
 _symmetry_equiv_pos_as_xyz
  1  'x, y, z'
loop_
 _atom_site_type_symbol
 _atom_site_label
 _atom_site_symmetry_multiplicity
 _atom_site_fract_x
 _atom_site_fract_y
 _atom_site_fract_z
 _atom_site_occupancy
  C  C0  1  0.25000000  0.38282900  0.62865400  1
  C  C1  1  0.75000000  0.61717100  0.37134600  1
  C  C2  1  0.25000000  0.88282900  0.87134600  1
  C  C3  1  0.75000000  0.11717100  0.12865400  1
  Ni  Ni4  1  0.25000000  0.11920500  0.40013100  1
  Ni  Ni5  1  0.75000000  0.88079500  0.59986900  1
  Ni  Ni6  1  0.25000000  0.61920500  0.09986900  1
  Ni  Ni7  1  0.75000000  0.38079500  0.90013100  1
  Cu  Cu8  1  0.75000000  0.17367600  0.93821200  1
  Cu  Cu9  1  0.25000000  0.82632400  0.06178800  1
  Cu  Cu10  1  0.75000000  0.67367600  0.56178800  1
  Cu  Cu11  1  0.25000000  0.32632400  0.43821200  1
  Cu  Cu12  1  0.75000000  0.57972300  0.85889900  1
  Cu  Cu13  1  0.25000000  0.42027700  0.14110100  1
  Cu  Cu14  1  0.75000000  0.07972300  0.64110100  1
  Cu  Cu15  1  0.25000000  0.92027700  0.35889900  1
