# generated using pymatgen
data_Cu2Ni11C8
_symmetry_space_group_name_H-M   'P 1'
_cell_length_a   7.38493748
_cell_length_b   7.38493748
_cell_length_c   13.94467227
_cell_angle_alpha   89.11157898
_cell_angle_beta   89.11157898
_cell_angle_gamma   37.38706046
_symmetry_Int_Tables_number   1
_chemical_formula_structural   Cu2Ni11C8
_chemical_formula_sum   'Cu4 Ni22 C16'
_cell_volume   461.71391985
_cell_formula_units_Z   2
loop_
 _symmetry_equiv_pos_site_id
 _symmetry_equiv_pos_as_xyz
  1  'x, y, z'
loop_
 _atom_site_type_symbol
 _atom_site_label
 _atom_site_symmetry_multiplicity
 _atom_site_fract_x
 _atom_site_fract_y
 _atom_site_fract_z
 _atom_site_occupancy
  C  C0  1  0.45615900  0.42232600  0.37161900  1
  C  C1  1  0.57767400  0.54384100  0.12838100  1
  C  C2  1  0.54384100  0.57767400  0.62838100  1
  C  C3  1  0.42232600  0.45615900  0.87161900  1
  C  C4  1  0.73890800  0.70474800  0.37306400  1
  C  C5  1  0.29525200  0.26109200  0.12693600  1
  C  C6  1  0.26109200  0.29525200  0.62693600  1
  C  C7  1  0.70474800  0.73890800  0.87306400  1
  C  C8  1  0.06417600  0.11809800  0.28806900  1
  C  C9  1  0.88190200  0.93582400  0.21193100  1
  C  C10  1  0.93582400  0.88190200  0.71193100  1
  C  C11  1  0.11809800  0.06417600  0.78806900  1
  C  C12  1  0.86078200  0.94866500  0.52626200  1
  C  C13  1  0.05133500  0.13921800  0.97373800  1
  C  C14  1  0.13921800  0.05133500  0.47373800  1
  C  C15  1  0.94866500  0.86078200  0.02626200  1
  Ni  Ni16  1  0.95905500  0.21691400  0.39290600  1
  Ni  Ni17  1  0.78308600  0.04094500  0.10709400  1
  Ni  Ni18  1  0.04094500  0.78308600  0.60709400  1
  Ni  Ni19  1  0.21691400  0.95905500  0.89290600  1
  Ni  Ni20  1  0.65038400  0.00818100  0.25681600  1
  Ni  Ni21  1  0.99181900  0.34961600  0.24318400  1
  Ni  Ni22  1  0.34961600  0.99181900  0.74318400  1
  Ni  Ni23  1  0.00818100  0.65038400  0.75681600  1
  Ni  Ni24  1  0.59231300  0.25077200  0.53549800  1
  Ni  Ni25  1  0.74922800  0.40768700  0.96450200  1
  Ni  Ni26  1  0.40768700  0.74922800  0.46450200  1
  Ni  Ni27  1  0.25077200  0.59231300  0.03549800  1
  Ni  Ni28  1  0.84977000  0.15023000  0.25000000  1
  Ni  Ni29  1  0.15023000  0.84977000  0.75000000  1
  Ni  Ni30  1  0.94660000  0.82669800  0.43703300  1
  Ni  Ni31  1  0.17330200  0.05340000  0.06296700  1
  Ni  Ni32  1  0.05340000  0.17330200  0.56296700  1
  Ni  Ni33  1  0.82669800  0.94660000  0.93703300  1
  Ni  Ni34  1  0.37245300  0.82631300  0.27551800  1
  Ni  Ni35  1  0.17368700  0.62754700  0.22448200  1
  Ni  Ni36  1  0.62754700  0.17368700  0.72448200  1
  Ni  Ni37  1  0.82631300  0.37245300  0.77551800  1
  Cu  Cu38  1  0.29364800  0.24499700  0.42482900  1
  Cu  Cu39  1  0.75500300  0.70635200  0.07517100  1
  Cu  Cu40  1  0.70635200  0.75500300  0.57517100  1
  Cu  Cu41  1  0.24499700  0.29364800  0.92482900  1
