# generated using pymatgen
data_Cu2Ni3C
_symmetry_space_group_name_H-M   'P 1'
_cell_length_a   4.07663300
_cell_length_b   9.51754100
_cell_length_c   9.51754100
_cell_angle_alpha   119.99999306
_cell_angle_beta   90.00000000
_cell_angle_gamma   90.00000000
_symmetry_Int_Tables_number   1
_chemical_formula_structural   Cu2Ni3C
_chemical_formula_sum   'Cu6 Ni9 C3'
_cell_volume   319.80245301
_cell_formula_units_Z   3
loop_
 _symmetry_equiv_pos_site_id
 _symmetry_equiv_pos_as_xyz
  1  'x, y, z'
loop_
 _atom_site_type_symbol
 _atom_site_label
 _atom_site_symmetry_multiplicity
 _atom_site_fract_x
 _atom_site_fract_y
 _atom_site_fract_z
 _atom_site_occupancy
  C  C0  1  0.00000000  0.00000000  0.00000000  1
  C  C1  1  0.50000000  0.66666700  0.33333300  1
  C  C2  1  0.50000000  0.33333300  0.66666700  1
  Ni  Ni3  1  0.00000000  0.81669500  0.18330500  1
  Ni  Ni4  1  0.00000000  0.18330500  0.81669500  1
  Ni  Ni5  1  0.00000000  0.36661100  0.18330500  1
  Ni  Ni6  1  0.00000000  0.63338900  0.81669500  1
  Ni  Ni7  1  0.00000000  0.81669500  0.63338900  1
  Ni  Ni8  1  0.00000000  0.18330500  0.36661100  1
  Ni  Ni9  1  0.00000000  0.50000000  0.50000000  1
  Ni  Ni10  1  0.00000000  0.00000000  0.50000000  1
  Ni  Ni11  1  0.00000000  0.50000000  0.00000000  1
  Cu  Cu12  1  0.50000000  0.67875600  0.67875600  1
  Cu  Cu13  1  0.50000000  0.32124400  0.32124400  1
  Cu  Cu14  1  0.50000000  0.00000000  0.32124400  1
  Cu  Cu15  1  0.50000000  0.00000000  0.67875600  1
  Cu  Cu16  1  0.50000000  0.32124400  0.00000000  1
  Cu  Cu17  1  0.50000000  0.67875600  0.00000000  1
