# generated using pymatgen
data_CuNi5C7
_symmetry_space_group_name_H-M   'P 1'
_cell_length_a   7.77399725
_cell_length_b   10.82224060
_cell_length_c   16.10668752
_cell_angle_alpha   90.00000000
_cell_angle_beta   81.54869339
_cell_angle_gamma   90.00000000
_symmetry_Int_Tables_number   1
_chemical_formula_structural   CuNi5C7
_chemical_formula_sum   'Cu4 Ni20 C28'
_cell_volume   1340.37419660
_cell_formula_units_Z   4
loop_
 _symmetry_equiv_pos_site_id
 _symmetry_equiv_pos_as_xyz
  1  'x, y, z'
loop_
 _atom_site_type_symbol
 _atom_site_label
 _atom_site_symmetry_multiplicity
 _atom_site_fract_x
 _atom_site_fract_y
 _atom_site_fract_z
 _atom_site_occupancy
  C  C0  1  0.42109247  0.20202020  0.32193091  1
  C  C1  1  0.57890753  0.79797980  0.67806909  1
  C  C2  1  0.57890753  0.70202020  0.17806909  1
  C  C3  1  0.42109247  0.29797980  0.82193091  1
  C  C4  1  -0.00000000  0.00000000  0.50000000  1
  C  C5  1  -0.00000000  0.50000000  -0.00000000  1
  C  C6  1  -0.00000000  0.00000000  -0.00000000  1
  C  C7  1  -0.00000000  0.50000000  0.50000000  1
  Ni  Ni8  1  0.62105517  0.23137840  0.26509157  1
  Ni  Ni9  1  0.37894483  0.76862160  0.73490843  1
  Ni  Ni10  1  0.37894483  0.73137840  0.23490843  1
  Ni  Ni11  1  0.62105517  0.26862160  0.76509157  1
  Ni  Ni12  1  0.37510495  0.30875182  0.42386467  1
  Ni  Ni13  1  0.62489505  0.69124818  0.57613533  1
  Ni  Ni14  1  0.62489505  0.80875182  0.07613533  1
  Ni  Ni15  1  0.37510495  0.19124818  0.92386467  1
  Ni  Ni16  1  0.31338601  0.06829728  0.35043840  1
  Ni  Ni17  1  0.68661399  0.93170272  0.64956160  1
  Ni  Ni18  1  0.68661399  0.56829728  0.14956160  1
  Ni  Ni19  1  0.31338601  0.43170272  0.85043840  1
  Ni  Ni20  1  0.27277851  0.29035386  0.24287193  1
  Ni  Ni21  1  0.72722149  0.70964614  0.75712807  1
  Ni  Ni22  1  0.72722149  0.79035386  0.25712807  1
  Ni  Ni23  1  0.27277851  0.20964614  0.74287193  1
  Ni  Ni24  1  0.19886854  0.31811029  0.19152199  1
  Ni  Ni25  1  0.80113146  0.68188971  0.80847801  1
  Ni  Ni26  1  0.80113146  0.81811029  0.30847801  1
  Ni  Ni27  1  0.19886854  0.18188971  0.69152199  1
  C  C28  1  0.07282275  0.02167603  0.13313435  1
  C  C29  1  0.92717725  0.97832397  0.86686565  1
  C  C30  1  0.92717725  0.52167603  0.36686565  1
  C  C31  1  0.07282275  0.47832397  0.63313435  1
  C  C32  1  0.26074135  0.56698667  0.03909749  1
  C  C33  1  0.73925865  0.43301333  0.96090251  1
  C  C34  1  0.73925865  0.06698667  0.46090251  1
  C  C35  1  0.26074135  0.93301333  0.53909749  1
  C  C36  1  0.44036298  0.45473631  0.39570172  1
  C  C37  1  0.55963702  0.54526369  0.60429828  1
  C  C38  1  0.55963702  0.95473631  0.10429828  1
  C  C39  1  0.44036298  0.04526369  0.89570172  1
  C  C40  1  0.13017551  0.30876012  0.46092346  1
  C  C41  1  0.86982449  0.69123988  0.53907654  1
  C  C42  1  0.86982449  0.80876012  0.03907654  1
  C  C43  1  0.13017551  0.19123988  0.96092346  1
  C  C44  1  0.88658356  0.52110387  0.14105488  1
  C  C45  1  0.11341644  0.47889613  0.85894512  1
  C  C46  1  0.11341644  0.02110387  0.35894512  1
  C  C47  1  0.88658356  0.97889613  0.64105488  1
  Cu  Cu48  1  0.74258514  0.21073199  0.21531376  1
  Cu  Cu49  1  0.25741486  0.78926801  0.78468624  1
  Cu  Cu50  1  0.25741486  0.71073199  0.28468624  1
  Cu  Cu51  1  0.74258514  0.28926801  0.71531376  1
