# generated using pymatgen
data_Cu2NiC10
_symmetry_space_group_name_H-M   'P 1'
_cell_length_a   8.79836301
_cell_length_b   8.79836301
_cell_length_c   16.47690147
_cell_angle_alpha   60.88531828
_cell_angle_beta   60.88531828
_cell_angle_gamma   33.58185604
_symmetry_Int_Tables_number   1
_chemical_formula_structural   Cu2NiC10
_chemical_formula_sum   'Cu8 Ni4 C40'
_cell_volume   607.60358143
_cell_formula_units_Z   4
loop_
 _symmetry_equiv_pos_site_id
 _symmetry_equiv_pos_as_xyz
  1  'x, y, z'
loop_
 _atom_site_type_symbol
 _atom_site_label
 _atom_site_symmetry_multiplicity
 _atom_site_fract_x
 _atom_site_fract_y
 _atom_site_fract_z
 _atom_site_occupancy
  Ni  Ni0  1  0.73297900  0.81884000  0.12436900  1
  Ni  Ni1  1  0.18116000  0.26702100  0.37563100  1
  Ni  Ni2  1  0.81884000  0.73297900  0.62436900  1
  Ni  Ni3  1  0.26702100  0.18116000  0.87563100  1
  Cu  Cu4  1  0.56932500  0.67064300  0.03456400  1
  Cu  Cu5  1  0.32935700  0.43067500  0.46543600  1
  Cu  Cu6  1  0.43067500  0.32935700  0.96543600  1
  Cu  Cu7  1  0.00000000  0.00000000  0.00000000  1
  Cu  Cu8  1  0.67064300  0.56932500  0.53456400  1
  Cu  Cu9  1  0.69343700  0.30656300  0.75000000  1
  Cu  Cu10  1  0.30656300  0.69343700  0.25000000  1
  Cu  Cu11  1  0.00000000  0.00000000  0.50000000  1
  C  C12  1  0.36723700  0.42681300  0.14339800  1
  C  C13  1  0.78807500  0.88839500  0.38984000  1
  C  C14  1  0.63276300  0.57318700  0.85660200  1
  C  C15  1  0.88839500  0.78807500  0.88984000  1
  C  C16  1  0.42681300  0.36723700  0.64339800  1
  C  C17  1  0.57318700  0.63276300  0.35660200  1
  C  C18  1  0.21192500  0.11160500  0.61016000  1
  C  C19  1  0.11160500  0.21192500  0.11016000  1
  C  C20  1  0.90680000  0.31221000  0.89883000  1
  C  C21  1  0.34478600  0.16211700  0.08194100  1
  C  C22  1  0.31221000  0.90680000  0.39883000  1
  C  C23  1  0.90010000  0.84118300  0.46072600  1
  C  C24  1  0.39999300  0.77244200  0.93251100  1
  C  C25  1  0.94015100  0.87215400  0.28958200  1
  C  C26  1  0.15881700  0.09990000  0.03927400  1
  C  C27  1  0.17560800  0.46802300  0.89936800  1
  C  C28  1  0.09990000  0.15881700  0.53927400  1
  C  C29  1  0.83788300  0.65521400  0.41805900  1
  C  C30  1  0.53522500  0.48558100  0.85284800  1
  C  C31  1  0.28508800  0.33776500  0.73720700  1
  C  C32  1  0.65521400  0.83788300  0.91805900  1
  C  C33  1  0.46802300  0.17560800  0.39936800  1
  C  C34  1  0.09320000  0.68779000  0.10117000  1
  C  C35  1  0.46477500  0.51441900  0.14715200  1
  C  C36  1  0.33776500  0.28508800  0.23720700  1
  C  C37  1  0.84118300  0.90010000  0.96072600  1
  C  C38  1  0.48558100  0.53522500  0.35284800  1
  C  C39  1  0.71491200  0.66223500  0.26279300  1
  C  C40  1  0.53197700  0.82439200  0.60063200  1
  C  C41  1  0.77244200  0.39999300  0.43251100  1
  C  C42  1  0.82439200  0.53197700  0.10063200  1
  C  C43  1  0.87215400  0.94015100  0.78958200  1
  C  C44  1  0.16211700  0.34478600  0.58194100  1
  C  C45  1  0.68779000  0.09320000  0.60117000  1
  C  C46  1  0.66223500  0.71491200  0.76279300  1
  C  C47  1  0.22755800  0.60000700  0.56748900  1
  C  C48  1  0.60000700  0.22755800  0.06748900  1
  C  C49  1  0.12784600  0.05984900  0.21041800  1
  C  C50  1  0.05984900  0.12784600  0.71041800  1
  C  C51  1  0.51441900  0.46477500  0.64715200  1
