# generated using pymatgen
data_CuNiC7
_symmetry_space_group_name_H-M   'P 1'
_cell_length_a   7.75704724
_cell_length_b   8.72310502
_cell_length_c   9.15236567
_cell_angle_alpha   102.13287001
_cell_angle_beta   95.45954231
_cell_angle_gamma   106.15405029
_symmetry_Int_Tables_number   1
_chemical_formula_structural   CuNiC7
_chemical_formula_sum   'Cu6 Ni6 C42'
_cell_volume   573.72643443
_cell_formula_units_Z   6
loop_
 _symmetry_equiv_pos_site_id
 _symmetry_equiv_pos_as_xyz
  1  'x, y, z'
loop_
 _atom_site_type_symbol
 _atom_site_label
 _atom_site_symmetry_multiplicity
 _atom_site_fract_x
 _atom_site_fract_y
 _atom_site_fract_z
 _atom_site_occupancy
  C  C0  1  0.61054900  0.77540400  0.44411100  1
  C  C1  1  0.38945100  0.22459600  0.55588900  1
  Ni  Ni2  1  0.78888900  0.16277100  0.81908900  1
  Ni  Ni3  1  0.21111100  0.83722900  0.18091100  1
  Ni  Ni4  1  0.86882900  0.18530000  0.40685000  1
  Ni  Ni5  1  0.13117100  0.81470000  0.59315000  1
  Ni  Ni6  1  0.49008400  0.39349300  0.18726000  1
  Ni  Ni7  1  0.50991600  0.60650700  0.81274000  1
  C  C8  1  0.98719000  0.30044100  0.70036400  1
  C  C9  1  0.01281000  0.69955900  0.29963600  1
  C  C10  1  0.00113600  0.00411700  0.28681400  1
  C  C11  1  0.99886400  0.99588300  0.71318600  1
  C  C12  1  0.33260400  0.38048900  0.97003600  1
  C  C13  1  0.66739600  0.61951100  0.02996400  1
  C  C14  1  0.80995400  0.39610100  0.09914100  1
  C  C15  1  0.19004600  0.60389900  0.90085900  1
  C  C16  1  0.99855200  0.19952300  0.04598800  1
  C  C17  1  0.00144800  0.80047700  0.95401200  1
  C  C18  1  0.79038700  0.04430900  0.03953000  1
  C  C19  1  0.20961300  0.95569100  0.96047000  1
  C  C20  1  0.04424400  0.36855100  0.27233400  1
  C  C21  1  0.95575600  0.63144900  0.72766600  1
  C  C22  1  0.87407800  0.44325400  0.35370300  1
  C  C23  1  0.12592200  0.55674600  0.64629700  1
  C  C24  1  0.52501900  0.16086100  0.01283200  1
  C  C25  1  0.47498100  0.83913900  0.98716800  1
  C  C26  1  0.56142200  0.13839400  0.20466600  1
  C  C27  1  0.43857800  0.86160600  0.79533400  1
  Cu  Cu28  1  0.84970400  0.16642100  0.02006300  1
  Cu  Cu29  1  0.15029600  0.83357900  0.97993700  1
  Cu  Cu30  1  0.90125300  0.33384200  0.28820700  1
  Cu  Cu31  1  0.09874700  0.66615800  0.71179300  1
  Cu  Cu32  1  0.58638400  0.22358700  0.13080800  1
  Cu  Cu33  1  0.41361600  0.77641300  0.86919200  1
  C  C34  1  0.78849200  0.28609800  0.13205000  1
  C  C35  1  0.21150800  0.71390200  0.86795000  1
  C  C36  1  0.81316100  0.00298600  0.72933300  1
  C  C37  1  0.18683900  0.99701400  0.27066700  1
  C  C38  1  0.60277100  0.18398000  0.79326800  1
  C  C39  1  0.39722900  0.81602000  0.20673200  1
  C  C40  1  0.94759000  0.31816500  0.80423800  1
  C  C41  1  0.05241000  0.68183500  0.19576200  1
  C  C42  1  0.68337200  0.15474500  0.45416600  1
  C  C43  1  0.31662800  0.84525500  0.54583400  1
  C  C44  1  0.03505600  0.26257400  0.53158700  1
  C  C45  1  0.96494400  0.73742600  0.46841300  1
  C  C46  1  0.87259200  0.01441900  0.30521800  1
  C  C47  1  0.12740800  0.98558100  0.69478200  1
  C  C48  1  0.63188100  0.54769800  0.16931100  1
  C  C49  1  0.36811900  0.45230200  0.83068900  1
  C  C50  1  0.44395500  0.40563600  0.34460400  1
  C  C51  1  0.55604500  0.59436400  0.65539600  1
  C  C52  1  0.30943900  0.34179200  0.06713500  1
  C  C53  1  0.69056100  0.65820800  0.93286500  1
