# generated using pymatgen
data_Cu2NiC22
_symmetry_space_group_name_H-M   'P 1'
_cell_length_a   7.01066200
_cell_length_b   7.01066200
_cell_length_c   18.05232500
_cell_angle_alpha   90.00000000
_cell_angle_beta   90.00000000
_cell_angle_gamma   90.00000000
_symmetry_Int_Tables_number   1
_chemical_formula_structural   Cu2NiC22
_chemical_formula_sum   'Cu4 Ni2 C44'
_cell_volume   887.26061160
_cell_formula_units_Z   2
loop_
 _symmetry_equiv_pos_site_id
 _symmetry_equiv_pos_as_xyz
  1  'x, y, z'
loop_
 _atom_site_type_symbol
 _atom_site_label
 _atom_site_symmetry_multiplicity
 _atom_site_fract_x
 _atom_site_fract_y
 _atom_site_fract_z
 _atom_site_occupancy
  C  C0  1  0.75000000  0.75000000  0.55435700  1
  C  C1  1  0.25000000  0.25000000  0.44564300  1
  C  C2  1  0.75000000  0.75000000  0.05583000  1
  C  C3  1  0.25000000  0.25000000  0.94417000  1
  Ni  Ni4  1  0.75000000  0.75000000  0.31146500  1
  Ni  Ni5  1  0.25000000  0.25000000  0.68853500  1
  Cu  Cu6  1  0.75000000  0.25000000  0.00000000  1
  Cu  Cu7  1  0.25000000  0.75000000  0.00000000  1
  Cu  Cu8  1  0.75000000  0.25000000  0.50000000  1
  Cu  Cu9  1  0.25000000  0.75000000  0.50000000  1
  C  C10  1  0.75000000  0.75000000  0.65480300  1
  C  C11  1  0.25000000  0.25000000  0.34519700  1
  C  C12  1  0.75000000  0.75000000  0.45284200  1
  C  C13  1  0.25000000  0.25000000  0.54715800  1
  C  C14  1  0.75000000  0.75000000  0.95570400  1
  C  C15  1  0.25000000  0.25000000  0.04429600  1
  C  C16  1  0.75000000  0.75000000  0.15708900  1
  C  C17  1  0.25000000  0.25000000  0.84291100  1
  C  C18  1  0.57274300  0.25000000  0.94889400  1
  C  C19  1  0.92725700  0.25000000  0.94889400  1
  C  C20  1  0.25000000  0.57274300  0.94889400  1
  C  C21  1  0.25000000  0.92725700  0.94889400  1
  C  C22  1  0.42725700  0.75000000  0.05110600  1
  C  C23  1  0.07274300  0.75000000  0.05110600  1
  C  C24  1  0.75000000  0.42725700  0.05110600  1
  C  C25  1  0.75000000  0.07274300  0.05110600  1
  C  C26  1  0.57157100  0.25000000  0.44973400  1
  C  C27  1  0.92842900  0.25000000  0.44973400  1
  C  C28  1  0.25000000  0.57157100  0.44973400  1
  C  C29  1  0.25000000  0.92842900  0.44973400  1
  C  C30  1  0.42842900  0.75000000  0.55026600  1
  C  C31  1  0.07157100  0.75000000  0.55026600  1
  C  C32  1  0.75000000  0.42842900  0.55026600  1
  C  C33  1  0.75000000  0.07157100  0.55026600  1
  C  C34  1  0.85321900  0.85321900  0.81590100  1
  C  C35  1  0.64678100  0.85321900  0.81590100  1
  C  C36  1  0.85321900  0.64678100  0.81590100  1
  C  C37  1  0.64678100  0.64678100  0.81590100  1
  C  C38  1  0.14678100  0.14678100  0.18409900  1
  C  C39  1  0.35321900  0.14678100  0.18409900  1
  C  C40  1  0.14678100  0.35321900  0.18409900  1
  C  C41  1  0.35321900  0.35321900  0.18409900  1
  C  C42  1  0.07158800  0.07158800  0.69492400  1
  C  C43  1  0.42841200  0.07158800  0.69492400  1
  C  C44  1  0.07158800  0.42841200  0.69492400  1
  C  C45  1  0.42841200  0.42841200  0.69492400  1
  C  C46  1  0.92841200  0.92841200  0.30507600  1
  C  C47  1  0.57158800  0.92841200  0.30507600  1
  C  C48  1  0.92841200  0.57158800  0.30507600  1
  C  C49  1  0.57158800  0.57158800  0.30507600  1
