# generated using pymatgen
data_CuNi2C11
_symmetry_space_group_name_H-M   'P 1'
_cell_length_a   6.01304239
_cell_length_b   6.01304380
_cell_length_c   6.01303530
_cell_angle_alpha   60.12894127
_cell_angle_beta   119.87099645
_cell_angle_gamma   119.87079421
_symmetry_Int_Tables_number   1
_chemical_formula_structural   CuNi2C11
_chemical_formula_sum   'Cu1 Ni2 C11'
_cell_volume   154.18254040
_cell_formula_units_Z   1
loop_
 _symmetry_equiv_pos_site_id
 _symmetry_equiv_pos_as_xyz
  1  'x, y, z'
loop_
 _atom_site_type_symbol
 _atom_site_label
 _atom_site_symmetry_multiplicity
 _atom_site_fract_x
 _atom_site_fract_y
 _atom_site_fract_z
 _atom_site_occupancy
  Ni  Ni0  1  0.24941400  0.75058600  0.75058700  1
  Ni  Ni1  1  0.00058700  0.99941200  0.99941400  1
  C  C2  1  0.62500200  0.87500300  0.37500200  1
  C  C3  1  0.62500400  0.37501000  0.87499800  1
  C  C4  1  0.12498900  0.37499500  0.37499400  1
  Cu  Cu5  1  0.62500100  0.37499900  0.37500100  1
  C  C6  1  0.86312800  0.13687200  0.13687400  1
  C  C7  1  0.38687300  0.61312600  0.61312700  1
  C  C8  1  0.86484900  0.59155200  0.13515300  1
  C  C9  1  0.86484900  0.13515100  0.59155400  1
  C  C10  1  0.40844900  0.13515100  0.13515300  1
  C  C11  1  0.38515200  0.15844700  0.61484900  1
  C  C12  1  0.38515200  0.61484800  0.15844700  1
  C  C13  1  0.84155300  0.61484800  0.61484800  1
