# generated using pymatgen
data_CuNiC8
_symmetry_space_group_name_H-M   'P 1'
_cell_length_a   6.14831827
_cell_length_b   6.14831827
_cell_length_c   8.90923179
_cell_angle_alpha   90.00000000
_cell_angle_beta   90.00000000
_cell_angle_gamma   90.00000000
_symmetry_Int_Tables_number   1
_chemical_formula_structural   CuNiC8
_chemical_formula_sum   'Cu2 Ni2 C16'
_cell_volume   336.78515463
_cell_formula_units_Z   2
loop_
 _symmetry_equiv_pos_site_id
 _symmetry_equiv_pos_as_xyz
  1  'x, y, z'
loop_
 _atom_site_type_symbol
 _atom_site_label
 _atom_site_symmetry_multiplicity
 _atom_site_fract_x
 _atom_site_fract_y
 _atom_site_fract_z
 _atom_site_occupancy
  C  C0  1  -0.00000000  0.50000000  0.25000000  1
  C  C1  1  0.50000000  0.00000000  0.75000000  1
  Ni  Ni2  1  -0.00000000  0.00000000  0.50000000  1
  Ni  Ni3  1  0.50000000  0.50000000  -0.00000000  1
  Cu  Cu4  1  0.50000000  0.00000000  0.25000000  1
  Cu  Cu5  1  -0.00000000  0.50000000  0.75000000  1
  C  C6  1  -0.00000000  0.00000000  -0.00000000  1
  C  C7  1  0.50000000  0.50000000  0.50000000  1
  C  C8  1  -0.00000000  0.00000000  0.23704976  1
  C  C9  1  0.50000000  0.50000000  0.26295024  1
  C  C10  1  -0.00000000  0.00000000  0.76295024  1
  C  C11  1  0.50000000  0.50000000  0.73704976  1
  C  C12  1  0.31404507  0.14635751  0.02750307  1
  C  C13  1  0.68595493  0.85364249  0.02750307  1
  C  C14  1  0.85364249  0.31404507  0.97249693  1
  C  C15  1  0.14635751  0.68595493  0.97249693  1
  C  C16  1  0.81404507  0.35364249  0.52750307  1
  C  C17  1  0.18595493  0.64635751  0.52750307  1
  C  C18  1  0.35364249  0.18595493  0.47249693  1
  C  C19  1  0.64635751  0.81404507  0.47249693  1
