# generated using pymatgen
data_Cu14Ni3C2
_symmetry_space_group_name_H-M   'P 1'
_cell_length_a   8.34168389
_cell_length_b   8.34168389
_cell_length_c   8.14831100
_cell_angle_alpha   90.00000000
_cell_angle_beta   90.00000000
_cell_angle_gamma   119.97030251
_symmetry_Int_Tables_number   1
_chemical_formula_structural   Cu14Ni3C2
_chemical_formula_sum   'Cu28 Ni6 C4'
_cell_volume   491.17422628
_cell_formula_units_Z   2
loop_
 _symmetry_equiv_pos_site_id
 _symmetry_equiv_pos_as_xyz
  1  'x, y, z'
loop_
 _atom_site_type_symbol
 _atom_site_label
 _atom_site_symmetry_multiplicity
 _atom_site_fract_x
 _atom_site_fract_y
 _atom_site_fract_z
 _atom_site_occupancy
  C  C0  1  0.99992100  0.00007900  0.75000000  1
  C  C1  1  0.00007900  0.99992100  0.25000000  1
  C  C2  1  0.66671800  0.33328200  0.25000000  1
  C  C3  1  0.33328200  0.66671800  0.75000000  1
  Ni  Ni4  1  0.50000000  0.00000000  0.50000000  1
  Ni  Ni5  1  0.50000000  0.50000000  0.50000000  1
  Ni  Ni6  1  0.00000000  0.50000000  0.50000000  1
  Ni  Ni7  1  0.50000000  0.00000000  0.00000000  1
  Ni  Ni8  1  0.50000000  0.50000000  0.00000000  1
  Ni  Ni9  1  0.00000000  0.50000000  0.00000000  1
  Cu  Cu10  1  0.66675700  0.33324300  0.61009500  1
  Cu  Cu11  1  0.33324300  0.66675700  0.38990500  1
  Cu  Cu12  1  0.33324300  0.66675700  0.11009500  1
  Cu  Cu13  1  0.66675700  0.33324300  0.88990500  1
  Cu  Cu14  1  0.67347500  0.04460600  0.75000000  1
  Cu  Cu15  1  0.37114100  0.32655700  0.75000000  1
  Cu  Cu16  1  0.95564700  0.62886600  0.75000000  1
  Cu  Cu17  1  0.37113400  0.04435300  0.75000000  1
  Cu  Cu18  1  0.95539400  0.32652500  0.75000000  1
  Cu  Cu19  1  0.67344300  0.62885900  0.75000000  1
  Cu  Cu20  1  0.32652500  0.95539400  0.25000000  1
  Cu  Cu21  1  0.62885900  0.67344300  0.25000000  1
  Cu  Cu22  1  0.04435300  0.37113400  0.25000000  1
  Cu  Cu23  1  0.62886600  0.95564700  0.25000000  1
  Cu  Cu24  1  0.04460600  0.67347500  0.25000000  1
  Cu  Cu25  1  0.32655700  0.37114100  0.25000000  1
  Cu  Cu26  1  0.83755400  0.67498700  0.48517000  1
  Cu  Cu27  1  0.83748000  0.16252000  0.48524900  1
  Cu  Cu28  1  0.32501300  0.16244600  0.48517000  1
  Cu  Cu29  1  0.16244600  0.32501300  0.51483000  1
  Cu  Cu30  1  0.16252000  0.83748000  0.51475100  1
  Cu  Cu31  1  0.67498700  0.83755400  0.51483000  1
  Cu  Cu32  1  0.16244600  0.32501300  0.98517000  1
  Cu  Cu33  1  0.16252000  0.83748000  0.98524900  1
  Cu  Cu34  1  0.67498700  0.83755400  0.98517000  1
  Cu  Cu35  1  0.83755400  0.67498700  0.01483000  1
  Cu  Cu36  1  0.83748000  0.16252000  0.01475100  1
  Cu  Cu37  1  0.32501300  0.16244600  0.01483000  1
