# generated using pymatgen
data_Cu2NiC6
_symmetry_space_group_name_H-M   'P 1'
_cell_length_a   8.91471465
_cell_length_b   8.91471465
_cell_length_c   8.91471465
_cell_angle_alpha   126.55322796
_cell_angle_beta   126.55322796
_cell_angle_gamma   78.98075914
_symmetry_Int_Tables_number   1
_chemical_formula_structural   Cu2NiC6
_chemical_formula_sum   'Cu4 Ni2 C12'
_cell_volume   442.24465354
_cell_formula_units_Z   2
loop_
 _symmetry_equiv_pos_site_id
 _symmetry_equiv_pos_as_xyz
  1  'x, y, z'
loop_
 _atom_site_type_symbol
 _atom_site_label
 _atom_site_symmetry_multiplicity
 _atom_site_fract_x
 _atom_site_fract_y
 _atom_site_fract_z
 _atom_site_occupancy
  Ni  Ni0  1  0.25000000  0.25000000  0.00000000  1
  Ni  Ni1  1  0.75000000  0.75000000  0.00000000  1
  Cu  Cu2  1  0.33651800  0.16348200  0.50000000  1
  Cu  Cu3  1  0.16348200  0.66348200  0.82696400  1
  Cu  Cu4  1  0.83651800  0.33651800  0.17303600  1
  Cu  Cu5  1  0.66348200  0.83651800  0.50000000  1
  C  C6  1  0.75000000  0.25000000  0.50000000  1
  C  C7  1  0.25000000  0.75000000  0.50000000  1
  C  C8  1  0.48595700  0.98595700  0.20104200  1
  C  C9  1  0.21508500  0.71508500  0.20104200  1
  C  C10  1  0.51404300  0.01404300  0.79895800  1
  C  C11  1  0.01404300  0.21508500  0.50000000  1
  C  C12  1  0.71508500  0.51404300  0.50000000  1
  C  C13  1  0.98595700  0.78491500  0.50000000  1
  C  C14  1  0.28491500  0.48595700  0.50000000  1
  C  C15  1  0.78491500  0.28491500  0.79895800  1
  C  C16  1  0.50000000  0.50000000  0.00000000  1
  C  C17  1  0.00000000  0.00000000  0.00000000  1
