# generated using pymatgen
data_Cu10Ni10C3
_symmetry_space_group_name_H-M   'P 1'
_cell_length_a   6.82291942
_cell_length_b   6.82291942
_cell_length_c   15.33552355
_cell_angle_alpha   83.09066925
_cell_angle_beta   83.09066925
_cell_angle_gamma   100.56813385
_symmetry_Int_Tables_number   1
_chemical_formula_structural   Cu10Ni10C3
_chemical_formula_sum   'Cu10 Ni10 C3'
_cell_volume   689.24383040
_cell_formula_units_Z   1
loop_
 _symmetry_equiv_pos_site_id
 _symmetry_equiv_pos_as_xyz
  1  'x, y, z'
loop_
 _atom_site_type_symbol
 _atom_site_label
 _atom_site_symmetry_multiplicity
 _atom_site_fract_x
 _atom_site_fract_y
 _atom_site_fract_z
 _atom_site_occupancy
  C  C0  1  0.73051200  0.73051200  0.75270800  1
  C  C1  1  0.26948800  0.26948800  0.24729200  1
  C  C2  1  0.00000000  0.00000000  0.00000000  1
  Ni  Ni3  1  0.50287600  0.50287600  0.74460300  1
  Ni  Ni4  1  0.49712400  0.49712400  0.25539700  1
  Ni  Ni5  1  0.60252700  0.87868700  0.81296000  1
  Ni  Ni6  1  0.87868700  0.60252700  0.81296000  1
  Ni  Ni7  1  0.39747300  0.12131300  0.18704000  1
  Ni  Ni8  1  0.12131300  0.39747300  0.18704000  1
  Ni  Ni9  1  0.46817000  0.92178300  0.51689400  1
  Ni  Ni10  1  0.92178300  0.46817000  0.51689400  1
  Ni  Ni11  1  0.53183000  0.07821700  0.48310600  1
  Ni  Ni12  1  0.07821700  0.53183000  0.48310600  1
  Cu  Cu13  1  0.05103100  0.05103100  0.84498400  1
  Cu  Cu14  1  0.94896900  0.94896900  0.15501600  1
  Cu  Cu15  1  0.88803300  0.88803300  0.61617800  1
  Cu  Cu16  1  0.11196700  0.11196700  0.38382200  1
  Cu  Cu17  1  0.26370600  0.26370600  0.00089500  1
  Cu  Cu18  1  0.73629400  0.73629400  0.99910500  1
  Cu  Cu19  1  0.21820900  0.78179100  0.00000000  1
  Cu  Cu20  1  0.78179100  0.21820900  0.00000000  1
  Cu  Cu21  1  0.46377300  0.46377300  0.64274400  1
  Cu  Cu22  1  0.53622700  0.53622700  0.35725600  1
