# generated using pymatgen
data_CuNi2C11
_symmetry_space_group_name_H-M   'P 1'
_cell_length_a   6.16339700
_cell_length_b   9.69581900
_cell_length_c   15.20983800
_cell_angle_alpha   90.00000000
_cell_angle_beta   90.00000000
_cell_angle_gamma   90.00000000
_symmetry_Int_Tables_number   1
_chemical_formula_structural   CuNi2C11
_chemical_formula_sum   'Cu4 Ni8 C44'
_cell_volume   908.92747323
_cell_formula_units_Z   4
loop_
 _symmetry_equiv_pos_site_id
 _symmetry_equiv_pos_as_xyz
  1  'x, y, z'
loop_
 _atom_site_type_symbol
 _atom_site_label
 _atom_site_symmetry_multiplicity
 _atom_site_fract_x
 _atom_site_fract_y
 _atom_site_fract_z
 _atom_site_occupancy
  C  C0  1  0.75000000  0.13761500  0.53671500  1
  C  C1  1  0.75000000  0.36238500  0.03671500  1
  C  C2  1  0.25000000  0.86238500  0.46328500  1
  C  C3  1  0.25000000  0.63761500  0.96328500  1
  C  C4  1  0.75000000  0.45382800  0.75362300  1
  C  C5  1  0.75000000  0.04617200  0.25362300  1
  C  C6  1  0.25000000  0.54617200  0.24637700  1
  C  C7  1  0.25000000  0.95382800  0.74637700  1
  Ni  Ni8  1  0.25000000  0.28559100  0.63413800  1
  Ni  Ni9  1  0.25000000  0.21440900  0.13413800  1
  Ni  Ni10  1  0.75000000  0.71440900  0.36586200  1
  Ni  Ni11  1  0.75000000  0.78559100  0.86586200  1
  Ni  Ni12  1  0.25000000  0.28720900  0.87025600  1
  Ni  Ni13  1  0.25000000  0.21279100  0.37025600  1
  Ni  Ni14  1  0.75000000  0.71279100  0.12974400  1
  Ni  Ni15  1  0.75000000  0.78720900  0.62974400  1
  Cu  Cu16  1  0.00000000  0.50000000  0.50000000  1
  Cu  Cu17  1  0.50000000  0.00000000  0.00000000  1
  Cu  Cu18  1  0.50000000  0.50000000  0.50000000  1
  Cu  Cu19  1  0.00000000  0.00000000  0.00000000  1
  C  C20  1  0.25000000  0.61623600  0.75620300  1
  C  C21  1  0.25000000  0.88376400  0.25620300  1
  C  C22  1  0.75000000  0.38376400  0.24379700  1
  C  C23  1  0.75000000  0.11623600  0.74379700  1
  C  C24  1  0.25000000  0.12622400  0.58943900  1
  C  C25  1  0.25000000  0.37377600  0.08943900  1
  C  C26  1  0.75000000  0.87377600  0.41056100  1
  C  C27  1  0.75000000  0.62622400  0.91056100  1
  C  C28  1  0.01233000  0.36870000  0.60195300  1
  C  C29  1  0.48767000  0.13130000  0.10195300  1
  C  C30  1  0.51233000  0.63130000  0.39804700  1
  C  C31  1  0.98767000  0.86870000  0.89804700  1
  C  C32  1  0.98767000  0.63130000  0.39804700  1
  C  C33  1  0.51233000  0.86870000  0.89804700  1
  C  C34  1  0.48767000  0.36870000  0.60195300  1
  C  C35  1  0.01233000  0.13130000  0.10195300  1
  C  C36  1  0.47582400  0.38011700  0.89875700  1
  C  C37  1  0.02417600  0.11988300  0.39875700  1
  C  C38  1  0.97582400  0.61988300  0.10124300  1
  C  C39  1  0.52417600  0.88011700  0.60124300  1
  C  C40  1  0.52417600  0.61988300  0.10124300  1
  C  C41  1  0.97582400  0.88011700  0.60124300  1
  C  C42  1  0.02417600  0.38011700  0.89875700  1
  C  C43  1  0.47582400  0.11988300  0.39875700  1
  C  C44  1  0.25000000  0.25404200  0.75081100  1
  C  C45  1  0.25000000  0.24595800  0.25081100  1
  C  C46  1  0.75000000  0.74595800  0.24918900  1
  C  C47  1  0.75000000  0.75404200  0.74918900  1
  C  C48  1  0.75000000  0.62787200  0.58211000  1
  C  C49  1  0.75000000  0.87212800  0.08211000  1
  C  C50  1  0.25000000  0.37212800  0.41789000  1
  C  C51  1  0.25000000  0.12787200  0.91789000  1
  C  C52  1  0.25000000  0.58560200  0.53371500  1
  C  C53  1  0.25000000  0.91439800  0.03371500  1
  C  C54  1  0.75000000  0.41439800  0.46628500  1
  C  C55  1  0.75000000  0.08560200  0.96628500  1
