# generated using pymatgen
data_Cu3NiC2
_symmetry_space_group_name_H-M   'P 1'
_cell_length_a   3.22249789
_cell_length_b   3.22249789
_cell_length_c   36.37688900
_cell_angle_alpha   90.00000000
_cell_angle_beta   90.00000000
_cell_angle_gamma   119.99999766
_symmetry_Int_Tables_number   1
_chemical_formula_structural   Cu3NiC2
_chemical_formula_sum   'Cu6 Ni2 C4'
_cell_volume   327.14589792
_cell_formula_units_Z   2
loop_
 _symmetry_equiv_pos_site_id
 _symmetry_equiv_pos_as_xyz
  1  'x, y, z'
loop_
 _atom_site_type_symbol
 _atom_site_label
 _atom_site_symmetry_multiplicity
 _atom_site_fract_x
 _atom_site_fract_y
 _atom_site_fract_z
 _atom_site_occupancy
  C  C0  1  0.00000000  0.00000000  0.09390800  1
  C  C1  1  0.00000000  0.00000000  0.46965400  1
  C  C2  1  0.33333300  0.66666700  0.28180000  1
  C  C3  1  0.33333300  0.66666700  0.65756700  1
  Ni  Ni4  1  0.00000000  0.00000000  0.70485800  1
  Ni  Ni5  1  0.00000000  0.00000000  0.61026700  1
  Cu  Cu6  1  0.00000000  0.00000000  0.32469300  1
  Cu  Cu7  1  0.33333300  0.66666700  0.05118500  1
  Cu  Cu8  1  0.33333300  0.66666700  0.42676400  1
  Cu  Cu9  1  0.33333300  0.66666700  0.13663400  1
  Cu  Cu10  1  0.33333300  0.66666700  0.51252900  1
  Cu  Cu11  1  0.00000000  0.00000000  0.23888900  1
