# generated using pymatgen
data_Cu3NiC12
_symmetry_space_group_name_H-M   'P 1'
_cell_length_a   11.54568294
_cell_length_b   11.54568294
_cell_length_c   12.51423300
_cell_angle_alpha   90.00000000
_cell_angle_beta   90.00000000
_cell_angle_gamma   120.00000538
_symmetry_Int_Tables_number   1
_chemical_formula_structural   Cu3NiC12
_chemical_formula_sum   'Cu18 Ni6 C72'
_cell_volume   1444.68811119
_cell_formula_units_Z   6
loop_
 _symmetry_equiv_pos_site_id
 _symmetry_equiv_pos_as_xyz
  1  'x, y, z'
loop_
 _atom_site_type_symbol
 _atom_site_label
 _atom_site_symmetry_multiplicity
 _atom_site_fract_x
 _atom_site_fract_y
 _atom_site_fract_z
 _atom_site_occupancy
  C  C0  1  0.66666700  0.33333300  0.56453500  1
  C  C1  1  0.33333300  0.66666700  0.06453500  1
  C  C2  1  0.33333300  0.66666700  0.43546500  1
  C  C3  1  0.66666700  0.33333300  0.93546500  1
  C  C4  1  0.00000000  0.00000000  0.50000000  1
  C  C5  1  0.00000000  0.00000000  0.00000000  1
  C  C6  1  0.36635000  0.03318600  0.75000000  1
  C  C7  1  0.96681400  0.33316400  0.75000000  1
  C  C8  1  0.66683600  0.63365000  0.75000000  1
  C  C9  1  0.63365000  0.96681400  0.25000000  1
  C  C10  1  0.03318600  0.66683600  0.25000000  1
  C  C11  1  0.33316400  0.36635000  0.25000000  1
  Ni  Ni12  1  0.55799400  0.06772300  0.75000000  1
  Ni  Ni13  1  0.93227700  0.49027100  0.75000000  1
  Ni  Ni14  1  0.50972900  0.44200600  0.75000000  1
  Ni  Ni15  1  0.44200600  0.93227700  0.25000000  1
  Ni  Ni16  1  0.06772300  0.50972900  0.25000000  1
  Ni  Ni17  1  0.49027100  0.55799400  0.25000000  1
  Cu  Cu18  1  0.31535000  0.93919000  0.64162400  1
  Cu  Cu19  1  0.06081000  0.37616000  0.64162400  1
  Cu  Cu20  1  0.62384000  0.68465000  0.64162400  1
  Cu  Cu21  1  0.68465000  0.06081000  0.14162400  1
  Cu  Cu22  1  0.93919000  0.62384000  0.14162400  1
  Cu  Cu23  1  0.37616000  0.31535000  0.14162400  1
  Cu  Cu24  1  0.68465000  0.06081000  0.35837600  1
  Cu  Cu25  1  0.93919000  0.62384000  0.35837600  1
  Cu  Cu26  1  0.37616000  0.31535000  0.35837600  1
  Cu  Cu27  1  0.31535000  0.93919000  0.85837600  1
  Cu  Cu28  1  0.06081000  0.37616000  0.85837600  1
  Cu  Cu29  1  0.62384000  0.68465000  0.85837600  1
  Cu  Cu30  1  0.30522000  0.13468300  0.75000000  1
  Cu  Cu31  1  0.86531700  0.17053700  0.75000000  1
  Cu  Cu32  1  0.82946300  0.69478000  0.75000000  1
  Cu  Cu33  1  0.69478000  0.86531700  0.25000000  1
  Cu  Cu34  1  0.13468300  0.82946300  0.25000000  1
  Cu  Cu35  1  0.17053700  0.30522000  0.25000000  1
  C  C36  1  0.51241500  0.11909600  0.75000000  1
  C  C37  1  0.88090400  0.39331900  0.75000000  1
  C  C38  1  0.60668100  0.48758500  0.75000000  1
  C  C39  1  0.48758500  0.88090400  0.25000000  1
  C  C40  1  0.11909600  0.60668100  0.25000000  1
  C  C41  1  0.39331900  0.51241500  0.25000000  1
  C  C42  1  0.17861600  0.85990000  0.62951600  1
  C  C43  1  0.14010000  0.31871600  0.62951600  1
  C  C44  1  0.68128400  0.82138400  0.62951600  1
  C  C45  1  0.82138400  0.14010000  0.12951600  1
  C  C46  1  0.85990000  0.68128400  0.12951600  1
  C  C47  1  0.31871600  0.17861600  0.12951600  1
  C  C48  1  0.82138400  0.14010000  0.37048400  1
  C  C49  1  0.85990000  0.68128400  0.37048400  1
  C  C50  1  0.31871600  0.17861600  0.37048400  1
  C  C51  1  0.17861600  0.85990000  0.87048400  1
  C  C52  1  0.14010000  0.31871600  0.87048400  1
  C  C53  1  0.68128400  0.82138400  0.87048400  1
  C  C54  1  0.36498600  0.85194800  0.63501400  1
  C  C55  1  0.14805200  0.51303800  0.63501400  1
  C  C56  1  0.48696200  0.63501400  0.63501400  1
  C  C57  1  0.63501400  0.14805200  0.13501400  1
  C  C58  1  0.85194800  0.48696200  0.13501400  1
  C  C59  1  0.51303800  0.36498600  0.13501400  1
  C  C60  1  0.63501400  0.14805200  0.36498600  1
  C  C61  1  0.85194800  0.48696200  0.36498600  1
  C  C62  1  0.51303800  0.36498600  0.36498600  1
  C  C63  1  0.36498600  0.85194800  0.86498600  1
  C  C64  1  0.14805200  0.51303800  0.86498600  1
  C  C65  1  0.48696200  0.63501400  0.86498600  1
  C  C66  1  0.35905000  0.01405800  0.54852900  1
  C  C67  1  0.98594200  0.34499300  0.54852900  1
  C  C68  1  0.65500700  0.64095000  0.54852900  1
  C  C69  1  0.64095000  0.98594200  0.04852900  1
  C  C70  1  0.01405800  0.65500700  0.04852900  1
  C  C71  1  0.34499300  0.35905000  0.04852900  1
  C  C72  1  0.64095000  0.98594200  0.45147100  1
  C  C73  1  0.01405800  0.65500700  0.45147100  1
  C  C74  1  0.34499300  0.35905000  0.45147100  1
  C  C75  1  0.35905000  0.01405800  0.95147100  1
  C  C76  1  0.98594200  0.34499300  0.95147100  1
  C  C77  1  0.65500700  0.64095000  0.95147100  1
  C  C78  1  0.16709700  0.07219400  0.75000000  1
  C  C79  1  0.92780600  0.09490400  0.75000000  1
  C  C80  1  0.90509600  0.83290300  0.75000000  1
  C  C81  1  0.83290300  0.92780600  0.25000000  1
  C  C82  1  0.07219400  0.90509600  0.25000000  1
  C  C83  1  0.09490400  0.16709700  0.25000000  1
  C  C84  1  0.34530600  0.21921800  0.66224200  1
  C  C85  1  0.78078200  0.12608800  0.66224200  1
  C  C86  1  0.87391200  0.65469400  0.66224200  1
  C  C87  1  0.65469400  0.78078200  0.16224200  1
  C  C88  1  0.21921800  0.87391200  0.16224200  1
  C  C89  1  0.12608800  0.34530600  0.16224200  1
  C  C90  1  0.65469400  0.78078200  0.33775800  1
  C  C91  1  0.21921800  0.87391200  0.33775800  1
  C  C92  1  0.12608800  0.34530600  0.33775800  1
  C  C93  1  0.34530600  0.21921800  0.83775800  1
  C  C94  1  0.78078200  0.12608800  0.83775800  1
  C  C95  1  0.87391200  0.65469400  0.83775800  1
