# generated using pymatgen
data_Cu2NiC9
_symmetry_space_group_name_H-M   'P 1'
_cell_length_a   5.68247000
_cell_length_b   8.70743100
_cell_length_c   15.20182700
_cell_angle_alpha   90.00000000
_cell_angle_beta   90.00000000
_cell_angle_gamma   90.00000000
_symmetry_Int_Tables_number   1
_chemical_formula_structural   Cu2NiC9
_chemical_formula_sum   'Cu8 Ni4 C36'
_cell_volume   752.18207405
_cell_formula_units_Z   4
loop_
 _symmetry_equiv_pos_site_id
 _symmetry_equiv_pos_as_xyz
  1  'x, y, z'
loop_
 _atom_site_type_symbol
 _atom_site_label
 _atom_site_symmetry_multiplicity
 _atom_site_fract_x
 _atom_site_fract_y
 _atom_site_fract_z
 _atom_site_occupancy
  C  C0  1  0.25000000  0.94927500  0.87433700  1
  C  C1  1  0.25000000  0.55072500  0.37433700  1
  C  C2  1  0.75000000  0.05072500  0.12566300  1
  C  C3  1  0.75000000  0.44927500  0.62566300  1
  Ni  Ni4  1  0.25000000  0.81002300  0.61639000  1
  Ni  Ni5  1  0.25000000  0.68997700  0.11639000  1
  Ni  Ni6  1  0.75000000  0.18997700  0.38361000  1
  Ni  Ni7  1  0.75000000  0.31002300  0.88361000  1
  Cu  Cu8  1  0.25000000  0.51262900  0.78726600  1
  Cu  Cu9  1  0.25000000  0.98737100  0.28726600  1
  Cu  Cu10  1  0.75000000  0.48737100  0.21273400  1
  Cu  Cu11  1  0.75000000  0.01262900  0.71273400  1
  Cu  Cu12  1  0.25000000  0.20951900  0.52898800  1
  Cu  Cu13  1  0.25000000  0.29048100  0.02898800  1
  Cu  Cu14  1  0.75000000  0.79048100  0.47101200  1
  Cu  Cu15  1  0.75000000  0.70951900  0.97101200  1
  C  C16  1  0.00692500  0.89898600  0.69951500  1
  C  C17  1  0.49307500  0.60101400  0.19951500  1
  C  C18  1  0.50692500  0.10101400  0.30048500  1
  C  C19  1  0.99307500  0.39898600  0.80048500  1
  C  C20  1  0.99307500  0.10101400  0.30048500  1
  C  C21  1  0.50692500  0.39898600  0.80048500  1
  C  C22  1  0.49307500  0.89898600  0.69951500  1
  C  C23  1  0.00692500  0.60101400  0.19951500  1
  C  C24  1  0.99886800  0.73120800  0.53604800  1
  C  C25  1  0.50113200  0.76879200  0.03604800  1
  C  C26  1  0.49886800  0.26879200  0.46395200  1
  C  C27  1  0.00113200  0.23120800  0.96395200  1
  C  C28  1  0.00113200  0.26879200  0.46395200  1
  C  C29  1  0.49886800  0.23120800  0.96395200  1
  C  C30  1  0.50113200  0.73120800  0.53604800  1
  C  C31  1  0.99886800  0.76879200  0.03604800  1
  C  C32  1  0.25000000  0.61641700  0.68447100  1
  C  C33  1  0.25000000  0.88358300  0.18447100  1
  C  C34  1  0.75000000  0.38358300  0.31552900  1
  C  C35  1  0.75000000  0.11641700  0.81552900  1
  C  C36  1  0.25000000  0.01177800  0.55162800  1
  C  C37  1  0.25000000  0.48822200  0.05162800  1
  C  C38  1  0.75000000  0.98822200  0.44837200  1
  C  C39  1  0.75000000  0.51177800  0.94837200  1
  C  C40  1  0.25000000  0.64101500  0.86630000  1
  C  C41  1  0.25000000  0.85898500  0.36630000  1
  C  C42  1  0.75000000  0.35898500  0.13370000  1
  C  C43  1  0.75000000  0.14101500  0.63370000  1
  C  C44  1  0.75000000  0.81159800  0.87999400  1
  C  C45  1  0.75000000  0.68840200  0.37999400  1
  C  C46  1  0.25000000  0.18840200  0.12000600  1
  C  C47  1  0.25000000  0.31159800  0.62000600  1
