# generated using pymatgen
data_Cu2Ni2C5
_symmetry_space_group_name_H-M   'P 1'
_cell_length_a   7.08646516
_cell_length_b   7.08646516
_cell_length_c   5.83620500
_cell_angle_alpha   90.00000000
_cell_angle_beta   90.00000000
_cell_angle_gamma   131.24233041
_symmetry_Int_Tables_number   1
_chemical_formula_structural   Cu2Ni2C5
_chemical_formula_sum   'Cu4 Ni4 C10'
_cell_volume   220.37693721
_cell_formula_units_Z   2
loop_
 _symmetry_equiv_pos_site_id
 _symmetry_equiv_pos_as_xyz
  1  'x, y, z'
loop_
 _atom_site_type_symbol
 _atom_site_label
 _atom_site_symmetry_multiplicity
 _atom_site_fract_x
 _atom_site_fract_y
 _atom_site_fract_z
 _atom_site_occupancy
  C  C0  1  0.50000000  0.50000000  0.50000000  1
  C  C1  1  0.00000000  0.00000000  0.00000000  1
  Ni  Ni2  1  0.22975000  0.77025000  0.50000000  1
  Ni  Ni3  1  0.77025000  0.22975000  0.50000000  1
  Ni  Ni4  1  0.27025000  0.72975000  0.00000000  1
  Ni  Ni5  1  0.72975000  0.27025000  0.00000000  1
  Cu  Cu6  1  0.14664800  0.85335200  0.50000000  1
  Cu  Cu7  1  0.85335200  0.14664800  0.50000000  1
  Cu  Cu8  1  0.35335200  0.64664800  0.00000000  1
  Cu  Cu9  1  0.64664800  0.35335200  0.00000000  1
  C  C10  1  0.35852400  0.64147600  0.50000000  1
  C  C11  1  0.64147600  0.35852400  0.50000000  1
  C  C12  1  0.14147600  0.85852400  0.00000000  1
  C  C13  1  0.85852400  0.14147600  0.00000000  1
  C  C14  1  0.71685300  0.71685300  0.71715300  1
  C  C15  1  0.28314700  0.28314700  0.28284700  1
  C  C16  1  0.78314700  0.78314700  0.21715300  1
  C  C17  1  0.21685300  0.21685300  0.78284700  1
