# generated using pymatgen
data_Cu13Ni3C
_symmetry_space_group_name_H-M   'P 1'
_cell_length_a   13.46234718
_cell_length_b   13.74070155
_cell_length_c   13.20129390
_cell_angle_alpha   90.00000000
_cell_angle_beta   90.00000000
_cell_angle_gamma   90.00000000
_symmetry_Int_Tables_number   1
_chemical_formula_structural   Cu13Ni3C
_chemical_formula_sum   'Cu104 Ni24 C8'
_cell_volume   2442.00299920
_cell_formula_units_Z   8
loop_
 _symmetry_equiv_pos_site_id
 _symmetry_equiv_pos_as_xyz
  1  'x, y, z'
loop_
 _atom_site_type_symbol
 _atom_site_label
 _atom_site_symmetry_multiplicity
 _atom_site_fract_x
 _atom_site_fract_y
 _atom_site_fract_z
 _atom_site_occupancy
  C  C0  1  0.60660176  0.21956255  0.36605714  1
  C  C1  1  0.10660176  0.28043745  0.63394286  1
  C  C2  1  0.39339824  0.71956255  0.13394286  1
  C  C3  1  0.89339824  0.78043745  0.86605714  1
  C  C4  1  0.39339824  0.78043745  0.63394286  1
  C  C5  1  0.89339824  0.71956255  0.36605714  1
  C  C6  1  0.60660176  0.28043745  0.86605714  1
  C  C7  1  0.10660176  0.21956255  0.13394286  1
  Ni  Ni8  1  0.52119302  0.02312563  0.36327296  1
  Ni  Ni9  1  0.02119302  0.47687437  0.63672704  1
  Ni  Ni10  1  0.47880698  0.52312563  0.13672704  1
  Ni  Ni11  1  0.97880698  0.97687437  0.86327296  1
  Ni  Ni12  1  0.47880698  0.97687437  0.63672704  1
  Ni  Ni13  1  0.97880698  0.52312563  0.36327296  1
  Ni  Ni14  1  0.52119302  0.47687437  0.86327296  1
  Ni  Ni15  1  0.02119302  0.02312563  0.13672704  1
  Ni  Ni16  1  0.62211064  0.21787694  0.13949680  1
  Ni  Ni17  1  0.12211064  0.28212306  0.86050320  1
  Ni  Ni18  1  0.37788936  0.71787694  0.36050320  1
  Ni  Ni19  1  0.87788936  0.78212306  0.63949680  1
  Ni  Ni20  1  0.37788936  0.78212306  0.86050320  1
  Ni  Ni21  1  0.87788936  0.71787694  0.13949680  1
  Ni  Ni22  1  0.62211064  0.28212306  0.63949680  1
  Ni  Ni23  1  0.12211064  0.21787694  0.36050320  1
  Ni  Ni24  1  0.49700899  0.40247846  0.37719924  1
  Ni  Ni25  1  0.99700899  0.09752154  0.62280076  1
  Ni  Ni26  1  0.50299101  0.90247846  0.12280076  1
  Ni  Ni27  1  0.00299101  0.59752154  0.87719924  1
  Ni  Ni28  1  0.50299101  0.59752154  0.62280076  1
  Ni  Ni29  1  0.00299101  0.90247846  0.37719924  1
  Ni  Ni30  1  0.49700899  0.09752154  0.87719924  1
  Ni  Ni31  1  0.99700899  0.40247846  0.12280076  1
  Cu  Cu32  1  0.47943252  0.94470942  0.35401663  1
  Cu  Cu33  1  0.97943252  0.55529058  0.64598337  1
  Cu  Cu34  1  0.52056748  0.44470942  0.14598337  1
  Cu  Cu35  1  0.02056748  0.05529058  0.85401663  1
  Cu  Cu36  1  0.52056748  0.05529058  0.64598337  1
  Cu  Cu37  1  0.02056748  0.44470942  0.35401663  1
  Cu  Cu38  1  0.47943252  0.55529058  0.85401663  1
  Cu  Cu39  1  0.97943252  0.94470942  0.14598337  1
  Cu  Cu40  1  0.61069667  0.03866380  0.33136257  1
  Cu  Cu41  1  0.11069667  0.46133620  0.66863743  1
  Cu  Cu42  1  0.38930333  0.53866380  0.16863743  1
  Cu  Cu43  1  0.88930333  0.96133620  0.83136257  1
  Cu  Cu44  1  0.38930333  0.96133620  0.66863743  1
  Cu  Cu45  1  0.88930333  0.53866380  0.33136257  1
  Cu  Cu46  1  0.61069667  0.46133620  0.83136257  1
  Cu  Cu47  1  0.11069667  0.03866380  0.16863743  1
  Cu  Cu48  1  0.47797376  0.09742353  0.40582007  1
  Cu  Cu49  1  0.97797376  0.40257647  0.59417993  1
  Cu  Cu50  1  0.52202624  0.59742353  0.09417993  1
  Cu  Cu51  1  0.02202624  0.90257647  0.90582007  1
  Cu  Cu52  1  0.52202624  0.90257647  0.59417993  1
  Cu  Cu53  1  0.02202624  0.59742353  0.40582007  1
  Cu  Cu54  1  0.47797376  0.40257647  0.90582007  1
  Cu  Cu55  1  0.97797376  0.09742353  0.09417993  1
  Cu  Cu56  1  0.70023892  0.20907547  0.19248219  1
  Cu  Cu57  1  0.20023892  0.29092453  0.80751781  1
  Cu  Cu58  1  0.29976108  0.70907547  0.30751781  1
  Cu  Cu59  1  0.79976108  0.79092453  0.69248219  1
  Cu  Cu60  1  0.29976108  0.79092453  0.80751781  1
  Cu  Cu61  1  0.79976108  0.70907547  0.19248219  1
  Cu  Cu62  1  0.70023892  0.29092453  0.69248219  1
  Cu  Cu63  1  0.20023892  0.20907547  0.30751781  1
  Cu  Cu64  1  0.62807898  0.22952062  0.04509642  1
  Cu  Cu65  1  0.12807898  0.27047938  0.95490358  1
  Cu  Cu66  1  0.37192102  0.72952062  0.45490358  1
  Cu  Cu67  1  0.87192102  0.77047938  0.54509642  1
  Cu  Cu68  1  0.37192102  0.77047938  0.95490358  1
  Cu  Cu69  1  0.87192102  0.72952062  0.04509642  1
  Cu  Cu70  1  0.62807898  0.27047938  0.54509642  1
  Cu  Cu71  1  0.12807898  0.22952062  0.45490358  1
  Cu  Cu72  1  0.53811189  0.21577119  0.18333720  1
  Cu  Cu73  1  0.03811189  0.28422881  0.81666280  1
  Cu  Cu74  1  0.46188811  0.71577119  0.31666280  1
  Cu  Cu75  1  0.96188811  0.78422881  0.68333720  1
  Cu  Cu76  1  0.46188811  0.78422881  0.81666280  1
  Cu  Cu77  1  0.96188811  0.71577119  0.18333720  1
  Cu  Cu78  1  0.53811189  0.28422881  0.68333720  1
  Cu  Cu79  1  0.03811189  0.21577119  0.31666280  1
  Cu  Cu80  1  0.45105478  0.47807828  0.38852618  1
  Cu  Cu81  1  0.95105478  0.02192172  0.61147382  1
  Cu  Cu82  1  0.54894522  0.97807828  0.11147382  1
  Cu  Cu83  1  0.04894522  0.52192172  0.88852618  1
  Cu  Cu84  1  0.54894522  0.52192172  0.61147382  1
  Cu  Cu85  1  0.04894522  0.97807828  0.38852618  1
  Cu  Cu86  1  0.45105478  0.02192172  0.88852618  1
  Cu  Cu87  1  0.95105478  0.47807828  0.11147382  1
  Cu  Cu88  1  0.59243738  0.40033208  0.36258475  1
  Cu  Cu89  1  0.09243738  0.09966792  0.63741525  1
  Cu  Cu90  1  0.40756262  0.90033208  0.13741525  1
  Cu  Cu91  1  0.90756262  0.59966792  0.86258475  1
  Cu  Cu92  1  0.40756262  0.59966792  0.63741525  1
  Cu  Cu93  1  0.90756262  0.90033208  0.36258475  1
  Cu  Cu94  1  0.59243738  0.09966792  0.86258475  1
  Cu  Cu95  1  0.09243738  0.40033208  0.13741525  1
  Cu  Cu96  1  0.45411275  0.31756781  0.37931278  1
  Cu  Cu97  1  0.95411275  0.18243219  0.62068722  1
  Cu  Cu98  1  0.54588725  0.81756781  0.12068722  1
  Cu  Cu99  1  0.04588725  0.68243219  0.87931278  1
  Cu  Cu100  1  0.54588725  0.68243219  0.62068722  1
  Cu  Cu101  1  0.04588725  0.81756781  0.37931278  1
  Cu  Cu102  1  0.45411275  0.18243219  0.87931278  1
  Cu  Cu103  1  0.95411275  0.31756781  0.12068722  1
  Cu  Cu104  1  0.78154173  0.10052477  0.47113869  1
  Cu  Cu105  1  0.28154173  0.39947523  0.52886131  1
  Cu  Cu106  1  0.21845827  0.60052477  0.02886131  1
  Cu  Cu107  1  0.71845827  0.89947523  0.97113869  1
  Cu  Cu108  1  0.21845827  0.89947523  0.52886131  1
  Cu  Cu109  1  0.71845827  0.60052477  0.47113869  1
  Cu  Cu110  1  0.78154173  0.39947523  0.97113869  1
  Cu  Cu111  1  0.28154173  0.10052477  0.02886131  1
  Cu  Cu112  1  0.83864040  0.10720379  0.39820816  1
  Cu  Cu113  1  0.33864040  0.39279621  0.60179184  1
  Cu  Cu114  1  0.16135960  0.60720379  0.10179184  1
  Cu  Cu115  1  0.66135960  0.89279621  0.89820816  1
  Cu  Cu116  1  0.16135960  0.89279621  0.60179184  1
  Cu  Cu117  1  0.66135960  0.60720379  0.39820816  1
  Cu  Cu118  1  0.83864040  0.39279621  0.89820816  1
  Cu  Cu119  1  0.33864040  0.10720379  0.10179184  1
  Cu  Cu120  1  0.85146066  0.33237056  0.41777769  1
  Cu  Cu121  1  0.35146066  0.16762944  0.58222231  1
  Cu  Cu122  1  0.14853934  0.83237056  0.08222231  1
  Cu  Cu123  1  0.64853934  0.66762944  0.91777769  1
  Cu  Cu124  1  0.14853934  0.66762944  0.58222231  1
  Cu  Cu125  1  0.64853934  0.83237056  0.41777769  1
  Cu  Cu126  1  0.85146066  0.16762944  0.91777769  1
  Cu  Cu127  1  0.35146066  0.33237056  0.08222231  1
  Cu  Cu128  1  0.80113819  0.32182284  0.34039816  1
  Cu  Cu129  1  0.30113819  0.17817716  0.65960184  1
  Cu  Cu130  1  0.19886181  0.82182284  0.15960184  1
  Cu  Cu131  1  0.69886181  0.67817716  0.84039816  1
  Cu  Cu132  1  0.19886181  0.67817716  0.65960184  1
  Cu  Cu133  1  0.69886181  0.82182284  0.34039816  1
  Cu  Cu134  1  0.80113819  0.17817716  0.84039816  1
  Cu  Cu135  1  0.30113819  0.32182284  0.15960184  1
