# generated using pymatgen
data_Cu5Ni8C7
_symmetry_space_group_name_H-M   'P 1'
_cell_length_a   7.64627100
_cell_length_b   7.45897198
_cell_length_c   9.96015401
_cell_angle_alpha   110.59898132
_cell_angle_beta   90.00000000
_cell_angle_gamma   90.00000000
_symmetry_Int_Tables_number   1
_chemical_formula_structural   Cu5Ni8C7
_chemical_formula_sum   'Cu10 Ni16 C14'
_cell_volume   531.74215338
_cell_formula_units_Z   2
loop_
 _symmetry_equiv_pos_site_id
 _symmetry_equiv_pos_as_xyz
  1  'x, y, z'
loop_
 _atom_site_type_symbol
 _atom_site_label
 _atom_site_symmetry_multiplicity
 _atom_site_fract_x
 _atom_site_fract_y
 _atom_site_fract_z
 _atom_site_occupancy
  C  C0  1  0.75000000  0.24310800  0.22954200  1
  C  C1  1  0.25000000  0.75689200  0.77045800  1
  C  C2  1  0.75000000  0.25070800  0.97842200  1
  C  C3  1  0.25000000  0.74929200  0.02157800  1
  C  C4  1  0.75000000  0.55805000  0.71011300  1
  C  C5  1  0.25000000  0.44195000  0.28988700  1
  C  C6  1  0.75000000  0.45400100  0.23342800  1
  C  C7  1  0.25000000  0.54599900  0.76657200  1
  C  C8  1  0.75000000  0.30813500  0.63095200  1
  C  C9  1  0.25000000  0.69186500  0.36904800  1
  C  C10  1  0.75000000  0.11713200  0.78932400  1
  C  C11  1  0.25000000  0.88286800  0.21067600  1
  C  C12  1  0.75000000  0.40962500  0.85061400  1
  C  C13  1  0.25000000  0.59037500  0.14938600  1
  Ni  Ni14  1  0.75000000  0.24500400  0.87259800  1
  Ni  Ni15  1  0.25000000  0.75499600  0.12740200  1
  Ni  Ni16  1  0.75000000  0.79075700  0.55908100  1
  Ni  Ni17  1  0.25000000  0.20924300  0.44091900  1
  Ni  Ni18  1  0.75000000  0.96685200  0.40373700  1
  Ni  Ni19  1  0.25000000  0.03314800  0.59626300  1
  Ni  Ni20  1  0.75000000  0.73093700  0.96980900  1
  Ni  Ni21  1  0.25000000  0.26906300  0.03019100  1
  Ni  Ni22  1  0.75000000  0.96648000  0.54269900  1
  Ni  Ni23  1  0.25000000  0.03352000  0.45730100  1
  Ni  Ni24  1  0.75000000  0.56795100  0.97694300  1
  Ni  Ni25  1  0.25000000  0.43204900  0.02305700  1
  Ni  Ni26  1  0.75000000  0.42663600  0.72217400  1
  Ni  Ni27  1  0.25000000  0.57336400  0.27782600  1
  Ni  Ni28  1  0.75000000  0.88905200  0.98354400  1
  Ni  Ni29  1  0.25000000  0.11094800  0.01645600  1
  Cu  Cu30  1  0.75000000  0.82331800  0.29339500  1
  Cu  Cu31  1  0.25000000  0.17668200  0.70660500  1
  Cu  Cu32  1  0.75000000  0.13649200  0.40409900  1
  Cu  Cu33  1  0.25000000  0.86350800  0.59590100  1
  Cu  Cu34  1  0.75000000  0.32103700  0.16836700  1
  Cu  Cu35  1  0.25000000  0.67896300  0.83163300  1
  Cu  Cu36  1  0.75000000  0.63080700  0.46313100  1
  Cu  Cu37  1  0.25000000  0.36919300  0.53686900  1
  Cu  Cu38  1  0.75000000  0.81146900  0.69096700  1
  Cu  Cu39  1  0.25000000  0.18853100  0.30903300  1
