# generated using pymatgen
data_Cu4Ni4C
_symmetry_space_group_name_H-M   'P 1'
_cell_length_a   7.68556300
_cell_length_b   7.68556300
_cell_length_c   3.98656000
_cell_angle_alpha   90.00000000
_cell_angle_beta   90.00000000
_cell_angle_gamma   90.00000000
_symmetry_Int_Tables_number   1
_chemical_formula_structural   Cu4Ni4C
_chemical_formula_sum   'Cu8 Ni8 C2'
_cell_volume   235.47764222
_cell_formula_units_Z   2
loop_
 _symmetry_equiv_pos_site_id
 _symmetry_equiv_pos_as_xyz
  1  'x, y, z'
loop_
 _atom_site_type_symbol
 _atom_site_label
 _atom_site_symmetry_multiplicity
 _atom_site_fract_x
 _atom_site_fract_y
 _atom_site_fract_z
 _atom_site_occupancy
  C  C0  1  0.00000000  0.00000000  0.00000000  1
  C  C1  1  0.50000000  0.50000000  0.50000000  1
  Ni  Ni2  1  0.65811100  0.77889100  0.11044900  1
  Ni  Ni3  1  0.34188900  0.22110900  0.11044900  1
  Ni  Ni4  1  0.27889100  0.84188900  0.61044900  1
  Ni  Ni5  1  0.72110900  0.15811100  0.61044900  1
  Ni  Ni6  1  0.84188900  0.72110900  0.38955100  1
  Ni  Ni7  1  0.15811100  0.27889100  0.38955100  1
  Ni  Ni8  1  0.22110900  0.65811100  0.88955100  1
  Ni  Ni9  1  0.77889100  0.34188900  0.88955100  1
  Cu  Cu10  1  0.15979500  0.39080800  0.88919500  1
  Cu  Cu11  1  0.84020500  0.60919200  0.88919500  1
  Cu  Cu12  1  0.89080800  0.34020500  0.38919500  1
  Cu  Cu13  1  0.10919200  0.65979500  0.38919500  1
  Cu  Cu14  1  0.34020500  0.10919200  0.61080500  1
  Cu  Cu15  1  0.65979500  0.89080800  0.61080500  1
  Cu  Cu16  1  0.60919200  0.15979500  0.11080500  1
  Cu  Cu17  1  0.39080800  0.84020500  0.11080500  1
