# generated using pymatgen
data_Cu3NiC10
_symmetry_space_group_name_H-M   'P 1'
_cell_length_a   11.43266811
_cell_length_b   3.42434300
_cell_length_c   12.00814494
_cell_angle_alpha   90.00000000
_cell_angle_beta   89.45799247
_cell_angle_gamma   90.00000000
_symmetry_Int_Tables_number   1
_chemical_formula_structural   Cu3NiC10
_chemical_formula_sum   'Cu6 Ni2 C20'
_cell_volume   470.09035899
_cell_formula_units_Z   2
loop_
 _symmetry_equiv_pos_site_id
 _symmetry_equiv_pos_as_xyz
  1  'x, y, z'
loop_
 _atom_site_type_symbol
 _atom_site_label
 _atom_site_symmetry_multiplicity
 _atom_site_fract_x
 _atom_site_fract_y
 _atom_site_fract_z
 _atom_site_occupancy
  Ni  Ni0  1  0.14456900  0.25000000  0.70917200  1
  Ni  Ni1  1  0.85543100  0.75000000  0.29082800  1
  Cu  Cu2  1  0.11931200  0.25000000  0.07506200  1
  Cu  Cu3  1  0.88068800  0.75000000  0.92493800  1
  Cu  Cu4  1  0.39056500  0.75000000  0.56886700  1
  Cu  Cu5  1  0.60943500  0.25000000  0.43113300  1
  Cu  Cu6  1  0.35402200  0.75000000  0.20657300  1
  Cu  Cu7  1  0.64597800  0.25000000  0.79342700  1
  C  C8  1  0.14029000  0.75000000  0.40790500  1
  C  C9  1  0.85971000  0.25000000  0.59209500  1
  C  C10  1  0.39198200  0.25000000  0.94759200  1
  C  C11  1  0.60801800  0.75000000  0.05240800  1
  C  C12  1  0.03158800  0.75000000  0.61111900  1
  C  C13  1  0.96841200  0.25000000  0.38888100  1
  C  C14  1  0.47410000  0.25000000  0.12478300  1
  C  C15  1  0.52590000  0.75000000  0.87521700  1
  C  C16  1  0.02771600  0.25000000  0.88025100  1
  C  C17  1  0.97228400  0.75000000  0.11974900  1
  C  C18  1  0.47259500  0.75000000  0.38359300  1
  C  C19  1  0.52740500  0.25000000  0.61640700  1
  C  C20  1  0.21349000  0.25000000  0.25123600  1
  C  C21  1  0.78651000  0.75000000  0.74876400  1
  C  C22  1  0.28920000  0.75000000  0.75337400  1
  C  C23  1  0.71080000  0.25000000  0.24662600  1
  C  C24  1  0.25343100  0.75000000  0.03080800  1
  C  C25  1  0.74656900  0.25000000  0.96919200  1
  C  C26  1  0.25284900  0.25000000  0.52119600  1
  C  C27  1  0.74715100  0.75000000  0.47880400  1
