# generated using pymatgen
data_CuNiC5
_symmetry_space_group_name_H-M   'P 1'
_cell_length_a   8.28484300
_cell_length_b   13.61987089
_cell_length_c   18.43258751
_cell_angle_alpha   108.22346333
_cell_angle_beta   90.00000000
_cell_angle_gamma   107.70675617
_symmetry_Int_Tables_number   1
_chemical_formula_structural   CuNiC5
_chemical_formula_sum   'Cu16 Ni16 C80'
_cell_volume   1871.56738342
_cell_formula_units_Z   16
loop_
 _symmetry_equiv_pos_site_id
 _symmetry_equiv_pos_as_xyz
  1  'x, y, z'
loop_
 _atom_site_type_symbol
 _atom_site_label
 _atom_site_symmetry_multiplicity
 _atom_site_fract_x
 _atom_site_fract_y
 _atom_site_fract_z
 _atom_site_occupancy
  C  C0  1  0.22185900  0.73703600  0.56601100  1
  C  C1  1  0.48482300  0.26296400  0.93398900  1
  C  C2  1  0.77814100  0.26296400  0.43398900  1
  C  C3  1  0.51517700  0.73703600  0.06601100  1
  C  C4  1  0.92601200  0.56978700  0.57285200  1
  C  C5  1  0.35622500  0.43021300  0.92714800  1
  C  C6  1  0.07398800  0.43021300  0.42714800  1
  C  C7  1  0.64377500  0.56978700  0.07285200  1
  Ni  Ni8  1  0.47204700  0.68439600  0.55415100  1
  Ni  Ni9  1  0.78765100  0.31560400  0.94584900  1
  Ni  Ni10  1  0.52795300  0.31560400  0.44584900  1
  Ni  Ni11  1  0.21234900  0.68439600  0.05415100  1
  Ni  Ni12  1  0.35990400  0.47813800  0.39966700  1
  Ni  Ni13  1  0.88176600  0.52186200  0.10033300  1
  Ni  Ni14  1  0.64009600  0.52186200  0.60033300  1
  Ni  Ni15  1  0.11823400  0.47813800  0.89966700  1
  Ni  Ni16  1  0.26942700  0.91873700  0.56485000  1
  Ni  Ni17  1  0.35069000  0.08126300  0.93515000  1
  Ni  Ni18  1  0.73057300  0.08126300  0.43515000  1
  Ni  Ni19  1  0.64931000  0.91873700  0.06485000  1
  Ni  Ni20  1  0.60818600  0.12923100  0.60083200  1
  Ni  Ni21  1  0.47895500  0.87076900  0.89916800  1
  Ni  Ni22  1  0.39181400  0.87076900  0.39916800  1
  Ni  Ni23  1  0.52104500  0.12923100  0.10083200  1
  C  C24  1  0.69249800  0.84999300  0.54237800  1
  C  C25  1  0.84250500  0.15000700  0.95762200  1
  C  C26  1  0.30750200  0.15000700  0.45762200  1
  C  C27  1  0.15749500  0.84999300  0.04237800  1
  C  C28  1  0.70941700  0.84367600  0.63767100  1
  C  C29  1  0.86574100  0.15632400  0.86232900  1
  C  C30  1  0.29058300  0.15632400  0.36232900  1
  C  C31  1  0.13425900  0.84367600  0.13767100  1
  C  C32  1  0.79399700  0.75895400  0.56205100  1
  C  C33  1  0.03504300  0.24104600  0.93794900  1
  C  C34  1  0.20600300  0.24104600  0.43794900  1
  C  C35  1  0.96495700  0.75895400  0.06205100  1
  C  C36  1  0.53932500  0.52163900  0.29660600  1
  C  C37  1  0.01768600  0.47836100  0.20339400  1
  C  C38  1  0.46067500  0.47836100  0.70339400  1
  C  C39  1  0.98231400  0.52163900  0.79660600  1
  C  C40  1  0.32519400  0.43801400  0.25569500  1
  C  C41  1  0.88718000  0.56198600  0.24430500  1
  C  C42  1  0.67480600  0.56198600  0.74430500  1
  C  C43  1  0.11282000  0.43801400  0.75569500  1
  C  C44  1  0.37045000  0.58087200  0.30688200  1
  C  C45  1  0.78957800  0.41912800  0.19311800  1
  C  C46  1  0.62955000  0.41912800  0.69311800  1
  C  C47  1  0.21042200  0.58087200  0.80688200  1
  C  C48  1  0.01161500  0.98140700  0.56584700  1
  C  C49  1  0.03020900  0.01859300  0.93415300  1
  C  C50  1  0.98838500  0.01859300  0.43415300  1
  C  C51  1  0.96979100  0.98140700  0.06584700  1
  C  C52  1  0.09888100  0.00887000  0.66227300  1
  C  C53  1  0.09001100  0.99113000  0.83772700  1
  C  C54  1  0.90111900  0.99113000  0.33772700  1
  C  C55  1  0.90998900  0.00887000  0.16227300  1
  C  C56  1  0.20044600  0.09567800  0.60842500  1
  C  C57  1  0.10476800  0.90432200  0.89157500  1
  C  C58  1  0.79955400  0.90432200  0.39157500  1
  C  C59  1  0.89523200  0.09567800  0.10842500  1
  C  C60  1  0.89562500  0.21714200  0.67982600  1
  C  C61  1  0.67848300  0.78285800  0.82017400  1
  C  C62  1  0.10437500  0.78285800  0.32017400  1
  C  C63  1  0.32151700  0.21714200  0.17982600  1
  C  C64  1  0.72639000  0.20434400  0.74058900  1
  C  C65  1  0.52204600  0.79565600  0.75941100  1
  C  C66  1  0.27361000  0.79565600  0.25941100  1
  C  C67  1  0.47795400  0.20434400  0.24058900  1
  C  C68  1  0.78905100  0.08686800  0.69123900  1
  C  C69  1  0.70218300  0.91313200  0.80876100  1
  C  C70  1  0.21094900  0.91313200  0.30876100  1
  C  C71  1  0.29781700  0.08686800  0.19123900  1
  Cu  Cu72  1  0.69377700  0.79714600  0.57643000  1
  Cu  Cu73  1  0.89663100  0.20285400  0.92357000  1
  Cu  Cu74  1  0.30622300  0.20285400  0.42357000  1
  Cu  Cu75  1  0.10336900  0.79714600  0.07643000  1
  Cu  Cu76  1  0.40351100  0.50759500  0.30332900  1
  Cu  Cu77  1  0.89591600  0.49240500  0.19667100  1
  Cu  Cu78  1  0.59648900  0.49240500  0.69667100  1
  Cu  Cu79  1  0.10408400  0.50759500  0.80332900  1
  Cu  Cu80  1  0.12835800  0.01179000  0.60501500  1
  Cu  Cu81  1  0.11656800  0.98821000  0.89498500  1
  Cu  Cu82  1  0.87164200  0.98821000  0.39498500  1
  Cu  Cu83  1  0.88343200  0.01179000  0.10501500  1
  Cu  Cu84  1  0.77426800  0.16287100  0.68830000  1
  Cu  Cu85  1  0.61139800  0.83712900  0.81170000  1
  Cu  Cu86  1  0.22573200  0.83712900  0.31170000  1
  Cu  Cu87  1  0.38860200  0.16287100  0.18830000  1
  C  C88  1  0.00056300  0.61189400  0.44158300  1
  C  C89  1  0.38866900  0.38810600  0.05841700  1
  C  C90  1  0.99943700  0.38810600  0.55841700  1
  C  C91  1  0.61133100  0.61189400  0.94158300  1
  C  C92  1  0.08929400  0.73265900  0.69480900  1
  C  C93  1  0.35663500  0.26734100  0.80519100  1
  C  C94  1  0.91070600  0.26734100  0.30519100  1
  C  C95  1  0.64336500  0.73265900  0.19480900  1
  C  C96  1  0.51400900  0.60712100  0.46038200  1
  C  C97  1  0.90688900  0.39287900  0.03961800  1
  C  C98  1  0.48599100  0.39287900  0.53961800  1
  C  C99  1  0.09311100  0.60712100  0.96038200  1
  C  C100  1  0.49930900  0.39345400  0.38576900  1
  C  C101  1  0.10585500  0.60654600  0.11423100  1
  C  C102  1  0.50069100  0.60654600  0.61423100  1
  C  C103  1  0.89414500  0.39345400  0.88576900  1
  C  C104  1  0.47406500  0.00550900  0.61778700  1
  C  C105  1  0.46855600  0.99449100  0.88221300  1
  C  C106  1  0.52593500  0.99449100  0.38221300  1
  C  C107  1  0.53144400  0.00550900  0.11778700  1
  C  C108  1  0.72326200  0.05740400  0.52714900  1
  C  C109  1  0.66585800  0.94259600  0.97285100  1
  C  C110  1  0.27673800  0.94259600  0.47285100  1
  C  C111  1  0.33414200  0.05740400  0.02714900  1
