# generated using pymatgen
data_Cu(NiC)4
_symmetry_space_group_name_H-M   'P 1'
_cell_length_a   6.77312776
_cell_length_b   6.77312776
_cell_length_c   7.39014551
_cell_angle_alpha   62.36203803
_cell_angle_beta   62.36203803
_cell_angle_gamma   89.29616662
_symmetry_Int_Tables_number   1
_chemical_formula_structural   Cu(NiC)4
_chemical_formula_sum   'Cu2 Ni8 C8'
_cell_volume   257.02482383
_cell_formula_units_Z   2
loop_
 _symmetry_equiv_pos_site_id
 _symmetry_equiv_pos_as_xyz
  1  'x, y, z'
loop_
 _atom_site_type_symbol
 _atom_site_label
 _atom_site_symmetry_multiplicity
 _atom_site_fract_x
 _atom_site_fract_y
 _atom_site_fract_z
 _atom_site_occupancy
  C  C0  1  0.25229000  0.24771000  0.50000000  1
  C  C1  1  0.75229000  0.74771000  0.50000000  1
  C  C2  1  0.16486800  0.33513200  0.00000000  1
  C  C3  1  0.66837500  0.16856800  0.00000000  1
  C  C4  1  0.33143200  0.83162500  0.00000000  1
  C  C5  1  0.82545600  0.67454400  0.00000000  1
  C  C6  1  0.75087300  0.24899400  0.50013200  1
  C  C7  1  0.25100600  0.74912700  0.49986800  1
  Ni  Ni8  1  0.21015900  0.99561500  0.29422600  1
  Ni  Ni9  1  0.50052200  0.70746300  0.29201500  1
  Ni  Ni10  1  0.99245800  0.49609700  0.29439300  1
  Ni  Ni11  1  0.70951000  0.21314900  0.29439300  1
  Ni  Ni12  1  0.79253700  0.99947800  0.70798500  1
  Ni  Ni13  1  0.50438500  0.28984100  0.70577400  1
  Ni  Ni14  1  0.00390300  0.50754200  0.70560700  1
  Ni  Ni15  1  0.28685100  0.79049000  0.70560700  1
  Cu  Cu16  1  0.50692500  0.50384000  0.00000000  1
  Cu  Cu17  1  0.99616000  0.99307500  0.00000000  1
