# generated using pymatgen
data_Cu(NiC6)2
_symmetry_space_group_name_H-M   'P 1'
_cell_length_a   6.57610700
_cell_length_b   7.18940300
_cell_length_c   9.81227700
_cell_angle_alpha   90.00000000
_cell_angle_beta   90.00000000
_cell_angle_gamma   90.00000000
_symmetry_Int_Tables_number   1
_chemical_formula_structural   Cu(NiC6)2
_chemical_formula_sum   'Cu2 Ni4 C24'
_cell_volume   463.90761275
_cell_formula_units_Z   2
loop_
 _symmetry_equiv_pos_site_id
 _symmetry_equiv_pos_as_xyz
  1  'x, y, z'
loop_
 _atom_site_type_symbol
 _atom_site_label
 _atom_site_symmetry_multiplicity
 _atom_site_fract_x
 _atom_site_fract_y
 _atom_site_fract_z
 _atom_site_occupancy
  C  C0  1  0.00000000  0.73855900  0.00000000  1
  C  C1  1  0.50000000  0.26144100  0.50000000  1
  C  C2  1  0.25000000  0.00000000  0.75000000  1
  C  C3  1  0.25000000  0.00000000  0.25000000  1
  C  C4  1  0.75000000  0.00000000  0.75000000  1
  C  C5  1  0.50000000  0.79425600  0.50000000  1
  C  C6  1  0.00000000  0.20574400  0.00000000  1
  C  C7  1  0.75000000  0.00000000  0.25000000  1
  Ni  Ni8  1  0.50000000  0.59067400  0.81141900  1
  Ni  Ni9  1  0.00000000  0.40932600  0.68858100  1
  Ni  Ni10  1  0.50000000  0.59067400  0.18858100  1
  Ni  Ni11  1  0.00000000  0.40932600  0.31141900  1
  Cu  Cu12  1  0.00000000  0.85160700  0.50000000  1
  Cu  Cu13  1  0.50000000  0.14839300  0.00000000  1
  C  C14  1  0.00000000  0.99420300  0.86598800  1
  C  C15  1  0.00000000  0.42827000  0.86539200  1
  C  C16  1  0.50000000  0.57173000  0.36539200  1
  C  C17  1  0.29313500  0.73747500  0.83904000  1
  C  C18  1  0.20686500  0.26252500  0.33904000  1
  C  C19  1  0.79313500  0.26252500  0.33904000  1
  C  C20  1  0.50000000  0.00579700  0.63401200  1
  C  C21  1  0.70686500  0.73747500  0.83904000  1
  C  C22  1  0.70686500  0.73747500  0.16096000  1
  C  C23  1  0.79313500  0.26252500  0.66096000  1
  C  C24  1  0.00000000  0.99420300  0.13401200  1
  C  C25  1  0.50000000  0.00579700  0.36598800  1
  C  C26  1  0.20686500  0.26252500  0.66096000  1
  C  C27  1  0.29313500  0.73747500  0.16096000  1
  C  C28  1  0.50000000  0.57173000  0.63460800  1
  C  C29  1  0.00000000  0.42827000  0.13460800  1
