# generated using pymatgen
data_Cu16NiC15
_symmetry_space_group_name_H-M   'P 1'
_cell_length_a   8.58072077
_cell_length_b   8.79913454
_cell_length_c   4.28428088
_cell_angle_alpha   90.00000000
_cell_angle_beta   90.00000000
_cell_angle_gamma   90.00000000
_symmetry_Int_Tables_number   1
_chemical_formula_structural   Cu16NiC15
_chemical_formula_sum   'Cu16 Ni1 C15'
_cell_volume   323.47570157
_cell_formula_units_Z   1
loop_
 _symmetry_equiv_pos_site_id
 _symmetry_equiv_pos_as_xyz
  1  'x, y, z'
loop_
 _atom_site_type_symbol
 _atom_site_label
 _atom_site_symmetry_multiplicity
 _atom_site_fract_x
 _atom_site_fract_y
 _atom_site_fract_z
 _atom_site_occupancy
  C  C0  1  0.50000000  -0.00000000  -0.00000000  1
  C  C1  1  0.50000000  0.50000000  -0.00000000  1
  C  C2  1  0.00000000  0.26909988  0.50000000  1
  C  C3  1  0.00000000  0.73090012  0.50000000  1
  C  C4  1  0.50000000  0.25476483  0.50000000  1
  C  C5  1  0.50000000  0.74523517  0.50000000  1
  C  C6  1  0.25990580  -0.00000000  0.50000000  1
  C  C7  1  0.24569255  0.50000000  0.50000000  1
  C  C8  1  0.74009420  -0.00000000  0.50000000  1
  C  C9  1  0.75430745  0.50000000  0.50000000  1
  C  C10  1  0.25077468  0.26098842  0.00000000  1
  C  C11  1  0.25077468  0.73901158  0.00000000  1
  C  C12  1  0.74922532  0.26098842  -0.00000000  1
  C  C13  1  0.74922532  0.73901158  -0.00000000  1
  C  C14  1  0.00000000  -0.00000000  -0.00000000  1
  Ni  Ni15  1  0.00000000  0.50000000  -0.00000000  1
  Cu  Cu16  1  0.26221288  -0.00000000  0.00000000  1
  Cu  Cu17  1  0.26052336  0.50000000  -0.00000000  1
  Cu  Cu18  1  0.73778712  -0.00000000  -0.00000000  1
  Cu  Cu19  1  0.73947664  0.50000000  0.00000000  1
  Cu  Cu20  1  0.24886426  0.25070658  0.50000000  1
  Cu  Cu21  1  0.24886426  0.74929342  0.50000000  1
  Cu  Cu22  1  0.75113574  0.25070658  0.50000000  1
  Cu  Cu23  1  0.75113574  0.74929342  0.50000000  1
  Cu  Cu24  1  0.00000000  -0.00000000  0.50000000  1
  Cu  Cu25  1  0.00000000  0.50000000  0.50000000  1
  Cu  Cu26  1  0.50000000  -0.00000000  0.50000000  1
  Cu  Cu27  1  0.50000000  0.50000000  0.50000000  1
  Cu  Cu28  1  0.00000000  0.23866624  0.00000000  1
  Cu  Cu29  1  0.00000000  0.76133376  -0.00000000  1
  Cu  Cu30  1  0.50000000  0.25134449  -0.00000000  1
  Cu  Cu31  1  0.50000000  0.74865551  0.00000000  1
