# generated using pymatgen
data_Cu2Ni3C14
_symmetry_space_group_name_H-M   'P 1'
_cell_length_a   3.87588800
_cell_length_b   13.58586900
_cell_length_c   13.68009861
_cell_angle_alpha   60.27058079
_cell_angle_beta   90.00000000
_cell_angle_gamma   90.00000000
_symmetry_Int_Tables_number   1
_chemical_formula_structural   Cu2Ni3C14
_chemical_formula_sum   'Cu4 Ni6 C28'
_cell_volume   625.54157890
_cell_formula_units_Z   2
loop_
 _symmetry_equiv_pos_site_id
 _symmetry_equiv_pos_as_xyz
  1  'x, y, z'
loop_
 _atom_site_type_symbol
 _atom_site_label
 _atom_site_symmetry_multiplicity
 _atom_site_fract_x
 _atom_site_fract_y
 _atom_site_fract_z
 _atom_site_occupancy
  C  C0  1  0.50000000  0.05540600  0.22684600  1
  C  C1  1  0.50000000  0.71783500  0.05635000  1
  C  C2  1  0.50000000  0.23656000  0.71222300  1
  C  C3  1  0.00000000  0.94728100  0.76230900  1
  C  C4  1  0.00000000  0.29149800  0.94607700  1
  C  C5  1  0.00000000  0.76336000  0.29294700  1
  C  C6  1  0.50000000  0.38845700  0.13817600  1
  C  C7  1  0.50000000  0.47358800  0.39674400  1
  C  C8  1  0.50000000  0.13784000  0.47657100  1
  C  C9  1  0.00000000  0.60200200  0.86028600  1
  C  C10  1  0.00000000  0.52462400  0.60179200  1
  C  C11  1  0.00000000  0.85756700  0.53628300  1
  Ni  Ni12  1  0.50000000  0.72822300  0.47087200  1
  Ni  Ni13  1  0.50000000  0.80254400  0.72191000  1
  Ni  Ni14  1  0.50000000  0.47272800  0.80973700  1
  Ni  Ni15  1  0.00000000  0.27599600  0.53092000  1
  Ni  Ni16  1  0.00000000  0.18691200  0.28072300  1
  Ni  Ni17  1  0.00000000  0.53374900  0.18345100  1
  Cu  Cu18  1  0.50000000  0.43327700  0.58710600  1
  Cu  Cu19  1  0.00000000  0.01692500  0.56500500  1
  Cu  Cu20  1  0.00000000  0.41638000  0.02131700  1
  Cu  Cu21  1  0.00000000  0.56810000  0.41151400  1
  C  C22  1  0.50000000  0.33394400  0.33330500  1
  C  C23  1  0.00000000  0.66239600  0.66645100  1
  C  C24  1  0.50000000  0.89408500  0.20278700  1
  C  C25  1  0.50000000  0.90203500  0.89230100  1
  C  C26  1  0.50000000  0.20568400  0.90356700  1
  C  C27  1  0.00000000  0.10593400  0.79604200  1
  C  C28  1  0.00000000  0.09625200  0.10386500  1
  C  C29  1  0.00000000  0.80032400  0.09732400  1
  C  C30  1  0.50000000  0.24677600  0.07209600  1
  C  C31  1  0.50000000  0.68294100  0.24738500  1
  C  C32  1  0.50000000  0.06967800  0.68159400  1
  C  C33  1  0.00000000  0.74755500  0.92868300  1
  C  C34  1  0.00000000  0.32054800  0.75393600  1
  C  C35  1  0.00000000  0.93260700  0.32209300  1
  C  C36  1  0.50000000  0.97800200  0.43340100  1
  C  C37  1  0.50000000  0.59038600  0.97601000  1
