# generated using pymatgen
data_Cu3Ni3C19
_symmetry_space_group_name_H-M   'P 1'
_cell_length_a   8.99688378
_cell_length_b   8.99688378
_cell_length_c   9.18848900
_cell_angle_alpha   90.00000000
_cell_angle_beta   90.00000000
_cell_angle_gamma   90.01097866
_symmetry_Int_Tables_number   1
_chemical_formula_structural   Cu3Ni3C19
_chemical_formula_sum   'Cu6 Ni6 C38'
_cell_volume   743.75228394
_cell_formula_units_Z   2
loop_
 _symmetry_equiv_pos_site_id
 _symmetry_equiv_pos_as_xyz
  1  'x, y, z'
loop_
 _atom_site_type_symbol
 _atom_site_label
 _atom_site_symmetry_multiplicity
 _atom_site_fract_x
 _atom_site_fract_y
 _atom_site_fract_z
 _atom_site_occupancy
  C  C0  1  0.80852400  0.69138600  0.19725100  1
  C  C1  1  0.19147600  0.30861400  0.19725100  1
  C  C2  1  0.31108100  0.81096900  0.30361900  1
  C  C3  1  0.68891900  0.18903100  0.30361900  1
  C  C4  1  0.69138600  0.80852400  0.69725100  1
  C  C5  1  0.30861400  0.19147600  0.69725100  1
  C  C6  1  0.18903100  0.68891900  0.80361900  1
  C  C7  1  0.81096900  0.31108100  0.80361900  1
  Ni  Ni8  1  0.75085600  0.00017800  0.00021600  1
  Ni  Ni9  1  0.50000000  0.50000000  0.24986500  1
  Ni  Ni10  1  0.99982200  0.24914400  0.50021600  1
  Ni  Ni11  1  0.00017800  0.75085600  0.50021600  1
  Ni  Ni12  1  0.50000000  0.50000000  0.74986500  1
  Ni  Ni13  1  0.24914400  0.99982200  0.00021600  1
  Cu  Cu14  1  0.49985700  0.74858000  0.99986000  1
  Cu  Cu15  1  0.00000000  0.00000000  0.25005700  1
  Cu  Cu16  1  0.25142000  0.50014300  0.49986000  1
  Cu  Cu17  1  0.74858000  0.49985700  0.49986000  1
  Cu  Cu18  1  0.00000000  0.00000000  0.75005700  1
  Cu  Cu19  1  0.50014300  0.25142000  0.99986000  1
  C  C20  1  0.00000000  0.50000000  0.99999400  1
  C  C21  1  0.50000000  0.00000000  0.49999400  1
  C  C22  1  0.50000000  0.00000000  0.36935600  1
  C  C23  1  0.00000000  0.50000000  0.86935600  1
  C  C24  1  0.35552800  0.84536300  0.05220400  1
  C  C25  1  0.64447200  0.15463700  0.05220400  1
  C  C26  1  0.55550500  0.64994800  0.13998600  1
  C  C27  1  0.44449500  0.35005200  0.13998600  1
  C  C28  1  0.00000000  0.50000000  0.13407700  1
  C  C29  1  0.85955000  0.94429500  0.15024200  1
  C  C30  1  0.14045000  0.05570500  0.15024200  1
  C  C31  1  0.05502200  0.85895600  0.34923600  1
  C  C32  1  0.94497800  0.14104400  0.34923600  1
  C  C33  1  0.34951200  0.55477700  0.35895300  1
  C  C34  1  0.65048800  0.44522300  0.35895300  1
  C  C35  1  0.84679900  0.64322900  0.44675700  1
  C  C36  1  0.15320100  0.35677100  0.44675700  1
  C  C37  1  0.15463700  0.64447200  0.55220400  1
  C  C38  1  0.84536300  0.35552800  0.55220400  1
  C  C39  1  0.64994800  0.55550500  0.63998600  1
  C  C40  1  0.35005200  0.44449500  0.63998600  1
  C  C41  1  0.50000000  0.00000000  0.63407700  1
  C  C42  1  0.94429500  0.85955000  0.65024200  1
  C  C43  1  0.05570500  0.14045000  0.65024200  1
  C  C44  1  0.85895600  0.05502200  0.84923600  1
  C  C45  1  0.14104400  0.94497800  0.84923600  1
  C  C46  1  0.44522300  0.65048800  0.85895300  1
  C  C47  1  0.55477700  0.34951200  0.85895300  1
  C  C48  1  0.64322900  0.84679900  0.94675700  1
  C  C49  1  0.35677100  0.15320100  0.94675700  1
