# generated using pymatgen
data_CuNi16
_symmetry_space_group_name_H-M   'P 1'
_cell_length_a   13.36259147
_cell_length_b   14.79277538
_cell_length_c   16.98288309
_cell_angle_alpha   90.00000000
_cell_angle_beta   90.00000000
_cell_angle_gamma   90.00000000
_symmetry_Int_Tables_number   1
_chemical_formula_structural   CuNi16
_chemical_formula_sum   'Cu16 Ni256'
_cell_volume   3357.00334346
_cell_formula_units_Z   16
loop_
 _symmetry_equiv_pos_site_id
 _symmetry_equiv_pos_as_xyz
  1  'x, y, z'
loop_
 _atom_site_type_symbol
 _atom_site_label
 _atom_site_symmetry_multiplicity
 _atom_site_fract_x
 _atom_site_fract_y
 _atom_site_fract_z
 _atom_site_occupancy
  Ni  Ni0  1  0.41914917  0.98374857  0.15952842  1
  Ni  Ni1  1  0.08085083  0.51625143  0.65952842  1
  Ni  Ni2  1  0.58085083  0.48374857  0.84047158  1
  Ni  Ni3  1  0.91914917  0.01625143  0.34047158  1
  Ni  Ni4  1  0.58085083  0.01625143  0.84047158  1
  Ni  Ni5  1  0.91914917  0.48374857  0.34047158  1
  Ni  Ni6  1  0.41914917  0.51625143  0.15952842  1
  Ni  Ni7  1  0.08085083  0.98374857  0.65952842  1
  Ni  Ni8  1  0.82251698  0.75000000  0.11754292  1
  Ni  Ni9  1  0.67748302  0.75000000  0.61754292  1
  Ni  Ni10  1  0.17748302  0.25000000  0.88245708  1
  Ni  Ni11  1  0.32251698  0.25000000  0.38245708  1
  Ni  Ni12  1  0.58061993  0.95620650  0.22246866  1
  Ni  Ni13  1  0.91938007  0.54379350  0.72246866  1
  Ni  Ni14  1  0.41938007  0.45620650  0.77753134  1
  Ni  Ni15  1  0.08061993  0.04379350  0.27753134  1
  Ni  Ni16  1  0.41938007  0.04379350  0.77753134  1
  Ni  Ni17  1  0.08061993  0.45620650  0.27753134  1
  Ni  Ni18  1  0.58061993  0.54379350  0.22246866  1
  Ni  Ni19  1  0.91938007  0.95620650  0.72246866  1
  Ni  Ni20  1  0.55687467  0.75000000  0.38042578  1
  Ni  Ni21  1  0.94312533  0.75000000  0.88042578  1
  Ni  Ni22  1  0.44312533  0.25000000  0.61957422  1
  Ni  Ni23  1  0.05687467  0.25000000  0.11957422  1
  Ni  Ni24  1  0.64450804  0.75000000  0.33389369  1
  Ni  Ni25  1  0.85549196  0.75000000  0.83389369  1
  Ni  Ni26  1  0.35549196  0.25000000  0.66610631  1
  Ni  Ni27  1  0.14450804  0.25000000  0.16610631  1
  Ni  Ni28  1  0.25451432  0.75000000  0.04952445  1
  Ni  Ni29  1  0.24548568  0.75000000  0.54952445  1
  Ni  Ni30  1  0.74548568  0.25000000  0.95047555  1
  Ni  Ni31  1  0.75451432  0.25000000  0.45047555  1
  Ni  Ni32  1  0.31557453  0.95457389  0.16430844  1
  Ni  Ni33  1  0.18442547  0.54542611  0.66430844  1
  Ni  Ni34  1  0.68442547  0.45457389  0.83569156  1
  Ni  Ni35  1  0.81557453  0.04542611  0.33569156  1
  Ni  Ni36  1  0.68442547  0.04542611  0.83569156  1
  Ni  Ni37  1  0.81557453  0.45457389  0.33569156  1
  Ni  Ni38  1  0.31557453  0.54542611  0.16430844  1
  Ni  Ni39  1  0.18442547  0.95457389  0.66430844  1
  Ni  Ni40  1  0.38171804  0.90465853  0.04424871  1
  Ni  Ni41  1  0.11828196  0.59534147  0.54424871  1
  Ni  Ni42  1  0.61828196  0.40465853  0.95575129  1
  Ni  Ni43  1  0.88171804  0.09534147  0.45575129  1
  Ni  Ni44  1  0.61828196  0.09534147  0.95575129  1
  Ni  Ni45  1  0.88171804  0.40465853  0.45575129  1
  Ni  Ni46  1  0.38171804  0.59534147  0.04424871  1
  Ni  Ni47  1  0.11828196  0.90465853  0.54424871  1
  Ni  Ni48  1  0.47778283  0.98526135  0.22733913  1
  Ni  Ni49  1  0.02221717  0.51473865  0.72733913  1
  Ni  Ni50  1  0.52221717  0.48526135  0.77266087  1
  Ni  Ni51  1  0.97778283  0.01473865  0.27266087  1
  Ni  Ni52  1  0.52221717  0.01473865  0.77266087  1
  Ni  Ni53  1  0.97778283  0.48526135  0.27266087  1
  Ni  Ni54  1  0.47778283  0.51473865  0.22733913  1
  Ni  Ni55  1  0.02221717  0.98526135  0.72733913  1
  Ni  Ni56  1  0.46126958  0.95122688  0.08599985  1
  Ni  Ni57  1  0.03873042  0.54877312  0.58599985  1
  Ni  Ni58  1  0.53873042  0.45122688  0.91400015  1
  Ni  Ni59  1  0.96126958  0.04877312  0.41400015  1
  Ni  Ni60  1  0.53873042  0.04877312  0.91400015  1
  Ni  Ni61  1  0.96126958  0.45122688  0.41400015  1
  Ni  Ni62  1  0.46126958  0.54877312  0.08599985  1
  Ni  Ni63  1  0.03873042  0.95122688  0.58599985  1
  Ni  Ni64  1  0.58558957  0.84752357  0.02695131  1
  Ni  Ni65  1  0.91441043  0.65247643  0.52695131  1
  Ni  Ni66  1  0.41441043  0.34752357  0.97304869  1
  Ni  Ni67  1  0.08558957  0.15247643  0.47304869  1
  Ni  Ni68  1  0.41441043  0.15247643  0.97304869  1
  Ni  Ni69  1  0.08558957  0.34752357  0.47304869  1
  Ni  Ni70  1  0.58558957  0.65247643  0.02695131  1
  Ni  Ni71  1  0.91441043  0.84752357  0.52695131  1
  Ni  Ni72  1  0.40380005  0.82880108  0.99888826  1
  Ni  Ni73  1  0.09619995  0.67119892  0.49888826  1
  Ni  Ni74  1  0.59619995  0.32880108  0.00111174  1
  Ni  Ni75  1  0.90380005  0.17119892  0.50111174  1
  Ni  Ni76  1  0.59619995  0.17119892  0.00111174  1
  Ni  Ni77  1  0.90380005  0.32880108  0.50111174  1
  Ni  Ni78  1  0.40380005  0.67119892  0.99888826  1
  Ni  Ni79  1  0.09619995  0.82880108  0.49888826  1
  Ni  Ni80  1  0.76157763  0.83499530  0.08558640  1
  Ni  Ni81  1  0.73842237  0.66500470  0.58558640  1
  Ni  Ni82  1  0.23842237  0.33499530  0.91441360  1
  Ni  Ni83  1  0.26157763  0.16500470  0.41441360  1
  Ni  Ni84  1  0.23842237  0.16500470  0.91441360  1
  Ni  Ni85  1  0.26157763  0.33499530  0.41441360  1
  Ni  Ni86  1  0.76157763  0.66500470  0.08558640  1
  Ni  Ni87  1  0.73842237  0.83499530  0.58558640  1
  Ni  Ni88  1  0.50638897  0.79926794  0.99189144  1
  Ni  Ni89  1  0.99361103  0.70073206  0.49189144  1
  Ni  Ni90  1  0.49361103  0.29926794  0.00810856  1
  Ni  Ni91  1  0.00638897  0.20073206  0.50810856  1
  Ni  Ni92  1  0.49361103  0.20073206  0.00810856  1
  Ni  Ni93  1  0.00638897  0.29926794  0.50810856  1
  Ni  Ni94  1  0.50638897  0.70073206  0.99189144  1
  Ni  Ni95  1  0.99361103  0.79926794  0.49189144  1
  Ni  Ni96  1  0.27622445  0.92552662  0.23635069  1
  Ni  Ni97  1  0.22377555  0.57447338  0.73635069  1
  Ni  Ni98  1  0.72377555  0.42552662  0.76364931  1
  Ni  Ni99  1  0.77622445  0.07447338  0.26364931  1
  Ni  Ni100  1  0.72377555  0.07447338  0.76364931  1
  Ni  Ni101  1  0.77622445  0.42552662  0.26364931  1
  Ni  Ni102  1  0.27622445  0.57447338  0.23635069  1
  Ni  Ni103  1  0.22377555  0.92552662  0.73635069  1
  Ni  Ni104  1  0.31366439  0.84643134  0.35265216  1
  Ni  Ni105  1  0.18633561  0.65356866  0.85265216  1
  Ni  Ni106  1  0.68633561  0.34643134  0.64734784  1
  Ni  Ni107  1  0.81366439  0.15356866  0.14734784  1
  Ni  Ni108  1  0.68633561  0.15356866  0.64734784  1
  Ni  Ni109  1  0.81366439  0.34643134  0.14734784  1
  Ni  Ni110  1  0.31366439  0.65356866  0.35265216  1
  Ni  Ni111  1  0.18633561  0.84643134  0.85265216  1
  Ni  Ni112  1  0.33798877  0.92600026  0.30654149  1
  Ni  Ni113  1  0.16201123  0.57399974  0.80654149  1
  Ni  Ni114  1  0.66201123  0.42600026  0.69345851  1
  Ni  Ni115  1  0.83798877  0.07399974  0.19345851  1
  Ni  Ni116  1  0.66201123  0.07399974  0.69345851  1
  Ni  Ni117  1  0.83798877  0.42600026  0.19345851  1
  Ni  Ni118  1  0.33798877  0.57399974  0.30654149  1
  Ni  Ni119  1  0.16201123  0.92600026  0.80654149  1
  Ni  Ni120  1  0.62509055  0.93121499  0.15048889  1
  Ni  Ni121  1  0.87490945  0.56878501  0.65048889  1
  Ni  Ni122  1  0.37490945  0.43121499  0.84951111  1
  Ni  Ni123  1  0.12509055  0.06878501  0.34951111  1
  Ni  Ni124  1  0.37490945  0.06878501  0.84951111  1
  Ni  Ni125  1  0.12509055  0.43121499  0.34951111  1
  Ni  Ni126  1  0.62509055  0.56878501  0.15048889  1
  Ni  Ni127  1  0.87490945  0.93121499  0.65048889  1
  Ni  Ni128  1  0.33968071  0.75000000  0.00198661  1
  Ni  Ni129  1  0.16031929  0.75000000  0.50198661  1
  Ni  Ni130  1  0.66031929  0.25000000  0.99801339  1
  Ni  Ni131  1  0.83968071  0.25000000  0.49801339  1
  Ni  Ni132  1  0.80205352  0.75000000  0.21002720  1
  Ni  Ni133  1  0.69794648  0.75000000  0.71002720  1
  Ni  Ni134  1  0.19794648  0.25000000  0.78997280  1
  Ni  Ni135  1  0.30205352  0.25000000  0.28997280  1
  Ni  Ni136  1  0.49256513  0.82895724  0.38579422  1
  Ni  Ni137  1  0.00743487  0.67104276  0.88579422  1
  Ni  Ni138  1  0.50743487  0.32895724  0.61420578  1
  Ni  Ni139  1  0.99256513  0.17104276  0.11420578  1
  Ni  Ni140  1  0.50743487  0.17104276  0.61420578  1
  Ni  Ni141  1  0.99256513  0.32895724  0.11420578  1
  Ni  Ni142  1  0.49256513  0.67104276  0.38579422  1
  Ni  Ni143  1  0.00743487  0.82895724  0.88579422  1
  Ni  Ni144  1  0.43697407  0.95574484  0.30205456  1
  Ni  Ni145  1  0.06302593  0.54425516  0.80205456  1
  Ni  Ni146  1  0.56302593  0.45574484  0.69794544  1
  Ni  Ni147  1  0.93697407  0.04425516  0.19794544  1
  Ni  Ni148  1  0.56302593  0.04425516  0.69794544  1
  Ni  Ni149  1  0.93697407  0.45574484  0.19794544  1
  Ni  Ni150  1  0.43697407  0.54425516  0.30205456  1
  Ni  Ni151  1  0.06302593  0.95574484  0.80205456  1
  Ni  Ni152  1  0.38945409  0.79898546  0.39188751  1
  Ni  Ni153  1  0.11054591  0.70101454  0.89188751  1
  Ni  Ni154  1  0.61054591  0.29898546  0.60811249  1
  Ni  Ni155  1  0.88945409  0.20101454  0.10811249  1
  Ni  Ni156  1  0.61054591  0.20101454  0.60811249  1
  Ni  Ni157  1  0.88945409  0.29898546  0.10811249  1
  Ni  Ni158  1  0.38945409  0.70101454  0.39188751  1
  Ni  Ni159  1  0.11054591  0.79898546  0.89188751  1
  Ni  Ni160  1  0.67566864  0.79682173  0.03914250  1
  Ni  Ni161  1  0.82433136  0.70317827  0.53914250  1
  Ni  Ni162  1  0.32433136  0.29682173  0.96085750  1
  Ni  Ni163  1  0.17566864  0.20317827  0.46085750  1
  Ni  Ni164  1  0.32433136  0.20317827  0.96085750  1
  Ni  Ni165  1  0.17566864  0.29682173  0.46085750  1
  Ni  Ni166  1  0.67566864  0.70317827  0.03914250  1
  Ni  Ni167  1  0.82433136  0.79682173  0.53914250  1
  Ni  Ni168  1  0.67151800  0.83407559  0.29299179  1
  Ni  Ni169  1  0.82848200  0.66592441  0.79299179  1
  Ni  Ni170  1  0.32848200  0.33407559  0.70700821  1
  Ni  Ni171  1  0.17151800  0.16592441  0.20700821  1
  Ni  Ni172  1  0.32848200  0.16592441  0.70700821  1
  Ni  Ni173  1  0.17151800  0.33407559  0.20700821  1
  Ni  Ni174  1  0.67151800  0.66592441  0.29299179  1
  Ni  Ni175  1  0.82848200  0.83407559  0.79299179  1
  Ni  Ni176  1  0.71366734  0.87704748  0.15691192  1
  Ni  Ni177  1  0.78633266  0.62295252  0.65691192  1
  Ni  Ni178  1  0.28633266  0.37704748  0.84308808  1
  Ni  Ni179  1  0.21366734  0.12295252  0.34308808  1
  Ni  Ni180  1  0.28633266  0.12295252  0.84308808  1
  Ni  Ni181  1  0.21366734  0.37704748  0.34308808  1
  Ni  Ni182  1  0.71366734  0.62295252  0.15691192  1
  Ni  Ni183  1  0.78633266  0.87704748  0.65691192  1
  Ni  Ni184  1  0.73586946  0.83027298  0.22544273  1
  Ni  Ni185  1  0.76413054  0.66972702  0.72544273  1
  Ni  Ni186  1  0.26413054  0.33027298  0.77455727  1
  Ni  Ni187  1  0.23586946  0.16972702  0.27455727  1
  Ni  Ni188  1  0.26413054  0.16972702  0.77455727  1
  Ni  Ni189  1  0.23586946  0.33027298  0.27455727  1
  Ni  Ni190  1  0.73586946  0.66972702  0.22544273  1
  Ni  Ni191  1  0.76413054  0.83027298  0.72544273  1
  Ni  Ni192  1  0.51511960  0.90639977  0.34267051  1
  Ni  Ni193  1  0.98488040  0.59360023  0.84267051  1
  Ni  Ni194  1  0.48488040  0.40639977  0.65732949  1
  Ni  Ni195  1  0.01511960  0.09360023  0.15732949  1
  Ni  Ni196  1  0.48488040  0.09360023  0.65732949  1
  Ni  Ni197  1  0.01511960  0.40639977  0.15732949  1
  Ni  Ni198  1  0.51511960  0.59360023  0.34267051  1
  Ni  Ni199  1  0.98488040  0.90639977  0.84267051  1
  Ni  Ni200  1  0.29225296  0.90571604  0.09278774  1
  Ni  Ni201  1  0.20774704  0.59428396  0.59278774  1
  Ni  Ni202  1  0.70774704  0.40571604  0.90721226  1
  Ni  Ni203  1  0.79225296  0.09428396  0.40721226  1
  Ni  Ni204  1  0.70774704  0.09428396  0.90721226  1
  Ni  Ni205  1  0.79225296  0.40571604  0.40721226  1
  Ni  Ni206  1  0.29225296  0.59428396  0.09278774  1
  Ni  Ni207  1  0.20774704  0.90571604  0.59278774  1
  Ni  Ni208  1  0.60395441  0.90710246  0.29440260  1
  Ni  Ni209  1  0.89604559  0.59289754  0.79440260  1
  Ni  Ni210  1  0.39604559  0.40710246  0.70559740  1
  Ni  Ni211  1  0.10395441  0.09289754  0.20559740  1
  Ni  Ni212  1  0.39604559  0.09289754  0.70559740  1
  Ni  Ni213  1  0.10395441  0.40710246  0.20559740  1
  Ni  Ni214  1  0.60395441  0.59289754  0.29440260  1
  Ni  Ni215  1  0.89604559  0.90710246  0.79440260  1
  Ni  Ni216  1  0.23009298  0.82951720  0.09574638  1
  Ni  Ni217  1  0.26990702  0.67048280  0.59574638  1
  Ni  Ni218  1  0.76990702  0.32951720  0.90425362  1
  Ni  Ni219  1  0.73009298  0.17048280  0.40425362  1
  Ni  Ni220  1  0.76990702  0.17048280  0.90425362  1
  Ni  Ni221  1  0.73009298  0.32951720  0.40425362  1
  Ni  Ni222  1  0.23009298  0.67048280  0.09574638  1
  Ni  Ni223  1  0.26990702  0.82951720  0.59574638  1
  Ni  Ni224  1  0.21258977  0.84630740  0.23956240  1
  Ni  Ni225  1  0.28741023  0.65369260  0.73956240  1
  Ni  Ni226  1  0.78741023  0.34630740  0.76043760  1
  Ni  Ni227  1  0.71258977  0.15369260  0.26043760  1
  Ni  Ni228  1  0.78741023  0.15369260  0.76043760  1
  Ni  Ni229  1  0.71258977  0.34630740  0.26043760  1
  Ni  Ni230  1  0.21258977  0.65369260  0.23956240  1
  Ni  Ni231  1  0.28741023  0.84630740  0.73956240  1
  Ni  Ni232  1  0.23581577  0.79731749  0.31141058  1
  Ni  Ni233  1  0.26418423  0.70268251  0.81141058  1
  Ni  Ni234  1  0.76418423  0.29731749  0.68858942  1
  Ni  Ni235  1  0.73581577  0.20268251  0.18858942  1
  Ni  Ni236  1  0.76418423  0.20268251  0.68858942  1
  Ni  Ni237  1  0.73581577  0.29731749  0.18858942  1
  Ni  Ni238  1  0.23581577  0.70268251  0.31141058  1
  Ni  Ni239  1  0.26418423  0.79731749  0.81141058  1
  Ni  Ni240  1  0.19012749  0.79912691  0.17053408  1
  Ni  Ni241  1  0.30987251  0.70087309  0.67053408  1
  Ni  Ni242  1  0.80987251  0.29912691  0.82946592  1
  Ni  Ni243  1  0.69012749  0.20087309  0.32946592  1
  Ni  Ni244  1  0.80987251  0.20087309  0.82946592  1
  Ni  Ni245  1  0.69012749  0.29912691  0.32946592  1
  Ni  Ni246  1  0.19012749  0.70087309  0.17053408  1
  Ni  Ni247  1  0.30987251  0.79912691  0.67053408  1
  Ni  Ni248  1  0.56207815  0.92317971  0.08012853  1
  Ni  Ni249  1  0.93792185  0.57682029  0.58012853  1
  Ni  Ni250  1  0.43792185  0.42317971  0.91987147  1
  Ni  Ni251  1  0.06207815  0.07682029  0.41987147  1
  Ni  Ni252  1  0.43792185  0.07682029  0.91987147  1
  Ni  Ni253  1  0.06207815  0.42317971  0.41987147  1
  Ni  Ni254  1  0.56207815  0.57682029  0.08012853  1
  Ni  Ni255  1  0.93792185  0.92317971  0.58012853  1
  Cu  Cu256  1  0.94958075  0.75000000  0.09224274  1
  Cu  Cu257  1  0.55041925  0.75000000  0.59224274  1
  Cu  Cu258  1  0.05041925  0.25000000  0.90775726  1
  Cu  Cu259  1  0.44958075  0.25000000  0.40775726  1
  Cu  Cu260  1  0.91184327  0.75000000  0.27257454  1
  Cu  Cu261  1  0.58815673  0.75000000  0.77257454  1
  Cu  Cu262  1  0.08815673  0.25000000  0.72742546  1
  Cu  Cu263  1  0.41184327  0.25000000  0.22742546  1
  Cu  Cu264  1  0.83164688  0.91593986  0.02767446  1
  Cu  Cu265  1  0.66835312  0.58406014  0.52767446  1
  Cu  Cu266  1  0.16835312  0.41593986  0.97232554  1
  Cu  Cu267  1  0.33164688  0.08406014  0.47232554  1
  Cu  Cu268  1  0.16835312  0.08406014  0.97232554  1
  Cu  Cu269  1  0.33164688  0.41593986  0.47232554  1
  Cu  Cu270  1  0.83164688  0.58406014  0.02767446  1
  Cu  Cu271  1  0.66835312  0.91593986  0.52767446  1
