# generated using pymatgen
data_Cu43(Ni2C3)2
_symmetry_space_group_name_H-M   'P 1'
_cell_length_a   11.11554582
_cell_length_b   11.11554582
_cell_length_c   17.70646400
_cell_angle_alpha   90.00000000
_cell_angle_beta   90.00000000
_cell_angle_gamma   119.99999890
_symmetry_Int_Tables_number   1
_chemical_formula_structural   Cu43(Ni2C3)2
_chemical_formula_sum   'Cu86 Ni8 C12'
_cell_volume   1894.62848912
_cell_formula_units_Z   2
loop_
 _symmetry_equiv_pos_site_id
 _symmetry_equiv_pos_as_xyz
  1  'x, y, z'
loop_
 _atom_site_type_symbol
 _atom_site_label
 _atom_site_symmetry_multiplicity
 _atom_site_fract_x
 _atom_site_fract_y
 _atom_site_fract_z
 _atom_site_occupancy
  C  C0  1  0.53028900  0.00000000  0.59615300  1
  C  C1  1  0.46971100  0.00000000  0.40384700  1
  C  C2  1  0.00000000  0.53028900  0.59615300  1
  C  C3  1  0.46971100  0.00000000  0.09615300  1
  C  C4  1  0.00000000  0.53028900  0.90384700  1
  C  C5  1  0.00000000  0.46971100  0.40384700  1
  C  C6  1  0.53028900  0.00000000  0.90384700  1
  C  C7  1  0.00000000  0.46971100  0.09615300  1
  C  C8  1  0.46971100  0.46971100  0.59615300  1
  C  C9  1  0.53028900  0.53028900  0.40384700  1
  C  C10  1  0.53028900  0.53028900  0.09615300  1
  C  C11  1  0.46971100  0.46971100  0.90384700  1
  Ni  Ni12  1  0.00000000  0.00000000  0.50000000  1
  Ni  Ni13  1  0.00000000  0.00000000  0.00000000  1
  Ni  Ni14  1  0.72558700  0.00000000  0.75000000  1
  Ni  Ni15  1  0.27441300  0.00000000  0.25000000  1
  Ni  Ni16  1  0.00000000  0.72558700  0.75000000  1
  Ni  Ni17  1  0.00000000  0.27441300  0.25000000  1
  Ni  Ni18  1  0.27441300  0.27441300  0.75000000  1
  Ni  Ni19  1  0.72558700  0.72558700  0.25000000  1
  Cu  Cu20  1  0.14995200  0.59554500  0.75000000  1
  Cu  Cu21  1  0.85004800  0.40445500  0.25000000  1
  Cu  Cu22  1  0.40445500  0.55440700  0.75000000  1
  Cu  Cu23  1  0.59554500  0.14995200  0.75000000  1
  Cu  Cu24  1  0.59554500  0.44559300  0.25000000  1
  Cu  Cu25  1  0.40445500  0.85004800  0.25000000  1
  Cu  Cu26  1  0.44559300  0.85004800  0.75000000  1
  Cu  Cu27  1  0.55440700  0.40445500  0.75000000  1
  Cu  Cu28  1  0.55440700  0.14995200  0.25000000  1
  Cu  Cu29  1  0.44559300  0.59554500  0.25000000  1
  Cu  Cu30  1  0.85004800  0.44559300  0.75000000  1
  Cu  Cu31  1  0.14995200  0.55440700  0.25000000  1
  Cu  Cu32  1  0.15912400  0.00000000  0.11524800  1
  Cu  Cu33  1  0.84087600  0.00000000  0.88475200  1
  Cu  Cu34  1  0.00000000  0.15912400  0.11524800  1
  Cu  Cu35  1  0.84087600  0.00000000  0.61524800  1
  Cu  Cu36  1  0.00000000  0.15912400  0.38475200  1
  Cu  Cu37  1  0.00000000  0.84087600  0.88475200  1
  Cu  Cu38  1  0.15912400  0.00000000  0.38475200  1
  Cu  Cu39  1  0.00000000  0.84087600  0.61524800  1
  Cu  Cu40  1  0.84087600  0.84087600  0.11524800  1
  Cu  Cu41  1  0.15912400  0.15912400  0.88475200  1
  Cu  Cu42  1  0.15912400  0.15912400  0.61524800  1
  Cu  Cu43  1  0.84087600  0.84087600  0.38475200  1
  Cu  Cu44  1  0.24722200  0.49444300  0.50000000  1
  Cu  Cu45  1  0.75277800  0.50555700  0.50000000  1
  Cu  Cu46  1  0.50555700  0.75277800  0.50000000  1
  Cu  Cu47  1  0.75277800  0.50555700  0.00000000  1
  Cu  Cu48  1  0.49444300  0.24722200  0.00000000  1
  Cu  Cu49  1  0.49444300  0.24722200  0.50000000  1
  Cu  Cu50  1  0.24722200  0.49444300  0.00000000  1
  Cu  Cu51  1  0.50555700  0.75277800  0.00000000  1
  Cu  Cu52  1  0.24722200  0.75277800  0.50000000  1
  Cu  Cu53  1  0.75277800  0.24722200  0.50000000  1
  Cu  Cu54  1  0.75277800  0.24722200  0.00000000  1
  Cu  Cu55  1  0.24722200  0.75277800  0.00000000  1
  Cu  Cu56  1  0.14711600  0.00000000  0.75000000  1
  Cu  Cu57  1  0.85288400  0.00000000  0.25000000  1
  Cu  Cu58  1  0.00000000  0.14711600  0.75000000  1
  Cu  Cu59  1  0.00000000  0.85288400  0.25000000  1
  Cu  Cu60  1  0.85288400  0.85288400  0.75000000  1
  Cu  Cu61  1  0.14711600  0.14711600  0.25000000  1
  Cu  Cu62  1  0.33333300  0.66666700  0.62626300  1
  Cu  Cu63  1  0.66666700  0.33333300  0.37373700  1
  Cu  Cu64  1  0.66666700  0.33333300  0.12626300  1
  Cu  Cu65  1  0.66666700  0.33333300  0.87373700  1
  Cu  Cu66  1  0.33333300  0.66666700  0.87373700  1
  Cu  Cu67  1  0.33333300  0.66666700  0.12626300  1
  Cu  Cu68  1  0.33333300  0.66666700  0.37373700  1
  Cu  Cu69  1  0.66666700  0.33333300  0.62626300  1
  Cu  Cu70  1  0.25690900  0.00000000  0.53028500  1
  Cu  Cu71  1  0.74309100  0.00000000  0.46971500  1
  Cu  Cu72  1  0.00000000  0.25690900  0.53028500  1
  Cu  Cu73  1  0.74309100  0.00000000  0.03028500  1
  Cu  Cu74  1  0.00000000  0.25690900  0.96971500  1
  Cu  Cu75  1  0.00000000  0.74309100  0.46971500  1
  Cu  Cu76  1  0.25690900  0.00000000  0.96971500  1
  Cu  Cu77  1  0.00000000  0.74309100  0.03028500  1
  Cu  Cu78  1  0.74309100  0.74309100  0.53028500  1
  Cu  Cu79  1  0.25690900  0.25690900  0.46971500  1
  Cu  Cu80  1  0.25690900  0.25690900  0.03028500  1
  Cu  Cu81  1  0.74309100  0.74309100  0.96971500  1
  Cu  Cu82  1  0.15676500  0.39443400  0.66348300  1
  Cu  Cu83  1  0.84323500  0.60556600  0.33651700  1
  Cu  Cu84  1  0.60556600  0.76233000  0.66348300  1
  Cu  Cu85  1  0.84323500  0.60556600  0.16348300  1
  Cu  Cu86  1  0.39443400  0.15676500  0.83651700  1
  Cu  Cu87  1  0.39443400  0.23767000  0.33651700  1
  Cu  Cu88  1  0.15676500  0.39443400  0.83651700  1
  Cu  Cu89  1  0.60556600  0.84323500  0.16348300  1
  Cu  Cu90  1  0.23767000  0.84323500  0.66348300  1
  Cu  Cu91  1  0.39443400  0.23767000  0.16348300  1
  Cu  Cu92  1  0.76233000  0.60556600  0.83651700  1
  Cu  Cu93  1  0.76233000  0.15676500  0.33651700  1
  Cu  Cu94  1  0.60556600  0.76233000  0.83651700  1
  Cu  Cu95  1  0.23767000  0.39443400  0.16348300  1
  Cu  Cu96  1  0.60556600  0.84323500  0.33651700  1
  Cu  Cu97  1  0.39443400  0.15676500  0.66348300  1
  Cu  Cu98  1  0.76233000  0.15676500  0.16348300  1
  Cu  Cu99  1  0.23767000  0.39443400  0.33651700  1
  Cu  Cu100  1  0.23767000  0.84323500  0.83651700  1
  Cu  Cu101  1  0.76233000  0.60556600  0.66348300  1
  Cu  Cu102  1  0.84323500  0.23767000  0.83651700  1
  Cu  Cu103  1  0.15676500  0.76233000  0.16348300  1
  Cu  Cu104  1  0.15676500  0.76233000  0.33651700  1
  Cu  Cu105  1  0.84323500  0.23767000  0.66348300  1
