# generated using pymatgen
data_Cu5Ni
_symmetry_space_group_name_H-M   'P 1'
_cell_length_a   6.67723500
_cell_length_b   8.04802900
_cell_length_c   9.78717620
_cell_angle_alpha   68.97040121
_cell_angle_beta   90.00000000
_cell_angle_gamma   90.00000000
_symmetry_Int_Tables_number   1
_chemical_formula_structural   Cu5Ni
_chemical_formula_sum   'Cu20 Ni4'
_cell_volume   490.91821949
_cell_formula_units_Z   4
loop_
 _symmetry_equiv_pos_site_id
 _symmetry_equiv_pos_as_xyz
  1  'x, y, z'
loop_
 _atom_site_type_symbol
 _atom_site_label
 _atom_site_symmetry_multiplicity
 _atom_site_fract_x
 _atom_site_fract_y
 _atom_site_fract_z
 _atom_site_occupancy
  Ni  Ni0  1  0.31609800  0.76460400  0.47704300  1
  Ni  Ni1  1  0.81609800  0.23539600  0.02295700  1
  Ni  Ni2  1  0.68390200  0.23539600  0.52295700  1
  Ni  Ni3  1  0.18390200  0.76460400  0.97704300  1
  Cu  Cu4  1  0.19765700  0.87829100  0.52948800  1
  Cu  Cu5  1  0.69765700  0.12170900  0.97051200  1
  Cu  Cu6  1  0.80234300  0.12170900  0.47051200  1
  Cu  Cu7  1  0.30234300  0.87829100  0.02948800  1
  Cu  Cu8  1  0.26099700  0.58101000  0.51407000  1
  Cu  Cu9  1  0.76099700  0.41899000  0.98593000  1
  Cu  Cu10  1  0.73900300  0.41899000  0.48593000  1
  Cu  Cu11  1  0.23900300  0.58101000  0.01407000  1
  Cu  Cu12  1  0.48188200  0.83684300  0.38066400  1
  Cu  Cu13  1  0.98188200  0.16315700  0.11933600  1
  Cu  Cu14  1  0.51811800  0.16315700  0.61933600  1
  Cu  Cu15  1  0.01811800  0.83684300  0.88066400  1
  Cu  Cu16  1  0.55810600  0.68799700  0.71420600  1
  Cu  Cu17  1  0.05810600  0.31200300  0.78579400  1
  Cu  Cu18  1  0.44189400  0.31200300  0.28579400  1
  Cu  Cu19  1  0.94189400  0.68799700  0.21420600  1
  Cu  Cu20  1  0.22730500  0.24921200  0.81589600  1
  Cu  Cu21  1  0.72730500  0.75078800  0.68410400  1
  Cu  Cu22  1  0.77269500  0.75078800  0.18410400  1
  Cu  Cu23  1  0.27269500  0.24921200  0.31589600  1
