# generated using pymatgen
data_CuNiC8
_symmetry_space_group_name_H-M   'P 1'
_cell_length_a   7.49876100
_cell_length_b   5.22755200
_cell_length_c   5.32095522
_cell_angle_alpha   86.44199662
_cell_angle_beta   90.00000000
_cell_angle_gamma   90.00000000
_symmetry_Int_Tables_number   1
_chemical_formula_structural   CuNiC8
_chemical_formula_sum   'Cu2 Ni2 C16'
_cell_volume   208.18026678
_cell_formula_units_Z   2
loop_
 _symmetry_equiv_pos_site_id
 _symmetry_equiv_pos_as_xyz
  1  'x, y, z'
loop_
 _atom_site_type_symbol
 _atom_site_label
 _atom_site_symmetry_multiplicity
 _atom_site_fract_x
 _atom_site_fract_y
 _atom_site_fract_z
 _atom_site_occupancy
  C  C0  1  0.75000000  0.47520800  0.57231100  1
  C  C1  1  0.25000000  0.52479200  0.42768900  1
  C  C2  1  0.75000000  0.98359700  0.03393000  1
  C  C3  1  0.25000000  0.01640300  0.96607000  1
  Ni  Ni4  1  0.50000000  0.50000000  0.00000000  1
  Ni  Ni5  1  0.00000000  0.50000000  0.00000000  1
  Cu  Cu6  1  0.50000000  0.00000000  0.50000000  1
  Cu  Cu7  1  0.00000000  0.00000000  0.50000000  1
  C  C8  1  0.43391800  0.67162300  0.68305300  1
  C  C9  1  0.07058300  0.83156100  0.19566500  1
  C  C10  1  0.93391800  0.32837700  0.31694700  1
  C  C11  1  0.57058300  0.16843900  0.80433400  1
  C  C12  1  0.42941700  0.83156100  0.19566500  1
  C  C13  1  0.92941700  0.16843900  0.80433400  1
  C  C14  1  0.25000000  0.13663600  0.57817400  1
  C  C15  1  0.06608200  0.67162300  0.68305300  1
  C  C16  1  0.75000000  0.61891200  0.92508600  1
  C  C17  1  0.56608200  0.32837700  0.31694700  1
  C  C18  1  0.75000000  0.86336400  0.42182600  1
  C  C19  1  0.25000000  0.38108800  0.07491400  1
