# generated using pymatgen
data_Cu3NiC10
_symmetry_space_group_name_H-M   'P 1'
_cell_length_a   5.72567800
_cell_length_b   7.07961500
_cell_length_c   12.07360600
_cell_angle_alpha   90.00000000
_cell_angle_beta   90.00000000
_cell_angle_gamma   90.00000000
_symmetry_Int_Tables_number   1
_chemical_formula_structural   Cu3NiC10
_chemical_formula_sum   'Cu6 Ni2 C20'
_cell_volume   489.41081332
_cell_formula_units_Z   2
loop_
 _symmetry_equiv_pos_site_id
 _symmetry_equiv_pos_as_xyz
  1  'x, y, z'
loop_
 _atom_site_type_symbol
 _atom_site_label
 _atom_site_symmetry_multiplicity
 _atom_site_fract_x
 _atom_site_fract_y
 _atom_site_fract_z
 _atom_site_occupancy
  Ni  Ni0  1  0.76942300  0.50000000  0.75145800  1
  Ni  Ni1  1  0.23057700  0.50000000  0.25145800  1
  Cu  Cu2  1  0.25332400  0.75322600  0.00125000  1
  Cu  Cu3  1  0.74667600  0.75322600  0.50125000  1
  Cu  Cu4  1  0.74667600  0.24677400  0.50125000  1
  Cu  Cu5  1  0.25332400  0.24677400  0.00125000  1
  Cu  Cu6  1  0.73184500  0.00000000  0.24686800  1
  Cu  Cu7  1  0.26815500  0.00000000  0.74686800  1
  C  C8  1  0.86000900  0.50000000  0.09365300  1
  C  C9  1  0.65549900  0.00000000  0.91142900  1
  C  C10  1  0.34450100  0.00000000  0.41142900  1
  C  C11  1  0.13999100  0.50000000  0.59365300  1
  C  C12  1  0.01287400  0.76156200  0.16967600  1
  C  C13  1  0.48287600  0.74315400  0.83184700  1
  C  C14  1  0.51712400  0.74315400  0.33184700  1
  C  C15  1  0.98712600  0.76156200  0.66967600  1
  C  C16  1  0.98712600  0.23843800  0.66967600  1
  C  C17  1  0.51712400  0.25684600  0.33184700  1
  C  C18  1  0.48287600  0.25684600  0.83184700  1
  C  C19  1  0.01287400  0.23843800  0.16967600  1
  C  C20  1  0.48994300  0.00000000  0.08140900  1
  C  C21  1  0.01145600  0.50000000  0.91425500  1
  C  C22  1  0.98854400  0.50000000  0.41425500  1
  C  C23  1  0.51005700  0.00000000  0.58140900  1
  C  C24  1  0.47112700  0.50000000  0.08128500  1
  C  C25  1  0.04602200  0.00000000  0.91409800  1
  C  C26  1  0.95397800  0.00000000  0.41409800  1
  C  C27  1  0.52887300  0.50000000  0.58128500  1
