# generated using pymatgen
data_Cu4NiC3
_symmetry_space_group_name_H-M   'P 1'
_cell_length_a   6.35397519
_cell_length_b   6.35397519
_cell_length_c   10.89029700
_cell_angle_alpha   90.00000000
_cell_angle_beta   90.00000000
_cell_angle_gamma   117.21154186
_symmetry_Int_Tables_number   1
_chemical_formula_structural   Cu4NiC3
_chemical_formula_sum   'Cu8 Ni2 C6'
_cell_volume   391.01273384
_cell_formula_units_Z   2
loop_
 _symmetry_equiv_pos_site_id
 _symmetry_equiv_pos_as_xyz
  1  'x, y, z'
loop_
 _atom_site_type_symbol
 _atom_site_label
 _atom_site_symmetry_multiplicity
 _atom_site_fract_x
 _atom_site_fract_y
 _atom_site_fract_z
 _atom_site_occupancy
  C  C0  1  0.01256800  0.01256800  0.50000000  1
  C  C1  1  0.01256800  0.01256800  0.00000000  1
  C  C2  1  0.63153300  0.19129100  0.62982200  1
  C  C3  1  0.19129100  0.63153300  0.37017800  1
  C  C4  1  0.19129100  0.63153300  0.12982200  1
  C  C5  1  0.63153300  0.19129100  0.87017800  1
  Ni  Ni6  1  0.26364100  0.55858000  0.75000000  1
  Ni  Ni7  1  0.55858000  0.26364100  0.25000000  1
  Cu  Cu8  1  0.30240700  0.19725500  0.75000000  1
  Cu  Cu9  1  0.19725500  0.30240700  0.25000000  1
  Cu  Cu10  1  0.01073600  0.52070100  0.57583300  1
  Cu  Cu11  1  0.52070100  0.01073600  0.42416700  1
  Cu  Cu12  1  0.01073600  0.52070100  0.92416700  1
  Cu  Cu13  1  0.52070100  0.01073600  0.07583300  1
  Cu  Cu14  1  0.87358900  0.66427400  0.25000000  1
  Cu  Cu15  1  0.66427400  0.87358900  0.75000000  1
