# generated using pymatgen
data_Cu2NiC18
_symmetry_space_group_name_H-M   'P 1'
_cell_length_a   6.34886287
_cell_length_b   6.33647211
_cell_length_c   8.25429171
_cell_angle_alpha   85.50699209
_cell_angle_beta   94.55635288
_cell_angle_gamma   95.30744143
_symmetry_Int_Tables_number   1
_chemical_formula_structural   Cu2NiC18
_chemical_formula_sum   'Cu2 Ni1 C18'
_cell_volume   328.75247917
_cell_formula_units_Z   1
loop_
 _symmetry_equiv_pos_site_id
 _symmetry_equiv_pos_as_xyz
  1  'x, y, z'
loop_
 _atom_site_type_symbol
 _atom_site_label
 _atom_site_symmetry_multiplicity
 _atom_site_fract_x
 _atom_site_fract_y
 _atom_site_fract_z
 _atom_site_occupancy
  C  C0  1  0.14607600  0.39519100  0.17628300  1
  C  C1  1  0.03073800  0.56824600  0.74790800  1
  C  C2  1  0.38822500  0.92213300  0.26237600  1
  C  C3  1  0.45825200  0.96664100  0.75617000  1
  Ni  Ni4  1  0.85762200  0.66933800  0.33365100  1
  Cu  Cu5  1  0.92593500  0.10617500  0.49560700  1
  Cu  Cu6  1  0.58357600  0.44956500  0.00169800  1
  C  C7  1  0.00071800  0.98722900  0.97906600  1
  C  C8  1  0.46370400  0.50234700  0.51336600  1
  C  C9  1  0.99679000  0.00670000  0.22909300  1
  C  C10  1  0.05524400  0.97300100  0.74391400  1
  C  C11  1  0.51014200  0.54267900  0.26726500  1
  C  C12  1  0.42984300  0.55128800  0.74367500  1
  C  C13  1  0.17690500  0.73790500  0.02101700  1
  C  C14  1  0.86387900  0.26853900  0.94171800  1
  C  C15  1  0.30400000  0.22714100  0.48965400  1
  C  C16  1  0.65559800  0.82965400  0.50300100  1
  C  C17  1  0.31246700  0.17128600  0.00520000  1
  C  C18  1  0.73692000  0.80268500  0.96644700  1
  C  C19  1  0.19578100  0.65514600  0.45849900  1
  C  C20  1  0.75133500  0.38585900  0.55189000  1
