# generated using pymatgen
data_CuNiC24
_symmetry_space_group_name_H-M   'P 1'
_cell_length_a   9.54344628
_cell_length_b   9.54344628
_cell_length_c   17.76178500
_cell_angle_alpha   90.00000000
_cell_angle_beta   90.00000000
_cell_angle_gamma   120.00000195
_symmetry_Int_Tables_number   1
_chemical_formula_structural   CuNiC24
_chemical_formula_sum   'Cu2 Ni2 C48'
_cell_volume   1400.96633198
_cell_formula_units_Z   2
loop_
 _symmetry_equiv_pos_site_id
 _symmetry_equiv_pos_as_xyz
  1  'x, y, z'
loop_
 _atom_site_type_symbol
 _atom_site_label
 _atom_site_symmetry_multiplicity
 _atom_site_fract_x
 _atom_site_fract_y
 _atom_site_fract_z
 _atom_site_occupancy
  Ni  Ni0  1  0.33333300  0.66666700  0.75000000  1
  Ni  Ni1  1  0.66666700  0.33333300  0.25000000  1
  Cu  Cu2  1  0.66666700  0.33333300  0.75000000  1
  Cu  Cu3  1  0.33333300  0.66666700  0.25000000  1
  C  C4  1  0.84295600  0.03631400  0.56748700  1
  C  C5  1  0.15704400  0.96368600  0.43251300  1
  C  C6  1  0.96368600  0.80664200  0.56748700  1
  C  C7  1  0.84295600  0.80664200  0.93251300  1
  C  C8  1  0.03631400  0.19335800  0.43251300  1
  C  C9  1  0.15704400  0.19335800  0.06748700  1
  C  C10  1  0.19335800  0.15704400  0.56748700  1
  C  C11  1  0.96368600  0.15704400  0.93251300  1
  C  C12  1  0.80664200  0.84295600  0.43251300  1
  C  C13  1  0.03631400  0.84295600  0.06748700  1
  C  C14  1  0.19335800  0.03631400  0.93251300  1
  C  C15  1  0.80664200  0.96368600  0.06748700  1
  C  C16  1  0.64143500  0.07132700  0.65391600  1
  C  C17  1  0.35856500  0.92867300  0.34608400  1
  C  C18  1  0.92867300  0.57010800  0.65391600  1
  C  C19  1  0.64143500  0.57010800  0.84608400  1
  C  C20  1  0.07132700  0.42989200  0.34608400  1
  C  C21  1  0.35856500  0.42989200  0.15391600  1
  C  C22  1  0.42989200  0.35856500  0.65391600  1
  C  C23  1  0.92867300  0.35856500  0.84608400  1
  C  C24  1  0.57010800  0.64143500  0.34608400  1
  C  C25  1  0.07132700  0.64143500  0.15391600  1
  C  C26  1  0.42989200  0.07132700  0.84608400  1
  C  C27  1  0.57010800  0.92867300  0.15391600  1
  C  C28  1  0.04206800  0.22639900  0.65748400  1
  C  C29  1  0.95793200  0.77360100  0.34251600  1
  C  C30  1  0.77360100  0.81566900  0.65748400  1
  C  C31  1  0.04206800  0.81566900  0.84251600  1
  C  C32  1  0.22639900  0.18433100  0.34251600  1
  C  C33  1  0.95793200  0.18433100  0.15748400  1
  C  C34  1  0.18433100  0.95793200  0.65748400  1
  C  C35  1  0.77360100  0.95793200  0.84251600  1
  C  C36  1  0.81566900  0.04206800  0.34251600  1
  C  C37  1  0.22639900  0.04206800  0.15748400  1
  C  C38  1  0.18433100  0.22639900  0.84251600  1
  C  C39  1  0.81566900  0.77360100  0.15748400  1
  C  C40  1  0.26965800  0.40900800  0.49953700  1
  C  C41  1  0.73034200  0.59099200  0.50046300  1
  C  C42  1  0.59099200  0.86065000  0.49953700  1
  C  C43  1  0.26965800  0.86065000  0.00046300  1
  C  C44  1  0.40900800  0.13935000  0.50046300  1
  C  C45  1  0.73034200  0.13935000  0.99953700  1
  C  C46  1  0.13935000  0.73034200  0.49953700  1
  C  C47  1  0.59099200  0.73034200  0.00046300  1
  C  C48  1  0.86065000  0.26965800  0.50046300  1
  C  C49  1  0.40900800  0.26965800  0.99953700  1
  C  C50  1  0.13935000  0.40900800  0.00046300  1
  C  C51  1  0.86065000  0.59099200  0.99953700  1
