# generated using pymatgen
data_CuNiC8
_symmetry_space_group_name_H-M   'P 1'
_cell_length_a   5.73052781
_cell_length_b   5.74434436
_cell_length_c   8.08600362
_cell_angle_alpha   90.00000000
_cell_angle_beta   90.00000000
_cell_angle_gamma   90.00000000
_symmetry_Int_Tables_number   1
_chemical_formula_structural   CuNiC8
_chemical_formula_sum   'Cu2 Ni2 C16'
_cell_volume   266.17607876
_cell_formula_units_Z   2
loop_
 _symmetry_equiv_pos_site_id
 _symmetry_equiv_pos_as_xyz
  1  'x, y, z'
loop_
 _atom_site_type_symbol
 _atom_site_label
 _atom_site_symmetry_multiplicity
 _atom_site_fract_x
 _atom_site_fract_y
 _atom_site_fract_z
 _atom_site_occupancy
  Ni  Ni0  1  0.49678403  0.76087836  0.00000000  1
  Ni  Ni1  1  0.99678403  0.23912164  0.50000000  1
  Cu  Cu2  1  0.50963385  0.71232540  0.50000000  1
  Cu  Cu3  1  0.00963385  0.28767460  0.00000000  1
  C  C4  1  -0.00116737  0.75326374  0.25107417  1
  C  C5  1  0.49883263  0.24673626  0.24892583  1
  C  C6  1  -0.00116737  0.75326374  0.74892583  1
  C  C7  1  0.49883263  0.24673626  0.75107417  1
  C  C8  1  0.45872714  0.25989696  0.50000000  1
  C  C9  1  0.95872714  0.74010304  0.00000000  1
  C  C10  1  0.56949559  0.24759724  0.00000000  1
  C  C11  1  0.06949559  0.75240276  0.50000000  1
  C  C12  1  0.21280925  0.02661933  0.22170674  1
  C  C13  1  0.71280925  0.97338067  0.27829326  1
  C  C14  1  0.77103782  0.48761545  0.73030901  1
  C  C15  1  0.27103782  0.51238455  0.76969099  1
  C  C16  1  0.77103782  0.48761545  0.26969099  1
  C  C17  1  0.27103782  0.51238455  0.23030901  1
  C  C18  1  0.21280925  0.02661933  0.77829326  1
  C  C19  1  0.71280925  0.97338067  0.72170674  1
