# generated using pymatgen
data_Cu2Ni3C11
_symmetry_space_group_name_H-M   'P 1'
_cell_length_a   9.49412986
_cell_length_b   9.49412986
_cell_length_c   12.31735897
_cell_angle_alpha   75.74247141
_cell_angle_beta   75.74247141
_cell_angle_gamma   38.42391791
_symmetry_Int_Tables_number   1
_chemical_formula_structural   Cu2Ni3C11
_chemical_formula_sum   'Cu8 Ni12 C44'
_cell_volume   666.12375291
_cell_formula_units_Z   4
loop_
 _symmetry_equiv_pos_site_id
 _symmetry_equiv_pos_as_xyz
  1  'x, y, z'
loop_
 _atom_site_type_symbol
 _atom_site_label
 _atom_site_symmetry_multiplicity
 _atom_site_fract_x
 _atom_site_fract_y
 _atom_site_fract_z
 _atom_site_occupancy
  Ni  Ni0  1  0.83767400  0.66338200  0.90724600  1
  Ni  Ni1  1  0.33661800  0.16232600  0.59275400  1
  Ni  Ni2  1  0.16232600  0.33661800  0.09275400  1
  Ni  Ni3  1  0.66338200  0.83767400  0.40724600  1
  Ni  Ni4  1  0.72499600  0.09210600  0.86022600  1
  Ni  Ni5  1  0.90789400  0.27500400  0.63977400  1
  Ni  Ni6  1  0.27500400  0.90789400  0.13977400  1
  Ni  Ni7  1  0.09210600  0.72499600  0.36022600  1
  Ni  Ni8  1  0.51788400  0.70862800  0.81586100  1
  Ni  Ni9  1  0.29137200  0.48211600  0.68413900  1
  Ni  Ni10  1  0.48211600  0.29137200  0.18413900  1
  Ni  Ni11  1  0.70862800  0.51788400  0.31586100  1
  Cu  Cu12  1  0.64839200  0.86087700  0.14235100  1
  Cu  Cu13  1  0.13912300  0.35160800  0.35764900  1
  Cu  Cu14  1  0.35160800  0.13912300  0.85764900  1
  Cu  Cu15  1  0.86087700  0.64839200  0.64235100  1
  Cu  Cu16  1  0.25096700  0.60621600  0.90333800  1
  Cu  Cu17  1  0.39378400  0.74903300  0.59666200  1
  Cu  Cu18  1  0.74903300  0.39378400  0.09666200  1
  Cu  Cu19  1  0.60621600  0.25096700  0.40333800  1
  C  C20  1  0.03641400  0.01536000  0.86818600  1
  C  C21  1  0.98464000  0.96358600  0.63181400  1
  C  C22  1  0.96358600  0.98464000  0.13181400  1
  C  C23  1  0.01536000  0.03641400  0.36818600  1
  C  C24  1  0.81688200  0.27447300  0.90452000  1
  C  C25  1  0.72552700  0.18311900  0.59548000  1
  C  C26  1  0.18311800  0.72552700  0.09548000  1
  C  C27  1  0.27447300  0.81688200  0.40452000  1
  C  C28  1  0.84042000  0.65310000  0.07095400  1
  C  C29  1  0.34690000  0.15958000  0.42904600  1
  C  C30  1  0.15958000  0.34690000  0.92904600  1
  C  C31  1  0.65310000  0.84042000  0.57095400  1
  C  C32  1  0.01262700  0.76455500  0.86648600  1
  C  C33  1  0.23544500  0.98737300  0.63351400  1
  C  C34  1  0.98737300  0.23544500  0.13351400  1
  C  C35  1  0.76455500  0.01262700  0.36648600  1
  C  C36  1  0.28273800  0.74857800  0.88170800  1
  C  C37  1  0.25142200  0.71726200  0.61829200  1
  C  C38  1  0.71726200  0.25142200  0.11829200  1
  C  C39  1  0.74857800  0.28273800  0.38170800  1
  C  C40  1  0.58814800  0.99972800  0.88940700  1
  C  C41  1  0.00027200  0.41185300  0.61059300  1
  C  C42  1  0.41185300  0.00027200  0.11059300  1
  C  C43  1  0.99972800  0.58814800  0.38940700  1
  C  C44  1  0.32882700  0.99312900  0.87930100  1
  C  C45  1  0.00687100  0.67117300  0.62069900  1
  C  C46  1  0.67117300  0.00687100  0.12069900  1
  C  C47  1  0.99312900  0.32882700  0.37930100  1
  C  C48  1  0.59390500  0.57219600  0.67667700  1
  C  C49  1  0.42780400  0.40609500  0.82332300  1
  C  C50  1  0.40609500  0.42780400  0.32332300  1
  C  C51  1  0.57219600  0.59390500  0.17667700  1
  C  C52  1  0.72490200  0.48558300  0.97294700  1
  C  C53  1  0.51441700  0.27509800  0.52705300  1
  C  C54  1  0.27509800  0.51441700  0.02705300  1
  C  C55  1  0.48558300  0.72490200  0.47294700  1
  C  C56  1  0.87204600  0.16706800  0.85492700  1
  C  C57  1  0.83293200  0.12795400  0.64507300  1
  C  C58  1  0.12795400  0.83293200  0.14507300  1
  C  C59  1  0.16706800  0.87204600  0.35492700  1
  C  C60  1  0.66602800  0.76580500  0.26846300  1
  C  C61  1  0.23419500  0.33397200  0.23153700  1
  C  C62  1  0.33397200  0.23419500  0.73153700  1
  C  C63  1  0.76580500  0.66602800  0.76846300  1
