# generated using pymatgen
data_Cu18Ni4C5
_symmetry_space_group_name_H-M   'P 1'
_cell_length_a   6.88747488
_cell_length_b   6.88747488
_cell_length_c   17.28288954
_cell_angle_alpha   89.94620657
_cell_angle_beta   89.94620657
_cell_angle_gamma   94.51971211
_symmetry_Int_Tables_number   1
_chemical_formula_structural   Cu18Ni4C5
_chemical_formula_sum   'Cu36 Ni8 C10'
_cell_volume   817.30349679
_cell_formula_units_Z   2
loop_
 _symmetry_equiv_pos_site_id
 _symmetry_equiv_pos_as_xyz
  1  'x, y, z'
loop_
 _atom_site_type_symbol
 _atom_site_label
 _atom_site_symmetry_multiplicity
 _atom_site_fract_x
 _atom_site_fract_y
 _atom_site_fract_z
 _atom_site_occupancy
  C  C0  1  0.84863800  0.48947000  0.40533500  1
  C  C1  1  0.48947000  0.84863800  0.90533500  1
  C  C2  1  0.15136200  0.51053000  0.59466500  1
  C  C3  1  0.51053000  0.15136200  0.09466500  1
  C  C4  1  0.64598800  0.84459300  0.55002100  1
  C  C5  1  0.84459300  0.64598800  0.05002100  1
  C  C6  1  0.35401200  0.15540700  0.44997900  1
  C  C7  1  0.15540700  0.35401200  0.94997900  1
  C  C8  1  0.14221900  0.85778100  0.25000000  1
  C  C9  1  0.85778100  0.14221900  0.75000000  1
  Ni  Ni10  1  0.90084400  0.97872600  0.37453500  1
  Ni  Ni11  1  0.97872600  0.90084400  0.87453500  1
  Ni  Ni12  1  0.09915600  0.02127400  0.62546500  1
  Ni  Ni13  1  0.02127400  0.09915600  0.12546500  1
  Ni  Ni14  1  0.65462700  0.38812600  0.58978300  1
  Ni  Ni15  1  0.38812600  0.65462700  0.08978300  1
  Ni  Ni16  1  0.34537300  0.61187400  0.41021700  1
  Ni  Ni17  1  0.61187400  0.34537300  0.91021700  1
  Cu  Cu18  1  0.11788800  0.03004100  0.35800400  1
  Cu  Cu19  1  0.03004100  0.11788800  0.85800400  1
  Cu  Cu20  1  0.84602300  0.86582600  0.29903500  1
  Cu  Cu21  1  0.86582600  0.84602300  0.79903500  1
  Cu  Cu22  1  0.79317700  0.15093600  0.37819600  1
  Cu  Cu23  1  0.15093600  0.79317700  0.87819600  1
  Cu  Cu24  1  0.87418200  0.84772700  0.44039700  1
  Cu  Cu25  1  0.84772700  0.87418200  0.94039700  1
  Cu  Cu26  1  0.96995900  0.88211200  0.14199600  1
  Cu  Cu27  1  0.88211200  0.96995900  0.64199600  1
  Cu  Cu28  1  0.20682300  0.84906400  0.62180400  1
  Cu  Cu29  1  0.84906400  0.20682300  0.12180400  1
  Cu  Cu30  1  0.13417400  0.15397700  0.20096500  1
  Cu  Cu31  1  0.15397700  0.13417400  0.70096500  1
  Cu  Cu32  1  0.12581800  0.15227300  0.55960300  1
  Cu  Cu33  1  0.15227300  0.12581800  0.05960300  1
  Cu  Cu34  1  0.82011000  0.49321100  0.54967300  1
  Cu  Cu35  1  0.49321100  0.82011000  0.04967300  1
  Cu  Cu36  1  0.49960300  0.51842800  0.60413900  1
  Cu  Cu37  1  0.51842800  0.49960300  0.10413900  1
  Cu  Cu38  1  0.58573600  0.20509000  0.55182800  1
  Cu  Cu39  1  0.20509000  0.58573600  0.05182800  1
  Cu  Cu40  1  0.32925600  0.73127700  0.17078200  1
  Cu  Cu41  1  0.73127700  0.32925600  0.67078200  1
  Cu  Cu42  1  0.17989000  0.50678900  0.45032700  1
  Cu  Cu43  1  0.50678900  0.17989000  0.95032700  1
  Cu  Cu44  1  0.41426400  0.79491000  0.44817200  1
  Cu  Cu45  1  0.79491000  0.41426400  0.94817200  1
  Cu  Cu46  1  0.50039700  0.48157200  0.39586100  1
  Cu  Cu47  1  0.48157200  0.50039700  0.89586100  1
  Cu  Cu48  1  0.26872300  0.67074400  0.32921800  1
  Cu  Cu49  1  0.67074400  0.26872300  0.82921800  1
  Cu  Cu50  1  0.42301700  0.00897700  0.23343800  1
  Cu  Cu51  1  0.00897700  0.42301700  0.73343800  1
  Cu  Cu52  1  0.99102300  0.57698300  0.26656200  1
  Cu  Cu53  1  0.57698300  0.99102300  0.76656200  1
