# generated using pymatgen
data_Cu2Ni2C15
_symmetry_space_group_name_H-M   'P 1'
_cell_length_a   7.45351600
_cell_length_b   7.22143500
_cell_length_c   8.25591301
_cell_angle_alpha   89.66750422
_cell_angle_beta   90.00000000
_cell_angle_gamma   90.00000000
_symmetry_Int_Tables_number   1
_chemical_formula_structural   Cu2Ni2C15
_chemical_formula_sum   'Cu4 Ni4 C30'
_cell_volume   444.36770687
_cell_formula_units_Z   2
loop_
 _symmetry_equiv_pos_site_id
 _symmetry_equiv_pos_as_xyz
  1  'x, y, z'
loop_
 _atom_site_type_symbol
 _atom_site_label
 _atom_site_symmetry_multiplicity
 _atom_site_fract_x
 _atom_site_fract_y
 _atom_site_fract_z
 _atom_site_occupancy
  C  C0  1  0.50000000  0.00000000  0.50000000  1
  C  C1  1  0.00000000  0.50000000  0.50000000  1
  C  C2  1  0.05180200  0.07064300  0.68125900  1
  C  C3  1  0.55180200  0.42935700  0.31874100  1
  C  C4  1  0.94819800  0.92935700  0.31874100  1
  C  C5  1  0.44819800  0.57064400  0.68125900  1
  C  C6  1  0.98578100  0.85908700  0.75097200  1
  C  C7  1  0.48578100  0.64091300  0.24902800  1
  C  C8  1  0.01421900  0.14091300  0.24902800  1
  C  C9  1  0.51421900  0.35908700  0.75097200  1
  C  C10  1  0.84398700  0.03871700  0.76084100  1
  C  C11  1  0.34398700  0.46128300  0.23915900  1
  C  C12  1  0.15601300  0.96128300  0.23915900  1
  C  C13  1  0.65601300  0.53871700  0.76084100  1
  C  C14  1  0.04348600  0.20087700  0.94505400  1
  C  C15  1  0.54348600  0.29912300  0.05494600  1
  C  C16  1  0.95651400  0.79912300  0.05494600  1
  C  C17  1  0.45651400  0.70087700  0.94505400  1
  C  C18  1  0.19502900  0.01034300  0.93478000  1
  C  C19  1  0.69502900  0.48965700  0.06522000  1
  C  C20  1  0.80497100  0.98965700  0.06522000  1
  C  C21  1  0.30497100  0.51034300  0.93478000  1
  Ni  Ni22  1  0.05261200  0.04932000  0.93347600  1
  Ni  Ni23  1  0.55261200  0.45068000  0.06652400  1
  Ni  Ni24  1  0.94738800  0.95068000  0.06652400  1
  Ni  Ni25  1  0.44738800  0.54932000  0.93347600  1
  Cu  Cu26  1  0.97869700  0.00128900  0.77163000  1
  Cu  Cu27  1  0.47869700  0.49871100  0.22837000  1
  Cu  Cu28  1  0.02130300  0.99871100  0.22837000  1
  Cu  Cu29  1  0.52130300  0.50128900  0.77163000  1
  C  C30  1  0.54195600  0.03048200  0.77892400  1
  C  C31  1  0.04195600  0.46951800  0.22107600  1
  C  C32  1  0.45804400  0.96951800  0.22107600  1
  C  C33  1  0.95804400  0.53048200  0.77892400  1
  C  C34  1  0.79427300  0.73238000  0.45996600  1
  C  C35  1  0.29427300  0.76762000  0.54003400  1
  C  C36  1  0.20572700  0.26762000  0.54003400  1
  C  C37  1  0.70572700  0.23238000  0.45996600  1
