# generated using pymatgen
data_Cu(NiC4)2
_symmetry_space_group_name_H-M   'P 1'
_cell_length_a   8.85043552
_cell_length_b   8.85043552
_cell_length_c   8.85043552
_cell_angle_alpha   151.84541303
_cell_angle_beta   151.84541303
_cell_angle_gamma   40.23909386
_symmetry_Int_Tables_number   1
_chemical_formula_structural   Cu(NiC4)2
_chemical_formula_sum   'Cu1 Ni2 C8'
_cell_volume   154.04420981
_cell_formula_units_Z   1
loop_
 _symmetry_equiv_pos_site_id
 _symmetry_equiv_pos_as_xyz
  1  'x, y, z'
loop_
 _atom_site_type_symbol
 _atom_site_label
 _atom_site_symmetry_multiplicity
 _atom_site_fract_x
 _atom_site_fract_y
 _atom_site_fract_z
 _atom_site_occupancy
  Ni  Ni0  1  0.32252900  0.32252900  0.00000000  1
  Ni  Ni1  1  0.67747100  0.67747100  0.00000000  1
  Cu  Cu2  1  0.00000000  0.00000000  0.00000000  1
  C  C3  1  0.41271300  0.91271300  0.50000000  1
  C  C4  1  0.75000000  0.25000000  0.50000000  1
  C  C5  1  0.08728700  0.58728700  0.50000000  1
  C  C6  1  0.25000000  0.75000000  0.50000000  1
  C  C7  1  0.58728700  0.08728700  0.50000000  1
  C  C8  1  0.91271300  0.41271300  0.50000000  1
  C  C9  1  0.81333400  0.81333400  0.00000000  1
  C  C10  1  0.18666600  0.18666600  0.00000000  1
