# generated using pymatgen
data_CuNiC
_symmetry_space_group_name_H-M   'P 1'
_cell_length_a   6.01847800
_cell_length_b   6.01847800
_cell_length_c   6.01847800
_cell_angle_alpha   90.00000000
_cell_angle_beta   90.00000000
_cell_angle_gamma   90.00000000
_symmetry_Int_Tables_number   1
_chemical_formula_structural   CuNiC
_chemical_formula_sum   'Cu4 Ni4 C4'
_cell_volume   218.00177617
_cell_formula_units_Z   4
loop_
 _symmetry_equiv_pos_site_id
 _symmetry_equiv_pos_as_xyz
  1  'x, y, z'
loop_
 _atom_site_type_symbol
 _atom_site_label
 _atom_site_symmetry_multiplicity
 _atom_site_fract_x
 _atom_site_fract_y
 _atom_site_fract_z
 _atom_site_occupancy
  Ni  Ni0  1  0.11465300  0.88534700  0.38534700  1
  Ni  Ni1  1  0.88534700  0.38534700  0.11465300  1
  Ni  Ni2  1  0.38534700  0.11465300  0.88534700  1
  Ni  Ni3  1  0.61465300  0.61465300  0.61465300  1
  C  C4  1  0.50156100  0.49843900  0.99843900  1
  C  C5  1  0.49843900  0.99843900  0.50156100  1
  C  C6  1  0.99843900  0.50156100  0.49843900  1
  C  C7  1  0.00156100  0.00156100  0.00156100  1
  Cu  Cu8  1  0.89058700  0.10941300  0.60941300  1
  Cu  Cu9  1  0.10941300  0.60941300  0.89058700  1
  Cu  Cu10  1  0.60941300  0.89058700  0.10941300  1
  Cu  Cu11  1  0.39058700  0.39058700  0.39058700  1
