# generated using pymatgen
data_Cu10Ni6C5
_symmetry_space_group_name_H-M   'P 1'
_cell_length_a   12.73208700
_cell_length_b   12.73208700
_cell_length_c   8.42726500
_cell_angle_alpha   90.00000000
_cell_angle_beta   90.00000000
_cell_angle_gamma   90.00000000
_symmetry_Int_Tables_number   1
_chemical_formula_structural   Cu10Ni6C5
_chemical_formula_sum   'Cu40 Ni24 C20'
_cell_volume   1366.11055192
_cell_formula_units_Z   4
loop_
 _symmetry_equiv_pos_site_id
 _symmetry_equiv_pos_as_xyz
  1  'x, y, z'
loop_
 _atom_site_type_symbol
 _atom_site_label
 _atom_site_symmetry_multiplicity
 _atom_site_fract_x
 _atom_site_fract_y
 _atom_site_fract_z
 _atom_site_occupancy
  C  C0  1  0.80281700  0.49301700  0.50000000  1
  C  C1  1  0.50698300  0.80281700  0.00000000  1
  C  C2  1  0.30281700  0.00698300  0.50000000  1
  C  C3  1  0.99301700  0.30281700  0.00000000  1
  C  C4  1  0.19718300  0.50698300  0.50000000  1
  C  C5  1  0.49301700  0.19718300  0.00000000  1
  C  C6  1  0.69718300  0.99301700  0.50000000  1
  C  C7  1  0.00698300  0.69718300  0.00000000  1
  C  C8  1  0.50000000  0.50000000  0.75000000  1
  C  C9  1  0.50000000  0.50000000  0.25000000  1
  C  C10  1  0.00000000  0.00000000  0.75000000  1
  C  C11  1  0.00000000  0.00000000  0.25000000  1
  C  C12  1  0.26090900  0.45257900  0.00000000  1
  C  C13  1  0.54742100  0.26090900  0.50000000  1
  C  C14  1  0.76090900  0.04742100  0.00000000  1
  C  C15  1  0.95257900  0.76090900  0.50000000  1
  C  C16  1  0.73909100  0.54742100  0.00000000  1
  C  C17  1  0.45257900  0.73909100  0.50000000  1
  C  C18  1  0.23909100  0.95257900  0.00000000  1
  C  C19  1  0.04742100  0.23909100  0.50000000  1
  Ni  Ni20  1  0.99583200  0.37528000  0.58482400  1
  Ni  Ni21  1  0.62472000  0.99583200  0.08482400  1
  Ni  Ni22  1  0.49583200  0.12472000  0.58482400  1
  Ni  Ni23  1  0.87528000  0.49583200  0.08482400  1
  Ni  Ni24  1  0.99583200  0.37528000  0.41517600  1
  Ni  Ni25  1  0.62472000  0.99583200  0.91517600  1
  Ni  Ni26  1  0.49583200  0.12472000  0.41517600  1
  Ni  Ni27  1  0.87528000  0.49583200  0.91517600  1
  Ni  Ni28  1  0.00416800  0.62472000  0.41517600  1
  Ni  Ni29  1  0.37528000  0.00416800  0.91517600  1
  Ni  Ni30  1  0.50416800  0.87528000  0.41517600  1
  Ni  Ni31  1  0.12472000  0.50416800  0.91517600  1
  Ni  Ni32  1  0.00416800  0.62472000  0.58482400  1
  Ni  Ni33  1  0.37528000  0.00416800  0.08482400  1
  Ni  Ni34  1  0.50416800  0.87528000  0.58482400  1
  Ni  Ni35  1  0.12472000  0.50416800  0.08482400  1
  Ni  Ni36  1  0.84928600  0.34928600  0.75000000  1
  Ni  Ni37  1  0.65071400  0.84928600  0.25000000  1
  Ni  Ni38  1  0.34928600  0.15071400  0.75000000  1
  Ni  Ni39  1  0.84928600  0.34928600  0.25000000  1
  Ni  Ni40  1  0.65071400  0.84928600  0.75000000  1
  Ni  Ni41  1  0.34928600  0.15071400  0.25000000  1
  Ni  Ni42  1  0.15071400  0.65071400  0.25000000  1
  Ni  Ni43  1  0.15071400  0.65071400  0.75000000  1
  Cu  Cu44  1  0.05608600  0.20828600  0.72906100  1
  Cu  Cu45  1  0.79171400  0.05608600  0.22906100  1
  Cu  Cu46  1  0.55608600  0.29171400  0.72906100  1
  Cu  Cu47  1  0.70828600  0.55608600  0.22906100  1
  Cu  Cu48  1  0.05608600  0.20828600  0.27093900  1
  Cu  Cu49  1  0.79171400  0.05608600  0.77093900  1
  Cu  Cu50  1  0.55608600  0.29171400  0.27093900  1
  Cu  Cu51  1  0.70828600  0.55608600  0.77093900  1
  Cu  Cu52  1  0.94391400  0.79171400  0.27093900  1
  Cu  Cu53  1  0.20828600  0.94391400  0.77093900  1
  Cu  Cu54  1  0.44391400  0.70828600  0.27093900  1
  Cu  Cu55  1  0.29171400  0.44391400  0.77093900  1
  Cu  Cu56  1  0.94391400  0.79171400  0.72906100  1
  Cu  Cu57  1  0.20828600  0.94391400  0.22906100  1
  Cu  Cu58  1  0.44391400  0.70828600  0.72906100  1
  Cu  Cu59  1  0.29171400  0.44391400  0.22906100  1
  Cu  Cu60  1  0.18520400  0.28975500  0.50000000  1
  Cu  Cu61  1  0.71024500  0.18520400  0.00000000  1
  Cu  Cu62  1  0.68520400  0.21024500  0.50000000  1
  Cu  Cu63  1  0.78975500  0.68520400  0.00000000  1
  Cu  Cu64  1  0.81479600  0.71024500  0.50000000  1
  Cu  Cu65  1  0.28975500  0.81479600  0.00000000  1
  Cu  Cu66  1  0.31479600  0.78975500  0.50000000  1
  Cu  Cu67  1  0.21024500  0.31479600  0.00000000  1
  Cu  Cu68  1  0.92434200  0.15602700  0.50000000  1
  Cu  Cu69  1  0.84397300  0.92434200  0.00000000  1
  Cu  Cu70  1  0.42434200  0.34397300  0.50000000  1
  Cu  Cu71  1  0.65602700  0.42434200  0.00000000  1
  Cu  Cu72  1  0.07565800  0.84397300  0.50000000  1
  Cu  Cu73  1  0.15602700  0.07565800  0.00000000  1
  Cu  Cu74  1  0.57565800  0.65602700  0.50000000  1
  Cu  Cu75  1  0.34397300  0.57565800  0.00000000  1
  Cu  Cu76  1  0.11228100  0.08612100  0.50000000  1
  Cu  Cu77  1  0.91387900  0.11228100  0.00000000  1
  Cu  Cu78  1  0.61228100  0.41387900  0.50000000  1
  Cu  Cu79  1  0.58612100  0.61228100  0.00000000  1
  Cu  Cu80  1  0.88771900  0.91387900  0.50000000  1
  Cu  Cu81  1  0.08612100  0.88771900  0.00000000  1
  Cu  Cu82  1  0.38771900  0.58612100  0.50000000  1
  Cu  Cu83  1  0.41387900  0.38771900  0.00000000  1
