# generated using pymatgen
data_Cu2NiC18
_symmetry_space_group_name_H-M   'P 1'
_cell_length_a   3.97914300
_cell_length_b   3.97914300
_cell_length_c   19.25434700
_cell_angle_alpha   90.00000000
_cell_angle_beta   90.00000000
_cell_angle_gamma   90.00000000
_symmetry_Int_Tables_number   1
_chemical_formula_structural   Cu2NiC18
_chemical_formula_sum   'Cu2 Ni1 C18'
_cell_volume   304.86522460
_cell_formula_units_Z   1
loop_
 _symmetry_equiv_pos_site_id
 _symmetry_equiv_pos_as_xyz
  1  'x, y, z'
loop_
 _atom_site_type_symbol
 _atom_site_label
 _atom_site_symmetry_multiplicity
 _atom_site_fract_x
 _atom_site_fract_y
 _atom_site_fract_z
 _atom_site_occupancy
  C  C0  1  0.50000000  0.50000000  0.50000000  1
  Ni  Ni1  1  0.50000000  0.50000000  0.00000000  1
  Cu  Cu2  1  0.50000000  0.50000000  0.77752800  1
  Cu  Cu3  1  0.50000000  0.50000000  0.22247200  1
  C  C4  1  0.00000000  0.00000000  0.67272500  1
  C  C5  1  0.00000000  0.00000000  0.32727500  1
  C  C6  1  0.00000000  0.00000000  0.89483100  1
  C  C7  1  0.00000000  0.00000000  0.10516900  1
  C  C8  1  0.50000000  0.00000000  0.69468200  1
  C  C9  1  0.00000000  0.50000000  0.69468200  1
  C  C10  1  0.50000000  0.00000000  0.30531800  1
  C  C11  1  0.00000000  0.50000000  0.30531800  1
  C  C12  1  0.50000000  0.00000000  0.89458900  1
  C  C13  1  0.00000000  0.50000000  0.89458900  1
  C  C14  1  0.50000000  0.00000000  0.10541100  1
  C  C15  1  0.00000000  0.50000000  0.10541100  1
  C  C16  1  0.00000000  0.00000000  0.79307100  1
  C  C17  1  0.00000000  0.00000000  0.20692900  1
  C  C18  1  0.00000000  0.00000000  0.57933100  1
  C  C19  1  0.00000000  0.00000000  0.42066900  1
  C  C20  1  0.00000000  0.00000000  0.00000000  1
