# generated using pymatgen
data_Cu6Ni2C5
_symmetry_space_group_name_H-M   'P 1'
_cell_length_a   7.38744122
_cell_length_b   7.38744122
_cell_length_c   8.03697834
_cell_angle_alpha   81.22711727
_cell_angle_beta   81.22711727
_cell_angle_gamma   120.01145592
_symmetry_Int_Tables_number   1
_chemical_formula_structural   Cu6Ni2C5
_chemical_formula_sum   'Cu6 Ni2 C5'
_cell_volume   361.69792122
_cell_formula_units_Z   1
loop_
 _symmetry_equiv_pos_site_id
 _symmetry_equiv_pos_as_xyz
  1  'x, y, z'
loop_
 _atom_site_type_symbol
 _atom_site_label
 _atom_site_symmetry_multiplicity
 _atom_site_fract_x
 _atom_site_fract_y
 _atom_site_fract_z
 _atom_site_occupancy
  C  C0  1  0.67353600  0.32646400  0.00000000  1
  C  C1  1  0.32646400  0.67353600  0.00000000  1
  C  C2  1  0.00000000  0.00000000  0.00000000  1
  C  C3  1  0.83375500  0.16624500  0.50000000  1
  C  C4  1  0.16624500  0.83375500  0.50000000  1
  Ni  Ni5  1  0.55365400  0.55365400  0.33568300  1
  Ni  Ni6  1  0.44634600  0.44634600  0.66431700  1
  Cu  Cu7  1  0.25292000  0.25292000  0.24988900  1
  Cu  Cu8  1  0.74708000  0.74708000  0.75011100  1
  Cu  Cu9  1  0.58233100  0.91285500  0.25041700  1
  Cu  Cu10  1  0.41766900  0.08714500  0.74958300  1
  Cu  Cu11  1  0.08714500  0.41766900  0.74958300  1
  Cu  Cu12  1  0.91285500  0.58233100  0.25041700  1
