# generated using pymatgen
data_Cu5NiC3
_symmetry_space_group_name_H-M   'P 1'
_cell_length_a   4.72774705
_cell_length_b   4.72774705
_cell_length_c   18.44349700
_cell_angle_alpha   90.00000000
_cell_angle_beta   90.00000000
_cell_angle_gamma   90.00411334
_symmetry_Int_Tables_number   1
_chemical_formula_structural   Cu5NiC3
_chemical_formula_sum   'Cu20 Ni4 C12'
_cell_volume   412.24152288
_cell_formula_units_Z   4
loop_
 _symmetry_equiv_pos_site_id
 _symmetry_equiv_pos_as_xyz
  1  'x, y, z'
loop_
 _atom_site_type_symbol
 _atom_site_label
 _atom_site_symmetry_multiplicity
 _atom_site_fract_x
 _atom_site_fract_y
 _atom_site_fract_z
 _atom_site_occupancy
  C  C0  1  0.00963600  0.98535200  0.75000000  1
  C  C1  1  0.98535200  0.00963600  0.25000000  1
  C  C2  1  0.48797400  0.48797400  0.50000000  1
  C  C3  1  0.48797400  0.48797400  0.00000000  1
  C  C4  1  0.01540800  0.00830300  0.42036500  1
  C  C5  1  0.00830300  0.01540800  0.57963500  1
  C  C6  1  0.00830300  0.01540800  0.92036500  1
  C  C7  1  0.01540800  0.00830300  0.07963500  1
  C  C8  1  0.51493700  0.49129900  0.17035600  1
  C  C9  1  0.49129900  0.51493700  0.67035600  1
  C  C10  1  0.51493700  0.49129900  0.32964400  1
  C  C11  1  0.49129900  0.51493700  0.82964400  1
  Ni  Ni12  1  0.18630500  0.18630500  0.50000000  1
  Ni  Ni13  1  0.18630500  0.18630500  0.00000000  1
  Ni  Ni14  1  0.68853800  0.31599400  0.25000000  1
  Ni  Ni15  1  0.31599400  0.68853800  0.75000000  1
  Cu  Cu16  1  0.19770800  0.20279000  0.33611200  1
  Cu  Cu17  1  0.20279000  0.19770800  0.66388800  1
  Cu  Cu18  1  0.20279000  0.19770800  0.83611200  1
  Cu  Cu19  1  0.19770800  0.20279000  0.16388800  1
  Cu  Cu20  1  0.69491600  0.29999500  0.58906500  1
  Cu  Cu21  1  0.69759800  0.29703900  0.08610500  1
  Cu  Cu22  1  0.69491600  0.29999500  0.91093500  1
  Cu  Cu23  1  0.69759800  0.29703900  0.41389500  1
  Cu  Cu24  1  0.70246600  0.30090300  0.75000000  1
  Cu  Cu25  1  0.30090300  0.70246600  0.25000000  1
  Cu  Cu26  1  0.29703900  0.69759800  0.58610500  1
  Cu  Cu27  1  0.29999500  0.69491600  0.41093500  1
  Cu  Cu28  1  0.29703900  0.69759800  0.91389500  1
  Cu  Cu29  1  0.29999500  0.69491600  0.08906500  1
  Cu  Cu30  1  0.80516400  0.79985800  0.66096300  1
  Cu  Cu31  1  0.79985800  0.80516400  0.33903700  1
  Cu  Cu32  1  0.80516400  0.79985800  0.83903700  1
  Cu  Cu33  1  0.79985800  0.80516400  0.16096300  1
  Cu  Cu34  1  0.79925900  0.79925900  0.50000000  1
  Cu  Cu35  1  0.79925900  0.79925900  0.00000000  1
