# generated using pymatgen
data_Cu13NiC10
_symmetry_space_group_name_H-M   'P 1'
_cell_length_a   8.51118300
_cell_length_b   8.56687300
_cell_length_c   12.06592700
_cell_angle_alpha   90.00000000
_cell_angle_beta   90.00000000
_cell_angle_gamma   90.00000000
_symmetry_Int_Tables_number   1
_chemical_formula_structural   Cu13NiC10
_chemical_formula_sum   'Cu52 Ni4 C40'
_cell_volume   879.77770212
_cell_formula_units_Z   4
loop_
 _symmetry_equiv_pos_site_id
 _symmetry_equiv_pos_as_xyz
  1  'x, y, z'
loop_
 _atom_site_type_symbol
 _atom_site_label
 _atom_site_symmetry_multiplicity
 _atom_site_fract_x
 _atom_site_fract_y
 _atom_site_fract_z
 _atom_site_occupancy
  C  C0  1  0.75022800  0.25815400  0.61869200  1
  C  C1  1  0.24977200  0.74184600  0.11869200  1
  C  C2  1  0.24977200  0.75815400  0.61869200  1
  C  C3  1  0.75022800  0.24184600  0.11869200  1
  C  C4  1  0.02867800  0.51625700  0.84478400  1
  C  C5  1  0.97132200  0.48374300  0.34478400  1
  C  C6  1  0.97132200  0.01625700  0.84478400  1
  C  C7  1  0.02867800  0.98374300  0.34478400  1
  C  C8  1  0.52852900  0.01521000  0.84324200  1
  C  C9  1  0.47147100  0.98479000  0.34324200  1
  C  C10  1  0.47147100  0.51521000  0.84324200  1
  C  C11  1  0.52852900  0.48479000  0.34324200  1
  C  C12  1  0.25064000  0.09266200  0.52181000  1
  C  C13  1  0.74936000  0.90733800  0.02181000  1
  C  C14  1  0.74936000  0.59266200  0.52181000  1
  C  C15  1  0.25064000  0.40733800  0.02181000  1
  C  C16  1  0.40564200  0.24747100  0.67556600  1
  C  C17  1  0.59435800  0.75252900  0.17556600  1
  C  C18  1  0.59435800  0.74747100  0.67556600  1
  C  C19  1  0.40564200  0.25252900  0.17556600  1
  C  C20  1  0.25054100  0.04338200  0.99313000  1
  C  C21  1  0.74945900  0.95661800  0.49313000  1
  C  C22  1  0.74945900  0.54338200  0.99313000  1
  C  C23  1  0.25054100  0.45661800  0.49313000  1
  C  C24  1  0.25369400  0.24430200  0.84784600  1
  C  C25  1  0.74630600  0.75569800  0.34784600  1
  C  C26  1  0.74630600  0.74430200  0.84784600  1
  C  C27  1  0.25369400  0.25569800  0.34784600  1
  C  C28  1  0.00334600  0.50100400  0.59548600  1
  C  C29  1  0.99665400  0.49899600  0.09548600  1
  C  C30  1  0.99665400  0.00100400  0.59548600  1
  C  C31  1  0.00334600  0.99899600  0.09548600  1
  C  C32  1  0.09537600  0.24698700  0.67651800  1
  C  C33  1  0.90462400  0.75301300  0.17651800  1
  C  C34  1  0.90462400  0.74698700  0.67651800  1
  C  C35  1  0.09537600  0.25301300  0.17651800  1
  C  C36  1  0.50337900  0.00111100  0.59536400  1
  C  C37  1  0.49662100  0.99888900  0.09536400  1
  C  C38  1  0.49662100  0.50111100  0.59536400  1
  C  C39  1  0.50337900  0.49888900  0.09536400  1
  Ni  Ni40  1  0.24895400  0.72437800  0.83385900  1
  Ni  Ni41  1  0.75104600  0.27562200  0.33385900  1
  Ni  Ni42  1  0.75104600  0.22437800  0.83385900  1
  Ni  Ni43  1  0.24895400  0.77562200  0.33385900  1
  Cu  Cu44  1  0.52940600  0.16935300  0.61487900  1
  Cu  Cu45  1  0.47059400  0.83064700  0.11487900  1
  Cu  Cu46  1  0.47059400  0.66935300  0.61487900  1
  Cu  Cu47  1  0.52940600  0.33064700  0.11487900  1
  Cu  Cu48  1  0.08908700  0.05116600  0.49887200  1
  Cu  Cu49  1  0.91091300  0.94883400  0.99887200  1
  Cu  Cu50  1  0.91091300  0.55116600  0.49887200  1
  Cu  Cu51  1  0.08908700  0.44883400  0.99887200  1
  Cu  Cu52  1  0.32963800  0.35984900  0.92016000  1
  Cu  Cu53  1  0.67036200  0.64015100  0.42016000  1
  Cu  Cu54  1  0.67036200  0.85984900  0.92016000  1
  Cu  Cu55  1  0.32963800  0.14015100  0.42016000  1
  Cu  Cu56  1  0.24921900  0.23141600  0.60574000  1
  Cu  Cu57  1  0.75078100  0.76858400  0.10574000  1
  Cu  Cu58  1  0.75078100  0.73141600  0.60574000  1
  Cu  Cu59  1  0.24921900  0.26858400  0.10574000  1
  Cu  Cu60  1  0.37524600  0.16870200  0.78015200  1
  Cu  Cu61  1  0.62475400  0.83129800  0.28015200  1
  Cu  Cu62  1  0.62475400  0.66870200  0.78015200  1
  Cu  Cu63  1  0.37524600  0.33129800  0.28015200  1
  Cu  Cu64  1  0.02200500  0.83377100  0.61409000  1
  Cu  Cu65  1  0.97799500  0.16622900  0.11409000  1
  Cu  Cu66  1  0.97799500  0.33377100  0.61409000  1
  Cu  Cu67  1  0.02200500  0.66622900  0.11409000  1
  Cu  Cu68  1  0.16933500  0.11982600  0.91097500  1
  Cu  Cu69  1  0.83066500  0.88017400  0.41097500  1
  Cu  Cu70  1  0.83066500  0.61982600  0.91097500  1
  Cu  Cu71  1  0.16933500  0.38017400  0.41097500  1
  Cu  Cu72  1  0.13725500  0.32409700  0.77875300  1
  Cu  Cu73  1  0.86274500  0.67590300  0.27875300  1
  Cu  Cu74  1  0.86274500  0.82409700  0.77875300  1
  Cu  Cu75  1  0.13725500  0.17590300  0.27875300  1
  Cu  Cu76  1  0.41173900  0.03975000  0.99081200  1
  Cu  Cu77  1  0.58826100  0.96025000  0.49081200  1
  Cu  Cu78  1  0.58826100  0.53975000  0.99081200  1
  Cu  Cu79  1  0.41173900  0.46025000  0.49081200  1
  Cu  Cu80  1  0.66308100  0.46721400  0.57580700  1
  Cu  Cu81  1  0.33691900  0.53278600  0.07580700  1
  Cu  Cu82  1  0.33691900  0.96721400  0.57580700  1
  Cu  Cu83  1  0.66308100  0.03278600  0.07580700  1
  Cu  Cu84  1  0.44026300  0.41179100  0.69063800  1
  Cu  Cu85  1  0.55973700  0.58820900  0.19063800  1
  Cu  Cu86  1  0.55973700  0.91179100  0.69063800  1
  Cu  Cu87  1  0.44026300  0.08820900  0.19063800  1
  Cu  Cu88  1  0.04184900  0.08705600  0.69582100  1
  Cu  Cu89  1  0.95815100  0.91294400  0.19582100  1
  Cu  Cu90  1  0.95815100  0.58705600  0.69582100  1
  Cu  Cu91  1  0.04184900  0.41294400  0.19582100  1
  Cu  Cu92  1  0.17044700  0.54069300  0.57220300  1
  Cu  Cu93  1  0.82955300  0.45930700  0.07220300  1
  Cu  Cu94  1  0.82955300  0.04069300  0.57220300  1
  Cu  Cu95  1  0.17044700  0.95930700  0.07220300  1
