# generated using pymatgen
data_Cu4Ni2C9
_symmetry_space_group_name_H-M   'P 1'
_cell_length_a   9.87816501
_cell_length_b   9.87816501
_cell_length_c   11.99057807
_cell_angle_alpha   64.87996305
_cell_angle_beta   64.87996305
_cell_angle_gamma   27.74168261
_symmetry_Int_Tables_number   1
_chemical_formula_structural   Cu4Ni2C9
_chemical_formula_sum   'Cu8 Ni4 C18'
_cell_volume   489.80043102
_cell_formula_units_Z   2
loop_
 _symmetry_equiv_pos_site_id
 _symmetry_equiv_pos_as_xyz
  1  'x, y, z'
loop_
 _atom_site_type_symbol
 _atom_site_label
 _atom_site_symmetry_multiplicity
 _atom_site_fract_x
 _atom_site_fract_y
 _atom_site_fract_z
 _atom_site_occupancy
  C  C0  1  0.85826100  0.14173900  0.75000000  1
  C  C1  1  0.14173900  0.85826100  0.25000000  1
  Ni  Ni2  1  0.19602300  0.12925500  0.71442200  1
  Ni  Ni3  1  0.80397700  0.87074500  0.28557800  1
  Ni  Ni4  1  0.87074500  0.80397700  0.78557800  1
  Ni  Ni5  1  0.12925500  0.19602300  0.21442200  1
  Cu  Cu6  1  0.71668900  0.86520600  0.08133800  1
  Cu  Cu7  1  0.28331100  0.13479400  0.91866200  1
  Cu  Cu8  1  0.13479400  0.28331100  0.41866200  1
  Cu  Cu9  1  0.86520600  0.71668900  0.58133800  1
  Cu  Cu10  1  0.40782800  0.64634400  0.50571500  1
  Cu  Cu11  1  0.59217200  0.35365600  0.49428500  1
  Cu  Cu12  1  0.35365600  0.59217200  0.99428500  1
  Cu  Cu13  1  0.64634400  0.40782800  0.00571500  1
  C  C14  1  0.22781800  0.28522500  0.82838900  1
  C  C15  1  0.77218200  0.71477500  0.17161100  1
  C  C16  1  0.71477500  0.77218200  0.67161100  1
  C  C17  1  0.28522500  0.22781800  0.32838900  1
  C  C18  1  0.71245300  0.16210500  0.58735300  1
  C  C19  1  0.28754700  0.83789500  0.41264700  1
  C  C20  1  0.83789500  0.28754700  0.91264700  1
  C  C21  1  0.16210500  0.71245300  0.08735300  1
  C  C22  1  0.65431500  0.01854500  0.98994900  1
  C  C23  1  0.34568500  0.98145500  0.01005100  1
  C  C24  1  0.98145500  0.34568500  0.51005100  1
  C  C25  1  0.01854500  0.65431500  0.48994900  1
  C  C26  1  0.39454600  0.66618800  0.60962100  1
  C  C27  1  0.60545400  0.33381200  0.39037900  1
  C  C28  1  0.33381200  0.60545400  0.89037900  1
  C  C29  1  0.66618800  0.39454600  0.10962100  1
