# generated using pymatgen
data_Cu3NiC16
_symmetry_space_group_name_H-M   'P 1'
_cell_length_a   8.52096800
_cell_length_b   8.56422185
_cell_length_c   9.23361755
_cell_angle_alpha   90.76547801
_cell_angle_beta   116.86113880
_cell_angle_gamma   119.69917625
_symmetry_Int_Tables_number   1
_chemical_formula_structural   Cu3NiC16
_chemical_formula_sum   'Cu6 Ni2 C32'
_cell_volume   497.09252309
_cell_formula_units_Z   2
loop_
 _symmetry_equiv_pos_site_id
 _symmetry_equiv_pos_as_xyz
  1  'x, y, z'
loop_
 _atom_site_type_symbol
 _atom_site_label
 _atom_site_symmetry_multiplicity
 _atom_site_fract_x
 _atom_site_fract_y
 _atom_site_fract_z
 _atom_site_occupancy
  C  C0  1  0.54813400  0.88841300  0.85179900  1
  C  C1  1  0.45710400  0.09545600  0.17148600  1
  C  C2  1  0.81707400  0.71858300  0.15818700  1
  C  C3  1  0.06673200  0.35517200  0.16825100  1
  C  C4  1  0.30403200  0.15626600  0.44856400  1
  C  C5  1  0.68634600  0.84257200  0.53188100  1
  C  C6  1  0.31364800  0.64860200  0.99139100  1
  C  C7  1  0.68560800  0.34511700  0.03917200  1
  Ni  Ni8  1  0.99325200  0.99726900  0.93731900  1
  Ni  Ni9  1  0.03583600  0.51354700  0.57986800  1
  Cu  Cu10  1  0.50901600  0.55043100  0.75371300  1
  Cu  Cu11  1  0.49546900  0.45219200  0.25900600  1
  Cu  Cu12  1  0.80419000  0.04268100  0.24841200  1
  Cu  Cu13  1  0.21810300  0.76333400  0.25934800  1
  Cu  Cu14  1  0.78577700  0.23722700  0.75079500  1
  Cu  Cu15  1  0.20444600  0.96524200  0.74811600  1
  C  C16  1  0.28692100  0.81814500  0.12639000  1
  C  C17  1  0.29941300  0.44929800  0.12153800  1
  C  C18  1  0.84982400  0.10017200  0.72123900  1
  C  C19  1  0.65923500  0.86064000  0.09097000  1
  C  C20  1  0.58563200  0.18969700  0.58964100  1
  C  C21  1  0.97502700  0.44300400  0.78889200  1
  C  C22  1  0.97502000  0.87231600  0.71724400  1
  C  C23  1  0.25138800  0.80664100  0.76524900  1
  C  C24  1  0.61599700  0.60452500  0.42788900  1
  C  C25  1  0.33268600  0.54312200  0.77911900  1
  C  C26  1  0.40816000  0.25326000  0.28720700  1
  C  C27  1  0.79607700  0.98572200  0.40274800  1
  C  C28  1  0.21088700  0.03159400  0.60013800  1
  C  C29  1  0.63303100  0.75776600  0.74041100  1
  C  C30  1  0.65067000  0.48810800  0.20159000  1
  C  C31  1  0.40247400  0.40315900  0.58968600  1
  C  C32  1  0.73212100  0.17834100  0.20716800  1
  C  C33  1  0.03566200  0.14856000  0.28473700  1
  C  C34  1  0.02973500  0.55680400  0.19375600  1
  C  C35  1  0.40785500  0.79630100  0.42856800  1
  C  C36  1  0.35540600  0.11807800  0.92415300  1
  C  C37  1  0.14593200  0.89087700  0.28872400  1
  C  C38  1  0.66979400  0.54421400  0.91617200  1
  C  C39  1  0.76628800  0.21055100  0.90946900  1
