# generated using pymatgen
data_Cu2Ni2C45
_symmetry_space_group_name_H-M   'P 1'
_cell_length_a   7.75662800
_cell_length_b   10.11838300
_cell_length_c   12.07515791
_cell_angle_alpha   83.17147418
_cell_angle_beta   90.00000000
_cell_angle_gamma   90.00000000
_symmetry_Int_Tables_number   1
_chemical_formula_structural   Cu2Ni2C45
_chemical_formula_sum   'Cu4 Ni4 C90'
_cell_volume   940.99046408
_cell_formula_units_Z   2
loop_
 _symmetry_equiv_pos_site_id
 _symmetry_equiv_pos_as_xyz
  1  'x, y, z'
loop_
 _atom_site_type_symbol
 _atom_site_label
 _atom_site_symmetry_multiplicity
 _atom_site_fract_x
 _atom_site_fract_y
 _atom_site_fract_z
 _atom_site_occupancy
  C  C0  1  0.00000000  0.50000000  0.00000000  1
  C  C1  1  0.50000000  0.50000000  0.50000000  1
  C  C2  1  0.31401000  0.38907000  0.96266600  1
  C  C3  1  0.81401000  0.61093000  0.53733400  1
  C  C4  1  0.68599000  0.61093000  0.03733400  1
  C  C5  1  0.18599000  0.38907000  0.46266600  1
  C  C6  1  0.33568700  0.51205400  0.03655000  1
  C  C7  1  0.83568700  0.48794600  0.46345000  1
  C  C8  1  0.66431300  0.48794600  0.96345000  1
  C  C9  1  0.16431300  0.51205400  0.53655000  1
  C  C10  1  0.98895400  0.48613800  0.22980200  1
  C  C11  1  0.48895400  0.51386200  0.27019800  1
  C  C12  1  0.01104600  0.51386200  0.77019800  1
  C  C13  1  0.51104600  0.48613800  0.72980200  1
  C  C14  1  0.13244600  0.74535100  0.98399600  1
  C  C15  1  0.63244600  0.25464900  0.51600400  1
  C  C16  1  0.86755400  0.25464900  0.01600400  1
  C  C17  1  0.36755400  0.74535100  0.48399600  1
  C  C18  1  0.04657600  0.73518600  0.86561500  1
  C  C19  1  0.54657600  0.26481400  0.63438500  1
  C  C20  1  0.95342400  0.26481400  0.13438500  1
  C  C21  1  0.45342400  0.73518600  0.36561500  1
  C  C22  1  0.16196400  0.56022300  0.18100900  1
  C  C23  1  0.66196400  0.43977700  0.31899100  1
  C  C24  1  0.83803600  0.43977700  0.81899100  1
  C  C25  1  0.33803600  0.56022300  0.68100900  1
  C  C26  1  0.20969000  0.87656200  0.27650600  1
  C  C27  1  0.70969000  0.12343800  0.22349400  1
  C  C28  1  0.79031000  0.12343800  0.72349400  1
  C  C29  1  0.29031000  0.87656200  0.77650600  1
  C  C30  1  0.10861400  0.87156700  0.40613800  1
  C  C31  1  0.60861400  0.12843300  0.09386200  1
  C  C32  1  0.89138600  0.12843300  0.59386200  1
  C  C33  1  0.39138600  0.87156700  0.90613800  1
  C  C34  1  0.82369800  0.85360600  0.12484300  1
  C  C35  1  0.32369800  0.14639400  0.37515700  1
  C  C36  1  0.17630200  0.14639400  0.87515700  1
  C  C37  1  0.67630200  0.85360600  0.62484300  1
  C  C38  1  0.04567000  0.87913300  0.11573300  1
  C  C39  1  0.54567000  0.12086700  0.38426700  1
  C  C40  1  0.95433000  0.12086700  0.88426700  1
  C  C41  1  0.45433000  0.87913300  0.61573300  1
  C  C42  1  0.81157000  0.83590400  0.41741900  1
  C  C43  1  0.31157000  0.16409600  0.08258100  1
  C  C44  1  0.18843000  0.16409600  0.58258100  1
  C  C45  1  0.68843000  0.83590400  0.91741900  1
  C  C46  1  0.68483000  0.84525300  0.29560100  1
  C  C47  1  0.18483000  0.15474700  0.20439900  1
  C  C48  1  0.31517000  0.15474700  0.70439900  1
  C  C49  1  0.81517000  0.84525300  0.79560100  1
  Ni  Ni50  1  0.94515800  0.87079800  0.27188600  1
  Ni  Ni51  1  0.44515800  0.12920200  0.22811400  1
  Ni  Ni52  1  0.05484200  0.12920200  0.72811400  1
  Ni  Ni53  1  0.55484200  0.87079800  0.77188600  1
  Cu  Cu54  1  0.56445500  0.24523800  0.87224000  1
  Cu  Cu55  1  0.06445500  0.75476200  0.62776000  1
  Cu  Cu56  1  0.43554500  0.75476200  0.12776000  1
  Cu  Cu57  1  0.93554500  0.24523800  0.37224000  1
  C  C58  1  0.09791100  0.87720600  0.32136000  1
  C  C59  1  0.59791100  0.12279400  0.17864000  1
  C  C60  1  0.90208900  0.12279400  0.67864000  1
  C  C61  1  0.40208900  0.87720600  0.82136000  1
  C  C62  1  0.93444700  0.88414000  0.15969100  1
  C  C63  1  0.43444700  0.11586000  0.34030900  1
  C  C64  1  0.06555300  0.11586000  0.84030900  1
  C  C65  1  0.56555300  0.88414000  0.65969100  1
  C  C66  1  0.80149100  0.85645100  0.33290000  1
  C  C67  1  0.30149100  0.14354900  0.16710000  1
  C  C68  1  0.19850900  0.14354900  0.66710000  1
  C  C69  1  0.69850900  0.85645100  0.83290000  1
  C  C70  1  0.26765800  0.47666000  0.97760200  1
  C  C71  1  0.76765800  0.52334000  0.52239800  1
  C  C72  1  0.73234200  0.52334000  0.02239800  1
  C  C73  1  0.23234200  0.47666000  0.47760200  1
  C  C74  1  0.04076300  0.54047000  0.16425200  1
  C  C75  1  0.54076300  0.45953000  0.33574800  1
  C  C76  1  0.95923700  0.45953000  0.83574800  1
  C  C77  1  0.45923700  0.54047000  0.66425200  1
  C  C78  1  0.03271400  0.70830600  0.94719600  1
  C  C79  1  0.53271400  0.29169400  0.55280400  1
  C  C80  1  0.96728600  0.29169400  0.05280400  1
  C  C81  1  0.46728600  0.70830600  0.44719600  1
  C  C82  1  0.39550800  0.23321800  0.93233200  1
  C  C83  1  0.89550800  0.76678200  0.56766800  1
  C  C84  1  0.60449200  0.76678200  0.06766800  1
  C  C85  1  0.10449200  0.23321800  0.43233200  1
  C  C86  1  0.54985600  0.18609800  0.76529400  1
  C  C87  1  0.04985600  0.81390200  0.73470600  1
  C  C88  1  0.45014400  0.81390200  0.23470600  1
  C  C89  1  0.95014400  0.18609800  0.26529400  1
  C  C90  1  0.70169300  0.17446400  0.94286700  1
  C  C91  1  0.20169300  0.82553600  0.55713300  1
  C  C92  1  0.29830700  0.82553600  0.05713300  1
  C  C93  1  0.79830700  0.17446400  0.44286700  1
  C  C94  1  0.61064900  0.39067600  0.84710600  1
  C  C95  1  0.11064900  0.60932400  0.65289400  1
  C  C96  1  0.38935100  0.60932400  0.15289400  1
  C  C97  1  0.88935100  0.39067600  0.34710600  1
