# generated using pymatgen
data_Cu3(NiC)2
_symmetry_space_group_name_H-M   'P 1'
_cell_length_a   8.53839655
_cell_length_b   8.50357800
_cell_length_c   9.81529652
_cell_angle_alpha   90.00000000
_cell_angle_beta   104.79782816
_cell_angle_gamma   90.00000000
_symmetry_Int_Tables_number   1
_chemical_formula_structural   Cu3(NiC)2
_chemical_formula_sum   'Cu24 Ni16 C16'
_cell_volume   689.02176720
_cell_formula_units_Z   8
loop_
 _symmetry_equiv_pos_site_id
 _symmetry_equiv_pos_as_xyz
  1  'x, y, z'
loop_
 _atom_site_type_symbol
 _atom_site_label
 _atom_site_symmetry_multiplicity
 _atom_site_fract_x
 _atom_site_fract_y
 _atom_site_fract_z
 _atom_site_occupancy
  C  C0  1  0.14070800  0.44297400  0.12480000  1
  C  C1  1  0.85929300  0.55702600  0.87520000  1
  C  C2  1  0.85929300  0.94297400  0.37520000  1
  C  C3  1  0.14070800  0.05702600  0.62480000  1
  C  C4  1  0.38787400  0.23246100  0.12912600  1
  C  C5  1  0.61212600  0.76753900  0.87087400  1
  C  C6  1  0.61212600  0.73246100  0.37087400  1
  C  C7  1  0.38787400  0.26753900  0.62912600  1
  C  C8  1  0.11579300  0.11079200  0.35069300  1
  C  C9  1  0.88420700  0.88920800  0.64930700  1
  C  C10  1  0.88420700  0.61079200  0.14930700  1
  C  C11  1  0.11579300  0.38920800  0.85069300  1
  C  C12  1  0.46208700  0.39915100  0.19561100  1
  C  C13  1  0.53791300  0.60084900  0.80438900  1
  C  C14  1  0.53791300  0.89915100  0.30438900  1
  C  C15  1  0.46208700  0.10084900  0.69561100  1
  Ni  Ni16  1  0.18950100  0.53771800  0.43070500  1
  Ni  Ni17  1  0.81049900  0.46228200  0.56929500  1
  Ni  Ni18  1  0.81049900  0.03771800  0.06929500  1
  Ni  Ni19  1  0.18950100  0.96228200  0.93070500  1
  Ni  Ni20  1  0.21661100  0.77788700  0.07151000  1
  Ni  Ni21  1  0.78338900  0.22211300  0.92849000  1
  Ni  Ni22  1  0.78338900  0.27788700  0.42849000  1
  Ni  Ni23  1  0.21661100  0.72211300  0.57151000  1
  Ni  Ni24  1  0.29743300  0.56749700  0.57151800  1
  Ni  Ni25  1  0.70256700  0.43250300  0.42848200  1
  Ni  Ni26  1  0.70256700  0.06749700  0.92848200  1
  Ni  Ni27  1  0.29743300  0.93250300  0.07151800  1
  Ni  Ni28  1  0.09573100  0.67774700  0.44149500  1
  Ni  Ni29  1  0.90426900  0.32225300  0.55850500  1
  Ni  Ni30  1  0.90426900  0.17774700  0.05850500  1
  Ni  Ni31  1  0.09573100  0.82225300  0.94149500  1
  Cu  Cu32  1  0.18513500  0.43168900  0.33894800  1
  Cu  Cu33  1  0.81486500  0.56831100  0.66105200  1
  Cu  Cu34  1  0.81486500  0.93168900  0.16105200  1
  Cu  Cu35  1  0.18513500  0.06831100  0.83894800  1
  Cu  Cu36  1  0.04005300  0.22660600  0.13344300  1
  Cu  Cu37  1  0.95994700  0.77339400  0.86655700  1
  Cu  Cu38  1  0.95994700  0.72660600  0.36655700  1
  Cu  Cu39  1  0.04005300  0.27339400  0.63344300  1
  Cu  Cu40  1  0.08486000  0.03701300  0.41537200  1
  Cu  Cu41  1  0.91514000  0.96298700  0.58462800  1
  Cu  Cu42  1  0.91514000  0.53701300  0.08462800  1
  Cu  Cu43  1  0.08486000  0.46298700  0.91537200  1
  Cu  Cu44  1  0.25076000  0.66014700  0.15244000  1
  Cu  Cu45  1  0.74924000  0.33985300  0.84756000  1
  Cu  Cu46  1  0.74924000  0.16014700  0.34756000  1
  Cu  Cu47  1  0.25076000  0.83985300  0.65244000  1
  Cu  Cu48  1  0.36882200  0.34775800  0.12812400  1
  Cu  Cu49  1  0.63117800  0.65224200  0.87187600  1
  Cu  Cu50  1  0.63117800  0.84775800  0.37187600  1
  Cu  Cu51  1  0.36882200  0.15224200  0.62812400  1
  Cu  Cu52  1  0.40564700  0.00752200  0.15585400  1
  Cu  Cu53  1  0.59435300  0.99247800  0.84414600  1
  Cu  Cu54  1  0.59435300  0.50752200  0.34414600  1
  Cu  Cu55  1  0.40564700  0.49247800  0.65585400  1
