# generated using pymatgen
data_Cu2Ni14C9
_symmetry_space_group_name_H-M   'P 1'
_cell_length_a   4.72198550
_cell_length_b   4.72244815
_cell_length_c   11.92287244
_cell_angle_alpha   90.02892118
_cell_angle_beta   89.94966146
_cell_angle_gamma   89.99554151
_symmetry_Int_Tables_number   1
_chemical_formula_structural   Cu2Ni14C9
_chemical_formula_sum   'Cu2 Ni14 C9'
_cell_volume   265.87194998
_cell_formula_units_Z   1
loop_
 _symmetry_equiv_pos_site_id
 _symmetry_equiv_pos_as_xyz
  1  'x, y, z'
loop_
 _atom_site_type_symbol
 _atom_site_label
 _atom_site_symmetry_multiplicity
 _atom_site_fract_x
 _atom_site_fract_y
 _atom_site_fract_z
 _atom_site_occupancy
  C  C0  1  0.99968800  0.49426500  0.18854000  1
  C  C1  1  0.00400400  0.99302700  0.00378600  1
  C  C2  1  0.99920000  0.99515200  0.25438600  1
  C  C3  1  0.02519700  0.01950100  0.50045000  1
  C  C4  1  0.00309400  0.99081400  0.74506400  1
  C  C5  1  0.50033000  0.49600300  0.12061500  1
  C  C6  1  0.49677000  0.49072000  0.62993700  1
  C  C7  1  0.47526000  0.51984000  0.87450800  1
  C  C8  1  0.49694300  0.49190400  0.37134200  1
  Ni  Ni9  1  0.18931200  0.80020200  0.13085000  1
  Ni  Ni10  1  0.20102500  0.80768300  0.62003100  1
  Ni  Ni11  1  0.17582400  0.81617600  0.87492000  1
  Ni  Ni12  1  0.19418100  0.80694500  0.37528500  1
  Ni  Ni13  1  0.30035400  0.31219300  0.99967900  1
  Ni  Ni14  1  0.30690300  0.30377200  0.24431300  1
  Ni  Ni15  1  0.32489100  0.31532700  0.50002200  1
  Ni  Ni16  1  0.29919700  0.30779300  0.75499800  1
  Ni  Ni17  1  0.68726200  0.68968800  0.99998000  1
  Ni  Ni18  1  0.69433900  0.68473300  0.24718300  1
  Ni  Ni19  1  0.68525000  0.69171500  0.75216500  1
  Ni  Ni20  1  0.81000800  0.18969000  0.12800900  1
  Ni  Ni21  1  0.81759700  0.19512200  0.37479200  1
  Ni  Ni22  1  0.81467700  0.19170500  0.62297200  1
  Cu  Cu23  1  0.70428000  0.69856200  0.49909100  1
  Cu  Cu24  1  0.79441400  0.19747500  0.87597200  1
