# generated using pymatgen
data_Cu3Ni5C32
_symmetry_space_group_name_H-M   'P 1'
_cell_length_a   7.85529100
_cell_length_b   7.86489955
_cell_length_c   9.50875315
_cell_angle_alpha   113.57062949
_cell_angle_beta   113.68113364
_cell_angle_gamma   91.55048057
_symmetry_Int_Tables_number   1
_chemical_formula_structural   Cu3Ni5C32
_chemical_formula_sum   'Cu3 Ni5 C32'
_cell_volume   480.62541780
_cell_formula_units_Z   1
loop_
 _symmetry_equiv_pos_site_id
 _symmetry_equiv_pos_as_xyz
  1  'x, y, z'
loop_
 _atom_site_type_symbol
 _atom_site_label
 _atom_site_symmetry_multiplicity
 _atom_site_fract_x
 _atom_site_fract_y
 _atom_site_fract_z
 _atom_site_occupancy
  C  C0  1  0.83006200  0.37702300  0.73852900  1
  C  C1  1  0.35245900  0.89774600  0.73814500  1
  C  C2  1  0.63751100  0.60486200  0.25319200  1
  C  C3  1  0.15997200  0.08840900  0.26076900  1
  C  C4  1  0.64754100  0.10225400  0.26185500  1
  C  C5  1  0.16993800  0.62297700  0.26147100  1
  C  C6  1  0.84002800  0.91159100  0.73923100  1
  C  C7  1  0.36248900  0.39513800  0.74680800  1
  Ni  Ni8  1  0.25140000  0.75027000  0.99945700  1
  Ni  Ni9  1  0.74860000  0.24973000  0.00054300  1
  Ni  Ni10  1  0.00000000  0.00000000  0.50000000  1
  Ni  Ni11  1  0.50000000  0.50000000  0.50000000  1
  Ni  Ni12  1  0.50000000  0.00000000  0.50000000  1
  Cu  Cu13  1  0.00000000  0.50000000  0.50000000  1
  Cu  Cu14  1  0.75191900  0.75255800  0.99984900  1
  Cu  Cu15  1  0.24808100  0.24744200  0.00015100  1
  C  C16  1  0.73595900  0.43155200  0.45612200  1
  C  C17  1  0.22166500  0.93567200  0.45857200  1
  C  C18  1  0.68228000  0.48987300  0.95927100  1
  C  C19  1  0.17644400  0.98415400  0.95027900  1
  C  C20  1  0.77833500  0.06432800  0.54142800  1
  C  C21  1  0.26404100  0.56844800  0.54387800  1
  C  C22  1  0.82355600  0.01584600  0.04972100  1
  C  C23  1  0.31772000  0.51012700  0.04072900  1
  C  C24  1  0.68945300  0.66050100  0.75697600  1
  C  C25  1  0.18709100  0.15822500  0.75675600  1
  C  C26  1  0.40197100  0.92610600  0.24717100  1
  C  C27  1  0.90943400  0.44162600  0.25885900  1
  C  C28  1  0.81290900  0.84177500  0.24324400  1
  C  C29  1  0.31054700  0.33949900  0.24302400  1
  C  C30  1  0.09056600  0.55837400  0.74114100  1
  C  C31  1  0.59802900  0.07389400  0.75282900  1
  C  C32  1  0.97706700  0.76270300  0.54864700  1
  C  C33  1  0.48023500  0.27908200  0.54582800  1
  C  C34  1  0.01208100  0.72513000  0.04697300  1
  C  C35  1  0.51329500  0.22883800  0.05421000  1
  C  C36  1  0.51976500  0.72091800  0.45417200  1
  C  C37  1  0.02293300  0.23729700  0.45135300  1
  C  C38  1  0.48670500  0.77116200  0.94579000  1
  C  C39  1  0.98791900  0.27487000  0.95302700  1
