# generated using pymatgen
data_Cu2NiC
_symmetry_space_group_name_H-M   'P 1'
_cell_length_a   8.13316264
_cell_length_b   8.13316264
_cell_length_c   6.65416022
_cell_angle_alpha   89.00174762
_cell_angle_beta   89.00174762
_cell_angle_gamma   142.07436020
_symmetry_Int_Tables_number   1
_chemical_formula_structural   Cu2NiC
_chemical_formula_sum   'Cu8 Ni4 C4'
_cell_volume   270.15106769
_cell_formula_units_Z   4
loop_
 _symmetry_equiv_pos_site_id
 _symmetry_equiv_pos_as_xyz
  1  'x, y, z'
loop_
 _atom_site_type_symbol
 _atom_site_label
 _atom_site_symmetry_multiplicity
 _atom_site_fract_x
 _atom_site_fract_y
 _atom_site_fract_z
 _atom_site_occupancy
  C  C0  1  0.61682900  0.38317100  0.75000000  1
  C  C1  1  0.38317100  0.61682900  0.25000000  1
  C  C2  1  0.87201000  0.12799000  0.75000000  1
  C  C3  1  0.12799000  0.87201000  0.25000000  1
  Ni  Ni4  1  0.81552800  0.06848600  0.48640800  1
  Ni  Ni5  1  0.93151400  0.18447200  0.01359200  1
  Ni  Ni6  1  0.18447200  0.93151400  0.51359200  1
  Ni  Ni7  1  0.06848600  0.81552800  0.98640800  1
  Cu  Cu8  1  0.19657900  0.28662200  0.72669500  1
  Cu  Cu9  1  0.71337800  0.80342100  0.77330500  1
  Cu  Cu10  1  0.80342100  0.71337800  0.27330500  1
  Cu  Cu11  1  0.28662200  0.19657900  0.22669500  1
  Cu  Cu12  1  0.01761000  0.43983200  0.68452700  1
  Cu  Cu13  1  0.56016800  0.98239000  0.81547300  1
  Cu  Cu14  1  0.98239000  0.56016800  0.31547300  1
  Cu  Cu15  1  0.43983200  0.01761000  0.18452700  1
