# generated using pymatgen
data_Cu6Ni4C33
_symmetry_space_group_name_H-M   'P 1'
_cell_length_a   6.41695607
_cell_length_b   8.88781199
_cell_length_c   10.12872653
_cell_angle_alpha   71.43165209
_cell_angle_beta   77.94456392
_cell_angle_gamma   74.51891278
_symmetry_Int_Tables_number   1
_chemical_formula_structural   Cu6Ni4C33
_chemical_formula_sum   'Cu6 Ni4 C33'
_cell_volume   522.85717703
_cell_formula_units_Z   1
loop_
 _symmetry_equiv_pos_site_id
 _symmetry_equiv_pos_as_xyz
  1  'x, y, z'
loop_
 _atom_site_type_symbol
 _atom_site_label
 _atom_site_symmetry_multiplicity
 _atom_site_fract_x
 _atom_site_fract_y
 _atom_site_fract_z
 _atom_site_occupancy
  Ni  Ni0  1  0.02241700  0.48889400  0.20188700  1
  Ni  Ni1  1  0.97758300  0.51110600  0.79811300  1
  Ni  Ni2  1  0.04533200  0.84646400  0.22228700  1
  Ni  Ni3  1  0.95466800  0.15353600  0.77771300  1
  C  C4  1  0.47376500  0.22597800  0.17430800  1
  C  C5  1  0.52623500  0.77402200  0.82569200  1
  C  C6  1  0.29222000  0.62782800  0.51757400  1
  C  C7  1  0.70778000  0.37217200  0.48242600  1
  C  C8  1  0.50000000  0.00000000  0.00000000  1
  Cu  Cu9  1  0.01155500  0.20666100  0.06976900  1
  Cu  Cu10  1  0.98844500  0.79333900  0.93023100  1
  Cu  Cu11  1  0.47883400  0.60121000  0.19118800  1
  Cu  Cu12  1  0.52116600  0.39879000  0.80881200  1
  Cu  Cu13  1  0.23716000  0.28083300  0.47756700  1
  Cu  Cu14  1  0.76284000  0.71916700  0.52243300  1
  C  C15  1  0.36789300  0.18687700  0.37347500  1
  C  C16  1  0.63210700  0.81312300  0.62652500  1
  C  C17  1  0.78934100  0.20491000  0.15726500  1
  C  C18  1  0.21065900  0.79509000  0.84273500  1
  C  C19  1  0.13394400  0.30114400  0.12245800  1
  C  C20  1  0.86605600  0.69885600  0.87754200  1
  C  C21  1  0.38522800  0.47547900  0.15709500  1
  C  C22  1  0.61477200  0.52452100  0.84290500  1
  C  C23  1  0.49377000  0.25618700  0.94540100  1
  C  C24  1  0.50623000  0.74381300  0.05459900  1
  C  C25  1  0.02492600  0.39958800  0.41370300  1
  C  C26  1  0.97507400  0.60041200  0.58629700  1
  C  C27  1  0.00055000  0.72018500  0.09155400  1
  C  C28  1  0.99945000  0.27981500  0.90844600  1
  C  C29  1  0.30838900  0.48740500  0.74352800  1
  C  C30  1  0.69161100  0.51259500  0.25647200  1
  C  C31  1  0.30786400  0.68223700  0.29829600  1
  C  C32  1  0.69213600  0.31776300  0.70170400  1
  C  C33  1  0.15394600  0.02969800  0.08348500  1
  C  C34  1  0.84605400  0.97030200  0.91651500  1
  C  C35  1  0.82720800  0.83001100  0.37994100  1
  C  C36  1  0.17279200  0.16998900  0.62005900  1
  C  C37  1  0.37746500  0.39648000  0.49332500  1
  C  C38  1  0.62253500  0.60352000  0.50667500  1
  C  C39  1  0.53046300  0.00459600  0.16808700  1
  C  C40  1  0.46953700  0.99540400  0.83191300  1
  C  C41  1  0.23183100  0.81821200  0.52127700  1
  C  C42  1  0.76816900  0.18178800  0.47872300  1
