# generated using pymatgen
data_Cu3NiC6
_symmetry_space_group_name_H-M   'P 1'
_cell_length_a   5.94952407
_cell_length_b   5.94952407
_cell_length_c   14.68551700
_cell_angle_alpha   90.00000000
_cell_angle_beta   90.00000000
_cell_angle_gamma   120.00000073
_symmetry_Int_Tables_number   1
_chemical_formula_structural   Cu3NiC6
_chemical_formula_sum   'Cu12 Ni4 C24'
_cell_volume   450.17805450
_cell_formula_units_Z   4
loop_
 _symmetry_equiv_pos_site_id
 _symmetry_equiv_pos_as_xyz
  1  'x, y, z'
loop_
 _atom_site_type_symbol
 _atom_site_label
 _atom_site_symmetry_multiplicity
 _atom_site_fract_x
 _atom_site_fract_y
 _atom_site_fract_z
 _atom_site_occupancy
  Ni  Ni0  1  0.00000000  0.00000000  0.87134000  1
  Ni  Ni1  1  0.33333300  0.66666700  0.54415800  1
  Ni  Ni2  1  0.00000000  0.00000000  0.12866000  1
  Ni  Ni3  1  0.66666700  0.33333300  0.45584200  1
  Cu  Cu4  1  0.82934600  0.65869100  0.66873800  1
  Cu  Cu5  1  0.50000000  0.00000000  0.00000000  1
  Cu  Cu6  1  0.17065400  0.34130900  0.33126200  1
  Cu  Cu7  1  0.82934600  0.17065400  0.66873800  1
  Cu  Cu8  1  0.50000000  0.50000000  0.00000000  1
  Cu  Cu9  1  0.17065400  0.82934600  0.33126200  1
  Cu  Cu10  1  0.66666700  0.33333300  0.82798400  1
  Cu  Cu11  1  0.33333300  0.66666700  0.17201600  1
  Cu  Cu12  1  0.00000000  0.00000000  0.50000000  1
  Cu  Cu13  1  0.34130900  0.17065400  0.66873800  1
  Cu  Cu14  1  0.00000000  0.50000000  0.00000000  1
  Cu  Cu15  1  0.65869100  0.82934600  0.33126200  1
  C  C16  1  0.00000000  0.00000000  0.74775700  1
  C  C17  1  0.66666700  0.33333300  0.06331900  1
  C  C18  1  0.33333300  0.66666700  0.42193900  1
  C  C19  1  0.96305300  0.48152600  0.74141000  1
  C  C20  1  0.66321700  0.83160800  0.08627900  1
  C  C21  1  0.32629600  0.16314800  0.41737700  1
  C  C22  1  0.51847400  0.03694700  0.74141000  1
  C  C23  1  0.16839200  0.33678300  0.08627900  1
  C  C24  1  0.83685200  0.67370400  0.41737700  1
  C  C25  1  0.51847400  0.48152600  0.74141000  1
  C  C26  1  0.16839200  0.83160800  0.08627900  1
  C  C27  1  0.83685200  0.16314800  0.41737700  1
  C  C28  1  0.33678300  0.16839200  0.91372100  1
  C  C29  1  0.03694700  0.51847400  0.25859000  1
  C  C30  1  0.67370400  0.83685200  0.58262300  1
  C  C31  1  0.33333300  0.66666700  0.93668100  1
  C  C32  1  0.00000000  0.00000000  0.25224300  1
  C  C33  1  0.66666700  0.33333300  0.57806100  1
  C  C34  1  0.83160800  0.66321700  0.91372100  1
  C  C35  1  0.48152600  0.96305300  0.25859000  1
  C  C36  1  0.16314800  0.32629600  0.58262300  1
  C  C37  1  0.83160800  0.16839200  0.91372100  1
  C  C38  1  0.48152600  0.51847400  0.25859000  1
  C  C39  1  0.16314800  0.83685200  0.58262300  1
