# generated using pymatgen
data_CuNiC5
_symmetry_space_group_name_H-M   'P 1'
_cell_length_a   5.44195200
_cell_length_b   5.47994900
_cell_length_c   13.41183900
_cell_angle_alpha   90.00000000
_cell_angle_beta   90.00000000
_cell_angle_gamma   90.00000000
_symmetry_Int_Tables_number   1
_chemical_formula_structural   CuNiC5
_chemical_formula_sum   'Cu4 Ni4 C20'
_cell_volume   399.96275839
_cell_formula_units_Z   4
loop_
 _symmetry_equiv_pos_site_id
 _symmetry_equiv_pos_as_xyz
  1  'x, y, z'
loop_
 _atom_site_type_symbol
 _atom_site_label
 _atom_site_symmetry_multiplicity
 _atom_site_fract_x
 _atom_site_fract_y
 _atom_site_fract_z
 _atom_site_occupancy
  Ni  Ni0  1  0.25000000  0.49163900  0.59279400  1
  Ni  Ni1  1  0.75000000  0.50836100  0.40720600  1
  Ni  Ni2  1  0.25000000  0.99163900  0.40720600  1
  Ni  Ni3  1  0.75000000  0.00836100  0.59279400  1
  Cu  Cu4  1  0.25000000  0.98541900  0.10435200  1
  Cu  Cu5  1  0.75000000  0.01458100  0.89564800  1
  Cu  Cu6  1  0.25000000  0.48541900  0.89564800  1
  Cu  Cu7  1  0.75000000  0.51458100  0.10435200  1
  C  C8  1  0.25000000  0.49716600  0.25410400  1
  C  C9  1  0.75000000  0.50283400  0.74589600  1
  C  C10  1  0.25000000  0.99716600  0.74589600  1
  C  C11  1  0.75000000  0.00283400  0.25410400  1
  C  C12  1  0.25000000  0.54149000  0.06681300  1
  C  C13  1  0.75000000  0.45851000  0.93318700  1
  C  C14  1  0.25000000  0.04149000  0.93318700  1
  C  C15  1  0.75000000  0.95851000  0.06681300  1
  C  C16  1  0.00000000  0.75000000  0.22947500  1
  C  C17  1  0.00000000  0.25000000  0.77052500  1
  C  C18  1  0.50000000  0.25000000  0.77052500  1
  C  C19  1  0.50000000  0.75000000  0.22947500  1
  C  C20  1  0.25000000  0.98676200  0.61448000  1
  C  C21  1  0.75000000  0.01323800  0.38552000  1
  C  C22  1  0.25000000  0.48676200  0.38552000  1
  C  C23  1  0.75000000  0.51323800  0.61448000  1
  C  C24  1  0.00000000  0.75000000  0.78312200  1
  C  C25  1  0.00000000  0.25000000  0.21687800  1
  C  C26  1  0.50000000  0.25000000  0.21687800  1
  C  C27  1  0.50000000  0.75000000  0.78312200  1
