# generated using pymatgen
data_Cu2NiC7
_symmetry_space_group_name_H-M   'P 1'
_cell_length_a   10.88724990
_cell_length_b   10.88724990
_cell_length_c   10.88724990
_cell_angle_alpha   99.86638841
_cell_angle_beta   99.86638841
_cell_angle_gamma   131.09410069
_symmetry_Int_Tables_number   1
_chemical_formula_structural   Cu2NiC7
_chemical_formula_sum   'Cu10 Ni5 C35'
_cell_volume   885.31664926
_cell_formula_units_Z   5
loop_
 _symmetry_equiv_pos_site_id
 _symmetry_equiv_pos_as_xyz
  1  'x, y, z'
loop_
 _atom_site_type_symbol
 _atom_site_label
 _atom_site_symmetry_multiplicity
 _atom_site_fract_x
 _atom_site_fract_y
 _atom_site_fract_z
 _atom_site_occupancy
  Ni  Ni0  1  0.50000000  0.50000000  0.00000000  1
  Ni  Ni1  1  0.73253700  0.08884700  0.82138400  1
  Ni  Ni2  1  0.91115300  0.73253700  0.64369000  1
  Ni  Ni3  1  0.26746300  0.91115300  0.17861600  1
  Ni  Ni4  1  0.08884700  0.26746300  0.35631000  1
  Cu  Cu5  1  0.25000000  0.75000000  0.50000000  1
  Cu  Cu6  1  0.75000000  0.25000000  0.50000000  1
  Cu  Cu7  1  0.37882500  0.06073700  0.89386500  1
  Cu  Cu8  1  0.48496000  0.37882500  0.31808800  1
  Cu  Cu9  1  0.16687200  0.48496000  0.10613500  1
  Cu  Cu10  1  0.06073700  0.16687200  0.68191200  1
  Cu  Cu11  1  0.62117500  0.93926300  0.10613500  1
  Cu  Cu12  1  0.51504000  0.62117500  0.68191200  1
  Cu  Cu13  1  0.83312800  0.51504000  0.89386500  1
  Cu  Cu14  1  0.93926300  0.83312800  0.31808800  1
  C  C15  1  0.00000000  0.00000000  0.00000000  1
  C  C16  1  0.19637200  0.59542000  0.79179200  1
  C  C17  1  0.40458000  0.19637200  0.60095300  1
  C  C18  1  0.80362800  0.40458000  0.20820800  1
  C  C19  1  0.59542000  0.80362800  0.39904700  1
  C  C20  1  0.06418900  0.87722900  0.94141900  1
  C  C21  1  0.12277100  0.06418900  0.18696000  1
  C  C22  1  0.93581100  0.12277100  0.05858100  1
  C  C23  1  0.87722900  0.93581100  0.81304000  1
  C  C24  1  0.21340300  0.21340300  0.00000000  1
  C  C25  1  0.78659700  0.78659700  0.00000000  1
  C  C26  1  0.32685400  0.55153000  0.87838400  1
  C  C27  1  0.44847000  0.32685400  0.77532300  1
  C  C28  1  0.67314600  0.44847000  0.12161600  1
  C  C29  1  0.55153000  0.67314600  0.22467700  1
  C  C30  1  0.15411700  0.46360100  0.61771800  1
  C  C31  1  0.53639900  0.15411700  0.69051600  1
  C  C32  1  0.84588300  0.53639900  0.38228200  1
  C  C33  1  0.46360100  0.84588300  0.30948400  1
  C  C34  1  0.06739100  0.63811200  0.70550400  1
  C  C35  1  0.36188800  0.06739100  0.42927900  1
  C  C36  1  0.93260900  0.36188800  0.29449600  1
  C  C37  1  0.63811200  0.93260900  0.57072100  1
  C  C38  1  0.24247400  0.72660300  0.96907700  1
  C  C39  1  0.27339700  0.24247400  0.51587100  1
  C  C40  1  0.75752600  0.27339700  0.03092300  1
  C  C41  1  0.72660300  0.75752600  0.48412900  1
  C  C42  1  0.41602700  0.81263600  0.79578600  1
  C  C43  1  0.62024100  0.41602700  0.60339000  1
  C  C44  1  0.01685100  0.62024100  0.20421400  1
  C  C45  1  0.81263600  0.01685100  0.39661000  1
  C  C46  1  0.58397300  0.18736400  0.20421400  1
  C  C47  1  0.37975900  0.58397300  0.39661000  1
  C  C48  1  0.98314900  0.37975900  0.79578600  1
  C  C49  1  0.18736400  0.98314900  0.60339000  1
