# generated using pymatgen
data_Cu2NiC17
_symmetry_space_group_name_H-M   'P 1'
_cell_length_a   8.78097406
_cell_length_b   8.78097406
_cell_length_c   8.78097406
_cell_angle_alpha   143.12031919
_cell_angle_beta   143.12031919
_cell_angle_gamma   53.14477736
_symmetry_Int_Tables_number   1
_chemical_formula_structural   Cu2NiC17
_chemical_formula_sum   'Cu2 Ni1 C17'
_cell_volume   242.34144249
_cell_formula_units_Z   1
loop_
 _symmetry_equiv_pos_site_id
 _symmetry_equiv_pos_as_xyz
  1  'x, y, z'
loop_
 _atom_site_type_symbol
 _atom_site_label
 _atom_site_symmetry_multiplicity
 _atom_site_fract_x
 _atom_site_fract_y
 _atom_site_fract_z
 _atom_site_occupancy
  Ni  Ni0  1  0.50000000  0.50000000  0.00000000  1
  Cu  Cu1  1  0.25131700  0.25131700  0.00000000  1
  Cu  Cu2  1  0.74868300  0.74868300  0.00000000  1
  C  C3  1  0.00000000  0.00000000  0.00000000  1
  C  C4  1  0.37585900  0.87585900  0.50000000  1
  C  C5  1  0.12414100  0.62414100  0.50000000  1
  C  C6  1  0.87585900  0.37585900  0.50000000  1
  C  C7  1  0.62414100  0.12414100  0.50000000  1
  C  C8  1  0.25000000  0.75000000  0.50000000  1
  C  C9  1  0.00000000  0.50000000  0.50000000  1
  C  C10  1  0.75000000  0.25000000  0.50000000  1
  C  C11  1  0.50000000  0.00000000  0.50000000  1
  C  C12  1  0.36778700  0.36778700  0.48762300  1
  C  C13  1  0.11983600  0.11983600  0.48762300  1
  C  C14  1  0.88016400  0.88016400  0.51237700  1
  C  C15  1  0.63221300  0.63221300  0.51237700  1
  C  C16  1  0.36778700  0.88016400  0.00000000  1
  C  C17  1  0.11983600  0.63221300  0.00000000  1
  C  C18  1  0.88016400  0.36778700  0.00000000  1
  C  C19  1  0.63221300  0.11983600  0.00000000  1
