# generated using pymatgen
data_Cu(NiC4)3
_symmetry_space_group_name_H-M   'P 1'
_cell_length_a   7.73694556
_cell_length_b   7.73694556
_cell_length_c   7.73694624
_cell_angle_alpha   105.05803010
_cell_angle_beta   105.05803010
_cell_angle_gamma   105.05803069
_symmetry_Int_Tables_number   1
_chemical_formula_structural   Cu(NiC4)3
_chemical_formula_sum   'Cu2 Ni6 C24'
_cell_volume   404.40202269
_cell_formula_units_Z   2
loop_
 _symmetry_equiv_pos_site_id
 _symmetry_equiv_pos_as_xyz
  1  'x, y, z'
loop_
 _atom_site_type_symbol
 _atom_site_label
 _atom_site_symmetry_multiplicity
 _atom_site_fract_x
 _atom_site_fract_y
 _atom_site_fract_z
 _atom_site_occupancy
  Ni  Ni0  1  0.15984100  0.26251000  0.65052100  1
  Ni  Ni1  1  0.65052100  0.15984100  0.26251000  1
  Ni  Ni2  1  0.26251000  0.65052100  0.15984100  1
  Ni  Ni3  1  0.84015900  0.73749000  0.34947900  1
  Ni  Ni4  1  0.34947900  0.84015900  0.73749000  1
  Ni  Ni5  1  0.73749000  0.34947900  0.84015900  1
  Cu  Cu6  1  0.00000000  0.00000000  0.00000000  1
  Cu  Cu7  1  0.50000000  0.50000000  0.50000000  1
  C  C8  1  0.28820100  0.04131500  0.37259000  1
  C  C9  1  0.37259000  0.28820100  0.04131500  1
  C  C10  1  0.04131500  0.37259000  0.28820100  1
  C  C11  1  0.62741000  0.71179900  0.95868500  1
  C  C12  1  0.95868500  0.62741000  0.71179900  1
  C  C13  1  0.71179900  0.95868500  0.62741000  1
  C  C14  1  0.17684000  0.25621400  0.98182400  1
  C  C15  1  0.98182400  0.17684000  0.25621400  1
  C  C16  1  0.45075400  0.19057900  0.92674800  1
  C  C17  1  0.19057900  0.92674800  0.45075400  1
  C  C18  1  0.92674800  0.45075400  0.19057900  1
  C  C19  1  0.07325200  0.54924600  0.80942100  1
  C  C20  1  0.54924600  0.80942200  0.07325200  1
  C  C21  1  0.80942200  0.07325200  0.54924600  1
  C  C22  1  0.49187300  0.43166300  0.21624800  1
  C  C23  1  0.43166300  0.21624800  0.49187300  1
  C  C24  1  0.21624800  0.49187300  0.43166300  1
  C  C25  1  0.50812700  0.56833700  0.78375200  1
  C  C26  1  0.56833700  0.78375200  0.50812700  1
  C  C27  1  0.78375200  0.50812700  0.56833700  1
  C  C28  1  0.74378600  0.01817600  0.82316000  1
  C  C29  1  0.01817600  0.82316000  0.74378600  1
  C  C30  1  0.82316000  0.74378600  0.01817600  1
  C  C31  1  0.25621400  0.98182400  0.17684000  1
