# generated using pymatgen
data_Cu16Ni4C
_symmetry_space_group_name_H-M   'P 1'
_cell_length_a   8.92932458
_cell_length_b   8.92932458
_cell_length_c   13.44014041
_cell_angle_alpha   71.96327493
_cell_angle_beta   71.96327493
_cell_angle_gamma   61.74497716
_symmetry_Int_Tables_number   1
_chemical_formula_structural   Cu16Ni4C
_chemical_formula_sum   'Cu32 Ni8 C2'
_cell_volume   880.37783772
_cell_formula_units_Z   2
loop_
 _symmetry_equiv_pos_site_id
 _symmetry_equiv_pos_as_xyz
  1  'x, y, z'
loop_
 _atom_site_type_symbol
 _atom_site_label
 _atom_site_symmetry_multiplicity
 _atom_site_fract_x
 _atom_site_fract_y
 _atom_site_fract_z
 _atom_site_occupancy
  C  C0  1  0.36808100  0.34947900  0.09467200  1
  C  C1  1  0.34947900  0.36808100  0.59467200  1
  Ni  Ni2  1  0.72686800  0.99159200  0.86128600  1
  Ni  Ni3  1  0.99159200  0.72686800  0.36128600  1
  Ni  Ni4  1  0.54880900  0.06309500  0.25458100  1
  Ni  Ni5  1  0.06309500  0.54880900  0.75458100  1
  Ni  Ni6  1  0.00895900  0.39455300  0.17543800  1
  Ni  Ni7  1  0.39455300  0.00895900  0.67543800  1
  Ni  Ni8  1  0.39273100  0.76454500  0.04189200  1
  Ni  Ni9  1  0.76454500  0.39273100  0.54189200  1
  Cu  Cu10  1  0.83042500  0.91815700  0.94360100  1
  Cu  Cu11  1  0.91815700  0.83042500  0.44360100  1
  Cu  Cu12  1  0.60508900  0.24575500  0.86283200  1
  Cu  Cu13  1  0.24575500  0.60508900  0.36283200  1
  Cu  Cu14  1  0.46694100  0.01793600  0.36321500  1
  Cu  Cu15  1  0.01793600  0.46694100  0.86321500  1
  Cu  Cu16  1  0.00816200  0.82123900  0.25157200  1
  Cu  Cu17  1  0.82123900  0.00816200  0.75157200  1
  Cu  Cu18  1  0.95907800  0.25686600  0.23110400  1
  Cu  Cu19  1  0.25686600  0.95907800  0.73110400  1
  Cu  Cu20  1  0.59082400  0.34081800  0.56298900  1
  Cu  Cu21  1  0.34081800  0.59082400  0.06298900  1
  Cu  Cu22  1  0.34643700  0.75479900  0.53379000  1
  Cu  Cu23  1  0.75479900  0.34643700  0.03379000  1
  Cu  Cu24  1  0.35008200  0.13571800  0.56917000  1
  Cu  Cu25  1  0.13571800  0.35008200  0.06917000  1
  Cu  Cu26  1  0.40555700  0.12672700  0.73082400  1
  Cu  Cu27  1  0.12672700  0.40555700  0.23082400  1
  Cu  Cu28  1  0.06440700  0.45239300  0.67557200  1
  Cu  Cu29  1  0.45239300  0.06440700  0.17557200  1
  Cu  Cu30  1  0.26308400  0.50479500  0.72745300  1
  Cu  Cu31  1  0.50479500  0.26308400  0.22745300  1
  Cu  Cu32  1  0.20226100  0.87265000  0.52297500  1
  Cu  Cu33  1  0.87265000  0.20226100  0.02297500  1
  Cu  Cu34  1  0.27664000  0.52023100  0.46198500  1
  Cu  Cu35  1  0.52023100  0.27664000  0.96198500  1
  Cu  Cu36  1  0.91327100  0.22998700  0.52981600  1
  Cu  Cu37  1  0.22998700  0.91327100  0.02981600  1
  Cu  Cu38  1  0.74901200  0.52237400  0.44363300  1
  Cu  Cu39  1  0.52237400  0.74901200  0.94363300  1
  Cu  Cu40  1  0.55898600  0.86798800  0.65450000  1
  Cu  Cu41  1  0.86798800  0.55898600  0.15450000  1
