# generated using pymatgen
data_Cu5NiC31
_symmetry_space_group_name_H-M   'P 1'
_cell_length_a   8.79479279
_cell_length_b   8.73581424
_cell_length_c   8.68157690
_cell_angle_alpha   60.05703880
_cell_angle_beta   60.47036728
_cell_angle_gamma   62.27630373
_symmetry_Int_Tables_number   1
_chemical_formula_structural   Cu5NiC31
_chemical_formula_sum   'Cu5 Ni1 C31'
_cell_volume   481.17299824
_cell_formula_units_Z   1
loop_
 _symmetry_equiv_pos_site_id
 _symmetry_equiv_pos_as_xyz
  1  'x, y, z'
loop_
 _atom_site_type_symbol
 _atom_site_label
 _atom_site_symmetry_multiplicity
 _atom_site_fract_x
 _atom_site_fract_y
 _atom_site_fract_z
 _atom_site_occupancy
  Ni  Ni0  1  0.75644100  0.74602300  0.75736800  1
  C  C1  1  0.55075800  0.15099500  0.15081600  1
  Cu  Cu2  1  0.97897000  0.01273300  0.00431300  1
  Cu  Cu3  1  0.11655000  0.62617600  0.62402300  1
  Cu  Cu4  1  0.51826400  0.49224000  0.49436500  1
  Cu  Cu5  1  0.39446000  0.87454900  0.86270800  1
  Cu  Cu6  1  0.94332500  0.34978200  0.34873100  1
  C  C7  1  0.24194300  0.24993400  0.53820200  1
  C  C8  1  0.25527900  0.95565000  0.24292800  1
  C  C9  1  0.25875400  0.53638200  0.95966100  1
  C  C10  1  0.75368400  0.44786900  0.05240100  1
  C  C11  1  0.75170600  0.04968000  0.75145000  1
  C  C12  1  0.73461600  0.75705600  0.45934100  1
  C  C13  1  0.08058300  0.08780000  0.32405700  1
  C  C14  1  0.08106800  0.48578900  0.09908800  1
  C  C15  1  0.07314300  0.34238000  0.47803900  1
  C  C16  1  0.19901500  0.09751700  0.73603800  1
  C  C17  1  0.40935900  0.15916600  0.39365500  1
  C  C18  1  0.29923300  0.39128100  0.53976400  1
  C  C19  1  0.22443300  0.95167600  0.07898700  1
  C  C20  1  0.30616800  0.75871000  0.38248000  1
  C  C21  1  0.58816600  0.61306500  0.00892700  1
  C  C22  1  0.30509000  0.54274500  0.76097900  1
  C  C23  1  0.75063600  0.25919800  0.07825900  1
  C  C24  1  0.58179500  0.99570400  0.80115800  1
  C  C25  1  0.42317300  0.02845100  0.15354200  1
  C  C26  1  0.22653900  0.73079400  0.95559800  1
  C  C27  1  0.75138800  0.42675200  0.24278800  1
  C  C28  1  0.42342200  0.39049200  0.02707200  1
  C  C29  1  0.74892400  0.23581100  0.58286900  1
  C  C30  1  0.74975400  0.07881700  0.91587600  1
  C  C31  1  0.72010000  0.59722000  0.44532500  1
  C  C32  1  0.57054600  0.80572300  0.63495200  1
  C  C33  1  0.73977600  0.92339300  0.26823800  1
  C  C34  1  0.90436300  0.71290700  0.50259400  1
  C  C35  1  0.92234600  0.49479000  0.87994000  1
  C  C36  1  0.91621800  0.88293400  0.71346600  1
