# generated using pymatgen
data_Cu5Ni2C25
_symmetry_space_group_name_H-M   'P 1'
_cell_length_a   5.78369700
_cell_length_b   5.84166434
_cell_length_c   9.75383201
_cell_angle_alpha   98.37809189
_cell_angle_beta   90.04378028
_cell_angle_gamma   119.46308743
_symmetry_Int_Tables_number   1
_chemical_formula_structural   Cu5Ni2C25
_chemical_formula_sum   'Cu5 Ni2 C25'
_cell_volume   282.86023367
_cell_formula_units_Z   1
loop_
 _symmetry_equiv_pos_site_id
 _symmetry_equiv_pos_as_xyz
  1  'x, y, z'
loop_
 _atom_site_type_symbol
 _atom_site_label
 _atom_site_symmetry_multiplicity
 _atom_site_fract_x
 _atom_site_fract_y
 _atom_site_fract_z
 _atom_site_occupancy
  C  C0  1  0.11853800  0.24784800  0.74976600  1
  C  C1  1  0.37802600  0.24853300  0.24514500  1
  C  C2  1  0.63002400  0.25459600  0.75843300  1
  C  C3  1  0.62121200  0.75191300  0.75659900  1
  C  C4  1  0.87606700  0.74808800  0.24831300  1
  C  C5  1  0.11755600  0.73830500  0.75324400  1
  C  C6  1  0.88727300  0.26369100  0.24389300  1
  C  C7  1  0.37740200  0.75071200  0.24436200  1
  C  C8  1  0.00011400  0.50035800  0.99970100  1
  Ni  Ni9  1  0.99997700  0.99993400  0.99979100  1
  Ni  Ni10  1  0.24943600  0.99934400  0.49992700  1
  Cu  Cu11  1  0.49968100  0.00021000  0.00044200  1
  Cu  Cu12  1  0.74942900  0.00023100  0.49982900  1
  Cu  Cu13  1  0.49985100  0.50013700  0.00014800  1
  Cu  Cu14  1  0.74864600  0.49953800  0.50069600  1
  Cu  Cu15  1  0.25169900  0.49986800  0.49945100  1
  C  C16  1  0.79836900  0.10840400  0.89067200  1
  C  C17  1  0.07507600  0.12471200  0.38527000  1
  C  C18  1  0.29582600  0.09282300  0.88451200  1
  C  C19  1  0.34255300  0.65070000  0.89755900  1
  C  C20  1  0.57249500  0.64666600  0.38240800  1
  C  C21  1  0.80229500  0.64082300  0.89295800  1
  C  C22  1  0.54706900  0.12035900  0.38569300  1
  C  C23  1  0.08230300  0.64452900  0.38304500  1
  C  C24  1  0.41442100  0.35163800  0.61554300  1
  C  C25  1  0.65819100  0.35012000  0.10324700  1
  C  C26  1  0.92925000  0.35583600  0.61884500  1
  C  C27  1  0.95129700  0.87937700  0.61506400  1
  C  C28  1  0.19978600  0.89081000  0.10810500  1
  C  C29  1  0.42454200  0.87326500  0.61417800  1
  C  C30  1  0.19569200  0.35841800  0.10625500  1
  C  C31  1  0.70590400  0.90821500  0.11690700  1
