# generated using pymatgen
data_Cu6Ni7C17
_symmetry_space_group_name_H-M   'P 1'
_cell_length_a   6.07747851
_cell_length_b   6.04518559
_cell_length_c   10.54573777
_cell_angle_alpha   108.78753635
_cell_angle_beta   72.99232916
_cell_angle_gamma   120.17301391
_symmetry_Int_Tables_number   1
_chemical_formula_structural   Cu6Ni7C17
_chemical_formula_sum   'Cu6 Ni7 C17'
_cell_volume   313.03934312
_cell_formula_units_Z   1
loop_
 _symmetry_equiv_pos_site_id
 _symmetry_equiv_pos_as_xyz
  1  'x, y, z'
loop_
 _atom_site_type_symbol
 _atom_site_label
 _atom_site_symmetry_multiplicity
 _atom_site_fract_x
 _atom_site_fract_y
 _atom_site_fract_z
 _atom_site_occupancy
  C  C0  1  0.81250000  0.68750000  0.06250000  1
  Ni  Ni1  1  0.31250000  0.68750000  0.06250000  1
  Ni  Ni2  1  0.06638558  0.96802611  0.83305523  1
  Ni  Ni3  1  0.56037366  0.92698738  0.31637442  1
  Ni  Ni4  1  0.05872978  0.40951201  0.29496462  1
  Ni  Ni5  1  0.55861442  0.40697389  0.29194477  1
  Ni  Ni6  1  0.56627022  0.96548799  0.83003538  1
  Ni  Ni7  1  0.06462634  0.44801262  0.80862558  1
  Cu  Cu8  1  0.05230165  0.92417337  0.31741402  1
  Cu  Cu9  1  0.31250000  0.68750000  0.56250000  1
  Cu  Cu10  1  0.81250000  0.68750000  0.56250000  1
  Cu  Cu11  1  0.31250000  0.18750000  0.56250000  1
  Cu  Cu12  1  0.81250000  0.18750000  0.56250000  1
  Cu  Cu13  1  0.57269835  0.45082663  0.80758598  1
  C  C14  1  0.45003535  0.56640362  0.19679967  1
  C  C15  1  0.18414996  0.79825383  0.43885572  1
  C  C16  1  0.67624413  0.80087761  0.44241095  1
  C  C17  1  0.19578577  0.30841903  0.43956053  1
  C  C18  1  0.91482064  0.55785979  0.19490342  1
  C  C19  1  0.41858785  0.03264440  0.20952877  1
  C  C20  1  0.67429947  0.30241999  0.43993668  1
  C  C21  1  0.90312428  0.02728656  0.21070174  1
  C  C22  1  0.17496465  0.80859638  0.92820033  1
  C  C23  1  0.44085004  0.57674617  0.68614428  1
  C  C24  1  0.71017936  0.81714021  0.93009658  1
  C  C25  1  0.20641215  0.34235560  0.91547123  1
  C  C26  1  0.94875587  0.57412239  0.68258905  1
  C  C27  1  0.42921423  0.06658097  0.68543947  1
  C  C28  1  0.95070053  0.07258001  0.68506332  1
  C  C29  1  0.72187572  0.34771344  0.91429826  1
