# generated using pymatgen
data_CuNi7C32
_symmetry_space_group_name_H-M   'P 1'
_cell_length_a   7.88114985
_cell_length_b   7.88114985
_cell_length_c   7.88115000
_cell_angle_alpha   90.00140852
_cell_angle_beta   90.00140852
_cell_angle_gamma   90.00140854
_symmetry_Int_Tables_number   1
_chemical_formula_structural   CuNi7C32
_chemical_formula_sum   'Cu1 Ni7 C32'
_cell_volume   489.51810980
_cell_formula_units_Z   1
loop_
 _symmetry_equiv_pos_site_id
 _symmetry_equiv_pos_as_xyz
  1  'x, y, z'
loop_
 _atom_site_type_symbol
 _atom_site_label
 _atom_site_symmetry_multiplicity
 _atom_site_fract_x
 _atom_site_fract_y
 _atom_site_fract_z
 _atom_site_occupancy
  Ni  Ni0  1  0.74901200  0.25095400  0.25095400  1
  Ni  Ni1  1  0.74905000  0.25096500  0.74905000  1
  Ni  Ni2  1  0.74905000  0.74905000  0.25096500  1
  Ni  Ni3  1  0.74905200  0.74905200  0.74905200  1
  Ni  Ni4  1  0.25095400  0.25095400  0.74901200  1
  Ni  Ni5  1  0.25095400  0.74901200  0.25095400  1
  Ni  Ni6  1  0.25096500  0.74905000  0.74905000  1
  Cu  Cu7  1  0.25108000  0.25108000  0.25108000  1
  C  C8  1  0.00031900  0.00031900  0.49969800  1
  C  C9  1  0.00031900  0.49969800  0.00031900  1
  C  C10  1  0.00031600  0.49966600  0.49966600  1
  C  C11  1  0.49969800  0.00031900  0.00031900  1
  C  C12  1  0.49966600  0.00031600  0.49966600  1
  C  C13  1  0.49966600  0.49966600  0.00031600  1
  C  C14  1  0.49968200  0.49968200  0.49968200  1
  C  C15  1  0.00037400  0.00037400  0.00037400  1
  C  C16  1  0.75044200  0.00008900  0.00008900  1
  C  C17  1  0.74946500  0.00009000  0.49993800  1
  C  C18  1  0.74946500  0.49993800  0.00009000  1
  C  C19  1  0.75219400  0.49991100  0.49991100  1
  C  C20  1  0.24963700  0.00140000  0.00140000  1
  C  C21  1  0.25052600  0.00147000  0.49850700  1
  C  C22  1  0.25052600  0.49850700  0.00147000  1
  C  C23  1  0.24780000  0.49848900  0.49848900  1
  C  C24  1  0.00140000  0.24963700  0.00140000  1
  C  C25  1  0.00147000  0.25052600  0.49850700  1
  C  C26  1  0.00008900  0.75044200  0.00008900  1
  C  C27  1  0.00009000  0.74946500  0.49993800  1
  C  C28  1  0.49850700  0.25052600  0.00147000  1
  C  C29  1  0.49848900  0.24780000  0.49848900  1
  C  C30  1  0.49993800  0.74946500  0.00009000  1
  C  C31  1  0.49991100  0.75219400  0.49991100  1
  C  C32  1  0.00140000  0.00140000  0.24963700  1
  C  C33  1  0.00008900  0.00008900  0.75044200  1
  C  C34  1  0.00147000  0.49850700  0.25052600  1
  C  C35  1  0.00009000  0.49993800  0.74946500  1
  C  C36  1  0.49850700  0.00147000  0.25052600  1
  C  C37  1  0.49993800  0.00009000  0.74946500  1
  C  C38  1  0.49848900  0.49848900  0.24780000  1
  C  C39  1  0.49991100  0.49991100  0.75219400  1
