# generated using pymatgen
data_CuNi14C
_symmetry_space_group_name_H-M   'P 1'
_cell_length_a   6.32828513
_cell_length_b   6.30920828
_cell_length_c   10.33473425
_cell_angle_alpha   90.00000000
_cell_angle_beta   90.00000000
_cell_angle_gamma   119.90033515
_symmetry_Int_Tables_number   1
_chemical_formula_structural   CuNi14C
_chemical_formula_sum   'Cu1 Ni14 C1'
_cell_volume   357.70592216
_cell_formula_units_Z   1
loop_
 _symmetry_equiv_pos_site_id
 _symmetry_equiv_pos_as_xyz
  1  'x, y, z'
loop_
 _atom_site_type_symbol
 _atom_site_label
 _atom_site_symmetry_multiplicity
 _atom_site_fract_x
 _atom_site_fract_y
 _atom_site_fract_z
 _atom_site_occupancy
  Ni  Ni0  1  0.16711721  0.33355811  0.62500000  1
  Ni  Ni1  1  0.16649232  0.83324566  0.62500000  1
  Ni  Ni2  1  0.66787357  0.33285306  0.12500000  1
  Ni  Ni3  1  0.66654834  0.33370212  0.62500000  1
  Ni  Ni4  1  0.66787357  0.83501951  0.12500000  1
  Ni  Ni5  1  0.66654834  0.83284522  0.62500000  1
  Ni  Ni6  1  0.33278859  0.16976500  0.37365023  1
  Ni  Ni7  1  0.33278859  0.16976500  0.87634977  1
  Ni  Ni8  1  0.33278859  0.66302459  0.37365023  1
  Ni  Ni9  1  0.33278859  0.66302459  0.87634977  1
  Ni  Ni10  1  0.83645460  0.16822780  0.37347519  1
  Ni  Ni11  1  0.83645460  0.16822780  0.87652481  1
  Ni  Ni12  1  0.83162571  0.66581336  0.37653644  1
  Ni  Ni13  1  0.83162571  0.66581336  0.87346356  1
  Cu  Cu14  1  0.16520147  0.33260023  0.12500000  1
  C  C15  1  0.16503019  0.83251459  0.12500000  1
