# generated using pymatgen
data_Cu3(NiC4)2
_symmetry_space_group_name_H-M   'P 1'
_cell_length_a   5.92516443
_cell_length_b   5.92516443
_cell_length_c   4.94084310
_cell_angle_alpha   71.91792230
_cell_angle_beta   71.91792230
_cell_angle_gamma   59.33995937
_symmetry_Int_Tables_number   1
_chemical_formula_structural   Cu3(NiC4)2
_chemical_formula_sum   'Cu3 Ni2 C8'
_cell_volume   139.36797166
_cell_formula_units_Z   1
loop_
 _symmetry_equiv_pos_site_id
 _symmetry_equiv_pos_as_xyz
  1  'x, y, z'
loop_
 _atom_site_type_symbol
 _atom_site_label
 _atom_site_symmetry_multiplicity
 _atom_site_fract_x
 _atom_site_fract_y
 _atom_site_fract_z
 _atom_site_occupancy
  Ni  Ni0  1  0.72584800  0.72584800  0.34060100  1
  Ni  Ni1  1  0.27415200  0.27415200  0.65939900  1
  Cu  Cu2  1  0.00000000  0.00000000  0.50000000  1
  Cu  Cu3  1  0.73912700  0.26087300  0.00000000  1
  Cu  Cu4  1  0.26087300  0.73912700  0.00000000  1
  C  C5  1  0.39535100  0.39535100  0.92274900  1
  C  C6  1  0.60464900  0.60464900  0.07725100  1
  C  C7  1  0.89067100  0.89067100  0.92371500  1
  C  C8  1  0.10932900  0.10932900  0.07628500  1
  C  C9  1  0.33963700  0.88693400  0.59072100  1
  C  C10  1  0.88693400  0.33963700  0.59072100  1
  C  C11  1  0.11306600  0.66036300  0.40927900  1
  C  C12  1  0.66036300  0.11306600  0.40927900  1
