# generated using pymatgen
data_Cu2(NiC5)3
_symmetry_space_group_name_H-M   'P 1'
_cell_length_a   6.47906606
_cell_length_b   8.65918584
_cell_length_c   8.65918584
_cell_angle_alpha   93.87558345
_cell_angle_beta   108.37849749
_cell_angle_gamma   108.37849749
_symmetry_Int_Tables_number   1
_chemical_formula_structural   Cu2(NiC5)3
_chemical_formula_sum   'Cu4 Ni6 C30'
_cell_volume   429.92796253
_cell_formula_units_Z   2
loop_
 _symmetry_equiv_pos_site_id
 _symmetry_equiv_pos_as_xyz
  1  'x, y, z'
loop_
 _atom_site_type_symbol
 _atom_site_label
 _atom_site_symmetry_multiplicity
 _atom_site_fract_x
 _atom_site_fract_y
 _atom_site_fract_z
 _atom_site_occupancy
  Ni  Ni0  1  0.75000000  0.22961100  0.77038900  1
  Ni  Ni1  1  0.25000000  0.77038900  0.22961100  1
  Ni  Ni2  1  0.63046400  0.55801500  0.87340800  1
  Ni  Ni3  1  0.36953600  0.44198500  0.12659200  1
  Ni  Ni4  1  0.86953600  0.12659200  0.44198500  1
  Ni  Ni5  1  0.13046400  0.87340800  0.55801500  1
  Cu  Cu6  1  0.00000000  0.00000000  0.00000000  1
  Cu  Cu7  1  0.50000000  0.00000000  0.00000000  1
  Cu  Cu8  1  0.75000000  0.50263000  0.49737000  1
  Cu  Cu9  1  0.25000000  0.49737000  0.50263000  1
  C  C10  1  0.75000000  0.80045100  0.19954900  1
  C  C11  1  0.25000000  0.19954900  0.80045100  1
  C  C12  1  0.87299000  0.38191200  0.16310800  1
  C  C13  1  0.12701000  0.61808800  0.83689200  1
  C  C14  1  0.62701000  0.83689200  0.61808800  1
  C  C15  1  0.37299000  0.16310800  0.38191200  1
  C  C16  1  0.77418900  0.78090300  0.02492100  1
  C  C17  1  0.22581100  0.21909700  0.97507900  1
  C  C18  1  0.72581100  0.97507900  0.21909700  1
  C  C19  1  0.27418900  0.02492100  0.78090300  1
  C  C20  1  0.68389900  0.45718100  0.11155400  1
  C  C21  1  0.31610100  0.54281900  0.88844600  1
  C  C22  1  0.81610100  0.88844600  0.54281900  1
  C  C23  1  0.18389900  0.11155400  0.45718100  1
  C  C24  1  0.79915000  0.21933800  0.03594000  1
  C  C25  1  0.20085000  0.78066200  0.96406000  1
  C  C26  1  0.70085000  0.96406000  0.78066200  1
  C  C27  1  0.29915000  0.03594000  0.21933800  1
  C  C28  1  0.89184800  0.49264000  0.83188900  1
  C  C29  1  0.10815200  0.50736000  0.16811100  1
  C  C30  1  0.60815200  0.16811100  0.50736000  1
  C  C31  1  0.39184800  0.83188900  0.49264000  1
  C  C32  1  0.57613000  0.65224200  0.65084500  1
  C  C33  1  0.42387000  0.34775800  0.34915500  1
  C  C34  1  0.92387000  0.34915500  0.34775800  1
  C  C35  1  0.07613000  0.65084500  0.65224200  1
  C  C36  1  0.52998200  0.68478300  0.22202900  1
  C  C37  1  0.47001800  0.31521700  0.77797100  1
  C  C38  1  0.97001800  0.77797100  0.31521700  1
  C  C39  1  0.02998200  0.22202900  0.68478300  1
