# generated using pymatgen
data_CuNiC6
_symmetry_space_group_name_H-M   'P 1'
_cell_length_a   7.43497400
_cell_length_b   8.03452400
_cell_length_c   11.91178000
_cell_angle_alpha   90.00000000
_cell_angle_beta   90.00000000
_cell_angle_gamma   90.00000000
_symmetry_Int_Tables_number   1
_chemical_formula_structural   CuNiC6
_chemical_formula_sum   'Cu4 Ni4 C24'
_cell_volume   711.56777250
_cell_formula_units_Z   4
loop_
 _symmetry_equiv_pos_site_id
 _symmetry_equiv_pos_as_xyz
  1  'x, y, z'
loop_
 _atom_site_type_symbol
 _atom_site_label
 _atom_site_symmetry_multiplicity
 _atom_site_fract_x
 _atom_site_fract_y
 _atom_site_fract_z
 _atom_site_occupancy
  C  C0  1  0.03091300  0.49916100  0.82223600  1
  C  C1  1  0.96908700  0.99916100  0.17776400  1
  C  C2  1  0.53091300  0.99916100  0.67776400  1
  C  C3  1  0.46908700  0.49916100  0.32223600  1
  Ni  Ni4  1  0.47466100  0.00079500  0.32139200  1
  Ni  Ni5  1  0.52533900  0.50079500  0.67860800  1
  Ni  Ni6  1  0.97466100  0.50079500  0.17860800  1
  Ni  Ni7  1  0.02533900  0.00079500  0.82139200  1
  Cu  Cu8  1  0.57127300  0.24992000  0.99424500  1
  Cu  Cu9  1  0.92872700  0.24992000  0.49424500  1
  Cu  Cu10  1  0.42872700  0.74992000  0.00575500  1
  Cu  Cu11  1  0.07127300  0.74992000  0.50575500  1
  C  C12  1  0.95941000  0.25065800  0.99976300  1
  C  C13  1  0.54059000  0.25065800  0.49976300  1
  C  C14  1  0.04059000  0.75065800  0.00023700  1
  C  C15  1  0.45941000  0.75065800  0.50023700  1
  C  C16  1  0.33675100  0.04133500  0.09882500  1
  C  C17  1  0.16882900  0.45780600  0.59545400  1
  C  C18  1  0.66324900  0.54133500  0.90117500  1
  C  C19  1  0.83117100  0.95780600  0.40454600  1
  C  C20  1  0.66882900  0.95780600  0.90454600  1
  C  C21  1  0.83675100  0.54133500  0.40117500  1
  C  C22  1  0.33117100  0.45780600  0.09545400  1
  C  C23  1  0.16324900  0.04133500  0.59882500  1
  C  C24  1  0.69466100  0.25123000  0.21638500  1
  C  C25  1  0.80533900  0.25123000  0.71638500  1
  C  C26  1  0.30533900  0.75123000  0.78361500  1
  C  C27  1  0.19466100  0.75123000  0.28361500  1
  C  C28  1  0.33354900  0.24909500  0.81106400  1
  C  C29  1  0.16645100  0.24909500  0.31106400  1
  C  C30  1  0.66645100  0.74909500  0.18893600  1
  C  C31  1  0.83354900  0.74909500  0.68893600  1
