# generated using pymatgen
data_Cu5(NiC21)2
_symmetry_space_group_name_H-M   'P 1'
_cell_length_a   12.70358507
_cell_length_b   12.70358507
_cell_length_c   8.37622287
_cell_angle_alpha   88.10314559
_cell_angle_beta   88.10314559
_cell_angle_gamma   35.97489817
_symmetry_Int_Tables_number   1
_chemical_formula_structural   Cu5(NiC21)2
_chemical_formula_sum   'Cu5 Ni2 C42'
_cell_volume   793.58665299
_cell_formula_units_Z   1
loop_
 _symmetry_equiv_pos_site_id
 _symmetry_equiv_pos_as_xyz
  1  'x, y, z'
loop_
 _atom_site_type_symbol
 _atom_site_label
 _atom_site_symmetry_multiplicity
 _atom_site_fract_x
 _atom_site_fract_y
 _atom_site_fract_z
 _atom_site_occupancy
  Ni  Ni0  1  0.05112500  0.05051600  0.74740200  1
  Ni  Ni1  1  0.94948400  0.94887500  0.25259800  1
  Cu  Cu2  1  0.65045700  0.64596700  0.75898000  1
  Cu  Cu3  1  0.35403300  0.34954300  0.24102000  1
  Cu  Cu4  1  0.49958300  0.50041700  0.50000000  1
  Cu  Cu5  1  0.80334400  0.80524000  0.99542200  1
  Cu  Cu6  1  0.19476000  0.19665600  0.00457800  1
  C  C7  1  0.76343900  0.35775400  0.05136900  1
  C  C8  1  0.35771700  0.76385700  0.05137800  1
  C  C9  1  0.23614300  0.64228300  0.94862200  1
  C  C10  1  0.64224600  0.23656100  0.94863100  1
  C  C11  1  0.06014000  0.48582200  0.68148300  1
  C  C12  1  0.47676000  0.07135000  0.66903600  1
  C  C13  1  0.92865000  0.52324000  0.33096400  1
  C  C14  1  0.51417800  0.93986000  0.31851700  1
  C  C15  1  0.89800900  0.30197600  0.38635900  1
  C  C16  1  0.30158100  0.89930200  0.38668300  1
  C  C17  1  0.10069800  0.69841900  0.61331700  1
  C  C18  1  0.69802400  0.10199100  0.61364100  1
  C  C19  1  0.27653300  0.28642700  0.69010600  1
  C  C20  1  0.71357300  0.72346700  0.30989400  1
  C  C21  1  0.03561700  0.63499000  0.68436300  1
  C  C22  1  0.62640900  0.04549900  0.68553600  1
  C  C23  1  0.95450100  0.37359100  0.31446400  1
  C  C24  1  0.36501000  0.96438300  0.31563700  1
  C  C25  1  0.55993000  0.56016300  0.99971000  1
  C  C26  1  0.43983700  0.44007000  0.00029000  1
  C  C27  1  0.08044300  0.08097400  0.39294900  1
  C  C28  1  0.91902600  0.91955700  0.60705100  1
  C  C29  1  0.78224300  0.21775700  0.00000000  1
  C  C30  1  0.21803900  0.78196100  0.00000000  1
  C  C31  1  0.77005000  0.34898200  0.25027200  1
  C  C32  1  0.34981900  0.77070400  0.25028000  1
  C  C33  1  0.22929600  0.65018100  0.74972000  1
  C  C34  1  0.65101800  0.22995000  0.74972800  1
  C  C35  1  0.90178100  0.32023900  0.95758900  1
  C  C36  1  0.32044800  0.90215800  0.95802500  1
  C  C37  1  0.09784200  0.67955200  0.04197500  1
  C  C38  1  0.67976100  0.09821900  0.04241100  1
  C  C39  1  0.95306800  0.51837900  0.82900700  1
  C  C40  1  0.51396600  0.95167300  0.80280800  1
  C  C41  1  0.04832700  0.48603400  0.19719200  1
  C  C42  1  0.48162100  0.04693200  0.17099300  1
  C  C43  1  0.79396300  0.38146400  0.55415400  1
  C  C44  1  0.38225800  0.79363300  0.55378200  1
  C  C45  1  0.20636700  0.61774200  0.44621800  1
  C  C46  1  0.61853600  0.20603700  0.44584600  1
  C  C47  1  0.98008300  0.50973400  0.51375400  1
  C  C48  1  0.49026600  0.01991700  0.48624600  1
