# generated using pymatgen
data_Cu2NiC4
_symmetry_space_group_name_H-M   'P 1'
_cell_length_a   5.05272773
_cell_length_b   5.05272773
_cell_length_c   9.82916900
_cell_angle_alpha   90.00000000
_cell_angle_beta   90.00000000
_cell_angle_gamma   146.33354243
_symmetry_Int_Tables_number   1
_chemical_formula_structural   Cu2NiC4
_chemical_formula_sum   'Cu4 Ni2 C8'
_cell_volume   139.11000140
_cell_formula_units_Z   2
loop_
 _symmetry_equiv_pos_site_id
 _symmetry_equiv_pos_as_xyz
  1  'x, y, z'
loop_
 _atom_site_type_symbol
 _atom_site_label
 _atom_site_symmetry_multiplicity
 _atom_site_fract_x
 _atom_site_fract_y
 _atom_site_fract_z
 _atom_site_occupancy
  Ni  Ni0  1  0.60918200  0.39081800  0.75000000  1
  Ni  Ni1  1  0.39081800  0.60918200  0.25000000  1
  Cu  Cu2  1  0.13319100  0.86680900  0.07170400  1
  Cu  Cu3  1  0.86680900  0.13319100  0.92829600  1
  Cu  Cu4  1  0.13319100  0.86680900  0.42829600  1
  Cu  Cu5  1  0.86680900  0.13319100  0.57170400  1
  C  C6  1  0.77028400  0.22971600  0.38636300  1
  C  C7  1  0.22971600  0.77028400  0.61363700  1
  C  C8  1  0.22971600  0.77028400  0.88636300  1
  C  C9  1  0.77028400  0.22971600  0.11363700  1
  C  C10  1  0.03666300  0.96333700  0.25000000  1
  C  C11  1  0.96333700  0.03666300  0.75000000  1
  C  C12  1  0.50000000  0.50000000  0.00000000  1
  C  C13  1  0.50000000  0.50000000  0.50000000  1
