# generated using pymatgen
data_Cu5Ni2C11
_symmetry_space_group_name_H-M   'P 1'
_cell_length_a   6.74500900
_cell_length_b   7.87922100
_cell_length_c   15.94011000
_cell_angle_alpha   90.00000000
_cell_angle_beta   90.00000000
_cell_angle_gamma   90.00000000
_symmetry_Int_Tables_number   1
_chemical_formula_structural   Cu5Ni2C11
_chemical_formula_sum   'Cu20 Ni8 C44'
_cell_volume   847.14378593
_cell_formula_units_Z   4
loop_
 _symmetry_equiv_pos_site_id
 _symmetry_equiv_pos_as_xyz
  1  'x, y, z'
loop_
 _atom_site_type_symbol
 _atom_site_label
 _atom_site_symmetry_multiplicity
 _atom_site_fract_x
 _atom_site_fract_y
 _atom_site_fract_z
 _atom_site_occupancy
  C  C0  1  0.37578100  0.74465800  0.53768100  1
  C  C1  1  0.12421900  0.74465800  0.03768100  1
  C  C2  1  0.62421900  0.24465800  0.46231900  1
  C  C3  1  0.87578100  0.24465800  0.96231900  1
  C  C4  1  0.05830600  0.75031700  0.80435500  1
  C  C5  1  0.44169400  0.75031700  0.30435500  1
  C  C6  1  0.94169400  0.25031700  0.19564500  1
  C  C7  1  0.55830600  0.25031700  0.69564500  1
  Ni  Ni8  1  0.85685200  0.93747100  0.63556400  1
  Ni  Ni9  1  0.63345000  0.55641300  0.13272900  1
  Ni  Ni10  1  0.14314800  0.43747100  0.36443600  1
  Ni  Ni11  1  0.36655000  0.05641300  0.86727100  1
  Ni  Ni12  1  0.13345000  0.05641300  0.36727100  1
  Ni  Ni13  1  0.35685200  0.43747100  0.86443600  1
  Ni  Ni14  1  0.86655000  0.55641300  0.63272900  1
  Ni  Ni15  1  0.64314800  0.93747100  0.13556400  1
  Cu  Cu16  1  0.89751000  0.14813100  0.76605800  1
  Cu  Cu17  1  0.60265900  0.35604900  0.26461900  1
  Cu  Cu18  1  0.10249000  0.64813100  0.23394200  1
  Cu  Cu19  1  0.39734100  0.85604900  0.73538100  1
  Cu  Cu20  1  0.10265900  0.85604900  0.23538100  1
  Cu  Cu21  1  0.39751000  0.64813100  0.73394200  1
  Cu  Cu22  1  0.89734100  0.35604900  0.76461900  1
  Cu  Cu23  1  0.60249000  0.14813100  0.26605800  1
  Cu  Cu24  1  0.21782800  0.15284100  0.60334900  1
  Cu  Cu25  1  0.28477300  0.35275300  0.10058300  1
  Cu  Cu26  1  0.78217200  0.65284100  0.39665100  1
  Cu  Cu27  1  0.71522700  0.85275300  0.89941700  1
  Cu  Cu28  1  0.78477300  0.85275300  0.39941700  1
  Cu  Cu29  1  0.71782800  0.65284100  0.89665100  1
  Cu  Cu30  1  0.21522700  0.35275300  0.60058300  1
  Cu  Cu31  1  0.28217200  0.15284100  0.10334900  1
  Cu  Cu32  1  0.00531600  0.99568300  0.51155300  1
  Cu  Cu33  1  0.99468400  0.49568300  0.48844700  1
  Cu  Cu34  1  0.50531600  0.49568300  0.98844700  1
  Cu  Cu35  1  0.49468400  0.99568300  0.01155300  1
  C  C36  1  0.78072900  0.74850900  0.61214500  1
  C  C37  1  0.71927100  0.74850900  0.11214500  1
  C  C38  1  0.21927100  0.24850900  0.38785500  1
  C  C39  1  0.28072900  0.24850900  0.88785500  1
  C  C40  1  0.82563900  0.25229500  0.78397700  1
  C  C41  1  0.67436100  0.25229500  0.28397700  1
  C  C42  1  0.17436100  0.75229500  0.21602300  1
  C  C43  1  0.32563900  0.75229500  0.71602300  1
  C  C44  1  0.68464500  0.05239500  0.61246900  1
  C  C45  1  0.81133100  0.44404100  0.11290000  1
  C  C46  1  0.31535500  0.55239500  0.38753100  1
  C  C47  1  0.18866900  0.94404100  0.88710000  1
  C  C48  1  0.31133100  0.94404100  0.38710000  1
  C  C49  1  0.18464500  0.55239500  0.88753100  1
  C  C50  1  0.68866900  0.44404100  0.61290000  1
  C  C51  1  0.81535500  0.05239500  0.11246900  1
  C  C52  1  0.30537600  0.25331300  0.60406000  1
  C  C53  1  0.19462400  0.25331300  0.10406000  1
  C  C54  1  0.69462400  0.75331300  0.39594000  1
  C  C55  1  0.80537600  0.75331300  0.89594000  1
  C  C56  1  0.92622300  0.94388900  0.72581400  1
  C  C57  1  0.56692500  0.55437600  0.22413800  1
  C  C58  1  0.07377700  0.44388900  0.27418600  1
  C  C59  1  0.43307500  0.05437600  0.77586200  1
  C  C60  1  0.06692500  0.05437600  0.27586200  1
  C  C61  1  0.42622300  0.44388900  0.77418600  1
  C  C62  1  0.93307500  0.55437600  0.72413800  1
  C  C63  1  0.57377700  0.94388900  0.22581400  1
  C  C64  1  0.04256400  0.97280100  0.57687200  1
  C  C65  1  0.45783500  0.52606500  0.07198900  1
  C  C66  1  0.95743600  0.47280100  0.42312800  1
  C  C67  1  0.54216500  0.02606500  0.92801100  1
  C  C68  1  0.95783500  0.02606500  0.42801100  1
  C  C69  1  0.54256400  0.47280100  0.92312800  1
  C  C70  1  0.04216500  0.52606500  0.57198900  1
  C  C71  1  0.45743600  0.97280100  0.07687200  1
