# generated using pymatgen
data_Cu3NiC30
_symmetry_space_group_name_H-M   'P 1'
_cell_length_a   3.86309400
_cell_length_b   3.86309400
_cell_length_c   28.80337000
_cell_angle_alpha   90.00000000
_cell_angle_beta   90.00000000
_cell_angle_gamma   90.00000000
_symmetry_Int_Tables_number   1
_chemical_formula_structural   Cu3NiC30
_chemical_formula_sum   'Cu3 Ni1 C30'
_cell_volume   429.84695546
_cell_formula_units_Z   1
loop_
 _symmetry_equiv_pos_site_id
 _symmetry_equiv_pos_as_xyz
  1  'x, y, z'
loop_
 _atom_site_type_symbol
 _atom_site_label
 _atom_site_symmetry_multiplicity
 _atom_site_fract_x
 _atom_site_fract_y
 _atom_site_fract_z
 _atom_site_occupancy
  C  C0  1  0.00000000  0.00000000  0.42565200  1
  C  C1  1  0.50000000  0.50000000  0.91590700  1
  C  C2  1  0.50000000  0.50000000  0.07786600  1
  C  C3  1  0.00000000  0.00000000  0.58452100  1
  Ni  Ni4  1  0.00000000  0.00000000  0.29315200  1
  Cu  Cu5  1  0.50000000  0.50000000  0.79016300  1
  Cu  Cu6  1  0.50000000  0.50000000  0.20493500  1
  Cu  Cu7  1  0.00000000  0.00000000  0.71008100  1
  C  C8  1  0.50000000  0.50000000  0.35641700  1
  C  C9  1  0.00000000  0.00000000  0.85386700  1
  C  C10  1  0.00000000  0.00000000  0.14403100  1
  C  C11  1  0.50000000  0.50000000  0.64645500  1
  C  C12  1  0.00000000  0.00000000  0.99985500  1
  C  C13  1  0.50000000  0.50000000  0.50027800  1
  C  C14  1  0.00000000  0.50000000  0.34750500  1
  C  C15  1  0.50000000  0.00000000  0.85140800  1
  C  C16  1  0.50000000  0.00000000  0.34750500  1
  C  C17  1  0.00000000  0.50000000  0.85140800  1
  C  C18  1  0.50000000  0.00000000  0.15169200  1
  C  C19  1  0.00000000  0.50000000  0.64863500  1
  C  C20  1  0.00000000  0.50000000  0.15169200  1
  C  C21  1  0.50000000  0.00000000  0.64863500  1
  C  C22  1  0.50000000  0.50000000  0.43087600  1
  C  C23  1  0.00000000  0.00000000  0.93275700  1
  C  C24  1  0.00000000  0.00000000  0.06857200  1
  C  C25  1  0.50000000  0.50000000  0.56702900  1
  C  C26  1  0.00000000  0.50000000  0.25041800  1
  C  C27  1  0.50000000  0.00000000  0.75007500  1
  C  C28  1  0.50000000  0.00000000  0.25041800  1
  C  C29  1  0.00000000  0.50000000  0.75007500  1
  C  C30  1  0.50000000  0.00000000  0.00155500  1
  C  C31  1  0.00000000  0.50000000  0.49750500  1
  C  C32  1  0.50000000  0.00000000  0.49750500  1
  C  C33  1  0.00000000  0.50000000  0.00155500  1
