# generated using pymatgen
data_Cu(Ni4C11)3
_symmetry_space_group_name_H-M   'P 1'
_cell_length_a   9.81588134
_cell_length_b   9.81588134
_cell_length_c   9.81588152
_cell_angle_alpha   58.13600644
_cell_angle_beta   58.13600644
_cell_angle_gamma   58.13600766
_symmetry_Int_Tables_number   1
_chemical_formula_structural   Cu(Ni4C11)3
_chemical_formula_sum   'Cu1 Ni12 C33'
_cell_volume   640.19017453
_cell_formula_units_Z   1
loop_
 _symmetry_equiv_pos_site_id
 _symmetry_equiv_pos_as_xyz
  1  'x, y, z'
loop_
 _atom_site_type_symbol
 _atom_site_label
 _atom_site_symmetry_multiplicity
 _atom_site_fract_x
 _atom_site_fract_y
 _atom_site_fract_z
 _atom_site_occupancy
  C  C0  1  0.00000000  0.00000000  0.00000000  1
  C  C1  1  0.28712100  0.77691900  0.64802100  1
  C  C2  1  0.64802100  0.28712100  0.77691900  1
  C  C3  1  0.77691900  0.64802100  0.28712100  1
  C  C4  1  0.71287900  0.22308100  0.35197900  1
  C  C5  1  0.35197900  0.71287900  0.22308100  1
  C  C6  1  0.22308100  0.35197900  0.71287900  1
  Ni  Ni7  1  0.42885000  0.04339700  0.56825900  1
  Ni  Ni8  1  0.56825900  0.42885000  0.04339700  1
  Ni  Ni9  1  0.04339700  0.56825900  0.42885000  1
  Ni  Ni10  1  0.57115000  0.95660300  0.43174100  1
  Ni  Ni11  1  0.43174100  0.57115000  0.95660300  1
  Ni  Ni12  1  0.95660300  0.43174100  0.57115000  1
  Ni  Ni13  1  0.03434700  0.57584100  0.94536700  1
  Ni  Ni14  1  0.94536700  0.03434700  0.57584100  1
  Ni  Ni15  1  0.57584100  0.94536700  0.03434700  1
  Ni  Ni16  1  0.96565300  0.42415900  0.05463300  1
  Ni  Ni17  1  0.05463300  0.96565300  0.42415900  1
  Ni  Ni18  1  0.42415900  0.05463300  0.96565300  1
  Cu  Cu19  1  0.50000000  0.50000000  0.50000000  1
  C  C20  1  0.44120900  0.55265200  0.83154900  1
  C  C21  1  0.83154900  0.44120900  0.55265200  1
  C  C22  1  0.55265200  0.83154900  0.44120900  1
  C  C23  1  0.55879100  0.44734800  0.16845100  1
  C  C24  1  0.16845100  0.55879100  0.44734800  1
  C  C25  1  0.44734800  0.16845100  0.55879100  1
  C  C26  1  0.30852300  0.98759100  0.67592900  1
  C  C27  1  0.67592900  0.30852300  0.98759100  1
  C  C28  1  0.98759100  0.67592900  0.30852300  1
  C  C29  1  0.69147700  0.01240900  0.32407100  1
  C  C30  1  0.32407100  0.69147700  0.01240900  1
  C  C31  1  0.01240900  0.32407100  0.69147700  1
  C  C32  1  0.12973400  0.58849800  0.78973500  1
  C  C33  1  0.78973500  0.12973400  0.58849800  1
  C  C34  1  0.58849800  0.78973500  0.12973400  1
  C  C35  1  0.87026600  0.41150200  0.21026500  1
  C  C36  1  0.21026500  0.87026600  0.41150200  1
  C  C37  1  0.41150200  0.21026500  0.87026600  1
  C  C38  1  0.01452500  0.99387700  0.67544300  1
  C  C39  1  0.67544300  0.01452500  0.99387700  1
  C  C40  1  0.99387700  0.67544300  0.01452500  1
  C  C41  1  0.98547500  0.00612300  0.32455700  1
  C  C42  1  0.32455700  0.98547500  0.00612300  1
  C  C43  1  0.00612300  0.32455700  0.98547500  1
  C  C44  1  0.25724100  0.25724100  0.25724100  1
  C  C45  1  0.74275900  0.74275900  0.74275900  1
