# generated using pymatgen
data_Cu3(NiC10)2
_symmetry_space_group_name_H-M   'P 1'
_cell_length_a   4.05207500
_cell_length_b   20.01394938
_cell_length_c   4.41651444
_cell_angle_alpha   89.84325354
_cell_angle_beta   90.00000000
_cell_angle_gamma   90.00000000
_symmetry_Int_Tables_number   1
_chemical_formula_structural   Cu3(NiC10)2
_chemical_formula_sum   'Cu3 Ni2 C20'
_cell_volume   358.16925338
_cell_formula_units_Z   1
loop_
 _symmetry_equiv_pos_site_id
 _symmetry_equiv_pos_as_xyz
  1  'x, y, z'
loop_
 _atom_site_type_symbol
 _atom_site_label
 _atom_site_symmetry_multiplicity
 _atom_site_fract_x
 _atom_site_fract_y
 _atom_site_fract_z
 _atom_site_occupancy
  C  C0  1  0.00000000  0.20821800  0.03002900  1
  Ni  Ni1  1  0.50000000  0.10345700  0.52917100  1
  Ni  Ni2  1  0.50000000  0.89387600  0.52119100  1
  Cu  Cu3  1  0.50000000  0.30685600  0.50814900  1
  Cu  Cu4  1  0.50000000  0.50018100  0.51018000  1
  Cu  Cu5  1  0.50000000  0.69305400  0.51191300  1
  C  C6  1  0.00000000  0.99574900  0.95719600  1
  C  C7  1  0.00000000  0.40366100  0.94889600  1
  C  C8  1  0.00000000  0.59586300  0.95509600  1
  C  C9  1  0.00000000  0.78818600  0.95813600  1
  C  C10  1  0.50000000  0.10761300  0.07503600  1
  C  C11  1  0.50000000  0.30661400  0.10706100  1
  C  C12  1  0.50000000  0.50099700  0.11349500  1
  C  C13  1  0.50000000  0.69495800  0.11459000  1
  C  C14  1  0.50000000  0.89677300  0.07312300  1
  C  C15  1  0.50000000  0.99850400  0.60678100  1
  C  C16  1  0.50000000  0.21115600  0.57104700  1
  C  C17  1  0.50000000  0.40515500  0.61028500  1
  C  C18  1  0.50000000  0.59742300  0.61226900  1
  C  C19  1  0.50000000  0.78887900  0.61265100  1
  C  C20  1  0.00000000  0.10312600  0.60646900  1
  C  C21  1  0.00000000  0.30875800  0.58350800  1
  C  C22  1  0.00000000  0.50178400  0.59901600  1
  C  C23  1  0.00000000  0.69440800  0.60115300  1
  C  C24  1  0.00000000  0.89475000  0.61856000  1
