# generated using pymatgen
data_Cu6Ni2C
_symmetry_space_group_name_H-M   'P 1'
_cell_length_a   12.09613011
_cell_length_b   11.39648981
_cell_length_c   7.05402497
_cell_angle_alpha   78.03847806
_cell_angle_beta   67.17631421
_cell_angle_gamma   34.78520773
_symmetry_Int_Tables_number   1
_chemical_formula_structural   Cu6Ni2C
_chemical_formula_sum   'Cu12 Ni4 C2'
_cell_volume   499.74078734
_cell_formula_units_Z   2
loop_
 _symmetry_equiv_pos_site_id
 _symmetry_equiv_pos_as_xyz
  1  'x, y, z'
loop_
 _atom_site_type_symbol
 _atom_site_label
 _atom_site_symmetry_multiplicity
 _atom_site_fract_x
 _atom_site_fract_y
 _atom_site_fract_z
 _atom_site_occupancy
  C  C0  1  0.64852600  0.64852600  0.85147400  1
  C  C1  1  0.39852600  0.39852600  0.60147400  1
  Ni  Ni2  1  0.98283200  0.64324100  0.64347600  1
  Ni  Ni3  1  0.60652400  0.51954900  0.26716800  1
  Ni  Ni4  1  0.51954900  0.60652400  0.60675900  1
  Ni  Ni5  1  0.64324100  0.98283200  0.73045100  1
  Cu  Cu6  1  0.36714600  0.78145400  0.17764300  1
  Cu  Cu7  1  0.78145400  0.36714600  0.67375700  1
  Cu  Cu8  1  0.96386800  0.49221100  0.58503200  1
  Cu  Cu9  1  0.49221100  0.96386800  0.95888900  1
  Cu  Cu10  1  0.29111100  0.66496800  0.75778900  1
  Cu  Cu11  1  0.66496800  0.29111100  0.28613200  1
  Cu  Cu12  1  0.57865700  0.18956600  0.84543000  1
  Cu  Cu13  1  0.18956600  0.57865700  0.38634800  1
  Cu  Cu14  1  0.86365200  0.40457000  0.06043400  1
  Cu  Cu15  1  0.40457000  0.86365200  0.67134300  1
  Cu  Cu16  1  0.07235700  0.57624300  0.88285400  1
  Cu  Cu17  1  0.57624300  0.07235700  0.46854600  1
