# generated using pymatgen
data_CuNiC16
_symmetry_space_group_name_H-M   'P 1'
_cell_length_a   5.80842052
_cell_length_b   5.80842052
_cell_length_c   8.17261522
_cell_angle_alpha   90.00000000
_cell_angle_beta   90.00000000
_cell_angle_gamma   89.94865430
_symmetry_Int_Tables_number   1
_chemical_formula_structural   CuNiC16
_chemical_formula_sum   'Cu1 Ni1 C16'
_cell_volume   275.72552969
_cell_formula_units_Z   1
loop_
 _symmetry_equiv_pos_site_id
 _symmetry_equiv_pos_as_xyz
  1  'x, y, z'
loop_
 _atom_site_type_symbol
 _atom_site_label
 _atom_site_symmetry_multiplicity
 _atom_site_fract_x
 _atom_site_fract_y
 _atom_site_fract_z
 _atom_site_occupancy
  Ni  Ni0  1  0.51375120  0.51375120  -0.00000000  1
  Cu  Cu1  1  0.97915495  0.97915495  0.50000000  1
  C  C2  1  0.49191234  0.00520443  0.74596443  1
  C  C3  1  0.49191234  0.00520443  0.25403557  1
  C  C4  1  0.00520443  0.49191234  0.25403557  1
  C  C5  1  0.00520443  0.49191234  0.74596443  1
  C  C6  1  0.72829382  0.27145591  0.74632105  1
  C  C7  1  0.27145591  0.72829382  0.74632105  1
  C  C8  1  0.27145591  0.72829382  0.25367895  1
  C  C9  1  0.72829382  0.27145591  0.25367895  1
  C  C10  1  0.77025489  0.77025489  0.75691975  1
  C  C11  1  0.21011135  0.21011135  0.70001378  1
  C  C12  1  0.21011135  0.21011135  0.29998622  1
  C  C13  1  0.77025489  0.77025489  0.24308025  1
  C  C14  1  0.48205159  0.01958873  -0.00000000  1
  C  C15  1  0.56773781  0.98465023  0.50000000  1
  C  C16  1  0.01958873  0.48205159  -0.00000000  1
  C  C17  1  0.98465023  0.56773781  0.50000000  1
