# generated using pymatgen
data_Cu10NiC
_symmetry_space_group_name_H-M   'P 1'
_cell_length_a   13.66290323
_cell_length_b   13.66290323
_cell_length_c   13.66290328
_cell_angle_alpha   116.37523001
_cell_angle_beta   116.37523001
_cell_angle_gamma   116.37522911
_symmetry_Int_Tables_number   1
_chemical_formula_structural   Cu10NiC
_chemical_formula_sum   'Cu60 Ni6 C6'
_cell_volume   1230.03178471
_cell_formula_units_Z   6
loop_
 _symmetry_equiv_pos_site_id
 _symmetry_equiv_pos_as_xyz
  1  'x, y, z'
loop_
 _atom_site_type_symbol
 _atom_site_label
 _atom_site_symmetry_multiplicity
 _atom_site_fract_x
 _atom_site_fract_y
 _atom_site_fract_z
 _atom_site_occupancy
  C  C0  1  0.72229200  0.00066100  0.28400100  1
  C  C1  1  0.28400100  0.72229200  0.00066100  1
  C  C2  1  0.00066100  0.28400100  0.72229200  1
  C  C3  1  0.27770800  0.99933900  0.71599900  1
  C  C4  1  0.71599900  0.27770800  0.99933900  1
  C  C5  1  0.99933900  0.71599900  0.27770800  1
  Ni  Ni6  1  0.74225300  0.85990800  0.41290400  1
  Ni  Ni7  1  0.41290400  0.74225300  0.85990800  1
  Ni  Ni8  1  0.85990800  0.41290400  0.74225300  1
  Ni  Ni9  1  0.25774700  0.14009200  0.58709600  1
  Ni  Ni10  1  0.58709600  0.25774700  0.14009200  1
  Ni  Ni11  1  0.14009200  0.58709600  0.25774700  1
  Cu  Cu12  1  0.83117500  0.03128000  0.57362100  1
  Cu  Cu13  1  0.57362100  0.83117500  0.03128000  1
  Cu  Cu14  1  0.03128000  0.57362100  0.83117500  1
  Cu  Cu15  1  0.16882500  0.96872000  0.42637900  1
  Cu  Cu16  1  0.42637900  0.16882500  0.96872000  1
  Cu  Cu17  1  0.96872000  0.42637900  0.16882500  1
  Cu  Cu18  1  0.55770400  0.70531100  0.30131000  1
  Cu  Cu19  1  0.30131000  0.55770400  0.70531100  1
  Cu  Cu20  1  0.70531100  0.30131000  0.55770400  1
  Cu  Cu21  1  0.44229600  0.29468900  0.69869000  1
  Cu  Cu22  1  0.69869000  0.44229600  0.29468900  1
  Cu  Cu23  1  0.29468900  0.69869000  0.44229600  1
  Cu  Cu24  1  0.84844800  0.84666800  0.47353900  1
  Cu  Cu25  1  0.47353900  0.84844800  0.84666800  1
  Cu  Cu26  1  0.84666800  0.47353900  0.84844800  1
  Cu  Cu27  1  0.15155200  0.15333200  0.52646100  1
  Cu  Cu28  1  0.52646100  0.15155200  0.15333200  1
  Cu  Cu29  1  0.15333200  0.52646100  0.15155200  1
  Cu  Cu30  1  0.73513400  0.87184300  0.30417700  1
  Cu  Cu31  1  0.30417700  0.73513400  0.87184300  1
  Cu  Cu32  1  0.87184300  0.30417700  0.73513400  1
  Cu  Cu33  1  0.26486600  0.12815700  0.69582300  1
  Cu  Cu34  1  0.69582300  0.26486600  0.12815700  1
  Cu  Cu35  1  0.12815700  0.69582300  0.26486600  1
  Cu  Cu36  1  0.53146000  0.91918200  0.22056600  1
  Cu  Cu37  1  0.22056600  0.53146000  0.91918200  1
  Cu  Cu38  1  0.91918200  0.22056600  0.53146000  1
  Cu  Cu39  1  0.46854000  0.08081800  0.77943400  1
  Cu  Cu40  1  0.77943400  0.46854000  0.08081800  1
  Cu  Cu41  1  0.08081800  0.77943400  0.46854000  1
  Cu  Cu42  1  0.91679700  0.17326200  0.31948500  1
  Cu  Cu43  1  0.31948500  0.91679700  0.17326200  1
  Cu  Cu44  1  0.17326200  0.31948500  0.91679700  1
  Cu  Cu45  1  0.08320300  0.82673800  0.68051500  1
  Cu  Cu46  1  0.68051500  0.08320300  0.82673800  1
  Cu  Cu47  1  0.82673800  0.68051500  0.08320300  1
  Cu  Cu48  1  0.93601900  0.29388000  0.35753800  1
  Cu  Cu49  1  0.35753800  0.93601900  0.29388000  1
  Cu  Cu50  1  0.29388000  0.35753800  0.93601900  1
  Cu  Cu51  1  0.06398100  0.70612000  0.64246200  1
  Cu  Cu52  1  0.64246200  0.06398100  0.70612000  1
  Cu  Cu53  1  0.70612000  0.64246200  0.06398100  1
  Cu  Cu54  1  0.90672400  0.95966700  0.02024300  1
  Cu  Cu55  1  0.02024400  0.90672400  0.95966700  1
  Cu  Cu56  1  0.95966700  0.02024400  0.90672400  1
  Cu  Cu57  1  0.09327600  0.04033300  0.97975600  1
  Cu  Cu58  1  0.97975600  0.09327600  0.04033300  1
  Cu  Cu59  1  0.04033300  0.97975700  0.09327600  1
  Cu  Cu60  1  0.47803000  0.54137600  0.59169800  1
  Cu  Cu61  1  0.59169800  0.47803000  0.54137600  1
  Cu  Cu62  1  0.54137600  0.59169800  0.47803000  1
  Cu  Cu63  1  0.52197000  0.45862400  0.40830200  1
  Cu  Cu64  1  0.40830200  0.52197000  0.45862400  1
  Cu  Cu65  1  0.45862400  0.40830200  0.52197000  1
  Cu  Cu66  1  0.94123100  0.58675400  0.59607500  1
  Cu  Cu67  1  0.59607500  0.94123100  0.58675400  1
  Cu  Cu68  1  0.58675400  0.59607500  0.94123100  1
  Cu  Cu69  1  0.05876900  0.41324600  0.40392500  1
  Cu  Cu70  1  0.40392500  0.05876900  0.41324600  1
  Cu  Cu71  1  0.41324600  0.40392500  0.05876900  1
