# generated using pymatgen
data_Cu6NiC24
_symmetry_space_group_name_H-M   'P 1'
_cell_length_a   5.50498317
_cell_length_b   5.24542245
_cell_length_c   15.64777958
_cell_angle_alpha   89.44485638
_cell_angle_beta   100.12055863
_cell_angle_gamma   91.07200724
_symmetry_Int_Tables_number   1
_chemical_formula_structural   Cu6NiC24
_chemical_formula_sum   'Cu6 Ni1 C24'
_cell_volume   444.72681558
_cell_formula_units_Z   1
loop_
 _symmetry_equiv_pos_site_id
 _symmetry_equiv_pos_as_xyz
  1  'x, y, z'
loop_
 _atom_site_type_symbol
 _atom_site_label
 _atom_site_symmetry_multiplicity
 _atom_site_fract_x
 _atom_site_fract_y
 _atom_site_fract_z
 _atom_site_occupancy
  Ni  Ni0  1  0.47080900  0.51763400  0.77561700  1
  Cu  Cu1  1  0.04689500  0.96664600  0.00861000  1
  Cu  Cu2  1  0.12565700  0.47009300  0.32822000  1
  Cu  Cu3  1  0.31731700  0.00092600  0.65391500  1
  Cu  Cu4  1  0.54079000  0.45745700  0.00695600  1
  Cu  Cu5  1  0.65213700  0.98807600  0.33264800  1
  Cu  Cu6  1  0.81720800  0.42920000  0.64799500  1
  C  C7  1  0.00832600  0.19816100  0.63066800  1
  C  C8  1  0.52591400  0.29833800  0.62993500  1
  C  C9  1  0.71613400  0.23433900  0.97990000  1
  C  C10  1  0.28379800  0.78055700  0.02676100  1
  C  C11  1  0.88067300  0.28121900  0.30533800  1
  C  C12  1  0.22093400  0.26990400  0.97768100  1
  C  C13  1  0.16085600  0.68334700  0.70197100  1
  C  C14  1  0.04961000  0.10050000  0.11265900  1
  C  C15  1  0.21066800  0.41709400  0.44156300  1
  C  C16  1  0.35440900  0.16008500  0.76732000  1
  C  C17  1  0.14187700  0.60395700  0.22519100  1
  C  C18  1  0.28453500  0.87937200  0.54799000  1
  C  C19  1  0.45538700  0.60966500  0.89057300  1
  C  C20  1  0.36358600  0.21676400  0.31030200  1
  C  C21  1  0.45744500  0.71455900  0.36037800  1
  C  C22  1  0.60182500  0.79839300  0.70220900  1
  C  C23  1  0.54219100  0.41241300  0.12015400  1
  C  C24  1  0.72346500  0.09903400  0.44110400  1
  C  C25  1  0.82833400  0.42134700  0.76854900  1
  C  C26  1  0.61333900  0.91972600  0.22109300  1
  C  C27  1  0.80850100  0.64779700  0.56172600  1
  C  C28  1  0.94120200  0.91602400  0.89482400  1
  C  C29  1  0.79856400  0.72569800  0.03288200  1
  C  C30  1  0.95047300  0.76917400  0.35420300  1
