# generated using pymatgen
data_Cu6NiC2
_symmetry_space_group_name_H-M   'P 1'
_cell_length_a   7.14994400
_cell_length_b   8.46223600
_cell_length_c   10.56829902
_cell_angle_alpha   90.00000000
_cell_angle_beta   104.34462082
_cell_angle_gamma   90.00000000
_symmetry_Int_Tables_number   1
_chemical_formula_structural   Cu6NiC2
_chemical_formula_sum   'Cu24 Ni4 C8'
_cell_volume   619.49433903
_cell_formula_units_Z   4
loop_
 _symmetry_equiv_pos_site_id
 _symmetry_equiv_pos_as_xyz
  1  'x, y, z'
loop_
 _atom_site_type_symbol
 _atom_site_label
 _atom_site_symmetry_multiplicity
 _atom_site_fract_x
 _atom_site_fract_y
 _atom_site_fract_z
 _atom_site_occupancy
  C  C0  1  0.01417900  0.01317900  0.32235100  1
  C  C1  1  0.98582100  0.51317900  0.17764900  1
  C  C2  1  0.98582100  0.98682100  0.67764900  1
  C  C3  1  0.01417900  0.48682100  0.82235100  1
  C  C4  1  0.11079500  0.64326000  0.55552500  1
  C  C5  1  0.88920500  0.14326000  0.94447500  1
  C  C6  1  0.88920500  0.35674000  0.44447500  1
  C  C7  1  0.11079500  0.85674000  0.05552500  1
  Ni  Ni8  1  0.54201800  0.73110100  0.36229000  1
  Ni  Ni9  1  0.45798200  0.23110100  0.13771000  1
  Ni  Ni10  1  0.45798200  0.26889900  0.63771000  1
  Ni  Ni11  1  0.54201800  0.76889900  0.86229000  1
  Cu  Cu12  1  0.04404500  0.84997900  0.49456300  1
  Cu  Cu13  1  0.95595500  0.34997900  0.00543700  1
  Cu  Cu14  1  0.95595500  0.15002100  0.50543700  1
  Cu  Cu15  1  0.04404500  0.65002100  0.99456300  1
  Cu  Cu16  1  0.07811700  0.70896100  0.71794300  1
  Cu  Cu17  1  0.92188300  0.20896100  0.78205700  1
  Cu  Cu18  1  0.92188300  0.29103900  0.28205700  1
  Cu  Cu19  1  0.07811700  0.79103900  0.21794300  1
  Cu  Cu20  1  0.03213300  0.43890400  0.60796700  1
  Cu  Cu21  1  0.96786700  0.93890400  0.89203300  1
  Cu  Cu22  1  0.96786700  0.56109600  0.39203300  1
  Cu  Cu23  1  0.03213300  0.06109600  0.10796700  1
  Cu  Cu24  1  0.75938100  0.97158000  0.26374200  1
  Cu  Cu25  1  0.24061900  0.47158000  0.23625800  1
  Cu  Cu26  1  0.24061900  0.02842000  0.73625800  1
  Cu  Cu27  1  0.75938100  0.52842000  0.76374200  1
  Cu  Cu28  1  0.33900000  0.63021500  0.56418100  1
  Cu  Cu29  1  0.66100000  0.13021500  0.93581900  1
  Cu  Cu30  1  0.66100000  0.36978500  0.43581900  1
  Cu  Cu31  1  0.33900000  0.86978500  0.06418100  1
  Cu  Cu32  1  0.26432000  0.07322200  0.37759400  1
  Cu  Cu33  1  0.73568000  0.57322200  0.12240600  1
  Cu  Cu34  1  0.73568000  0.92677800  0.62240600  1
  Cu  Cu35  1  0.26432000  0.42677800  0.87759400  1
