# generated using pymatgen
data_CuNi3C10
_symmetry_space_group_name_H-M   'P 1'
_cell_length_a   5.95651906
_cell_length_b   5.95651938
_cell_length_c   15.29990970
_cell_angle_alpha   89.91258860
_cell_angle_beta   89.91258739
_cell_angle_gamma   59.85366776
_symmetry_Int_Tables_number   1
_chemical_formula_structural   CuNi3C10
_chemical_formula_sum   'Cu2 Ni6 C20'
_cell_volume   469.42006118
_cell_formula_units_Z   2
loop_
 _symmetry_equiv_pos_site_id
 _symmetry_equiv_pos_as_xyz
  1  'x, y, z'
loop_
 _atom_site_type_symbol
 _atom_site_label
 _atom_site_symmetry_multiplicity
 _atom_site_fract_x
 _atom_site_fract_y
 _atom_site_fract_z
 _atom_site_occupancy
  Ni  Ni0  1  0.05445600  0.94554400  0.75000000  1
  Ni  Ni1  1  0.94554400  0.05445600  0.25000000  1
  Ni  Ni2  1  0.31019400  0.34902000  0.08916400  1
  Ni  Ni3  1  0.65098000  0.68980600  0.41083600  1
  Ni  Ni4  1  0.34901900  0.31019600  0.58916400  1
  Ni  Ni5  1  0.68980600  0.65098000  0.91083600  1
  Cu  Cu6  1  0.00000100  0.99999900  0.50000000  1
  Cu  Cu7  1  0.00000000  0.00000000  0.00000000  1
  C  C8  1  0.32032800  0.35370200  0.36589800  1
  C  C9  1  0.64629800  0.67967100  0.13410200  1
  C  C10  1  0.67967200  0.64629800  0.63410200  1
  C  C11  1  0.35370200  0.32032900  0.86589900  1
  C  C12  1  0.15305400  0.22025800  0.40656000  1
  C  C13  1  0.77974100  0.84694500  0.09344000  1
  C  C14  1  0.84694500  0.77974200  0.59344000  1
  C  C15  1  0.22025900  0.15305500  0.90656000  1
  C  C16  1  0.15381500  0.67403300  0.38332300  1
  C  C17  1  0.32596700  0.84618500  0.11667700  1
  C  C18  1  0.84618500  0.32596700  0.61667700  1
  C  C19  1  0.67403300  0.15381500  0.88332300  1
  C  C20  1  0.60435100  0.22628500  0.41891400  1
  C  C21  1  0.77371600  0.39564900  0.08108600  1
  C  C22  1  0.39564900  0.77371500  0.58108600  1
  C  C23  1  0.22628600  0.60435100  0.91891500  1
  C  C24  1  0.28697000  0.37776300  0.76090400  1
  C  C25  1  0.62223800  0.71302900  0.73909600  1
  C  C26  1  0.37776200  0.28697100  0.26090500  1
  C  C27  1  0.71303000  0.62223700  0.23909500  1
