# generated using pymatgen
data_Cu2NiC7
_symmetry_space_group_name_H-M   'P 1'
_cell_length_a   7.85846800
_cell_length_b   5.39094900
_cell_length_c   5.40205421
_cell_angle_alpha   88.31632659
_cell_angle_beta   90.00000000
_cell_angle_gamma   90.00000000
_symmetry_Int_Tables_number   1
_chemical_formula_structural   Cu2NiC7
_chemical_formula_sum   'Cu4 Ni2 C14'
_cell_volume   228.75706375
_cell_formula_units_Z   2
loop_
 _symmetry_equiv_pos_site_id
 _symmetry_equiv_pos_as_xyz
  1  'x, y, z'
loop_
 _atom_site_type_symbol
 _atom_site_label
 _atom_site_symmetry_multiplicity
 _atom_site_fract_x
 _atom_site_fract_y
 _atom_site_fract_z
 _atom_site_occupancy
  Ni  Ni0  1  0.00000000  0.50000000  0.00000000  1
  Ni  Ni1  1  0.50000000  0.50000000  0.00000000  1
  Cu  Cu2  1  0.25000000  0.98460500  0.97988700  1
  Cu  Cu3  1  0.25000000  0.46899800  0.50585100  1
  Cu  Cu4  1  0.75000000  0.53100200  0.49414900  1
  Cu  Cu5  1  0.75000000  0.01539500  0.02011300  1
  C  C6  1  0.00000000  0.00000000  0.50000000  1
  C  C7  1  0.50000000  0.00000000  0.50000000  1
  C  C8  1  0.56743100  0.81941300  0.84705900  1
  C  C9  1  0.43391700  0.66108600  0.31261300  1
  C  C10  1  0.43256900  0.18058700  0.15294100  1
  C  C11  1  0.93391700  0.33891400  0.68738700  1
  C  C12  1  0.75000000  0.42396400  0.12148100  1
  C  C13  1  0.56608300  0.33891400  0.68738700  1
  C  C14  1  0.06608300  0.66108600  0.31261300  1
  C  C15  1  0.93256900  0.81941300  0.84705900  1
  C  C16  1  0.25000000  0.10330100  0.62291000  1
  C  C17  1  0.06743100  0.18058700  0.15294100  1
  C  C18  1  0.75000000  0.89669900  0.37709000  1
  C  C19  1  0.25000000  0.57603600  0.87851900  1
