# generated using pymatgen
data_Cu3NiC12
_symmetry_space_group_name_H-M   'P 1'
_cell_length_a   8.21448300
_cell_length_b   11.46490400
_cell_length_c   14.90781605
_cell_angle_alpha   55.91588594
_cell_angle_beta   90.00000000
_cell_angle_gamma   90.00000000
_symmetry_Int_Tables_number   1
_chemical_formula_structural   Cu3NiC12
_chemical_formula_sum   'Cu12 Ni4 C48'
_cell_volume   1162.80841597
_cell_formula_units_Z   4
loop_
 _symmetry_equiv_pos_site_id
 _symmetry_equiv_pos_as_xyz
  1  'x, y, z'
loop_
 _atom_site_type_symbol
 _atom_site_label
 _atom_site_symmetry_multiplicity
 _atom_site_fract_x
 _atom_site_fract_y
 _atom_site_fract_z
 _atom_site_occupancy
  C  C0  1  0.55015000  0.81222200  0.02341000  1
  C  C1  1  0.44985000  0.18777800  0.97659000  1
  C  C2  1  0.05015000  0.18777800  0.47659000  1
  C  C3  1  0.94985000  0.81222200  0.52341000  1
  C  C4  1  0.58440500  0.62654500  0.34872300  1
  C  C5  1  0.41559500  0.37345500  0.65127700  1
  C  C6  1  0.08440500  0.37345500  0.15127700  1
  C  C7  1  0.91559500  0.62654500  0.84872300  1
  Ni  Ni8  1  0.91301200  0.96294600  0.08906500  1
  Ni  Ni9  1  0.08698800  0.03705400  0.91093500  1
  Ni  Ni10  1  0.41301200  0.03705400  0.41093500  1
  Ni  Ni11  1  0.58698800  0.96294600  0.58906500  1
  Cu  Cu12  1  0.75122800  0.95641300  0.24228100  1
  Cu  Cu13  1  0.24877200  0.04358700  0.75771900  1
  Cu  Cu14  1  0.25122800  0.04358700  0.25771900  1
  Cu  Cu15  1  0.74877200  0.95641300  0.74228100  1
  Cu  Cu16  1  0.63352900  0.36940400  0.05921500  1
  Cu  Cu17  1  0.36647100  0.63059600  0.94078500  1
  Cu  Cu18  1  0.13352900  0.63059600  0.44078500  1
  Cu  Cu19  1  0.86647100  0.36940400  0.55921500  1
  Cu  Cu20  1  0.96412500  0.53202400  0.30894700  1
  Cu  Cu21  1  0.03587500  0.46797600  0.69105300  1
  Cu  Cu22  1  0.46412500  0.46797600  0.19105300  1
  Cu  Cu23  1  0.53587500  0.53202400  0.80894700  1
  C  C24  1  0.93293400  0.68855900  0.04439300  1
  C  C25  1  0.06706600  0.31144100  0.95560700  1
  C  C26  1  0.43293400  0.31144100  0.45560700  1
  C  C27  1  0.56706600  0.68855900  0.54439300  1
  C  C28  1  0.29769800  0.87656700  0.13675600  1
  C  C29  1  0.70230200  0.12343300  0.86324400  1
  C  C30  1  0.79769800  0.12343300  0.36324400  1
  C  C31  1  0.20230200  0.87656700  0.63675600  1
  C  C32  1  0.53016400  0.41572000  0.35203200  1
  C  C33  1  0.46983600  0.58428000  0.64796800  1
  C  C34  1  0.03016400  0.58428000  0.14796800  1
  C  C35  1  0.96983600  0.41572000  0.85203200  1
  C  C36  1  0.13032000  0.83452100  0.18279300  1
  C  C37  1  0.86968000  0.16547900  0.81720700  1
  C  C38  1  0.63032000  0.16547900  0.31720700  1
  C  C39  1  0.36968000  0.83452100  0.68279300  1
  C  C40  1  0.85349900  0.00187300  0.35598600  1
  C  C41  1  0.14650100  0.99812700  0.64401400  1
  C  C42  1  0.35349900  0.99812700  0.14401400  1
  C  C43  1  0.64650100  0.00187300  0.85598600  1
  C  C44  1  0.41368700  0.75837300  0.19715500  1
  C  C45  1  0.58631300  0.24162700  0.80284500  1
  C  C46  1  0.91368700  0.24162700  0.30284500  1
  C  C47  1  0.08631300  0.75837300  0.69715500  1
  C  C48  1  0.45248400  0.78771800  0.45802300  1
  C  C49  1  0.54751600  0.21228200  0.54197700  1
  C  C50  1  0.95248400  0.21228200  0.04197700  1
  C  C51  1  0.04751600  0.78771800  0.95802300  1
  C  C52  1  0.81649500  0.76167300  0.07318300  1
  C  C53  1  0.18350500  0.23832700  0.92681700  1
  C  C54  1  0.31649500  0.23832700  0.42681700  1
  C  C55  1  0.68350500  0.76167300  0.57318300  1
  C  C56  1  0.65159300  0.60310800  0.51152500  1
  C  C57  1  0.34840700  0.39689200  0.48847500  1
  C  C58  1  0.15159300  0.39689200  0.98847500  1
  C  C59  1  0.84840700  0.60310800  0.01152500  1
  C  C60  1  0.30418700  0.92817800  0.01955000  1
  C  C61  1  0.69581300  0.07182200  0.98045000  1
  C  C62  1  0.80418700  0.07182200  0.48045000  1
  C  C63  1  0.19581300  0.92817800  0.51955000  1
