# generated using pymatgen
data_CuNi3C11
_symmetry_space_group_name_H-M   'P 1'
_cell_length_a   5.18233800
_cell_length_b   5.91950379
_cell_length_c   10.63268304
_cell_angle_alpha   105.77395059
_cell_angle_beta   94.69765241
_cell_angle_gamma   107.14899174
_symmetry_Int_Tables_number   1
_chemical_formula_structural   CuNi3C11
_chemical_formula_sum   'Cu2 Ni6 C22'
_cell_volume   295.24451600
_cell_formula_units_Z   2
loop_
 _symmetry_equiv_pos_site_id
 _symmetry_equiv_pos_as_xyz
  1  'x, y, z'
loop_
 _atom_site_type_symbol
 _atom_site_label
 _atom_site_symmetry_multiplicity
 _atom_site_fract_x
 _atom_site_fract_y
 _atom_site_fract_z
 _atom_site_occupancy
  C  C0  1  0.99420400  0.48648500  0.00123700  1
  C  C1  1  0.25654200  0.87479600  0.74683600  1
  C  C2  1  0.49589700  0.74720400  0.50181600  1
  C  C3  1  0.75351300  0.62801000  0.24909800  1
  C  C4  1  0.99681400  0.01055900  0.00319600  1
  C  C5  1  0.49718100  0.25077300  0.50122100  1
  Ni  Ni6  1  0.61642500  0.68357900  0.87438000  1
  Ni  Ni7  1  0.62179200  0.18913800  0.87277300  1
  Ni  Ni8  1  0.12597200  0.93788900  0.37432000  1
  Ni  Ni9  1  0.38515600  0.81623400  0.12546600  1
  Ni  Ni10  1  0.88794800  0.06772000  0.62585600  1
  Ni  Ni11  1  0.11282800  0.43307700  0.37271800  1
  Cu  Cu12  1  0.87247500  0.56097300  0.62575000  1
  Cu  Cu13  1  0.37795100  0.30617400  0.12905800  1
  C  C14  1  0.33819300  0.84355000  0.93813700  1
  C  C15  1  0.34072700  0.35563600  0.94302700  1
  C  C16  1  0.59628200  0.73316600  0.69035300  1
  C  C17  1  0.10044300  0.97009200  0.18729200  1
  C  C18  1  0.60213300  0.22268700  0.68540700  1
  C  C19  1  0.83151200  0.59686500  0.43861100  1
  C  C20  1  0.09445800  0.47932900  0.19253500  1
  C  C21  1  0.84766600  0.10625300  0.44098400  1
  C  C22  1  0.16845800  0.89962900  0.56085900  1
  C  C23  1  0.89632200  0.53464000  0.81352800  1
  C  C24  1  0.89338200  0.00653900  0.81615200  1
  C  C25  1  0.39504000  0.75680500  0.31614900  1
  C  C26  1  0.16618700  0.41087800  0.54858500  1
  C  C27  1  0.66802600  0.65204500  0.05691300  1
  C  C28  1  0.39992000  0.28391200  0.31347500  1
  C  C29  1  0.66664800  0.15551900  0.05415000  1
