# generated using pymatgen
data_Cu3NiC10
_symmetry_space_group_name_H-M   'P 1'
_cell_length_a   7.19901855
_cell_length_b   7.19901855
_cell_length_c   7.19901850
_cell_angle_alpha   61.61527715
_cell_angle_beta   61.61527715
_cell_angle_gamma   61.61526892
_symmetry_Int_Tables_number   1
_chemical_formula_structural   Cu3NiC10
_chemical_formula_sum   'Cu3 Ni1 C10'
_cell_volume   273.37624595
_cell_formula_units_Z   1
loop_
 _symmetry_equiv_pos_site_id
 _symmetry_equiv_pos_as_xyz
  1  'x, y, z'
loop_
 _atom_site_type_symbol
 _atom_site_label
 _atom_site_symmetry_multiplicity
 _atom_site_fract_x
 _atom_site_fract_y
 _atom_site_fract_z
 _atom_site_occupancy
  Ni  Ni0  1  0.50000000  0.50000000  0.50000000  1
  Cu  Cu1  1  0.50000000  0.00000000  0.50000000  1
  Cu  Cu2  1  0.50000000  0.50000000  0.00000000  1
  Cu  Cu3  1  0.00000000  0.50000000  0.50000000  1
  C  C4  1  0.12577300  0.12577300  0.12577300  1
  C  C5  1  0.87422700  0.87422700  0.87422700  1
  C  C6  1  0.26034100  0.71204900  0.26034100  1
  C  C7  1  0.73965900  0.73965900  0.28795100  1
  C  C8  1  0.28795100  0.73965900  0.73965900  1
  C  C9  1  0.73310900  0.73310900  0.73310900  1
  C  C10  1  0.71204900  0.26034100  0.26034100  1
  C  C11  1  0.26689100  0.26689100  0.26689100  1
  C  C12  1  0.73965900  0.28795100  0.73965900  1
  C  C13  1  0.26034100  0.26034100  0.71204900  1
