# generated using pymatgen
data_Cu2NiC24
_symmetry_space_group_name_H-M   'P 1'
_cell_length_a   5.33561700
_cell_length_b   5.33561700
_cell_length_c   22.51708400
_cell_angle_alpha   90.00000000
_cell_angle_beta   90.00000000
_cell_angle_gamma   90.00000000
_symmetry_Int_Tables_number   1
_chemical_formula_structural   Cu2NiC24
_chemical_formula_sum   'Cu4 Ni2 C48'
_cell_volume   641.03455847
_cell_formula_units_Z   2
loop_
 _symmetry_equiv_pos_site_id
 _symmetry_equiv_pos_as_xyz
  1  'x, y, z'
loop_
 _atom_site_type_symbol
 _atom_site_label
 _atom_site_symmetry_multiplicity
 _atom_site_fract_x
 _atom_site_fract_y
 _atom_site_fract_z
 _atom_site_occupancy
  Ni  Ni0  1  0.00000000  0.00000000  0.33328800  1
  Ni  Ni1  1  0.00000000  0.00000000  0.66671200  1
  Cu  Cu2  1  0.50000000  0.50000000  0.83343600  1
  Cu  Cu3  1  0.50000000  0.50000000  0.16656400  1
  Cu  Cu4  1  0.50000000  0.50000000  0.50000000  1
  Cu  Cu5  1  0.00000000  0.00000000  0.00000000  1
  C  C6  1  0.33289800  0.00000000  0.88190900  1
  C  C7  1  0.33326800  0.00000000  0.21606700  1
  C  C8  1  0.33318000  0.00000000  0.54890400  1
  C  C9  1  0.66710200  0.00000000  0.88190900  1
  C  C10  1  0.66673200  0.00000000  0.21606700  1
  C  C11  1  0.66682000  0.00000000  0.54890400  1
  C  C12  1  0.50000000  0.83280400  0.04916200  1
  C  C13  1  0.50000000  0.83071600  0.38335700  1
  C  C14  1  0.50000000  0.83130500  0.71654100  1
  C  C15  1  0.50000000  0.16719600  0.04916200  1
  C  C16  1  0.50000000  0.16928400  0.38335700  1
  C  C17  1  0.50000000  0.16869500  0.71654100  1
  C  C18  1  0.16719600  0.50000000  0.95083800  1
  C  C19  1  0.16869500  0.50000000  0.28345900  1
  C  C20  1  0.16928400  0.50000000  0.61664300  1
  C  C21  1  0.83280400  0.50000000  0.95083800  1
  C  C22  1  0.83130500  0.50000000  0.28345900  1
  C  C23  1  0.83071600  0.50000000  0.61664300  1
  C  C24  1  0.00000000  0.66673200  0.78393300  1
  C  C25  1  0.00000000  0.66710200  0.11809100  1
  C  C26  1  0.00000000  0.66682000  0.45109600  1
  C  C27  1  0.00000000  0.33326800  0.78393300  1
  C  C28  1  0.00000000  0.33289800  0.11809100  1
  C  C29  1  0.00000000  0.33318000  0.45109600  1
  C  C30  1  0.74797000  0.00000000  0.78480000  1
  C  C31  1  0.74800600  0.00000000  0.11744900  1
  C  C32  1  0.74720200  0.00000000  0.45147600  1
  C  C33  1  0.25203000  0.00000000  0.78480000  1
  C  C34  1  0.25199400  0.00000000  0.11744900  1
  C  C35  1  0.25279800  0.00000000  0.45147600  1
  C  C36  1  0.50000000  0.24785600  0.95037300  1
  C  C37  1  0.50000000  0.25007400  0.28412300  1
  C  C38  1  0.50000000  0.24995300  0.61722900  1
  C  C39  1  0.50000000  0.75214400  0.95037300  1
  C  C40  1  0.50000000  0.74992600  0.28412300  1
  C  C41  1  0.50000000  0.75004700  0.61722900  1
  C  C42  1  0.75214400  0.50000000  0.04962700  1
  C  C43  1  0.75004700  0.50000000  0.38277100  1
  C  C44  1  0.74992600  0.50000000  0.71587700  1
  C  C45  1  0.24785600  0.50000000  0.04962700  1
  C  C46  1  0.24995300  0.50000000  0.38277100  1
  C  C47  1  0.25007400  0.50000000  0.71587700  1
  C  C48  1  0.00000000  0.25199400  0.88255100  1
  C  C49  1  0.00000000  0.25203000  0.21520000  1
  C  C50  1  0.00000000  0.25279800  0.54852400  1
  C  C51  1  0.00000000  0.74800600  0.88255100  1
  C  C52  1  0.00000000  0.74797000  0.21520000  1
  C  C53  1  0.00000000  0.74720200  0.54852400  1
