# generated using pymatgen
data_Cu7NiC32
_symmetry_space_group_name_H-M   'P 1'
_cell_length_a   7.64703462
_cell_length_b   7.64703462
_cell_length_c   7.64703437
_cell_angle_alpha   89.98743699
_cell_angle_beta   89.98743699
_cell_angle_gamma   89.98743307
_symmetry_Int_Tables_number   1
_chemical_formula_structural   Cu7NiC32
_chemical_formula_sum   'Cu7 Ni1 C32'
_cell_volume   447.17665488
_cell_formula_units_Z   1
loop_
 _symmetry_equiv_pos_site_id
 _symmetry_equiv_pos_as_xyz
  1  'x, y, z'
loop_
 _atom_site_type_symbol
 _atom_site_label
 _atom_site_symmetry_multiplicity
 _atom_site_fract_x
 _atom_site_fract_y
 _atom_site_fract_z
 _atom_site_occupancy
  Ni  Ni0  1  0.24815000  0.24815000  0.24815000  1
  Cu  Cu1  1  0.75227400  0.24776000  0.75227400  1
  Cu  Cu2  1  0.75209100  0.24775800  0.24775800  1
  Cu  Cu3  1  0.75229300  0.75229300  0.75229300  1
  Cu  Cu4  1  0.75227400  0.75227400  0.24776000  1
  Cu  Cu5  1  0.24775800  0.24775800  0.75209100  1
  Cu  Cu6  1  0.24776000  0.75227400  0.75227400  1
  Cu  Cu7  1  0.24775800  0.75209100  0.24775800  1
  C  C8  1  0.50123400  0.50123400  0.50123400  1
  C  C9  1  0.50056000  0.99942300  0.99942300  1
  C  C10  1  0.50073300  0.99965100  0.50073300  1
  C  C11  1  0.50073300  0.50073300  0.99965100  1
  C  C12  1  0.99924600  0.99924600  0.99924600  1
  C  C13  1  0.99942300  0.99942300  0.50056000  1
  C  C14  1  0.99942300  0.50056000  0.99942300  1
  C  C15  1  0.99965100  0.50073300  0.50073300  1
  C  C16  1  0.75007100  0.99961800  0.99961800  1
  C  C17  1  0.75005500  0.99969500  0.50031200  1
  C  C18  1  0.75005500  0.50031200  0.99969500  1
  C  C19  1  0.75314300  0.50053600  0.50053600  1
  C  C20  1  0.24991600  0.99667700  0.99667700  1
  C  C21  1  0.24992900  0.99654400  0.50340200  1
  C  C22  1  0.24992900  0.50340200  0.99654400  1
  C  C23  1  0.24688700  0.50254300  0.50254300  1
  C  C24  1  0.50340200  0.24992900  0.99654400  1
  C  C25  1  0.50254300  0.24688700  0.50254300  1
  C  C26  1  0.50031200  0.75005500  0.99969500  1
  C  C27  1  0.50053600  0.75314300  0.50053600  1
  C  C28  1  0.99667700  0.24991600  0.99667700  1
  C  C29  1  0.99654400  0.24992900  0.50340200  1
  C  C30  1  0.99961800  0.75007100  0.99961800  1
  C  C31  1  0.99969500  0.75005500  0.50031200  1
  C  C32  1  0.50031200  0.99969500  0.75005500  1
  C  C33  1  0.50340200  0.99654400  0.24992900  1
  C  C34  1  0.50053600  0.50053600  0.75314300  1
  C  C35  1  0.50254300  0.50254300  0.24688700  1
  C  C36  1  0.99961800  0.99961800  0.75007100  1
  C  C37  1  0.99667700  0.99667700  0.24991600  1
  C  C38  1  0.99969500  0.50031200  0.75005500  1
  C  C39  1  0.99654400  0.50340200  0.24992900  1
