# generated using pymatgen
data_Cu9Ni3C
_symmetry_space_group_name_H-M   'P 1'
_cell_length_a   6.16352300
_cell_length_b   9.69659200
_cell_length_c   11.14681116
_cell_angle_alpha   87.09076138
_cell_angle_beta   90.00000000
_cell_angle_gamma   90.00000000
_symmetry_Int_Tables_number   1
_chemical_formula_structural   Cu9Ni3C
_chemical_formula_sum   'Cu36 Ni12 C4'
_cell_volume   665.33244360
_cell_formula_units_Z   4
loop_
 _symmetry_equiv_pos_site_id
 _symmetry_equiv_pos_as_xyz
  1  'x, y, z'
loop_
 _atom_site_type_symbol
 _atom_site_label
 _atom_site_symmetry_multiplicity
 _atom_site_fract_x
 _atom_site_fract_y
 _atom_site_fract_z
 _atom_site_occupancy
  C  C0  1  0.67725900  0.28572400  0.73387400  1
  C  C1  1  0.17725900  0.21427600  0.26612600  1
  C  C2  1  0.32274100  0.71427600  0.26612600  1
  C  C3  1  0.82274100  0.78572400  0.73387400  1
  Ni  Ni4  1  0.37984700  0.16877000  0.49361600  1
  Ni  Ni5  1  0.87984700  0.33123000  0.50638400  1
  Ni  Ni6  1  0.62015300  0.83123000  0.50638400  1
  Ni  Ni7  1  0.12015300  0.66877000  0.49361600  1
  Ni  Ni8  1  0.73026000  0.20061100  0.21352100  1
  Ni  Ni9  1  0.23026000  0.29938900  0.78647900  1
  Ni  Ni10  1  0.26974000  0.79938900  0.78647900  1
  Ni  Ni11  1  0.76974000  0.70061100  0.21352100  1
  Ni  Ni12  1  0.72141200  0.52704800  0.87935400  1
  Ni  Ni13  1  0.22141200  0.97295200  0.12064600  1
  Ni  Ni14  1  0.27858800  0.47295200  0.12064600  1
  Ni  Ni15  1  0.77858800  0.02704800  0.87935400  1
  Cu  Cu16  1  0.42534000  0.27451200  0.42538100  1
  Cu  Cu17  1  0.92534000  0.22548800  0.57461900  1
  Cu  Cu18  1  0.57466000  0.72548800  0.57461900  1
  Cu  Cu19  1  0.07466000  0.77451200  0.42538100  1
  Cu  Cu20  1  0.25052900  0.08110600  0.45203200  1
  Cu  Cu21  1  0.75052900  0.41889400  0.54796800  1
  Cu  Cu22  1  0.74947100  0.91889400  0.54796800  1
  Cu  Cu23  1  0.24947100  0.58110600  0.45203200  1
  Cu  Cu24  1  0.45810300  0.15171700  0.59717800  1
  Cu  Cu25  1  0.95810300  0.34828300  0.40282200  1
  Cu  Cu26  1  0.54189700  0.84828300  0.40282200  1
  Cu  Cu27  1  0.04189700  0.65171700  0.59717800  1
  Cu  Cu28  1  0.82616400  0.10385600  0.27447800  1
  Cu  Cu29  1  0.32616400  0.39614400  0.72552200  1
  Cu  Cu30  1  0.17383600  0.89614400  0.72552200  1
  Cu  Cu31  1  0.67383600  0.60385600  0.27447800  1
  Cu  Cu32  1  0.52970900  0.19713600  0.19521400  1
  Cu  Cu33  1  0.02970900  0.30286400  0.80478600  1
  Cu  Cu34  1  0.47029100  0.80286400  0.80478600  1
  Cu  Cu35  1  0.97029100  0.69713600  0.19521400  1
  Cu  Cu36  1  0.84470300  0.29992000  0.17112700  1
  Cu  Cu37  1  0.34470300  0.20008000  0.82887300  1
  Cu  Cu38  1  0.15529700  0.70008000  0.82887300  1
  Cu  Cu39  1  0.65529700  0.79992000  0.17112700  1
  Cu  Cu40  1  0.73216200  0.54198900  0.76184500  1
  Cu  Cu41  1  0.23216200  0.95801100  0.23815500  1
  Cu  Cu42  1  0.26783800  0.45801100  0.23815500  1
  Cu  Cu43  1  0.76783800  0.04198900  0.76184500  1
  Cu  Cu44  1  0.66726300  0.40925700  0.92175400  1
  Cu  Cu45  1  0.16726300  0.09074300  0.07824600  1
  Cu  Cu46  1  0.33273700  0.59074300  0.07824600  1
  Cu  Cu47  1  0.83273700  0.90925700  0.92175400  1
  Cu  Cu48  1  0.76583000  0.62722300  0.93895700  1
  Cu  Cu49  1  0.26583000  0.87277700  0.06104300  1
  Cu  Cu50  1  0.23417000  0.37277700  0.06104300  1
  Cu  Cu51  1  0.73417000  0.12722300  0.93895700  1
