# generated using pymatgen
data_Cu16Ni10C57
_symmetry_space_group_name_H-M   'P 1'
_cell_length_a   16.55170896
_cell_length_b   9.02645635
_cell_length_c   8.54062136
_cell_angle_alpha   121.43239087
_cell_angle_beta   95.43811811
_cell_angle_gamma   106.78382337
_symmetry_Int_Tables_number   1
_chemical_formula_structural   Cu16Ni10C57
_chemical_formula_sum   'Cu16 Ni10 C57'
_cell_volume   994.24549010
_cell_formula_units_Z   1
loop_
 _symmetry_equiv_pos_site_id
 _symmetry_equiv_pos_as_xyz
  1  'x, y, z'
loop_
 _atom_site_type_symbol
 _atom_site_label
 _atom_site_symmetry_multiplicity
 _atom_site_fract_x
 _atom_site_fract_y
 _atom_site_fract_z
 _atom_site_occupancy
  C  C0  1  0.35128600  0.38984800  0.10752500  1
  C  C1  1  0.75000000  0.50000000  0.00000000  1
  C  C2  1  0.14871400  0.61015200  0.89247500  1
  C  C3  1  0.93044200  0.16541200  0.97033700  1
  C  C4  1  0.56955800  0.83458800  0.02966300  1
  Ni  Ni5  1  0.12068300  0.16483100  0.06633800  1
  Ni  Ni6  1  0.22786900  0.96234500  0.69493300  1
  Ni  Ni7  1  0.03671300  0.25910600  0.42254000  1
  Ni  Ni8  1  0.46328700  0.74089400  0.57746000  1
  Ni  Ni9  1  0.27213100  0.03765500  0.30506700  1
  Ni  Ni10  1  0.37931700  0.83516900  0.93366200  1
  Ni  Ni11  1  0.68577000  0.87070400  0.62218900  1
  Ni  Ni12  1  0.39415300  0.83621500  0.29704000  1
  Ni  Ni13  1  0.10584700  0.16378500  0.70296000  1
  Ni  Ni14  1  0.81423000  0.12929600  0.37781100  1
  Cu  Cu15  1  0.05245900  0.82716700  0.14970700  1
  Cu  Cu16  1  0.85287400  0.83060100  0.46878900  1
  Cu  Cu17  1  0.25111900  0.61820600  0.32423800  1
  Cu  Cu18  1  0.62081800  0.10813000  0.87617400  1
  Cu  Cu19  1  0.87918200  0.89187000  0.12382600  1
  Cu  Cu20  1  0.24888100  0.38179400  0.67576200  1
  Cu  Cu21  1  0.64712600  0.16939900  0.53121100  1
  Cu  Cu22  1  0.44754100  0.17283300  0.85029300  1
  Cu  Cu23  1  0.56419900  0.57707600  0.23640700  1
  Cu  Cu24  1  0.06821600  0.57052500  0.31961900  1
  Cu  Cu25  1  0.69710400  0.45277100  0.35113000  1
  Cu  Cu26  1  0.99880500  0.81869000  0.66391800  1
  Cu  Cu27  1  0.50119500  0.18131000  0.33608200  1
  Cu  Cu28  1  0.80289600  0.54722900  0.64887000  1
  Cu  Cu29  1  0.43178400  0.42947500  0.68038100  1
  Cu  Cu30  1  0.93580100  0.42292400  0.76359300  1
  C  C31  1  0.00064000  0.95155900  0.89110200  1
  C  C32  1  0.49936000  0.04844100  0.10889800  1
  C  C33  1  0.66077000  0.80764400  0.24308300  1
  C  C34  1  0.83923000  0.19235600  0.75691700  1
  C  C35  1  0.48525700  0.36774400  0.50842300  1
  C  C36  1  0.51254300  0.04684700  0.79462600  1
  C  C37  1  0.06035800  0.46298900  0.06195800  1
  C  C38  1  0.44664200  0.25632500  0.72130100  1
  C  C39  1  0.11309000  0.97507100  0.76806100  1
  C  C40  1  0.98122700  0.29470000  0.62385200  1
  C  C41  1  0.66981500  0.29173400  0.09535700  1
  C  C42  1  0.25853800  0.69847800  0.18946800  1
  C  C43  1  0.68891200  0.03931600  0.36818100  1
  C  C44  1  0.29194300  0.00091100  0.51946800  1
  C  C45  1  0.22315500  0.39562900  0.23063800  1
  C  C46  1  0.78932900  0.60710400  0.33300700  1
  C  C47  1  0.71067100  0.39289600  0.66699300  1
  C  C48  1  0.27684500  0.60437100  0.76936200  1
  C  C49  1  0.20805700  0.99908900  0.48053200  1
  C  C50  1  0.81108800  0.96068400  0.63181900  1
  C  C51  1  0.24146200  0.30152200  0.81053200  1
  C  C52  1  0.83018500  0.70826600  0.90464300  1
  C  C53  1  0.51877300  0.70530000  0.37614800  1
  C  C54  1  0.05335800  0.74367500  0.27869900  1
  C  C55  1  0.43964200  0.53701100  0.93804200  1
  C  C56  1  0.03891900  0.34577800  0.26156500  1
  C  C57  1  0.98745700  0.95315300  0.20537400  1
  C  C58  1  0.38691000  0.02492900  0.23193900  1
  C  C59  1  0.06459400  0.27294200  0.94009700  1
  C  C60  1  0.01474300  0.63225600  0.49157700  1
  C  C61  1  0.62211000  0.67128300  0.13564600  1
  C  C62  1  0.99520800  0.64639600  0.92166500  1
  C  C63  1  0.86307800  0.07462300  0.15900200  1
  C  C64  1  0.53692400  0.07977100  0.43860200  1
  C  C65  1  0.32244000  0.31986100  0.55116600  1
  C  C66  1  0.84077200  0.88210700  0.29737900  1
  C  C67  1  0.14272400  0.95783600  0.14310200  1
  C  C68  1  0.85555700  0.39546400  0.60479700  1
  C  C69  1  0.60972200  0.29617000  0.35543000  1
  C  C70  1  0.35737200  0.73197000  0.45558900  1
  C  C71  1  0.14262800  0.26803000  0.54441100  1
  C  C72  1  0.89027800  0.70383000  0.64457000  1
  C  C73  1  0.64444300  0.60453600  0.39520300  1
  C  C74  1  0.35727600  0.04216400  0.85689800  1
  C  C75  1  0.65922800  0.11789300  0.70262100  1
  C  C76  1  0.17756000  0.68013900  0.44883400  1
  C  C77  1  0.96307600  0.92022900  0.56139800  1
  C  C78  1  0.50479200  0.35360400  0.07833500  1
  C  C79  1  0.87789000  0.32871700  0.86435400  1
  C  C80  1  0.43540600  0.72705800  0.05990300  1
  C  C81  1  0.63692200  0.92537700  0.84099800  1
  C  C82  1  0.46108100  0.65422200  0.73843500  1
