# generated using pymatgen
data_Cu27Ni9C5
_symmetry_space_group_name_H-M   'P 1'
_cell_length_a   13.70575833
_cell_length_b   13.70575833
_cell_length_c   13.70575833
_cell_angle_alpha   90.00000000
_cell_angle_beta   90.00000000
_cell_angle_gamma   90.00000000
_symmetry_Int_Tables_number   1
_chemical_formula_structural   Cu27Ni9C5
_chemical_formula_sum   'Cu108 Ni36 C20'
_cell_volume   2574.59670587
_cell_formula_units_Z   4
loop_
 _symmetry_equiv_pos_site_id
 _symmetry_equiv_pos_as_xyz
  1  'x, y, z'
loop_
 _atom_site_type_symbol
 _atom_site_label
 _atom_site_symmetry_multiplicity
 _atom_site_fract_x
 _atom_site_fract_y
 _atom_site_fract_z
 _atom_site_occupancy
  C  C0  1  0.18811568  0.06188432  0.62500000  1
  C  C1  1  0.81188432  0.56188432  0.87500000  1
  C  C2  1  0.56188432  0.87500000  0.81188432  1
  C  C3  1  0.43811568  0.37500000  0.68811568  1
  C  C4  1  0.37500000  0.68811568  0.43811568  1
  C  C5  1  0.62500000  0.18811568  0.06188432  1
  C  C6  1  0.68811568  0.43811568  0.37500000  1
  C  C7  1  0.31188432  0.93811568  0.12500000  1
  C  C8  1  0.06188432  0.62500000  0.18811568  1
  C  C9  1  0.93811568  0.12500000  0.31188432  1
  C  C10  1  0.87500000  0.81188432  0.56188432  1
  C  C11  1  0.12500000  0.31188432  0.93811568  1
  C  C12  1  0.54566501  0.04566501  0.45433499  1
  C  C13  1  0.45433499  0.54566501  0.04566501  1
  C  C14  1  0.04566501  0.45433499  0.54566501  1
  C  C15  1  0.95433499  0.95433499  0.95433499  1
  C  C16  1  0.20433499  0.70433499  0.79566501  1
  C  C17  1  0.70433499  0.79566501  0.20433499  1
  C  C18  1  0.79566501  0.20433499  0.70433499  1
  C  C19  1  0.29566501  0.29566501  0.29566501  1
  Ni  Ni20  1  0.37500000  0.51606457  0.26606457  1
  Ni  Ni21  1  0.62500000  0.01606457  0.23393543  1
  Ni  Ni22  1  0.01606457  0.23393543  0.62500000  1
  Ni  Ni23  1  0.98393543  0.73393543  0.87500000  1
  Ni  Ni24  1  0.73393543  0.87500000  0.98393543  1
  Ni  Ni25  1  0.26606457  0.37500000  0.51606457  1
  Ni  Ni26  1  0.87500000  0.98393543  0.73393543  1
  Ni  Ni27  1  0.12500000  0.48393543  0.76606457  1
  Ni  Ni28  1  0.51606457  0.26606457  0.37500000  1
  Ni  Ni29  1  0.48393543  0.76606457  0.12500000  1
  Ni  Ni30  1  0.23393543  0.62500000  0.01606457  1
  Ni  Ni31  1  0.76606457  0.12500000  0.48393543  1
  Ni  Ni32  1  0.39725167  0.91423600  0.36255435  1
  Ni  Ni33  1  0.60274833  0.41423600  0.13744565  1
  Ni  Ni34  1  0.41423600  0.13744565  0.60274833  1
  Ni  Ni35  1  0.58576400  0.63744565  0.89725167  1
  Ni  Ni36  1  0.63744565  0.89725167  0.58576400  1
  Ni  Ni37  1  0.36255435  0.39725167  0.91423600  1
  Ni  Ni38  1  0.89725167  0.58576400  0.63744565  1
  Ni  Ni39  1  0.10274833  0.08576400  0.86255435  1
  Ni  Ni40  1  0.91423600  0.36255435  0.39725167  1
  Ni  Ni41  1  0.08576400  0.86255435  0.10274833  1
  Ni  Ni42  1  0.13744565  0.60274833  0.41423600  1
  Ni  Ni43  1  0.86255435  0.10274833  0.08576400  1
  Ni  Ni44  1  0.33576400  0.85274833  0.88744565  1
  Ni  Ni45  1  0.83576400  0.64725167  0.11255435  1
  Ni  Ni46  1  0.66423600  0.35274833  0.61255435  1
  Ni  Ni47  1  0.16423600  0.14725167  0.38744565  1
  Ni  Ni48  1  0.64725167  0.11255435  0.83576400  1
  Ni  Ni49  1  0.35274833  0.61255435  0.66423600  1
  Ni  Ni50  1  0.85274833  0.88744565  0.33576400  1
  Ni  Ni51  1  0.14725167  0.38744565  0.16423600  1
  Ni  Ni52  1  0.11255435  0.83576400  0.64725167  1
  Ni  Ni53  1  0.61255435  0.66423600  0.35274833  1
  Ni  Ni54  1  0.88744565  0.33576400  0.85274833  1
  Ni  Ni55  1  0.38744565  0.16423600  0.14725167  1
  Cu  Cu56  1  0.33955429  0.49633894  0.34816463  1
  Cu  Cu57  1  0.66044571  0.99633894  0.15183537  1
  Cu  Cu58  1  0.99633894  0.15183537  0.66044571  1
  Cu  Cu59  1  0.00366106  0.65183537  0.83955429  1
  Cu  Cu60  1  0.65183537  0.83955429  0.00366106  1
  Cu  Cu61  1  0.34816463  0.33955429  0.49633894  1
  Cu  Cu62  1  0.83955429  0.00366106  0.65183537  1
  Cu  Cu63  1  0.16044571  0.50366106  0.84816463  1
  Cu  Cu64  1  0.49633894  0.34816463  0.33955429  1
  Cu  Cu65  1  0.50366106  0.84816463  0.16044571  1
  Cu  Cu66  1  0.15183537  0.66044571  0.99633894  1
  Cu  Cu67  1  0.84816463  0.16044571  0.50366106  1
  Cu  Cu68  1  0.75366106  0.91044571  0.90183537  1
  Cu  Cu69  1  0.25366106  0.58955429  0.09816463  1
  Cu  Cu70  1  0.24633894  0.41044571  0.59816463  1
  Cu  Cu71  1  0.74633894  0.08955429  0.40183537  1
  Cu  Cu72  1  0.58955429  0.09816463  0.25366106  1
  Cu  Cu73  1  0.41044571  0.59816463  0.24633894  1
  Cu  Cu74  1  0.91044571  0.90183537  0.75366106  1
  Cu  Cu75  1  0.08955429  0.40183537  0.74633894  1
  Cu  Cu76  1  0.09816463  0.25366106  0.58955429  1
  Cu  Cu77  1  0.59816463  0.24633894  0.41044571  1
  Cu  Cu78  1  0.90183537  0.75366106  0.91044571  1
  Cu  Cu79  1  0.40183537  0.74633894  0.08955429  1
  Cu  Cu80  1  0.37500000  0.44945927  0.19945927  1
  Cu  Cu81  1  0.62500000  0.94945927  0.30054073  1
  Cu  Cu82  1  0.94945927  0.30054073  0.62500000  1
  Cu  Cu83  1  0.05054073  0.80054073  0.87500000  1
  Cu  Cu84  1  0.80054073  0.87500000  0.05054073  1
  Cu  Cu85  1  0.19945927  0.37500000  0.44945927  1
  Cu  Cu86  1  0.87500000  0.05054073  0.80054073  1
  Cu  Cu87  1  0.12500000  0.55054073  0.69945927  1
  Cu  Cu88  1  0.44945927  0.19945927  0.37500000  1
  Cu  Cu89  1  0.55054073  0.69945927  0.12500000  1
  Cu  Cu90  1  0.30054073  0.62500000  0.94945927  1
  Cu  Cu91  1  0.69945927  0.12500000  0.55054073  1
  Cu  Cu92  1  0.44529653  0.89100158  0.44002167  1
  Cu  Cu93  1  0.55470347  0.39100158  0.05997833  1
  Cu  Cu94  1  0.39100158  0.05997833  0.55470347  1
  Cu  Cu95  1  0.60899842  0.55997833  0.94529653  1
  Cu  Cu96  1  0.55997833  0.94529653  0.60899842  1
  Cu  Cu97  1  0.44002167  0.44529653  0.89100158  1
  Cu  Cu98  1  0.94529653  0.60899842  0.55997833  1
  Cu  Cu99  1  0.05470347  0.10899842  0.94002167  1
  Cu  Cu100  1  0.89100158  0.44002167  0.44529653  1
  Cu  Cu101  1  0.10899842  0.94002167  0.05470347  1
  Cu  Cu102  1  0.05997833  0.55470347  0.39100158  1
  Cu  Cu103  1  0.94002167  0.05470347  0.10899842  1
  Cu  Cu104  1  0.35899842  0.80470347  0.80997833  1
  Cu  Cu105  1  0.85899842  0.69529653  0.19002167  1
  Cu  Cu106  1  0.64100158  0.30470347  0.69002167  1
  Cu  Cu107  1  0.14100158  0.19529653  0.30997833  1
  Cu  Cu108  1  0.69529653  0.19002167  0.85899842  1
  Cu  Cu109  1  0.30470347  0.69002167  0.64100158  1
  Cu  Cu110  1  0.80470347  0.80997833  0.35899842  1
  Cu  Cu111  1  0.19529653  0.30997833  0.14100158  1
  Cu  Cu112  1  0.19002167  0.85899842  0.69529653  1
  Cu  Cu113  1  0.69002167  0.64100158  0.30470347  1
  Cu  Cu114  1  0.80997833  0.35899842  0.80470347  1
  Cu  Cu115  1  0.30997833  0.14100158  0.19529653  1
  Cu  Cu116  1  0.33763303  0.85685354  0.32554969  1
  Cu  Cu117  1  0.66236697  0.35685354  0.17445031  1
  Cu  Cu118  1  0.35685354  0.17445031  0.66236697  1
  Cu  Cu119  1  0.64314646  0.67445031  0.83763303  1
  Cu  Cu120  1  0.67445031  0.83763303  0.64314646  1
  Cu  Cu121  1  0.32554969  0.33763303  0.85685354  1
  Cu  Cu122  1  0.83763303  0.64314646  0.67445031  1
  Cu  Cu123  1  0.16236697  0.14314646  0.82554969  1
  Cu  Cu124  1  0.85685354  0.32554969  0.33763303  1
  Cu  Cu125  1  0.14314646  0.82554969  0.16236697  1
  Cu  Cu126  1  0.17445031  0.66236697  0.35685354  1
  Cu  Cu127  1  0.82554969  0.16236697  0.14314646  1
  Cu  Cu128  1  0.39314646  0.91236697  0.92445031  1
  Cu  Cu129  1  0.89314646  0.58763303  0.07554969  1
  Cu  Cu130  1  0.60685354  0.41236697  0.57554969  1
  Cu  Cu131  1  0.10685354  0.08763303  0.42445031  1
  Cu  Cu132  1  0.58763303  0.07554969  0.89314646  1
  Cu  Cu133  1  0.41236697  0.57554969  0.60685354  1
  Cu  Cu134  1  0.91236697  0.92445031  0.39314646  1
  Cu  Cu135  1  0.08763303  0.42445031  0.10685354  1
  Cu  Cu136  1  0.07554969  0.89314646  0.58763303  1
  Cu  Cu137  1  0.57554969  0.60685354  0.41236697  1
  Cu  Cu138  1  0.92445031  0.39314646  0.91236697  1
  Cu  Cu139  1  0.42445031  0.10685354  0.08763303  1
  Cu  Cu140  1  0.41397381  0.99808505  0.32605786  1
  Cu  Cu141  1  0.58602619  0.49808505  0.17394214  1
  Cu  Cu142  1  0.49808505  0.17394214  0.58602619  1
  Cu  Cu143  1  0.50191495  0.67394214  0.91397381  1
  Cu  Cu144  1  0.67394214  0.91397381  0.50191495  1
  Cu  Cu145  1  0.32605786  0.41397381  0.99808505  1
  Cu  Cu146  1  0.91397381  0.50191495  0.67394214  1
  Cu  Cu147  1  0.08602619  0.00191495  0.82605786  1
  Cu  Cu148  1  0.99808505  0.32605786  0.41397381  1
  Cu  Cu149  1  0.00191495  0.82605786  0.08602619  1
  Cu  Cu150  1  0.17394214  0.58602619  0.49808505  1
  Cu  Cu151  1  0.82605786  0.08602619  0.00191495  1
  Cu  Cu152  1  0.25191495  0.83602619  0.92394214  1
  Cu  Cu153  1  0.75191495  0.66397381  0.07605786  1
  Cu  Cu154  1  0.74808505  0.33602619  0.57605786  1
  Cu  Cu155  1  0.24808505  0.16397381  0.42394214  1
  Cu  Cu156  1  0.66397381  0.07605786  0.75191495  1
  Cu  Cu157  1  0.33602619  0.57605786  0.74808505  1
  Cu  Cu158  1  0.83602619  0.92394214  0.25191495  1
  Cu  Cu159  1  0.16397381  0.42394214  0.24808505  1
  Cu  Cu160  1  0.07605786  0.75191495  0.66397381  1
  Cu  Cu161  1  0.57605786  0.74808505  0.33602619  1
  Cu  Cu162  1  0.92394214  0.25191495  0.83602619  1
  Cu  Cu163  1  0.42394214  0.24808505  0.16397381  1
