# generated using pymatgen
data_Cu7(NiC)4
_symmetry_space_group_name_H-M   'P 1'
_cell_length_a   9.24821574
_cell_length_b   9.24821574
_cell_length_c   9.24821574
_cell_angle_alpha   94.19738585
_cell_angle_beta   94.19738585
_cell_angle_gamma   148.60701845
_symmetry_Int_Tables_number   1
_chemical_formula_structural   Cu7(NiC)4
_chemical_formula_sum   'Cu14 Ni8 C8'
_cell_volume   396.66800034
_cell_formula_units_Z   2
loop_
 _symmetry_equiv_pos_site_id
 _symmetry_equiv_pos_as_xyz
  1  'x, y, z'
loop_
 _atom_site_type_symbol
 _atom_site_label
 _atom_site_symmetry_multiplicity
 _atom_site_fract_x
 _atom_site_fract_y
 _atom_site_fract_z
 _atom_site_occupancy
  C  C0  1  0.13512300  0.13512300  0.27024500  1
  C  C1  1  0.86487700  0.86487700  0.72975500  1
  C  C2  1  0.86487700  0.13512300  0.00000000  1
  C  C3  1  0.13512300  0.86487700  0.00000000  1
  C  C4  1  0.50000000  0.69220200  0.19220200  1
  C  C5  1  0.50000000  0.30779800  0.80779800  1
  C  C6  1  0.30779800  0.50000000  0.80779800  1
  C  C7  1  0.69220200  0.50000000  0.19220200  1
  Ni  Ni8  1  0.39947900  0.89947900  0.79895800  1
  Ni  Ni9  1  0.10052100  0.60052100  0.20104200  1
  Ni  Ni10  1  0.10052100  0.89947900  0.50000000  1
  Ni  Ni11  1  0.39947900  0.60052100  0.50000000  1
  Ni  Ni12  1  0.60052100  0.39947900  0.50000000  1
  Ni  Ni13  1  0.89947900  0.10052100  0.50000000  1
  Ni  Ni14  1  0.89947900  0.39947900  0.79895800  1
  Ni  Ni15  1  0.60052100  0.10052100  0.20104200  1
  Cu  Cu16  1  0.29084900  0.29084900  0.58169900  1
  Cu  Cu17  1  0.70915100  0.70915100  0.41830100  1
  Cu  Cu18  1  0.70915100  0.29084900  0.00000000  1
  Cu  Cu19  1  0.29084900  0.70915100  0.00000000  1
  Cu  Cu20  1  0.00000000  0.29708600  0.29708600  1
  Cu  Cu21  1  0.00000000  0.70291400  0.70291400  1
  Cu  Cu22  1  0.70291400  0.00000000  0.70291400  1
  Cu  Cu23  1  0.29708600  0.00000000  0.29708600  1
  Cu  Cu24  1  0.50000000  0.90572000  0.40572000  1
  Cu  Cu25  1  0.50000000  0.09428000  0.59428000  1
  Cu  Cu26  1  0.09428000  0.50000000  0.59428000  1
  Cu  Cu27  1  0.90572000  0.50000000  0.40572000  1
  Cu  Cu28  1  0.75064100  0.75064100  0.00000000  1
  Cu  Cu29  1  0.24935900  0.24935900  0.00000000  1
