# generated using pymatgen
data_CuNi2C13
_symmetry_space_group_name_H-M   'P 1'
_cell_length_a   7.07935600
_cell_length_b   9.78857800
_cell_length_c   23.10967200
_cell_angle_alpha   90.00000000
_cell_angle_beta   90.00000000
_cell_angle_gamma   90.00000000
_symmetry_Int_Tables_number   1
_chemical_formula_structural   CuNi2C13
_chemical_formula_sum   'Cu8 Ni16 C104'
_cell_volume   1601.42697487
_cell_formula_units_Z   8
loop_
 _symmetry_equiv_pos_site_id
 _symmetry_equiv_pos_as_xyz
  1  'x, y, z'
loop_
 _atom_site_type_symbol
 _atom_site_label
 _atom_site_symmetry_multiplicity
 _atom_site_fract_x
 _atom_site_fract_y
 _atom_site_fract_z
 _atom_site_occupancy
  C  C0  1  0.13602900  0.98973700  0.07176700  1
  C  C1  1  0.36397100  0.98973700  0.57176700  1
  C  C2  1  0.63602900  0.51026300  0.07176700  1
  C  C3  1  0.13602900  0.48973700  0.42823300  1
  C  C4  1  0.86397100  0.01026300  0.92823300  1
  C  C5  1  0.63602900  0.01026300  0.42823300  1
  C  C6  1  0.36397100  0.48973700  0.92823300  1
  C  C7  1  0.86397100  0.51026300  0.57176700  1
  C  C8  1  0.09251800  0.76781900  0.81752300  1
  C  C9  1  0.59251800  0.23218100  0.68247700  1
  C  C10  1  0.40748200  0.26781900  0.18247700  1
  C  C11  1  0.90748200  0.73218100  0.31752300  1
  C  C12  1  0.90748200  0.23218100  0.18247700  1
  C  C13  1  0.40748200  0.76781900  0.31752300  1
  C  C14  1  0.59251800  0.73218100  0.81752300  1
  C  C15  1  0.09251800  0.26781900  0.68247700  1
  C  C16  1  0.81830400  0.36618500  0.83582400  1
  C  C17  1  0.31830400  0.63381500  0.66417600  1
  C  C18  1  0.68169600  0.86618500  0.16417600  1
  C  C19  1  0.18169600  0.13381500  0.33582400  1
  C  C20  1  0.18169600  0.63381500  0.16417600  1
  C  C21  1  0.68169600  0.36618500  0.33582400  1
  C  C22  1  0.31830400  0.13381500  0.83582400  1
  C  C23  1  0.81830400  0.86618500  0.66417600  1
  Ni  Ni24  1  0.81226600  0.06160000  0.77932600  1
  Ni  Ni25  1  0.31226600  0.93840000  0.72067400  1
  Ni  Ni26  1  0.68773400  0.56160000  0.22067400  1
  Ni  Ni27  1  0.18773400  0.43840000  0.27932600  1
  Ni  Ni28  1  0.18773400  0.93840000  0.22067400  1
  Ni  Ni29  1  0.68773400  0.06160000  0.27932600  1
  Ni  Ni30  1  0.31226600  0.43840000  0.77932600  1
  Ni  Ni31  1  0.81226600  0.56160000  0.72067400  1
  Ni  Ni32  1  0.85645700  0.62299000  0.92124700  1
  Ni  Ni33  1  0.35645700  0.37701000  0.57875300  1
  Ni  Ni34  1  0.64354300  0.12299000  0.07875300  1
  Ni  Ni35  1  0.14354300  0.87701000  0.42124700  1
  Ni  Ni36  1  0.14354300  0.37701000  0.07875300  1
  Ni  Ni37  1  0.64354300  0.62299000  0.42124700  1
  Ni  Ni38  1  0.35645700  0.87701000  0.92124700  1
  Ni  Ni39  1  0.85645700  0.12299000  0.57875300  1
  Cu  Cu40  1  0.66479800  0.75823300  0.52815700  1
  Cu  Cu41  1  0.66479800  0.25823300  0.97184300  1
  Cu  Cu42  1  0.16479800  0.74176700  0.52815700  1
  Cu  Cu43  1  0.83520200  0.75823300  0.02815700  1
  Cu  Cu44  1  0.33520200  0.24176700  0.47184300  1
  Cu  Cu45  1  0.33520200  0.74176700  0.02815700  1
  Cu  Cu46  1  0.83520200  0.25823300  0.47184300  1
  Cu  Cu47  1  0.16479800  0.24176700  0.97184300  1
  C  C48  1  0.79389000  0.89387500  0.77825600  1
  C  C49  1  0.24856500  0.75930500  0.58107500  1
  C  C50  1  0.75143500  0.74069500  0.08107500  1
  C  C51  1  0.25143500  0.25930500  0.41892500  1
  C  C52  1  0.25143500  0.75930500  0.08107500  1
  C  C53  1  0.75143500  0.24069500  0.41892500  1
  C  C54  1  0.24856500  0.25930500  0.91892500  1
  C  C55  1  0.74856500  0.74069500  0.58107500  1
  C  C56  1  0.96354800  0.10917300  0.82854100  1
  C  C57  1  0.46354800  0.89082700  0.67145900  1
  C  C58  1  0.53645200  0.60917300  0.17145900  1
  C  C59  1  0.03645200  0.39082700  0.32854100  1
  C  C60  1  0.03645200  0.89082700  0.17145900  1
  C  C61  1  0.53645200  0.10917300  0.32854100  1
  C  C62  1  0.46354800  0.39082700  0.82854100  1
  C  C63  1  0.96354800  0.60917300  0.67145900  1
  C  C64  1  0.62298700  0.15640900  0.78915100  1
  C  C65  1  0.12298700  0.84359100  0.71084900  1
  C  C66  1  0.87701300  0.65640900  0.21084900  1
  C  C67  1  0.37701300  0.34359100  0.28915100  1
  C  C68  1  0.37701300  0.84359100  0.21084900  1
  C  C69  1  0.87701300  0.15640900  0.28915100  1
  C  C70  1  0.12298700  0.34359100  0.78915100  1
  C  C71  1  0.58432400  0.37496100  0.99102100  1
  C  C72  1  0.67120600  0.54808800  0.89261100  1
  C  C73  1  0.17120600  0.45191200  0.60738900  1
  C  C74  1  0.82879400  0.04808800  0.10738900  1
  C  C75  1  0.32879400  0.95191200  0.39261100  1
  C  C76  1  0.32879400  0.45191200  0.10738900  1
  C  C77  1  0.82879400  0.54808800  0.39261100  1
  C  C78  1  0.17120600  0.95191200  0.89261100  1
  C  C79  1  0.67120600  0.04808800  0.60738900  1
  C  C80  1  0.03911000  0.53501700  0.90016000  1
  C  C81  1  0.03911000  0.03501700  0.59984000  1
  C  C82  1  0.53911000  0.96498300  0.90016000  1
  C  C83  1  0.46089000  0.53501700  0.40016000  1
  C  C84  1  0.96089000  0.46498300  0.09984000  1
  C  C85  1  0.96089000  0.96498300  0.40016000  1
  C  C86  1  0.46089000  0.03501700  0.09984000  1
  C  C87  1  0.53911000  0.46498300  0.59984000  1
  C  C88  1  0.86713600  0.59832500  0.78858000  1
  C  C89  1  0.36713600  0.40167500  0.71142000  1
  C  C90  1  0.63286400  0.09832500  0.21142000  1
  C  C91  1  0.13286400  0.90167500  0.28858000  1
  C  C92  1  0.13286400  0.40167500  0.21142000  1
  C  C93  1  0.63286400  0.59832500  0.28858000  1
  C  C94  1  0.36713600  0.90167500  0.78858000  1
  C  C95  1  0.86713600  0.09832500  0.71142000  1
  C  C96  1  0.85338200  0.77493400  0.88962100  1
  C  C97  1  0.35338200  0.22506600  0.61037900  1
  C  C98  1  0.64661800  0.27493400  0.11037900  1
  C  C99  1  0.14661800  0.72506600  0.38962100  1
  C  C100  1  0.14661800  0.22506600  0.11037900  1
  C  C101  1  0.64661800  0.77493400  0.38962100  1
  C  C102  1  0.35338200  0.72506600  0.88962100  1
  C  C103  1  0.85338200  0.27493400  0.61037900  1
  C  C104  1  0.74856500  0.24069500  0.91892500  1
  C  C105  1  0.29389000  0.10612500  0.72174400  1
  C  C106  1  0.70611000  0.39387500  0.22174400  1
  C  C107  1  0.20611000  0.60612500  0.27825600  1
  C  C108  1  0.20611000  0.10612500  0.22174400  1
  C  C109  1  0.70611000  0.89387500  0.27825600  1
  C  C110  1  0.29389000  0.60612500  0.77825600  1
  C  C111  1  0.79389000  0.39387500  0.72174400  1
  C  C112  1  0.16716700  0.86146300  0.49255900  1
  C  C113  1  0.66716700  0.13853700  0.00744100  1
  C  C114  1  0.33283300  0.36146300  0.50744100  1
  C  C115  1  0.83283300  0.63853700  0.99255900  1
  C  C116  1  0.83283300  0.13853700  0.50744100  1
  C  C117  1  0.33283300  0.86146300  0.99255900  1
  C  C118  1  0.66716700  0.63853700  0.49255900  1
  C  C119  1  0.16716700  0.36146300  0.00744100  1
  C  C120  1  0.58432400  0.87496100  0.50897900  1
  C  C121  1  0.08432400  0.12503900  0.99102100  1
  C  C122  1  0.91567600  0.37496100  0.49102100  1
  C  C123  1  0.41567600  0.62503900  0.00897900  1
  C  C124  1  0.41567600  0.12503900  0.49102100  1
  C  C125  1  0.91567600  0.87496100  0.00897900  1
  C  C126  1  0.08432400  0.62503900  0.50897900  1
  C  C127  1  0.62298700  0.65640900  0.71084900  1
