# generated using pymatgen
data_Cu13NiC6
_symmetry_space_group_name_H-M   'P 1'
_cell_length_a   8.09714900
_cell_length_b   8.09714900
_cell_length_c   12.91748298
_cell_angle_alpha   108.26535180
_cell_angle_beta   108.26535180
_cell_angle_gamma   90.00000000
_symmetry_Int_Tables_number   1
_chemical_formula_structural   Cu13NiC6
_chemical_formula_sum   'Cu26 Ni2 C12'
_cell_volume   759.18106521
_cell_formula_units_Z   2
loop_
 _symmetry_equiv_pos_site_id
 _symmetry_equiv_pos_as_xyz
  1  'x, y, z'
loop_
 _atom_site_type_symbol
 _atom_site_label
 _atom_site_symmetry_multiplicity
 _atom_site_fract_x
 _atom_site_fract_y
 _atom_site_fract_z
 _atom_site_occupancy
  C  C0  1  0.97636000  0.47636000  0.62487900  1
  C  C1  1  0.64852000  0.14852000  0.62487900  1
  C  C2  1  0.14852000  0.97636000  0.62487900  1
  C  C3  1  0.47636000  0.64852000  0.62487900  1
  C  C4  1  0.02364000  0.52364000  0.37512100  1
  C  C5  1  0.35148000  0.85148000  0.37512100  1
  C  C6  1  0.85148000  0.02364000  0.37512100  1
  C  C7  1  0.52364000  0.35148000  0.37512100  1
  C  C8  1  0.60711900  0.60711900  0.21423800  1
  C  C9  1  0.10711900  0.10711900  0.21423800  1
  C  C10  1  0.39288100  0.39288100  0.78576200  1
  C  C11  1  0.89288100  0.89288100  0.78576200  1
  Ni  Ni12  1  0.25000000  0.25000000  0.50000000  1
  Ni  Ni13  1  0.75000000  0.75000000  0.50000000  1
  Cu  Cu14  1  0.11932100  0.61932100  0.88167800  1
  Cu  Cu15  1  0.76235700  0.26235700  0.88167800  1
  Cu  Cu16  1  0.26235700  0.11932100  0.88167800  1
  Cu  Cu17  1  0.61932100  0.76235700  0.88167800  1
  Cu  Cu18  1  0.88067900  0.38067900  0.11832200  1
  Cu  Cu19  1  0.23764300  0.73764300  0.11832200  1
  Cu  Cu20  1  0.73764300  0.88067900  0.11832200  1
  Cu  Cu21  1  0.38067900  0.23764300  0.11832200  1
  Cu  Cu22  1  0.71032400  0.56645000  0.00000000  1
  Cu  Cu23  1  0.28967600  0.43355000  0.00000000  1
  Cu  Cu24  1  0.78967600  0.06645000  0.00000000  1
  Cu  Cu25  1  0.21032400  0.93355000  0.00000000  1
  Cu  Cu26  1  0.56645000  0.28967600  0.00000000  1
  Cu  Cu27  1  0.43355000  0.71032400  0.00000000  1
  Cu  Cu28  1  0.06645000  0.21032400  0.00000000  1
  Cu  Cu29  1  0.93355000  0.78967600  0.00000000  1
  Cu  Cu30  1  0.29200400  0.79200400  0.81087100  1
  Cu  Cu31  1  0.51886700  0.01886700  0.81087100  1
  Cu  Cu32  1  0.01886700  0.29200400  0.81087100  1
  Cu  Cu33  1  0.79200400  0.51886700  0.81087100  1
  Cu  Cu34  1  0.70799600  0.20799600  0.18912900  1
  Cu  Cu35  1  0.48113300  0.98113300  0.18912900  1
  Cu  Cu36  1  0.98113300  0.70799600  0.18912900  1
  Cu  Cu37  1  0.20799600  0.48113300  0.18912900  1
  Cu  Cu38  1  0.00000000  0.50000000  0.00000000  1
  Cu  Cu39  1  0.50000000  0.00000000  0.00000000  1
