# generated using pymatgen
data_Cu3NiC
_symmetry_space_group_name_H-M   'P 1'
_cell_length_a   5.72223500
_cell_length_b   5.80105000
_cell_length_c   25.79379200
_cell_angle_alpha   90.00000000
_cell_angle_beta   90.00000000
_cell_angle_gamma   90.00000000
_symmetry_Int_Tables_number   1
_chemical_formula_structural   Cu3NiC
_chemical_formula_sum   'Cu24 Ni8 C8'
_cell_volume   856.22418636
_cell_formula_units_Z   8
loop_
 _symmetry_equiv_pos_site_id
 _symmetry_equiv_pos_as_xyz
  1  'x, y, z'
loop_
 _atom_site_type_symbol
 _atom_site_label
 _atom_site_symmetry_multiplicity
 _atom_site_fract_x
 _atom_site_fract_y
 _atom_site_fract_z
 _atom_site_occupancy
  C  C0  1  0.00212700  0.99985500  0.59150500  1
  C  C1  1  0.00212700  0.49985500  0.90849500  1
  C  C2  1  0.99787300  0.50014500  0.09150500  1
  C  C3  1  0.49787300  0.49985500  0.40849500  1
  C  C4  1  0.99787300  0.00014500  0.40849500  1
  C  C5  1  0.50212700  0.50014500  0.59150500  1
  C  C6  1  0.50212700  0.00014500  0.90849500  1
  C  C7  1  0.49787300  0.99985500  0.09150500  1
  Ni  Ni8  1  0.91906000  0.41492700  0.70720600  1
  Ni  Ni9  1  0.58094000  0.41492700  0.20720600  1
  Ni  Ni10  1  0.91906000  0.91492700  0.79279400  1
  Ni  Ni11  1  0.08094000  0.08507300  0.20720600  1
  Ni  Ni12  1  0.41906000  0.58507300  0.79279400  1
  Ni  Ni13  1  0.08094000  0.58507300  0.29279400  1
  Ni  Ni14  1  0.41906000  0.08507300  0.70720600  1
  Ni  Ni15  1  0.58094000  0.91492700  0.29279400  1
  Cu  Cu16  1  0.25174500  0.74849600  0.00012900  1
  Cu  Cu17  1  0.02614400  0.54426700  0.78676400  1
  Cu  Cu18  1  0.52614400  0.45573300  0.71323600  1
  Cu  Cu19  1  0.02614400  0.04426700  0.71323600  1
  Cu  Cu20  1  0.49574300  0.00359600  0.37369100  1
  Cu  Cu21  1  0.49574300  0.50359600  0.12630900  1
  Cu  Cu22  1  0.24825500  0.74849600  0.50012900  1
  Cu  Cu23  1  0.74825500  0.75150400  0.50012900  1
  Cu  Cu24  1  0.47385600  0.54426700  0.28676400  1
  Cu  Cu25  1  0.50425700  0.49640400  0.87369100  1
  Cu  Cu26  1  0.74825500  0.25150400  0.99987100  1
  Cu  Cu27  1  0.99574300  0.49640400  0.37369100  1
  Cu  Cu28  1  0.00425700  0.00359600  0.87369100  1
  Cu  Cu29  1  0.52614400  0.95573300  0.78676400  1
  Cu  Cu30  1  0.97385600  0.45573300  0.21323600  1
  Cu  Cu31  1  0.75174500  0.25150400  0.49987100  1
  Cu  Cu32  1  0.50425700  0.99640400  0.62630900  1
  Cu  Cu33  1  0.00425700  0.50359600  0.62630900  1
  Cu  Cu34  1  0.47385600  0.04426700  0.21323600  1
  Cu  Cu35  1  0.97385600  0.95573300  0.28676400  1
  Cu  Cu36  1  0.99574300  0.99640400  0.12630900  1
  Cu  Cu37  1  0.24825500  0.24849600  0.99987100  1
  Cu  Cu38  1  0.25174500  0.24849600  0.49987100  1
  Cu  Cu39  1  0.75174500  0.75150400  0.00012900  1
