# generated using pymatgen
data_CuNi2C5
_symmetry_space_group_name_H-M   'P 1'
_cell_length_a   7.24990160
_cell_length_b   7.24990160
_cell_length_c   7.24990160
_cell_angle_alpha   134.75223399
_cell_angle_beta   134.75223399
_cell_angle_gamma   65.91541660
_symmetry_Int_Tables_number   1
_chemical_formula_structural   CuNi2C5
_chemical_formula_sum   'Cu1 Ni2 C5'
_cell_volume   189.25842424
_cell_formula_units_Z   1
loop_
 _symmetry_equiv_pos_site_id
 _symmetry_equiv_pos_as_xyz
  1  'x, y, z'
loop_
 _atom_site_type_symbol
 _atom_site_label
 _atom_site_symmetry_multiplicity
 _atom_site_fract_x
 _atom_site_fract_y
 _atom_site_fract_z
 _atom_site_occupancy
  C  C0  1  0.00000000  0.00000000  0.00000000  1
  Ni  Ni1  1  0.75000000  0.25000000  0.50000000  1
  Ni  Ni2  1  0.25000000  0.75000000  0.50000000  1
  Cu  Cu3  1  0.50000000  0.50000000  0.00000000  1
  C  C4  1  0.63948000  0.12891100  0.00000000  1
  C  C5  1  0.12891100  0.63948000  0.00000000  1
  C  C6  1  0.36052000  0.36052000  0.48943100  1
  C  C7  1  0.87108900  0.87108900  0.51056900  1
