# generated using pymatgen
data_CuNi4C7
_symmetry_space_group_name_H-M   'P 1'
_cell_length_a   5.35787041
_cell_length_b   5.35787041
_cell_length_c   9.19891400
_cell_angle_alpha   90.00000000
_cell_angle_beta   90.00000000
_cell_angle_gamma   120.00000502
_symmetry_Int_Tables_number   1
_chemical_formula_structural   CuNi4C7
_chemical_formula_sum   'Cu1 Ni4 C7'
_cell_volume   228.69231894
_cell_formula_units_Z   1
loop_
 _symmetry_equiv_pos_site_id
 _symmetry_equiv_pos_as_xyz
  1  'x, y, z'
loop_
 _atom_site_type_symbol
 _atom_site_label
 _atom_site_symmetry_multiplicity
 _atom_site_fract_x
 _atom_site_fract_y
 _atom_site_fract_z
 _atom_site_occupancy
  C  C0  1  0.00000000  0.00000000  0.00000000  1
  Ni  Ni1  1  0.33333300  0.66666700  0.28486700  1
  Ni  Ni2  1  0.66666700  0.33333300  0.71513300  1
  Ni  Ni3  1  0.66666700  0.33333300  0.28486700  1
  Ni  Ni4  1  0.33333300  0.66666700  0.71513300  1
  Cu  Cu5  1  0.00000000  0.00000000  0.50000000  1
  C  C6  1  0.50000000  0.00000000  0.17578100  1
  C  C7  1  0.50000000  0.00000000  0.82421900  1
  C  C8  1  0.00000000  0.50000000  0.17578100  1
  C  C9  1  0.00000000  0.50000000  0.82421900  1
  C  C10  1  0.50000000  0.50000000  0.17578100  1
  C  C11  1  0.50000000  0.50000000  0.82421900  1
