# generated using pymatgen
data_CuNiC8
_symmetry_space_group_name_H-M   'P 1'
_cell_length_a   5.77686642
_cell_length_b   5.77686642
_cell_length_c   5.77686634
_cell_angle_alpha   61.07135203
_cell_angle_beta   61.07135203
_cell_angle_gamma   61.07135030
_symmetry_Int_Tables_number   1
_chemical_formula_structural   CuNiC8
_chemical_formula_sum   'Cu1 Ni1 C8'
_cell_volume   139.60885922
_cell_formula_units_Z   1
loop_
 _symmetry_equiv_pos_site_id
 _symmetry_equiv_pos_as_xyz
  1  'x, y, z'
loop_
 _atom_site_type_symbol
 _atom_site_label
 _atom_site_symmetry_multiplicity
 _atom_site_fract_x
 _atom_site_fract_y
 _atom_site_fract_z
 _atom_site_occupancy
  C  C0  1  0.75038700  0.75038700  0.75038700  1
  C  C1  1  0.24961300  0.24961300  0.24961300  1
  Ni  Ni2  1  0.50000000  0.50000000  0.50000000  1
  Cu  Cu3  1  0.00000000  0.00000000  0.00000000  1
  C  C4  1  0.75279300  0.34592200  0.15324900  1
  C  C5  1  0.15324900  0.75279300  0.34592200  1
  C  C6  1  0.34592200  0.15324900  0.75279300  1
  C  C7  1  0.24720700  0.65407800  0.84675100  1
  C  C8  1  0.65407800  0.84675100  0.24720700  1
  C  C9  1  0.84675100  0.24720700  0.65407800  1
