# generated using pymatgen
data_Cu12NiC8
_symmetry_space_group_name_H-M   'P 1'
_cell_length_a   9.66398344
_cell_length_b   9.66398344
_cell_length_c   6.28160900
_cell_angle_alpha   90.00000000
_cell_angle_beta   90.00000000
_cell_angle_gamma   119.99999617
_symmetry_Int_Tables_number   1
_chemical_formula_structural   Cu12NiC8
_chemical_formula_sum   'Cu24 Ni2 C16'
_cell_volume   508.05871194
_cell_formula_units_Z   2
loop_
 _symmetry_equiv_pos_site_id
 _symmetry_equiv_pos_as_xyz
  1  'x, y, z'
loop_
 _atom_site_type_symbol
 _atom_site_label
 _atom_site_symmetry_multiplicity
 _atom_site_fract_x
 _atom_site_fract_y
 _atom_site_fract_z
 _atom_site_occupancy
  C  C0  1  0.33333300  0.66666700  0.00601100  1
  C  C1  1  0.66666700  0.33333300  0.99398900  1
  C  C2  1  0.66666700  0.33333300  0.50601100  1
  C  C3  1  0.33333300  0.66666700  0.49398900  1
  C  C4  1  0.27787900  0.24287700  0.25000000  1
  C  C5  1  0.72212100  0.75712300  0.75000000  1
  C  C6  1  0.75712300  0.03500200  0.25000000  1
  C  C7  1  0.24287700  0.96499800  0.75000000  1
  C  C8  1  0.96499800  0.72212100  0.25000000  1
  C  C9  1  0.03500200  0.27787900  0.75000000  1
  C  C10  1  0.40653400  0.02589000  0.25000000  1
  C  C11  1  0.59346600  0.97411000  0.75000000  1
  C  C12  1  0.97411000  0.38064400  0.25000000  1
  C  C13  1  0.02589000  0.61935600  0.75000000  1
  C  C14  1  0.61935600  0.59346600  0.25000000  1
  C  C15  1  0.38064400  0.40653400  0.75000000  1
  Ni  Ni16  1  0.00000000  0.00000000  0.25000000  1
  Ni  Ni17  1  0.00000000  0.00000000  0.75000000  1
  Cu  Cu18  1  0.34381300  0.07477100  0.05254600  1
  Cu  Cu19  1  0.65618700  0.92522900  0.94745400  1
  Cu  Cu20  1  0.92522900  0.26904200  0.05254600  1
  Cu  Cu21  1  0.65618700  0.92522900  0.55254600  1
  Cu  Cu22  1  0.07477100  0.73095800  0.94745400  1
  Cu  Cu23  1  0.34381300  0.07477100  0.44745400  1
  Cu  Cu24  1  0.73095800  0.65618700  0.05254600  1
  Cu  Cu25  1  0.07477100  0.73095800  0.55254600  1
  Cu  Cu26  1  0.26904200  0.34381300  0.94745400  1
  Cu  Cu27  1  0.92522900  0.26904200  0.44745400  1
  Cu  Cu28  1  0.26904200  0.34381300  0.55254600  1
  Cu  Cu29  1  0.73095800  0.65618700  0.44745400  1
  Cu  Cu30  1  0.59496700  0.13741400  0.25000000  1
  Cu  Cu31  1  0.40503300  0.86258600  0.75000000  1
  Cu  Cu32  1  0.86258600  0.45755300  0.25000000  1
  Cu  Cu33  1  0.13741400  0.54244700  0.75000000  1
  Cu  Cu34  1  0.54244700  0.40503300  0.25000000  1
  Cu  Cu35  1  0.45755300  0.59496700  0.75000000  1
  Cu  Cu36  1  0.15155700  0.51209000  0.25000000  1
  Cu  Cu37  1  0.84844300  0.48791000  0.75000000  1
  Cu  Cu38  1  0.48791000  0.63946700  0.25000000  1
  Cu  Cu39  1  0.51209000  0.36053300  0.75000000  1
  Cu  Cu40  1  0.36053300  0.84844300  0.25000000  1
  Cu  Cu41  1  0.63946700  0.15155700  0.75000000  1
