# generated using pymatgen
data_CuNi3C2
_symmetry_space_group_name_H-M   'P 1'
_cell_length_a   9.30760209
_cell_length_b   9.30760209
_cell_length_c   12.70643900
_cell_angle_alpha   90.00000000
_cell_angle_beta   90.00000000
_cell_angle_gamma   161.92718476
_symmetry_Int_Tables_number   1
_chemical_formula_structural   CuNi3C2
_chemical_formula_sum   'Cu2 Ni6 C4'
_cell_volume   341.48909493
_cell_formula_units_Z   2
loop_
 _symmetry_equiv_pos_site_id
 _symmetry_equiv_pos_as_xyz
  1  'x, y, z'
loop_
 _atom_site_type_symbol
 _atom_site_label
 _atom_site_symmetry_multiplicity
 _atom_site_fract_x
 _atom_site_fract_y
 _atom_site_fract_z
 _atom_site_occupancy
  C  C0  1  0.49644600  0.50355400  0.43366800  1
  C  C1  1  0.50355400  0.49644600  0.93366800  1
  Ni  Ni2  1  0.98863800  0.01136200  0.63926500  1
  Ni  Ni3  1  0.01136200  0.98863800  0.13926500  1
  Ni  Ni4  1  0.63615800  0.36384200  0.40438100  1
  Ni  Ni5  1  0.36384200  0.63615800  0.90438100  1
  Ni  Ni6  1  0.36148800  0.63851200  0.37310200  1
  Ni  Ni7  1  0.63851200  0.36148800  0.87310200  1
  Cu  Cu8  1  0.25478800  0.74521200  0.65722400  1
  Cu  Cu9  1  0.74521200  0.25478800  0.15722400  1
  C  C10  1  0.76763200  0.23236800  0.63806100  1
  C  C11  1  0.23236800  0.76763200  0.13806100  1
