# generated using pymatgen
data_Cu(NiC6)2
_symmetry_space_group_name_H-M   'P 1'
_cell_length_a   5.57054100
_cell_length_b   8.29611151
_cell_length_c   9.92966320
_cell_angle_alpha   90.64379968
_cell_angle_beta   91.24093027
_cell_angle_gamma   90.12740139
_symmetry_Int_Tables_number   1
_chemical_formula_structural   Cu(NiC6)2
_chemical_formula_sum   'Cu2 Ni4 C24'
_cell_volume   458.74977767
_cell_formula_units_Z   2
loop_
 _symmetry_equiv_pos_site_id
 _symmetry_equiv_pos_as_xyz
  1  'x, y, z'
loop_
 _atom_site_type_symbol
 _atom_site_label
 _atom_site_symmetry_multiplicity
 _atom_site_fract_x
 _atom_site_fract_y
 _atom_site_fract_z
 _atom_site_occupancy
  C  C0  1  0.74636300  0.15701600  0.75184600  1
  C  C1  1  0.25363700  0.84298400  0.24815400  1
  C  C2  1  0.50000000  0.00000000  0.00000000  1
  C  C3  1  0.50000000  0.00000000  0.50000000  1
  C  C4  1  0.00000000  0.00000000  0.00000000  1
  C  C5  1  0.23727800  0.22755000  0.24983900  1
  C  C6  1  0.76272200  0.77245000  0.75016100  1
  C  C7  1  0.00000000  0.00000000  0.50000000  1
  Ni  Ni8  1  0.24831000  0.36236000  0.91500100  1
  Ni  Ni9  1  0.75169000  0.63764000  0.08499900  1
  Ni  Ni10  1  0.25287100  0.36239400  0.58410800  1
  Ni  Ni11  1  0.74712900  0.63760600  0.41589200  1
  Cu  Cu12  1  0.75796600  0.17805800  0.24689000  1
  Cu  Cu13  1  0.24203400  0.82194200  0.75311000  1
  C  C14  1  0.74511100  0.97891200  0.86923600  1
  C  C15  1  0.75102100  0.61581300  0.91441000  1
  C  C16  1  0.25264100  0.38525300  0.41481600  1
  C  C17  1  0.49102800  0.22789100  0.89016200  1
  C  C18  1  0.49948100  0.77172500  0.38854900  1
  C  C19  1  0.98925100  0.77216000  0.39242500  1
  C  C20  1  0.25488900  0.02108800  0.13076400  1
  C  C21  1  0.00047100  0.22856100  0.88637100  1
  C  C22  1  0.01074900  0.22784000  0.60757500  1
  C  C23  1  0.99952900  0.77143900  0.11362900  1
  C  C24  1  0.75305200  0.97834600  0.63159300  1
  C  C25  1  0.24694800  0.02165400  0.36840700  1
  C  C26  1  0.50897200  0.77210900  0.10983800  1
  C  C27  1  0.50051900  0.22827500  0.61145100  1
  C  C28  1  0.24897900  0.38418700  0.08559000  1
  C  C29  1  0.74735900  0.61474700  0.58518400  1
