# generated using pymatgen
data_CuNi3C14
_symmetry_space_group_name_H-M   'P 1'
_cell_length_a   5.84439300
_cell_length_b   11.50493400
_cell_length_c   18.35931300
_cell_angle_alpha   90.00000000
_cell_angle_beta   90.00000000
_cell_angle_gamma   90.00000000
_symmetry_Int_Tables_number   1
_chemical_formula_structural   CuNi3C14
_chemical_formula_sum   'Cu4 Ni12 C56'
_cell_volume   1234.46837786
_cell_formula_units_Z   4
loop_
 _symmetry_equiv_pos_site_id
 _symmetry_equiv_pos_as_xyz
  1  'x, y, z'
loop_
 _atom_site_type_symbol
 _atom_site_label
 _atom_site_symmetry_multiplicity
 _atom_site_fract_x
 _atom_site_fract_y
 _atom_site_fract_z
 _atom_site_occupancy
  C  C0  1  0.25000000  0.38904700  0.99454400  1
  C  C1  1  0.25000000  0.88904700  0.50545600  1
  C  C2  1  0.75000000  0.61095300  0.00545600  1
  C  C3  1  0.75000000  0.11095300  0.49454400  1
  C  C4  1  0.25000000  0.11827800  0.32005700  1
  C  C5  1  0.25000000  0.61827800  0.17994300  1
  C  C6  1  0.75000000  0.88172200  0.67994300  1
  C  C7  1  0.75000000  0.38172200  0.82005700  1
  C  C8  1  0.75000000  0.47478100  0.58718000  1
  C  C9  1  0.75000000  0.97478100  0.91282000  1
  C  C10  1  0.25000000  0.52521900  0.41282000  1
  C  C11  1  0.25000000  0.02521900  0.08718000  1
  Ni  Ni12  1  0.25000000  0.36607400  0.66660600  1
  Ni  Ni13  1  0.25000000  0.86607400  0.83339400  1
  Ni  Ni14  1  0.75000000  0.63392600  0.33339400  1
  Ni  Ni15  1  0.75000000  0.13392600  0.16660600  1
  Ni  Ni16  1  0.25000000  0.10176100  0.64219500  1
  Ni  Ni17  1  0.25000000  0.60176100  0.85780500  1
  Ni  Ni18  1  0.75000000  0.89823900  0.35780500  1
  Ni  Ni19  1  0.75000000  0.39823900  0.14219500  1
  Ni  Ni20  1  0.25000000  0.26703300  0.51523000  1
  Ni  Ni21  1  0.25000000  0.76703300  0.98477000  1
  Ni  Ni22  1  0.75000000  0.73296700  0.48477000  1
  Ni  Ni23  1  0.75000000  0.23296700  0.01523000  1
  Cu  Cu24  1  0.25000000  0.24352000  0.60737900  1
  Cu  Cu25  1  0.25000000  0.74352000  0.89262100  1
  Cu  Cu26  1  0.75000000  0.75648000  0.39262100  1
  Cu  Cu27  1  0.75000000  0.25648000  0.10737900  1
  C  C28  1  0.25000000  0.25594900  0.86107300  1
  C  C29  1  0.25000000  0.75594900  0.63892700  1
  C  C30  1  0.75000000  0.74405100  0.13892700  1
  C  C31  1  0.75000000  0.24405100  0.36107300  1
  C  C32  1  0.25000000  0.36908800  0.28303200  1
  C  C33  1  0.25000000  0.86908800  0.21696800  1
  C  C34  1  0.75000000  0.63091200  0.71696800  1
  C  C35  1  0.75000000  0.13091200  0.78303200  1
  C  C36  1  0.25000000  0.46277400  0.61537100  1
  C  C37  1  0.25000000  0.96277400  0.88462900  1
  C  C38  1  0.75000000  0.53722600  0.38462900  1
  C  C39  1  0.75000000  0.03722600  0.11537100  1
  C  C40  1  0.03877700  0.35454800  0.70803300  1
  C  C41  1  0.46122300  0.85454800  0.79196700  1
  C  C42  1  0.53877700  0.64545200  0.29196700  1
  C  C43  1  0.96122300  0.14545200  0.20803300  1
  C  C44  1  0.96122300  0.64545200  0.29196700  1
  C  C45  1  0.53877700  0.14545200  0.20803300  1
  C  C46  1  0.46122300  0.35454800  0.70803300  1
  C  C47  1  0.03877700  0.85454800  0.79196700  1
  C  C48  1  0.25000000  0.11815300  0.72003600  1
  C  C49  1  0.25000000  0.61815300  0.77996400  1
  C  C50  1  0.75000000  0.88184700  0.27996400  1
  C  C51  1  0.75000000  0.38184700  0.22003600  1
  C  C52  1  0.04157000  0.04798600  0.61227300  1
  C  C53  1  0.45843000  0.54798600  0.88772700  1
  C  C54  1  0.54157000  0.95201400  0.38772700  1
  C  C55  1  0.95843000  0.45201400  0.11227300  1
  C  C56  1  0.95843000  0.95201400  0.38772700  1
  C  C57  1  0.54157000  0.45201400  0.11227300  1
  C  C58  1  0.45843000  0.04798600  0.61227300  1
  C  C59  1  0.04157000  0.54798600  0.88772700  1
  C  C60  1  0.25000000  0.15014000  0.48314500  1
  C  C61  1  0.25000000  0.65014000  0.01685500  1
  C  C62  1  0.75000000  0.84986000  0.51685500  1
  C  C63  1  0.75000000  0.34986000  0.98314500  1
  C  C64  1  0.03952300  0.33136100  0.49866700  1
  C  C65  1  0.46047700  0.83136100  0.00133300  1
  C  C66  1  0.53952300  0.66863900  0.50133300  1
  C  C67  1  0.96047700  0.16863900  0.99866700  1
  C  C68  1  0.96047700  0.66863900  0.50133300  1
  C  C69  1  0.53952300  0.16863900  0.99866700  1
  C  C70  1  0.46047700  0.33136100  0.49866700  1
  C  C71  1  0.03952300  0.83136100  0.00133300  1
