# generated using pymatgen
data_Cu6Ni6C
_symmetry_space_group_name_H-M   'P 1'
_cell_length_a   5.05143400
_cell_length_b   6.48124124
_cell_length_c   6.48124124
_cell_angle_alpha   83.33637754
_cell_angle_beta   67.06437459
_cell_angle_gamma   67.06437459
_symmetry_Int_Tables_number   1
_chemical_formula_structural   Cu6Ni6C
_chemical_formula_sum   'Cu6 Ni6 C1'
_cell_volume   179.80802839
_cell_formula_units_Z   1
loop_
 _symmetry_equiv_pos_site_id
 _symmetry_equiv_pos_as_xyz
  1  'x, y, z'
loop_
 _atom_site_type_symbol
 _atom_site_label
 _atom_site_symmetry_multiplicity
 _atom_site_fract_x
 _atom_site_fract_y
 _atom_site_fract_z
 _atom_site_occupancy
  C  C0  1  0.00000000  0.00000000  0.00000000  1
  Ni  Ni1  1  0.50000000  0.18989800  0.81010200  1
  Ni  Ni2  1  0.50000000  0.81010200  0.18989800  1
  Ni  Ni3  1  0.34062100  0.65937900  0.65937900  1
  Ni  Ni4  1  0.65937900  0.34062100  0.34062100  1
  Ni  Ni5  1  0.00000000  0.34537200  0.65462800  1
  Ni  Ni6  1  0.00000000  0.65462800  0.34537200  1
  Cu  Cu7  1  0.50000000  0.00000000  0.50000000  1
  Cu  Cu8  1  0.50000000  0.50000000  0.00000000  1
  Cu  Cu9  1  0.00000000  0.50000000  0.00000000  1
  Cu  Cu10  1  0.00000000  0.00000000  0.50000000  1
  Cu  Cu11  1  0.26195800  0.23804200  0.23804200  1
  Cu  Cu12  1  0.73804200  0.76195800  0.76195800  1
