# generated using pymatgen
data_Cu2Ni3C23
_symmetry_space_group_name_H-M   'P 1'
_cell_length_a   6.23263926
_cell_length_b   11.65850442
_cell_length_c   10.76032838
_cell_angle_alpha   116.87773206
_cell_angle_beta   90.08174167
_cell_angle_gamma   74.98540377
_symmetry_Int_Tables_number   1
_chemical_formula_structural   Cu2Ni3C23
_chemical_formula_sum   'Cu4 Ni6 C46'
_cell_volume   667.50512748
_cell_formula_units_Z   2
loop_
 _symmetry_equiv_pos_site_id
 _symmetry_equiv_pos_as_xyz
  1  'x, y, z'
loop_
 _atom_site_type_symbol
 _atom_site_label
 _atom_site_symmetry_multiplicity
 _atom_site_fract_x
 _atom_site_fract_y
 _atom_site_fract_z
 _atom_site_occupancy
  C  C0  1  0.04759700  0.90011100  0.62076300  1
  C  C1  1  0.54804800  0.89964800  0.11802500  1
  C  C2  1  0.48900800  0.98148300  0.49873300  1
  C  C3  1  0.99030000  0.98001600  0.99472600  1
  C  C4  1  0.74269600  0.49482300  0.25471500  1
  C  C5  1  0.23733000  0.49771900  0.75251800  1
  C  C6  1  0.78582100  0.41165700  0.54244100  1
  C  C7  1  0.28818800  0.40963600  0.04057300  1
  C  C8  1  0.64996200  0.71366300  0.52797200  1
  C  C9  1  0.14698200  0.71030700  0.02413300  1
  C  C10  1  0.89158300  0.71170900  0.76805000  1
  C  C11  1  0.63898400  0.21275900  0.19177300  1
  C  C12  1  0.13665000  0.21516200  0.69283500  1
  C  C13  1  0.38983000  0.71223300  0.26854500  1
  Ni  Ni14  1  0.40222100  0.71374800  0.76991100  1
  Ni  Ni15  1  0.90162200  0.71171700  0.26975800  1
  Ni  Ni16  1  0.14914400  0.21311200  0.18942600  1
  Ni  Ni17  1  0.64558600  0.21382400  0.69099500  1
  Ni  Ni18  1  0.39483300  0.21452800  0.43856000  1
  Ni  Ni19  1  0.89382200  0.21323700  0.93767800  1
  Cu  Cu20  1  0.26346200  0.49133000  0.40698700  1
  Cu  Cu21  1  0.76065400  0.49068000  0.90772000  1
  Cu  Cu22  1  0.52450400  0.98022100  0.81878200  1
  Cu  Cu23  1  0.02579800  0.98096000  0.31981300  1
  C  C24  1  0.10449200  0.34669300  0.41316300  1
  C  C25  1  0.60225500  0.34667400  0.91458500  1
  C  C26  1  0.44541700  0.10424100  0.22030300  1
  C  C27  1  0.94422900  0.10504200  0.72037600  1
  C  C28  1  0.34359200  0.31212700  0.65622500  1
  C  C29  1  0.84533100  0.30968400  0.15455400  1
  C  C30  1  0.10727900  0.79774800  0.89662600  1
  C  C31  1  0.59988200  0.79680000  0.39423600  1
  C  C32  1  0.69736100  0.09731100  0.46807700  1
  C  C33  1  0.20258900  0.09882300  0.96477700  1
  C  C34  1  0.44846800  0.59047800  0.37014800  1
  C  C35  1  0.95514900  0.58482400  0.87808900  1
  C  C36  1  0.69337800  0.60673300  0.63709900  1
  C  C37  1  0.20119800  0.60698500  0.14027500  1
  C  C38  1  0.79758600  0.85513700  0.68444700  1
  C  C39  1  0.30806700  0.84652900  0.19026300  1
  C  C40  1  0.96350200  0.58765000  0.37348900  1
  C  C41  1  0.46469200  0.58806500  0.87510100  1
  C  C42  1  0.21499500  0.58939900  0.62006000  1
  C  C43  1  0.69988500  0.59366400  0.12724400  1
  C  C44  1  0.31653200  0.35000100  0.19448700  1
  C  C45  1  0.81536200  0.34953100  0.69540400  1
  C  C46  1  0.54089900  0.35071900  0.41698300  1
  C  C47  1  0.03520400  0.35222100  0.92216300  1
  C  C48  1  0.34855500  0.85598000  0.68969000  1
  C  C49  1  0.85170800  0.85177700  0.18973500  1
  C  C50  1  0.56644900  0.85522500  0.90921300  1
  C  C51  1  0.08457600  0.84359900  0.40395500  1
  C  C52  1  0.96780700  0.08930800  0.20701600  1
  C  C53  1  0.45928800  0.09364000  0.71373900  1
  C  C54  1  0.21322400  0.09245200  0.46082800  1
  C  C55  1  0.70827400  0.09234200  0.95976100  1
