# generated using pymatgen
data_Cu9Ni3C4
_symmetry_space_group_name_H-M   'P 1'
_cell_length_a   5.27861500
_cell_length_b   5.37811212
_cell_length_c   9.04521273
_cell_angle_alpha   105.58352097
_cell_angle_beta   90.07251596
_cell_angle_gamma   118.79185161
_symmetry_Int_Tables_number   1
_chemical_formula_structural   Cu9Ni3C4
_chemical_formula_sum   'Cu9 Ni3 C4'
_cell_volume   214.15501259
_cell_formula_units_Z   1
loop_
 _symmetry_equiv_pos_site_id
 _symmetry_equiv_pos_as_xyz
  1  'x, y, z'
loop_
 _atom_site_type_symbol
 _atom_site_label
 _atom_site_symmetry_multiplicity
 _atom_site_fract_x
 _atom_site_fract_y
 _atom_site_fract_z
 _atom_site_occupancy
  C  C0  1  0.25032200  0.75100500  0.74978000  1
  C  C1  1  0.50133100  0.46859000  0.50581300  1
  C  C2  1  0.73546700  0.26467300  0.25529400  1
  C  C3  1  0.99942300  0.03302400  0.99275900  1
  Ni  Ni4  1  0.03961500  0.35881900  0.87989300  1
  Ni  Ni5  1  0.45998700  0.14177100  0.62073400  1
  Ni  Ni6  1  0.59322100  0.40796700  0.33053800  1
  Cu  Cu7  1  0.08169700  0.33112100  0.41836900  1
  Cu  Cu8  1  0.07235500  0.91332800  0.83101100  1
  Cu  Cu9  1  0.57512200  0.82567700  0.92419200  1
  Cu  Cu10  1  0.42728300  0.58881300  0.66827600  1
  Cu  Cu11  1  0.42188000  0.16356800  0.07842100  1
  Cu  Cu12  1  0.53863200  0.86402700  0.37515900  1
  Cu  Cu13  1  0.96163700  0.62961300  0.11924600  1
  Cu  Cu14  1  0.91651300  0.08174000  0.17409800  1
  Cu  Cu15  1  0.92551500  0.67626400  0.57641800  1
