# generated using pymatgen
data_Cu4Ni2C37
_symmetry_space_group_name_H-M   'P 1'
_cell_length_a   9.88316799
_cell_length_b   19.58822982
_cell_length_c   21.94676111
_cell_angle_alpha   90.00000000
_cell_angle_beta   90.00000000
_cell_angle_gamma   90.00000000
_symmetry_Int_Tables_number   1
_chemical_formula_structural   Cu4Ni2C37
_chemical_formula_sum   'Cu32 Ni16 C296'
_cell_volume   4248.75613342
_cell_formula_units_Z   8
loop_
 _symmetry_equiv_pos_site_id
 _symmetry_equiv_pos_as_xyz
  1  'x, y, z'
loop_
 _atom_site_type_symbol
 _atom_site_label
 _atom_site_symmetry_multiplicity
 _atom_site_fract_x
 _atom_site_fract_y
 _atom_site_fract_z
 _atom_site_occupancy
  C  C0  1  0.26358023  0.13304147  0.13034138  1
  C  C1  1  0.76358023  0.36695853  0.86965862  1
  C  C2  1  0.73641977  0.63304147  0.36965862  1
  C  C3  1  0.23641977  0.86695853  0.63034138  1
  C  C4  1  0.73641977  0.86695853  0.86965862  1
  C  C5  1  0.23641977  0.63304147  0.13034138  1
  C  C6  1  0.26358023  0.36695853  0.63034138  1
  C  C7  1  0.76358023  0.13304147  0.36965862  1
  C  C8  1  0.57408627  0.05146231  0.05974214  1
  C  C9  1  0.07408627  0.44853769  0.94025786  1
  C  C10  1  0.42591373  0.55146231  0.44025786  1
  C  C11  1  0.92591373  0.94853769  0.55974214  1
  C  C12  1  0.42591373  0.94853769  0.94025786  1
  C  C13  1  0.92591373  0.55146231  0.05974214  1
  C  C14  1  0.57408627  0.44853769  0.55974214  1
  C  C15  1  0.07408627  0.05146231  0.44025786  1
  C  C16  1  0.62790672  0.97250764  0.09430888  1
  C  C17  1  0.12790672  0.52749236  0.90569112  1
  C  C18  1  0.37209328  0.47250764  0.40569112  1
  C  C19  1  0.87209328  0.02749236  0.59430888  1
  C  C20  1  0.37209328  0.02749236  0.90569112  1
  C  C21  1  0.87209328  0.47250764  0.09430888  1
  C  C22  1  0.62790672  0.52749236  0.59430888  1
  C  C23  1  0.12790672  0.97250764  0.40569112  1
  C  C24  1  0.46734757  0.97527840  0.05405256  1
  C  C25  1  0.96734757  0.52472160  0.94594744  1
  C  C26  1  0.53265243  0.47527840  0.44594744  1
  C  C27  1  0.03265243  0.02472160  0.55405256  1
  C  C28  1  0.53265243  0.02472160  0.94594744  1
  C  C29  1  0.03265243  0.47527840  0.05405256  1
  C  C30  1  0.46734757  0.52472160  0.55405256  1
  C  C31  1  0.96734757  0.97527840  0.44594744  1
  C  C32  1  0.35442324  0.94194325  0.21644830  1
  C  C33  1  0.85442324  0.55805675  0.78355170  1
  C  C34  1  0.64557676  0.44194325  0.28355170  1
  C  C35  1  0.14557676  0.05805675  0.71644830  1
  C  C36  1  0.64557676  0.05805675  0.78355170  1
  C  C37  1  0.14557676  0.44194325  0.21644830  1
  C  C38  1  0.35442324  0.55805675  0.71644830  1
  C  C39  1  0.85442324  0.94194325  0.28355170  1
  C  C40  1  0.35950145  0.91617617  0.13656350  1
  C  C41  1  0.85950145  0.58382383  0.86343650  1
  C  C42  1  0.64049855  0.41617617  0.36343650  1
  C  C43  1  0.14049855  0.08382383  0.63656350  1
  C  C44  1  0.64049855  0.08382383  0.86343650  1
  C  C45  1  0.14049855  0.41617617  0.13656350  1
  C  C46  1  0.35950145  0.58382383  0.63656350  1
  C  C47  1  0.85950145  0.91617617  0.36343650  1
  C  C48  1  0.51286944  0.91473765  0.18262315  1
  C  C49  1  0.01286944  0.58526235  0.81737685  1
  C  C50  1  0.48713056  0.41473765  0.31737685  1
  C  C51  1  0.98713056  0.08526235  0.68262315  1
  C  C52  1  0.48713056  0.08526235  0.81737685  1
  C  C53  1  0.98713056  0.41473765  0.18262315  1
  C  C54  1  0.51286944  0.58526235  0.68262315  1
  C  C55  1  0.01286944  0.91473765  0.31737685  1
  C  C56  1  0.54595657  0.20625477  0.27015761  1
  C  C57  1  0.04595657  0.29374523  0.72984239  1
  C  C58  1  0.45404343  0.70625477  0.22984239  1
  C  C59  1  0.95404343  0.79374523  0.77015761  1
  C  C60  1  0.45404343  0.79374523  0.72984239  1
  C  C61  1  0.95404343  0.70625477  0.27015761  1
  C  C62  1  0.54595657  0.29374523  0.77015761  1
  C  C63  1  0.04595657  0.20625477  0.22984239  1
  C  C64  1  0.56887584  0.29322021  0.24535413  1
  C  C65  1  0.06887584  0.20677979  0.75464587  1
  C  C66  1  0.43112416  0.79322021  0.25464587  1
  C  C67  1  0.93112416  0.70677979  0.74535413  1
  C  C68  1  0.43112416  0.70677979  0.75464587  1
  C  C69  1  0.93112416  0.79322021  0.24535413  1
  C  C70  1  0.56887584  0.20677979  0.74535413  1
  C  C71  1  0.06887584  0.29322021  0.25464587  1
  C  C72  1  0.40934122  0.26781327  0.27893326  1
  C  C73  1  0.90934122  0.23218673  0.72106674  1
  C  C74  1  0.59065878  0.76781327  0.22106674  1
  C  C75  1  0.09065878  0.73218673  0.77893326  1
  C  C76  1  0.59065878  0.73218673  0.72106674  1
  C  C77  1  0.09065878  0.76781327  0.27893326  1
  C  C78  1  0.40934122  0.23218673  0.77893326  1
  C  C79  1  0.90934122  0.26781327  0.22106674  1
  C  C80  1  0.31615406  0.31251606  0.11504371  1
  C  C81  1  0.81615406  0.18748394  0.88495629  1
  C  C82  1  0.68384594  0.81251606  0.38495629  1
  C  C83  1  0.18384594  0.68748394  0.61504371  1
  C  C84  1  0.68384594  0.68748394  0.88495629  1
  C  C85  1  0.18384594  0.81251606  0.11504371  1
  C  C86  1  0.31615406  0.18748394  0.61504371  1
  C  C87  1  0.81615406  0.31251606  0.38495629  1
  C  C88  1  0.29034702  0.32492126  0.19698473  1
  C  C89  1  0.79034702  0.17507874  0.80301527  1
  C  C90  1  0.70965298  0.82492126  0.30301527  1
  C  C91  1  0.20965298  0.67507874  0.69698473  1
  C  C92  1  0.70965298  0.67507874  0.80301527  1
  C  C93  1  0.20965298  0.82492126  0.19698473  1
  C  C94  1  0.29034702  0.17507874  0.69698473  1
  C  C95  1  0.79034702  0.32492126  0.30301527  1
  C  C96  1  0.44676266  0.35102261  0.16157444  1
  C  C97  1  0.94676266  0.14897739  0.83842556  1
  C  C98  1  0.55323734  0.85102261  0.33842556  1
  C  C99  1  0.05323734  0.64897739  0.66157444  1
  C  C100  1  0.55323734  0.64897739  0.83842556  1
  C  C101  1  0.05323734  0.85102261  0.16157444  1
  C  C102  1  0.44676266  0.14897739  0.66157444  1
  C  C103  1  0.94676266  0.35102261  0.33842556  1
  C  C104  1  0.49717855  0.17482570  0.96938469  1
  C  C105  1  0.99717855  0.32517430  0.03061531  1
  C  C106  1  0.50282145  0.67482570  0.53061531  1
  C  C107  1  0.00282145  0.82517430  0.46938469  1
  C  C108  1  0.50282145  0.82517430  0.03061531  1
  C  C109  1  0.00282145  0.67482570  0.96938469  1
  C  C110  1  0.49717855  0.32517430  0.46938469  1
  C  C111  1  0.99717855  0.17482570  0.53061531  1
  C  C112  1  0.36951263  0.17956935  0.90972633  1
  C  C113  1  0.86951263  0.32043065  0.09027367  1
  C  C114  1  0.63048737  0.67956935  0.59027367  1
  C  C115  1  0.13048737  0.82043065  0.40972633  1
  C  C116  1  0.63048737  0.82043065  0.09027367  1
  C  C117  1  0.13048737  0.67956935  0.90972633  1
  C  C118  1  0.36951263  0.32043065  0.40972633  1
  C  C119  1  0.86951263  0.17956935  0.59027367  1
  C  C120  1  0.37909600  0.24685744  0.96661608  1
  C  C121  1  0.87909600  0.25314256  0.03338392  1
  C  C122  1  0.62090400  0.74685744  0.53338392  1
  C  C123  1  0.12090400  0.75314256  0.46661608  1
  C  C124  1  0.62090400  0.75314256  0.03338392  1
  C  C125  1  0.12090400  0.74685744  0.96661608  1
  C  C126  1  0.37909600  0.25314256  0.46661608  1
  C  C127  1  0.87909600  0.24685744  0.53338392  1
  C  C128  1  0.03872105  0.16684524  0.00054987  1
  C  C129  1  0.53872105  0.33315476  0.99945013  1
  C  C130  1  0.96127895  0.66684524  0.49945013  1
  C  C131  1  0.46127895  0.83315476  0.50054987  1
  C  C132  1  0.96127895  0.83315476  0.99945013  1
  C  C133  1  0.46127895  0.66684524  0.00054987  1
  C  C134  1  0.03872105  0.33315476  0.50054987  1
  C  C135  1  0.53872105  0.16684524  0.49945013  1
  C  C136  1  0.13934035  0.24275805  0.98353539  1
  C  C137  1  0.63934035  0.25724195  0.01646461  1
  C  C138  1  0.86065965  0.74275805  0.51646461  1
  C  C139  1  0.36065965  0.75724195  0.48353539  1
  C  C140  1  0.86065965  0.75724195  0.01646461  1
  C  C141  1  0.36065965  0.74275805  0.98353539  1
  C  C142  1  0.13934035  0.25724195  0.48353539  1
  C  C143  1  0.63934035  0.24275805  0.51646461  1
  C  C144  1  0.11884341  0.17564525  0.92704262  1
  C  C145  1  0.61884341  0.32435475  0.07295738  1
  C  C146  1  0.88115659  0.67564525  0.57295738  1
  C  C147  1  0.38115659  0.82435475  0.42704262  1
  C  C148  1  0.88115659  0.82435475  0.07295738  1
  C  C149  1  0.38115659  0.67564525  0.92704262  1
  C  C150  1  0.11884341  0.32435475  0.42704262  1
  C  C151  1  0.61884341  0.17564525  0.57295738  1
  C  C152  1  0.10024086  0.99206265  0.06992689  1
  C  C153  1  0.60024086  0.50793735  0.93007311  1
  C  C154  1  0.89975914  0.49206265  0.43007311  1
  C  C155  1  0.39975914  0.00793735  0.56992689  1
  C  C156  1  0.89975914  0.00793735  0.93007311  1
  C  C157  1  0.39975914  0.49206265  0.06992689  1
  C  C158  1  0.10024086  0.50793735  0.56992689  1
  C  C159  1  0.60024086  0.99206265  0.43007311  1
  C  C160  1  0.93362788  0.96906789  0.09706456  1
  C  C161  1  0.43362788  0.53093211  0.90293544  1
  C  C162  1  0.06637212  0.46906789  0.40293544  1
  C  C163  1  0.56637212  0.03093211  0.59706456  1
  C  C164  1  0.06637212  0.03093211  0.90293544  1
  C  C165  1  0.56637212  0.46906789  0.09706456  1
  C  C166  1  0.93362788  0.53093211  0.59706456  1
  C  C167  1  0.43362788  0.96906789  0.40293544  1
  C  C168  1  0.95300791  0.04550402  0.05163357  1
  C  C169  1  0.45300791  0.45449598  0.94836643  1
  C  C170  1  0.04699209  0.54550402  0.44836643  1
  C  C171  1  0.54699209  0.95449598  0.55163357  1
  C  C172  1  0.04699209  0.95449598  0.94836643  1
  C  C173  1  0.54699209  0.54550402  0.05163357  1
  C  C174  1  0.95300791  0.45449598  0.55163357  1
  C  C175  1  0.45300791  0.04550402  0.44836643  1
  C  C176  1  0.85207811  0.11825503  0.20500989  1
  C  C177  1  0.35207811  0.38174497  0.79499011  1
  C  C178  1  0.14792189  0.61825503  0.29499011  1
  C  C179  1  0.64792189  0.88174497  0.70500989  1
  C  C180  1  0.14792189  0.88174497  0.79499011  1
  C  C181  1  0.64792189  0.61825503  0.20500989  1
  C  C182  1  0.85207811  0.38174497  0.70500989  1
  C  C183  1  0.35207811  0.11825503  0.29499011  1
  C  C184  1  0.81971509  0.11038287  0.12338082  1
  C  C185  1  0.31971509  0.38961713  0.87661918  1
  C  C186  1  0.18028491  0.61038287  0.37661918  1
  C  C187  1  0.68028491  0.88961713  0.62338082  1
  C  C188  1  0.18028491  0.88961713  0.87661918  1
  C  C189  1  0.68028491  0.61038287  0.12338082  1
  C  C190  1  0.81971509  0.38961713  0.62338082  1
  C  C191  1  0.31971509  0.11038287  0.37661918  1
  C  C192  1  0.79856263  0.03742100  0.17354175  1
  C  C193  1  0.29856263  0.46257900  0.82645825  1
  C  C194  1  0.20143737  0.53742100  0.32645825  1
  C  C195  1  0.70143737  0.96257900  0.67354175  1
  C  C196  1  0.20143737  0.96257900  0.82645825  1
  C  C197  1  0.70143737  0.53742100  0.17354175  1
  C  C198  1  0.79856263  0.46257900  0.67354175  1
  C  C199  1  0.29856263  0.03742100  0.32645825  1
  C  C200  1  0.53983012  0.00412212  0.08198054  1
  C  C201  1  0.03983012  0.49587788  0.91801946  1
  C  C202  1  0.46016988  0.50412212  0.41801946  1
  C  C203  1  0.96016988  0.99587788  0.58198054  1
  C  C204  1  0.46016988  0.99587788  0.91801946  1
  C  C205  1  0.96016988  0.50412212  0.08198054  1
  C  C206  1  0.53983012  0.49587788  0.58198054  1
  C  C207  1  0.03983012  0.00412212  0.41801946  1
  C  C208  1  0.41493783  0.94006135  0.17439380  1
  C  C209  1  0.91493783  0.55993865  0.82560620  1
  C  C210  1  0.58506217  0.44006135  0.32560620  1
  C  C211  1  0.08506217  0.05993865  0.67439380  1
  C  C212  1  0.58506217  0.05993865  0.82560620  1
  C  C213  1  0.08506217  0.44006135  0.17439380  1
  C  C214  1  0.41493783  0.55993865  0.67439380  1
  C  C215  1  0.91493783  0.94006135  0.32560620  1
  C  C216  1  0.49571166  0.25138672  0.25107670  1
  C  C217  1  0.99571166  0.24861328  0.74892330  1
  C  C218  1  0.50428834  0.75138672  0.24892330  1
  C  C219  1  0.00428834  0.74861328  0.75107670  1
  C  C220  1  0.50428834  0.74861328  0.74892330  1
  C  C221  1  0.00428834  0.75138672  0.25107670  1
  C  C222  1  0.49571166  0.24861328  0.75107670  1
  C  C223  1  0.99571166  0.25138672  0.24892330  1
  C  C224  1  0.36297850  0.31386874  0.16049161  1
  C  C225  1  0.86297850  0.18613126  0.83950839  1
  C  C226  1  0.63702150  0.81386874  0.33950839  1
  C  C227  1  0.13702150  0.68613126  0.66049161  1
  C  C228  1  0.63702150  0.68613126  0.83950839  1
  C  C229  1  0.13702150  0.81386874  0.16049161  1
  C  C230  1  0.36297850  0.18613126  0.66049161  1
  C  C231  1  0.86297850  0.31386874  0.33950839  1
  C  C232  1  0.39463342  0.19231714  0.95725861  1
  C  C233  1  0.89463342  0.30768286  0.04274139  1
  C  C234  1  0.60536658  0.69231714  0.54274139  1
  C  C235  1  0.10536658  0.80768286  0.45725861  1
  C  C236  1  0.60536658  0.80768286  0.04274139  1
  C  C237  1  0.10536658  0.69231714  0.95725861  1
  C  C238  1  0.39463342  0.30768286  0.45725861  1
  C  C239  1  0.89463342  0.19231714  0.54274139  1
  C  C240  1  0.12620500  0.18772854  0.97595295  1
  C  C241  1  0.62620500  0.31227146  0.02404705  1
  C  C242  1  0.87379500  0.68772854  0.52404705  1
  C  C243  1  0.37379500  0.81227146  0.47595295  1
  C  C244  1  0.87379500  0.81227146  0.02404705  1
  C  C245  1  0.37379500  0.68772854  0.97595295  1
  C  C246  1  0.12620500  0.31227146  0.47595295  1
  C  C247  1  0.62620500  0.18772854  0.52404705  1
  C  C248  1  0.00163049  0.01160798  0.08506867  1
  C  C249  1  0.50163049  0.48839202  0.91493133  1
  C  C250  1  0.99836951  0.51160798  0.41493133  1
  C  C251  1  0.49836951  0.98839202  0.58506867  1
  C  C252  1  0.99836951  0.98839202  0.91493133  1
  C  C253  1  0.49836951  0.51160798  0.08506867  1
  C  C254  1  0.00163049  0.48839202  0.58506867  1
  C  C255  1  0.50163049  0.01160798  0.41493133  1
  C  C256  1  0.85542187  0.08473293  0.16498371  1
  C  C257  1  0.35542187  0.41526707  0.83501629  1
  C  C258  1  0.14457813  0.58473293  0.33501629  1
  C  C259  1  0.64457813  0.91526707  0.66498371  1
  C  C260  1  0.14457813  0.91526707  0.83501629  1
  C  C261  1  0.64457813  0.58473293  0.16498371  1
  C  C262  1  0.85542187  0.41526707  0.66498371  1
  C  C263  1  0.35542187  0.08473293  0.33501629  1
  C  C264  1  0.45658540  0.02467305  0.15179614  1
  C  C265  1  0.95658540  0.47532695  0.84820386  1
  C  C266  1  0.54341460  0.52467305  0.34820386  1
  C  C267  1  0.04341460  0.97532695  0.65179614  1
  C  C268  1  0.54341460  0.97532695  0.84820386  1
  C  C269  1  0.04341460  0.52467305  0.15179614  1
  C  C270  1  0.45658540  0.47532695  0.65179614  1
  C  C271  1  0.95658540  0.02467305  0.34820386  1
  C  C272  1  0.44004228  0.23304919  0.17550736  1
  C  C273  1  0.94004228  0.26695081  0.82449264  1
  C  C274  1  0.55995772  0.73304919  0.32449264  1
  C  C275  1  0.05995772  0.76695081  0.67550736  1
  C  C276  1  0.55995772  0.76695081  0.82449264  1
  C  C277  1  0.05995772  0.73304919  0.17550736  1
  C  C278  1  0.44004228  0.26695081  0.67550736  1
  C  C279  1  0.94004228  0.23304919  0.32449264  1
  C  C280  1  0.27609931  0.14562749  0.00192294  1
  C  C281  1  0.77609931  0.35437251  0.99807706  1
  C  C282  1  0.72390069  0.64562749  0.49807706  1
  C  C283  1  0.22390069  0.85437251  0.50192294  1
  C  C284  1  0.72390069  0.85437251  0.99807706  1
  C  C285  1  0.22390069  0.64562749  0.00192294  1
  C  C286  1  0.27609931  0.35437251  0.50192294  1
  C  C287  1  0.77609931  0.14562749  0.49807706  1
  C  C288  1  0.02648160  0.05793221  0.15445008  1
  C  C289  1  0.52648160  0.44206779  0.84554992  1
  C  C290  1  0.97351840  0.55793221  0.34554992  1
  C  C291  1  0.47351840  0.94206779  0.65445008  1
  C  C292  1  0.97351840  0.94206779  0.84554992  1
  C  C293  1  0.47351840  0.55793221  0.15445008  1
  C  C294  1  0.02648160  0.44206779  0.65445008  1
  C  C295  1  0.52648160  0.05793221  0.34554992  1
  Ni  Ni296  1  0.77932090  0.88826039  0.17617417  1
  Ni  Ni297  1  0.27932090  0.61173961  0.82382583  1
  Ni  Ni298  1  0.22067910  0.38826039  0.32382583  1
  Ni  Ni299  1  0.72067910  0.11173961  0.67617417  1
  Ni  Ni300  1  0.22067910  0.11173961  0.82382583  1
  Ni  Ni301  1  0.72067910  0.38826039  0.17617417  1
  Ni  Ni302  1  0.77932090  0.61173961  0.67617417  1
  Ni  Ni303  1  0.27932090  0.88826039  0.32382583  1
  Ni  Ni304  1  0.74573730  0.12404085  0.99424687  1
  Ni  Ni305  1  0.24573730  0.37595915  0.00575313  1
  Ni  Ni306  1  0.25426270  0.62404085  0.50575313  1
  Ni  Ni307  1  0.75426270  0.87595915  0.49424687  1
  Ni  Ni308  1  0.25426270  0.87595915  0.00575313  1
  Ni  Ni309  1  0.75426270  0.62404085  0.99424687  1
  Ni  Ni310  1  0.74573730  0.37595915  0.49424687  1
  Ni  Ni311  1  0.24573730  0.12404085  0.50575313  1
  Cu  Cu312  1  0.31808529  0.05452219  0.13261031  1
  Cu  Cu313  1  0.81808529  0.44547781  0.86738969  1
  Cu  Cu314  1  0.68191471  0.55452219  0.36738969  1
  Cu  Cu315  1  0.18191471  0.94547781  0.63261031  1
  Cu  Cu316  1  0.68191471  0.94547781  0.86738969  1
  Cu  Cu317  1  0.18191471  0.55452219  0.13261031  1
  Cu  Cu318  1  0.31808529  0.44547781  0.63261031  1
  Cu  Cu319  1  0.81808529  0.05452219  0.36738969  1
  Cu  Cu320  1  0.32232809  0.18126727  0.18543386  1
  Cu  Cu321  1  0.82232809  0.31873273  0.81456614  1
  Cu  Cu322  1  0.67767191  0.68126727  0.31456614  1
  Cu  Cu323  1  0.17767191  0.81873273  0.68543386  1
  Cu  Cu324  1  0.67767191  0.81873273  0.81456614  1
  Cu  Cu325  1  0.17767191  0.68126727  0.18543386  1
  Cu  Cu326  1  0.32232809  0.31873273  0.68543386  1
  Cu  Cu327  1  0.82232809  0.18126727  0.31456614  1
  Cu  Cu328  1  0.30148739  0.17273451  0.06748222  1
  Cu  Cu329  1  0.80148739  0.32726549  0.93251778  1
  Cu  Cu330  1  0.69851261  0.67273451  0.43251778  1
  Cu  Cu331  1  0.19851261  0.82726549  0.56748222  1
  Cu  Cu332  1  0.69851261  0.82726549  0.93251778  1
  Cu  Cu333  1  0.19851261  0.67273451  0.06748222  1
  Cu  Cu334  1  0.30148739  0.32726549  0.56748222  1
  Cu  Cu335  1  0.80148739  0.17273451  0.43251778  1
  Cu  Cu336  1  0.09887864  0.12566756  0.13702133  1
  Cu  Cu337  1  0.59887864  0.37433244  0.86297867  1
  Cu  Cu338  1  0.90112136  0.62566756  0.36297867  1
  Cu  Cu339  1  0.40112136  0.87433244  0.63702133  1
  Cu  Cu340  1  0.90112136  0.87433244  0.86297867  1
  Cu  Cu341  1  0.40112136  0.62566756  0.13702133  1
  Cu  Cu342  1  0.09887864  0.37433244  0.63702133  1
  Cu  Cu343  1  0.59887864  0.12566756  0.36297867  1
