# generated using pymatgen
data_Cu2NiC30
_symmetry_space_group_name_H-M   'P 1'
_cell_length_a   6.77183505
_cell_length_b   10.93069934
_cell_length_c   12.58262800
_cell_angle_alpha   90.00000000
_cell_angle_beta   90.00000000
_cell_angle_gamma   114.95168006
_symmetry_Int_Tables_number   1
_chemical_formula_structural   Cu2NiC30
_chemical_formula_sum   'Cu4 Ni2 C60'
_cell_volume   844.44620725
_cell_formula_units_Z   2
loop_
 _symmetry_equiv_pos_site_id
 _symmetry_equiv_pos_as_xyz
  1  'x, y, z'
loop_
 _atom_site_type_symbol
 _atom_site_label
 _atom_site_symmetry_multiplicity
 _atom_site_fract_x
 _atom_site_fract_y
 _atom_site_fract_z
 _atom_site_occupancy
  C  C0  1  0.10360600  0.20805000  0.71850000  1
  C  C1  1  0.89639400  0.79195000  0.28150000  1
  C  C2  1  0.58165500  0.16719700  0.97639100  1
  C  C3  1  0.58165500  0.66719700  0.52360900  1
  C  C4  1  0.89639400  0.29195000  0.21850000  1
  C  C5  1  0.10360600  0.70805000  0.78150000  1
  C  C6  1  0.41834500  0.33280300  0.47639100  1
  C  C7  1  0.41834500  0.83280300  0.02360900  1
  Ni  Ni8  1  0.00000000  0.50000000  0.00000000  1
  Ni  Ni9  1  0.00000000  0.00000000  0.50000000  1
  C  C10  1  0.97724200  0.98767200  0.12982100  1
  C  C11  1  0.97724200  0.48767200  0.37017900  1
  C  C12  1  0.02275800  0.51232800  0.62982100  1
  C  C13  1  0.04680200  0.83840100  0.61884400  1
  C  C14  1  0.02275800  0.01232800  0.87017900  1
  C  C15  1  0.21141800  0.70529500  0.44670000  1
  C  C16  1  0.21141800  0.20529500  0.05330000  1
  C  C17  1  0.28375000  0.24954600  0.93841800  1
  C  C18  1  0.95319800  0.66159900  0.11884400  1
  C  C19  1  0.04680200  0.33840100  0.88115600  1
  C  C20  1  0.93865400  0.95431500  0.75422400  1
  C  C21  1  0.28375000  0.74954600  0.56158200  1
  C  C22  1  0.95319800  0.16159900  0.38115600  1
  C  C23  1  0.78858200  0.29470500  0.55330000  1
  C  C24  1  0.78858200  0.79470500  0.94670000  1
  C  C25  1  0.71625000  0.25045400  0.43841800  1
  C  C26  1  0.06134600  0.04568500  0.24577600  1
  C  C27  1  0.71625000  0.75045400  0.06158200  1
  C  C28  1  0.93865400  0.45431500  0.74577600  1
  C  C29  1  0.06134600  0.54568500  0.25422400  1
  Cu  Cu30  1  0.49104400  0.00328800  0.72045100  1
  Cu  Cu31  1  0.50895600  0.99671200  0.27954900  1
  Cu  Cu32  1  0.49104400  0.50328800  0.77954900  1
  Cu  Cu33  1  0.50895600  0.49671200  0.22045100  1
  C  C34  1  0.32641700  0.35534300  0.83678900  1
  C  C35  1  0.10172100  0.39808400  0.08300800  1
  C  C36  1  0.67744700  0.89318700  0.44521000  1
  C  C37  1  0.67358300  0.64465700  0.16321100  1
  C  C38  1  0.23704200  0.16976400  0.98632100  1
  C  C39  1  0.89827900  0.60191600  0.91699200  1
  C  C40  1  0.40370000  0.48821500  0.65220600  1
  C  C41  1  0.23704200  0.66976400  0.51367900  1
  C  C42  1  0.34468100  0.11482500  0.66983900  1
  C  C43  1  0.65531900  0.88517500  0.33016100  1
  C  C44  1  0.59630000  0.51178500  0.34779400  1
  C  C45  1  0.91636000  0.00444800  0.81458500  1
  C  C46  1  0.59630000  0.01178500  0.15220600  1
  C  C47  1  0.08364000  0.99555200  0.18541500  1
  C  C48  1  0.76295800  0.83023600  0.01367900  1
  C  C49  1  0.34468100  0.61482500  0.83016100  1
  C  C50  1  0.67358300  0.14465700  0.33678900  1
  C  C51  1  0.76295800  0.33023600  0.48632100  1
  C  C52  1  0.91351400  0.35488300  0.88334800  1
  C  C53  1  0.10172100  0.89808400  0.41699200  1
  C  C54  1  0.32641700  0.85534300  0.66321100  1
  C  C55  1  0.32255300  0.10681300  0.55479000  1
  C  C56  1  0.08648600  0.64511700  0.11665200  1
  C  C57  1  0.08648600  0.14511700  0.38334800  1
  C  C58  1  0.40370000  0.98821500  0.84779400  1
  C  C59  1  0.08364000  0.49555200  0.31458500  1
  C  C60  1  0.91351400  0.85488300  0.61665200  1
  C  C61  1  0.67744700  0.39318700  0.05479000  1
  C  C62  1  0.65531900  0.38517500  0.16983900  1
  C  C63  1  0.91636000  0.50444800  0.68541500  1
  C  C64  1  0.89827900  0.10191600  0.58300800  1
  C  C65  1  0.32255300  0.60681300  0.94521000  1
