# generated using pymatgen
data_Cu4(NiC4)3
_symmetry_space_group_name_H-M   'P 1'
_cell_length_a   6.27032703
_cell_length_b   6.27032703
_cell_length_c   6.27032703
_cell_angle_alpha   109.47122063
_cell_angle_beta   109.47122063
_cell_angle_gamma   109.47122063
_symmetry_Int_Tables_number   1
_chemical_formula_structural   Cu4(NiC4)3
_chemical_formula_sum   'Cu4 Ni3 C12'
_cell_volume   189.77923257
_cell_formula_units_Z   1
loop_
 _symmetry_equiv_pos_site_id
 _symmetry_equiv_pos_as_xyz
  1  'x, y, z'
loop_
 _atom_site_type_symbol
 _atom_site_label
 _atom_site_symmetry_multiplicity
 _atom_site_fract_x
 _atom_site_fract_y
 _atom_site_fract_z
 _atom_site_occupancy
  Ni  Ni0  1  0.50000000  0.50000000  0.00000000  1
  Ni  Ni1  1  0.50000000  0.00000000  0.50000000  1
  Ni  Ni2  1  0.00000000  0.50000000  0.50000000  1
  Cu  Cu3  1  0.00000000  0.00000000  0.50000000  1
  Cu  Cu4  1  0.00000000  0.50000000  0.00000000  1
  Cu  Cu5  1  0.50000000  0.50000000  0.50000000  1
  Cu  Cu6  1  0.50000000  0.00000000  0.00000000  1
  C  C7  1  0.31339300  0.81620500  0.12959700  1
  C  C8  1  0.68660700  0.18379500  0.87040300  1
  C  C9  1  0.68660700  0.81620500  0.50281200  1
  C  C10  1  0.87040300  0.68660700  0.18379500  1
  C  C11  1  0.81620500  0.12959700  0.31339300  1
  C  C12  1  0.18379500  0.49718800  0.31339300  1
  C  C13  1  0.49718800  0.31339300  0.18379500  1
  C  C14  1  0.18379500  0.87040300  0.68660700  1
  C  C15  1  0.31339300  0.18379500  0.49718800  1
  C  C16  1  0.12959700  0.31339300  0.81620500  1
  C  C17  1  0.81620500  0.50281200  0.68660700  1
  C  C18  1  0.50281200  0.68660700  0.81620500  1
