# generated using pymatgen
data_Cu3(Ni2C)5
_symmetry_space_group_name_H-M   'P 1'
_cell_length_a   9.29891833
_cell_length_b   9.29891833
_cell_length_c   9.29891833
_cell_angle_alpha   109.47122063
_cell_angle_beta   109.47122063
_cell_angle_gamma   109.47122063
_symmetry_Int_Tables_number   1
_chemical_formula_structural   Cu3(Ni2C)5
_chemical_formula_sum   'Cu12 Ni40 C20'
_cell_volume   618.97827921
_cell_formula_units_Z   4
loop_
 _symmetry_equiv_pos_site_id
 _symmetry_equiv_pos_as_xyz
  1  'x, y, z'
loop_
 _atom_site_type_symbol
 _atom_site_label
 _atom_site_symmetry_multiplicity
 _atom_site_fract_x
 _atom_site_fract_y
 _atom_site_fract_z
 _atom_site_occupancy
  C  C0  1  0.53687700  0.75000000  0.28687700  1
  C  C1  1  0.25000000  0.21312300  0.96312300  1
  C  C2  1  0.28687700  0.53687700  0.75000000  1
  C  C3  1  0.96312300  0.25000000  0.21312300  1
  C  C4  1  0.75000000  0.28687700  0.53687700  1
  C  C5  1  0.21312300  0.96312300  0.25000000  1
  C  C6  1  0.77363800  0.75000000  0.52363800  1
  C  C7  1  0.25000000  0.97636200  0.72636200  1
  C  C8  1  0.52363800  0.77363800  0.75000000  1
  C  C9  1  0.72636200  0.25000000  0.97636200  1
  C  C10  1  0.75000000  0.52363800  0.77363800  1
  C  C11  1  0.97636200  0.72636200  0.25000000  1
  C  C12  1  0.96314600  0.50000000  0.00000000  1
  C  C13  1  0.00000000  0.96314600  0.50000000  1
  C  C14  1  0.50000000  0.00000000  0.96314600  1
  C  C15  1  0.53685400  0.53685400  0.53685400  1
  C  C16  1  0.23050100  0.50000000  0.00000000  1
  C  C17  1  0.00000000  0.23050100  0.50000000  1
  C  C18  1  0.50000000  0.00000000  0.23050100  1
  C  C19  1  0.26949900  0.26949900  0.26949900  1
  Ni  Ni20  1  0.58590900  0.59120500  0.88904000  1
  Ni  Ni21  1  0.69686800  0.61096000  0.20216500  1
  Ni  Ni22  1  0.49470400  0.29783500  0.90879500  1
  Ni  Ni23  1  0.20216500  0.69686800  0.61096000  1
  Ni  Ni24  1  0.90879500  0.49470400  0.29783500  1
  Ni  Ni25  1  0.88904000  0.58590900  0.59120500  1
  Ni  Ni26  1  0.29783500  0.90879500  0.49470400  1
  Ni  Ni27  1  0.59120500  0.88904000  0.58590900  1
  Ni  Ni28  1  0.61096000  0.20216500  0.69686800  1
  Ni  Ni29  1  0.91409100  0.80313200  0.00529600  1
  Ni  Ni30  1  0.80313200  0.00529600  0.91409100  1
  Ni  Ni31  1  0.00529600  0.91409100  0.80313200  1
  Ni  Ni32  1  0.44235900  0.41433100  0.70054000  1
  Ni  Ni33  1  0.74181800  0.79946000  0.21379000  1
  Ni  Ni34  1  0.52802800  0.28621000  0.08566900  1
  Ni  Ni35  1  0.21379000  0.74181800  0.79946000  1
  Ni  Ni36  1  0.08566900  0.52802800  0.28621000  1
  Ni  Ni37  1  0.70054000  0.44235900  0.41433100  1
  Ni  Ni38  1  0.28621000  0.08566900  0.52802800  1
  Ni  Ni39  1  0.41433100  0.70054000  0.44235900  1
  Ni  Ni40  1  0.79946000  0.21379000  0.74181800  1
  Ni  Ni41  1  0.05764100  0.75818200  0.97197200  1
  Ni  Ni42  1  0.75818200  0.97197200  0.05764100  1
  Ni  Ni43  1  0.97197200  0.05764100  0.75818200  1
  Ni  Ni44  1  0.15635200  0.53066400  0.88678400  1
  Ni  Ni45  1  0.26956900  0.61321600  0.14388000  1
  Ni  Ni46  1  0.12568900  0.35612000  0.96933600  1
  Ni  Ni47  1  0.14388000  0.26956900  0.61321600  1
  Ni  Ni48  1  0.96933600  0.12568900  0.35612000  1
  Ni  Ni49  1  0.88678400  0.15635200  0.53066400  1
  Ni  Ni50  1  0.35612000  0.96933600  0.12568900  1
  Ni  Ni51  1  0.53066400  0.88678400  0.15635200  1
  Ni  Ni52  1  0.61321600  0.14388000  0.26956900  1
  Ni  Ni53  1  0.34364800  0.23043100  0.37431100  1
  Ni  Ni54  1  0.23043100  0.37431100  0.34364800  1
  Ni  Ni55  1  0.37431100  0.34364800  0.23043100  1
  Ni  Ni56  1  0.36284300  0.50000000  0.00000000  1
  Ni  Ni57  1  0.00000000  0.36284300  0.50000000  1
  Ni  Ni58  1  0.50000000  0.00000000  0.36284300  1
  Ni  Ni59  1  0.13715700  0.13715700  0.13715700  1
  Cu  Cu60  1  0.52057700  0.54817400  0.75658500  1
  Cu  Cu61  1  0.76399200  0.74341500  0.29158900  1
  Cu  Cu62  1  0.47240300  0.20841100  0.95182600  1
  Cu  Cu63  1  0.29158900  0.76399200  0.74341500  1
  Cu  Cu64  1  0.95182600  0.47240300  0.20841100  1
  Cu  Cu65  1  0.75658500  0.52057700  0.54817400  1
  Cu  Cu66  1  0.20841100  0.95182600  0.47240300  1
  Cu  Cu67  1  0.54817400  0.75658500  0.52057700  1
  Cu  Cu68  1  0.74341500  0.29158900  0.76399200  1
  Cu  Cu69  1  0.97942300  0.73600800  0.02759700  1
  Cu  Cu70  1  0.73600800  0.02759700  0.97942300  1
  Cu  Cu71  1  0.02759700  0.97942300  0.73600800  1
