# generated using pymatgen
data_CuNi7C32
_symmetry_space_group_name_H-M   'P 1'
_cell_length_a   7.69613610
_cell_length_b   7.69613610
_cell_length_c   7.71022000
_cell_angle_alpha   90.00000000
_cell_angle_beta   90.00000000
_cell_angle_gamma   90.01116017
_symmetry_Int_Tables_number   1
_chemical_formula_structural   CuNi7C32
_chemical_formula_sum   'Cu1 Ni7 C32'
_cell_volume   456.68026095
_cell_formula_units_Z   1
loop_
 _symmetry_equiv_pos_site_id
 _symmetry_equiv_pos_as_xyz
  1  'x, y, z'
loop_
 _atom_site_type_symbol
 _atom_site_label
 _atom_site_symmetry_multiplicity
 _atom_site_fract_x
 _atom_site_fract_y
 _atom_site_fract_z
 _atom_site_occupancy
  C  C0  1  0.24955800  0.75044200  0.75131200  1
  C  C1  1  0.75058000  0.75058000  0.75119300  1
  C  C2  1  0.75065700  0.75065700  0.24882400  1
  C  C3  1  0.24942000  0.24942000  0.75119300  1
  C  C4  1  0.75044200  0.24955800  0.75131200  1
  C  C5  1  0.24934300  0.24934300  0.24882400  1
  C  C6  1  0.24932900  0.75067100  0.24823400  1
  C  C7  1  0.75067100  0.24932900  0.24823400  1
  Ni  Ni8  1  0.50000000  0.00000000  0.00112500  1
  Ni  Ni9  1  0.00000000  0.00000000  0.49875500  1
  Ni  Ni10  1  0.50000000  0.00000000  0.49900100  1
  Ni  Ni11  1  0.00000000  0.50000000  0.00112500  1
  Ni  Ni12  1  0.50000000  0.50000000  0.00074400  1
  Ni  Ni13  1  0.00000000  0.50000000  0.49900100  1
  Ni  Ni14  1  0.50000000  0.50000000  0.49854600  1
  Cu  Cu15  1  0.00000000  0.00000000  0.00074700  1
  C  C16  1  0.00249500  0.74610600  0.00320100  1
  C  C17  1  0.49806500  0.74818500  0.00315700  1
  C  C18  1  0.00240400  0.74690800  0.49694200  1
  C  C19  1  0.49892100  0.74992900  0.49721700  1
  C  C20  1  0.99750500  0.25389400  0.00320100  1
  C  C21  1  0.50193500  0.25181500  0.00315700  1
  C  C22  1  0.99759600  0.25309200  0.49694200  1
  C  C23  1  0.50107900  0.25007100  0.49721700  1
  C  C24  1  0.00000000  0.00000000  0.74550800  1
  C  C25  1  0.50000000  0.00000000  0.74720600  1
  C  C26  1  0.00000000  0.00000000  0.25363000  1
  C  C27  1  0.50000000  0.00000000  0.25270000  1
  C  C28  1  0.00000000  0.50000000  0.74720600  1
  C  C29  1  0.50000000  0.50000000  0.75532800  1
  C  C30  1  0.00000000  0.50000000  0.25270000  1
  C  C31  1  0.50000000  0.50000000  0.24548700  1
  C  C32  1  0.25389400  0.99750500  0.00320100  1
  C  C33  1  0.74610600  0.00249500  0.00320100  1
  C  C34  1  0.25309200  0.99759600  0.49694200  1
  C  C35  1  0.74690800  0.00240400  0.49694200  1
  C  C36  1  0.25181500  0.50193500  0.00315700  1
  C  C37  1  0.74818500  0.49806500  0.00315700  1
  C  C38  1  0.25007100  0.50107900  0.49721700  1
  C  C39  1  0.74992900  0.49892100  0.49721700  1
