# generated using pymatgen
data_Cu10Ni3C
_symmetry_space_group_name_H-M   'P 1'
_cell_length_a   13.65692800
_cell_length_b   5.93910600
_cell_length_c   10.66637733
_cell_angle_alpha   76.10325901
_cell_angle_beta   90.00000000
_cell_angle_gamma   90.00000000
_symmetry_Int_Tables_number   1
_chemical_formula_structural   Cu10Ni3C
_chemical_formula_sum   'Cu40 Ni12 C4'
_cell_volume   839.82646323
_cell_formula_units_Z   4
loop_
 _symmetry_equiv_pos_site_id
 _symmetry_equiv_pos_as_xyz
  1  'x, y, z'
loop_
 _atom_site_type_symbol
 _atom_site_label
 _atom_site_symmetry_multiplicity
 _atom_site_fract_x
 _atom_site_fract_y
 _atom_site_fract_z
 _atom_site_occupancy
  C  C0  1  0.48342700  0.92276400  0.74566700  1
  C  C1  1  0.98342700  0.57723600  0.25433300  1
  C  C2  1  0.51657300  0.07723600  0.25433300  1
  C  C3  1  0.01657300  0.42276400  0.74566700  1
  Ni  Ni4  1  0.37690500  0.68857500  0.92497400  1
  Ni  Ni5  1  0.87690500  0.81142500  0.07502600  1
  Ni  Ni6  1  0.62309500  0.31142500  0.07502600  1
  Ni  Ni7  1  0.12309500  0.18857500  0.92497400  1
  Ni  Ni8  1  0.64038200  0.15442400  0.72937700  1
  Ni  Ni9  1  0.14038200  0.34557600  0.27062300  1
  Ni  Ni10  1  0.35961800  0.84557600  0.27062300  1
  Ni  Ni11  1  0.85961800  0.65442400  0.72937700  1
  Ni  Ni12  1  0.37027700  0.26448600  0.65368200  1
  Ni  Ni13  1  0.87027700  0.23551400  0.34631800  1
  Ni  Ni14  1  0.62972300  0.73551400  0.34631800  1
  Ni  Ni15  1  0.12972300  0.76448600  0.65368200  1
  Cu  Cu16  1  0.34619400  0.76614000  0.80753400  1
  Cu  Cu17  1  0.84619400  0.73386000  0.19246600  1
  Cu  Cu18  1  0.65380600  0.23386000  0.19246600  1
  Cu  Cu19  1  0.15380600  0.26614000  0.80753400  1
  Cu  Cu20  1  0.46681200  0.76038500  0.93705800  1
  Cu  Cu21  1  0.96681200  0.73961500  0.06294200  1
  Cu  Cu22  1  0.53318800  0.23961500  0.06294200  1
  Cu  Cu23  1  0.03318800  0.26038500  0.93705800  1
  Cu  Cu24  1  0.33088500  0.56808300  0.01170600  1
  Cu  Cu25  1  0.83088500  0.93191700  0.98829400  1
  Cu  Cu26  1  0.66911500  0.43191700  0.98829400  1
  Cu  Cu27  1  0.16911500  0.06808300  0.01170600  1
  Cu  Cu28  1  0.58088800  0.16605400  0.63328100  1
  Cu  Cu29  1  0.08088800  0.33394600  0.36671900  1
  Cu  Cu30  1  0.41911200  0.83394600  0.36671900  1
  Cu  Cu31  1  0.91911200  0.66605400  0.63328100  1
  Cu  Cu32  1  0.60609500  0.01025700  0.83370700  1
  Cu  Cu33  1  0.10609500  0.48974300  0.16629300  1
  Cu  Cu34  1  0.39390500  0.98974300  0.16629300  1
  Cu  Cu35  1  0.89390500  0.51025700  0.83370700  1
  Cu  Cu36  1  0.71594400  0.25878600  0.72565200  1
  Cu  Cu37  1  0.21594400  0.24121400  0.27434800  1
  Cu  Cu38  1  0.28405600  0.74121400  0.27434800  1
  Cu  Cu39  1  0.78405600  0.75878600  0.72565200  1
  Cu  Cu40  1  0.40664200  0.24620100  0.76675800  1
  Cu  Cu41  1  0.90664200  0.25379900  0.23324200  1
  Cu  Cu42  1  0.59335800  0.75379900  0.23324200  1
  Cu  Cu43  1  0.09335800  0.74620100  0.76675800  1
  Cu  Cu44  1  0.39717900  0.08917500  0.60239000  1
  Cu  Cu45  1  0.89717900  0.41082500  0.39761000  1
  Cu  Cu46  1  0.60282100  0.91082500  0.39761000  1
  Cu  Cu47  1  0.10282100  0.58917500  0.60239000  1
  Cu  Cu48  1  0.31825800  0.41754100  0.59533100  1
  Cu  Cu49  1  0.81825800  0.08245900  0.40466900  1
  Cu  Cu50  1  0.68174200  0.58245900  0.40466900  1
  Cu  Cu51  1  0.18174200  0.91754100  0.59533100  1
  Cu  Cu52  1  0.51920000  0.71279900  0.68692300  1
  Cu  Cu53  1  0.01920000  0.78720100  0.31307700  1
  Cu  Cu54  1  0.48080000  0.28720100  0.31307700  1
  Cu  Cu55  1  0.98080000  0.21279900  0.68692300  1
