# generated using pymatgen
data_Cu19NiC16
_symmetry_space_group_name_H-M   'P 1'
_cell_length_a   3.60744900
_cell_length_b   10.19555194
_cell_length_c   11.74567707
_cell_angle_alpha   89.51565264
_cell_angle_beta   90.00000000
_cell_angle_gamma   90.00000000
_symmetry_Int_Tables_number   1
_chemical_formula_structural   Cu19NiC16
_chemical_formula_sum   'Cu19 Ni1 C16'
_cell_volume   431.98978775
_cell_formula_units_Z   1
loop_
 _symmetry_equiv_pos_site_id
 _symmetry_equiv_pos_as_xyz
  1  'x, y, z'
loop_
 _atom_site_type_symbol
 _atom_site_label
 _atom_site_symmetry_multiplicity
 _atom_site_fract_x
 _atom_site_fract_y
 _atom_site_fract_z
 _atom_site_occupancy
  C  C0  1  0.25000000  0.57788900  0.70374400  1
  C  C1  1  0.25000000  0.91868400  0.20801700  1
  C  C2  1  0.75000000  0.42187800  0.29570200  1
  C  C3  1  0.75000000  0.08504700  0.79118800  1
  Ni  Ni4  1  0.25000000  0.70404100  0.98942000  1
  Cu  Cu5  1  0.25000000  0.21891900  0.17831200  1
  Cu  Cu6  1  0.25000000  0.27795600  0.67446800  1
  Cu  Cu7  1  0.75000000  0.78444000  0.81859900  1
  Cu  Cu8  1  0.75000000  0.72078100  0.33041700  1
  Cu  Cu9  1  0.25000000  0.87682200  0.69857700  1
  Cu  Cu10  1  0.25000000  0.62041700  0.20417200  1
  Cu  Cu11  1  0.75000000  0.12466400  0.29928900  1
  Cu  Cu12  1  0.75000000  0.37484100  0.79835900  1
  Cu  Cu13  1  0.25000000  0.40604200  0.48976000  1
  Cu  Cu14  1  0.25000000  0.09791500  0.98954100  1
  Cu  Cu15  1  0.75000000  0.59154200  0.51220500  1
  Cu  Cu16  1  0.75000000  0.90982200  0.00956500  1
  Cu  Cu17  1  0.25000000  0.45744500  0.93281800  1
  Cu  Cu18  1  0.25000000  0.03795500  0.43168600  1
  Cu  Cu19  1  0.75000000  0.53114700  0.06780400  1
  Cu  Cu20  1  0.75000000  0.96314600  0.56740400  1
  Cu  Cu21  1  0.25000000  0.79189800  0.48988000  1
  Cu  Cu22  1  0.75000000  0.29276800  0.01103800  1
  Cu  Cu23  1  0.75000000  0.20726400  0.51128200  1
  C  C24  1  0.25000000  0.42175200  0.11735200  1
  C  C25  1  0.25000000  0.07956100  0.61329000  1
  C  C26  1  0.75000000  0.57021700  0.87885200  1
  C  C27  1  0.75000000  0.92156900  0.38577800  1
  C  C28  1  0.25000000  0.26129200  0.86579800  1
  C  C29  1  0.25000000  0.24005300  0.37124600  1
  C  C30  1  0.75000000  0.73513200  0.14300400  1
  C  C31  1  0.75000000  0.75986600  0.62585500  1
  C  C32  1  0.25000000  0.59874100  0.39373200  1
  C  C33  1  0.25000000  0.91905800  0.88715000  1
  C  C34  1  0.75000000  0.39880700  0.60793200  1
  C  C35  1  0.75000000  0.10063200  0.10676300  1
