# generated using pymatgen
data_Cu2NiC6
_symmetry_space_group_name_H-M   'P 1'
_cell_length_a   8.79457240
_cell_length_b   8.79457240
_cell_length_c   8.79457240
_cell_angle_alpha   126.28914881
_cell_angle_beta   126.28914881
_cell_angle_gamma   79.41342297
_symmetry_Int_Tables_number   1
_chemical_formula_structural   Cu2NiC6
_chemical_formula_sum   'Cu4 Ni2 C12'
_cell_volume   427.16185452
_cell_formula_units_Z   2
loop_
 _symmetry_equiv_pos_site_id
 _symmetry_equiv_pos_as_xyz
  1  'x, y, z'
loop_
 _atom_site_type_symbol
 _atom_site_label
 _atom_site_symmetry_multiplicity
 _atom_site_fract_x
 _atom_site_fract_y
 _atom_site_fract_z
 _atom_site_occupancy
  Ni  Ni0  1  0.75000000  0.75000000  0.00000000  1
  Ni  Ni1  1  0.25000000  0.25000000  0.00000000  1
  Cu  Cu2  1  0.83807700  0.66192300  0.50000000  1
  Cu  Cu3  1  0.66192300  0.16192300  0.82384600  1
  Cu  Cu4  1  0.33807700  0.83807700  0.17615400  1
  Cu  Cu5  1  0.16192300  0.33807700  0.50000000  1
  C  C6  1  0.25000000  0.75000000  0.50000000  1
  C  C7  1  0.75000000  0.25000000  0.50000000  1
  C  C8  1  0.98853600  0.48853600  0.20458000  1
  C  C9  1  0.71604400  0.21604400  0.20458000  1
  C  C10  1  0.01146400  0.51146400  0.79542000  1
  C  C11  1  0.51146400  0.71604400  0.50000000  1
  C  C12  1  0.21604400  0.01146400  0.50000000  1
  C  C13  1  0.48853600  0.28395600  0.50000000  1
  C  C14  1  0.78395600  0.98853600  0.50000000  1
  C  C15  1  0.28395600  0.78395600  0.79542000  1
  C  C16  1  0.00000000  0.00000000  0.00000000  1
  C  C17  1  0.50000000  0.50000000  0.00000000  1
