# generated using pymatgen
data_Cu(NiC10)2
_symmetry_space_group_name_H-M   'P 1'
_cell_length_a   6.70666420
_cell_length_b   6.70666420
_cell_length_c   16.91689806
_cell_angle_alpha   76.33202666
_cell_angle_beta   76.33202666
_cell_angle_gamma   73.05832095
_symmetry_Int_Tables_number   1
_chemical_formula_structural   Cu(NiC10)2
_chemical_formula_sum   'Cu1 Ni2 C20'
_cell_volume   695.70614853
_cell_formula_units_Z   1
loop_
 _symmetry_equiv_pos_site_id
 _symmetry_equiv_pos_as_xyz
  1  'x, y, z'
loop_
 _atom_site_type_symbol
 _atom_site_label
 _atom_site_symmetry_multiplicity
 _atom_site_fract_x
 _atom_site_fract_y
 _atom_site_fract_z
 _atom_site_occupancy
  Ni  Ni0  1  0.44469100  0.44469100  0.24631700  1
  Ni  Ni1  1  0.55530900  0.55530900  0.75368300  1
  Cu  Cu2  1  0.00000000  0.00000000  0.00000000  1
  C  C3  1  0.26360200  0.26360200  0.23683400  1
  C  C4  1  0.73639800  0.73639800  0.76316600  1
  C  C5  1  0.68890700  0.32596900  0.19372300  1
  C  C6  1  0.32596900  0.68890700  0.19372300  1
  C  C7  1  0.31109300  0.67403100  0.80627700  1
  C  C8  1  0.67403100  0.31109300  0.80627700  1
  C  C9  1  0.23350800  0.09403900  0.52844700  1
  C  C10  1  0.09403900  0.23350800  0.52844700  1
  C  C11  1  0.76649200  0.90596100  0.47155300  1
  C  C12  1  0.90596100  0.76649200  0.47155300  1
  C  C13  1  0.92463500  0.92463500  0.14404100  1
  C  C14  1  0.07536500  0.07536500  0.85595900  1
  C  C15  1  0.46120100  0.46120100  0.37731000  1
  C  C16  1  0.53879900  0.53879900  0.62269000  1
  C  C17  1  0.20996500  0.20996500  0.00473400  1
  C  C18  1  0.79003500  0.79003500  0.99526600  1
  C  C19  1  0.71345600  0.28654400  0.00000000  1
  C  C20  1  0.28654400  0.71345600  0.00000000  1
  C  C21  1  0.14690600  0.14690600  0.32691300  1
  C  C22  1  0.85309400  0.85309400  0.67308700  1
