# generated using pymatgen
data_Cu12Ni2C
_symmetry_space_group_name_H-M   'P 1'
_cell_length_a   5.35960700
_cell_length_b   9.35462900
_cell_length_c   17.75692600
_cell_angle_alpha   90.00000000
_cell_angle_beta   90.00000000
_cell_angle_gamma   90.00000000
_symmetry_Int_Tables_number   1
_chemical_formula_structural   Cu12Ni2C
_chemical_formula_sum   'Cu48 Ni8 C4'
_cell_volume   890.28139730
_cell_formula_units_Z   4
loop_
 _symmetry_equiv_pos_site_id
 _symmetry_equiv_pos_as_xyz
  1  'x, y, z'
loop_
 _atom_site_type_symbol
 _atom_site_label
 _atom_site_symmetry_multiplicity
 _atom_site_fract_x
 _atom_site_fract_y
 _atom_site_fract_z
 _atom_site_occupancy
  C  C0  1  0.00000000  0.00000000  0.50000000  1
  C  C1  1  0.50000000  0.50000000  0.00000000  1
  C  C2  1  0.00000000  0.00000000  0.00000000  1
  C  C3  1  0.50000000  0.50000000  0.50000000  1
  Ni  Ni4  1  0.28950100  0.24093100  0.59149500  1
  Ni  Ni5  1  0.21049900  0.74093100  0.90850500  1
  Ni  Ni6  1  0.71049900  0.75906900  0.09149500  1
  Ni  Ni7  1  0.78950100  0.25906900  0.40850500  1
  Ni  Ni8  1  0.71049900  0.75906900  0.40850500  1
  Ni  Ni9  1  0.78950100  0.25906900  0.09149500  1
  Ni  Ni10  1  0.28950100  0.24093100  0.90850500  1
  Ni  Ni11  1  0.21049900  0.74093100  0.59149500  1
  Cu  Cu12  1  0.51577400  0.23516000  0.63859000  1
  Cu  Cu13  1  0.98422600  0.73516000  0.86141000  1
  Cu  Cu14  1  0.48422600  0.76484000  0.13859000  1
  Cu  Cu15  1  0.01577400  0.26484000  0.36141000  1
  Cu  Cu16  1  0.48422600  0.76484000  0.36141000  1
  Cu  Cu17  1  0.01577400  0.26484000  0.13859000  1
  Cu  Cu18  1  0.51577400  0.23516000  0.86141000  1
  Cu  Cu19  1  0.98422600  0.73516000  0.63859000  1
  Cu  Cu20  1  0.23172200  0.09090700  0.56477900  1
  Cu  Cu21  1  0.26827800  0.59090700  0.93522100  1
  Cu  Cu22  1  0.76827800  0.90909300  0.06477900  1
  Cu  Cu23  1  0.73172200  0.40909300  0.43522100  1
  Cu  Cu24  1  0.76827800  0.90909300  0.43522100  1
  Cu  Cu25  1  0.73172200  0.40909300  0.06477900  1
  Cu  Cu26  1  0.23172200  0.09090700  0.93522100  1
  Cu  Cu27  1  0.26827800  0.59090700  0.56477900  1
  Cu  Cu28  1  0.08175100  0.30049600  0.63456100  1
  Cu  Cu29  1  0.41824900  0.80049600  0.86543900  1
  Cu  Cu30  1  0.91824900  0.69950400  0.13456100  1
  Cu  Cu31  1  0.58175100  0.19950400  0.36543900  1
  Cu  Cu32  1  0.91824900  0.69950400  0.36543900  1
  Cu  Cu33  1  0.58175100  0.19950400  0.13456100  1
  Cu  Cu34  1  0.08175100  0.30049600  0.86543900  1
  Cu  Cu35  1  0.41824900  0.80049600  0.63456100  1
  Cu  Cu36  1  0.34129800  0.32449200  0.52046400  1
  Cu  Cu37  1  0.15870200  0.82449200  0.97953600  1
  Cu  Cu38  1  0.65870200  0.67550800  0.02046400  1
  Cu  Cu39  1  0.84129800  0.17550800  0.47953600  1
  Cu  Cu40  1  0.65870200  0.67550800  0.47953600  1
  Cu  Cu41  1  0.84129800  0.17550800  0.02046400  1
  Cu  Cu42  1  0.34129800  0.32449200  0.97953600  1
  Cu  Cu43  1  0.15870200  0.82449200  0.52046400  1
  Cu  Cu44  1  0.79979400  0.98351600  0.58897600  1
  Cu  Cu45  1  0.70020600  0.48351600  0.91102400  1
  Cu  Cu46  1  0.20020600  0.01648400  0.08897600  1
  Cu  Cu47  1  0.29979400  0.51648400  0.41102400  1
  Cu  Cu48  1  0.20020600  0.01648400  0.41102400  1
  Cu  Cu49  1  0.29979400  0.51648400  0.08897600  1
  Cu  Cu50  1  0.79979400  0.98351600  0.91102400  1
  Cu  Cu51  1  0.70020600  0.48351600  0.58897600  1
  Cu  Cu52  1  0.94407500  0.08124300  0.75000000  1
  Cu  Cu53  1  0.55592500  0.58124300  0.75000000  1
  Cu  Cu54  1  0.05592500  0.91875700  0.25000000  1
  Cu  Cu55  1  0.44407500  0.41875700  0.25000000  1
  Cu  Cu56  1  0.57607800  0.45332700  0.75000000  1
  Cu  Cu57  1  0.92392200  0.95332700  0.75000000  1
  Cu  Cu58  1  0.42392200  0.54667300  0.25000000  1
  Cu  Cu59  1  0.07607800  0.04667300  0.25000000  1
