# generated using pymatgen
data_Cu2NiC
_symmetry_space_group_name_H-M   'P 1'
_cell_length_a   5.93788700
_cell_length_b   7.02920900
_cell_length_c   7.57181100
_cell_angle_alpha   90.00000000
_cell_angle_beta   90.00000000
_cell_angle_gamma   90.00000000
_symmetry_Int_Tables_number   1
_chemical_formula_structural   Cu2NiC
_chemical_formula_sum   'Cu8 Ni4 C4'
_cell_volume   316.03715967
_cell_formula_units_Z   4
loop_
 _symmetry_equiv_pos_site_id
 _symmetry_equiv_pos_as_xyz
  1  'x, y, z'
loop_
 _atom_site_type_symbol
 _atom_site_label
 _atom_site_symmetry_multiplicity
 _atom_site_fract_x
 _atom_site_fract_y
 _atom_site_fract_z
 _atom_site_occupancy
  C  C0  1  0.34105300  0.75000000  0.03258300  1
  C  C1  1  0.15894700  0.75000000  0.53258300  1
  C  C2  1  0.65894700  0.25000000  0.96741700  1
  C  C3  1  0.84105300  0.25000000  0.46741700  1
  Ni  Ni4  1  0.65736400  0.75000000  0.38281500  1
  Ni  Ni5  1  0.84263600  0.75000000  0.88281500  1
  Ni  Ni6  1  0.34263600  0.25000000  0.61718500  1
  Ni  Ni7  1  0.15736400  0.25000000  0.11718500  1
  Cu  Cu8  1  0.91454900  0.54997400  0.17936900  1
  Cu  Cu9  1  0.58545100  0.95002600  0.67936900  1
  Cu  Cu10  1  0.08545100  0.04997400  0.82063100  1
  Cu  Cu11  1  0.41454900  0.45002600  0.32063100  1
  Cu  Cu12  1  0.08545100  0.45002600  0.82063100  1
  Cu  Cu13  1  0.41454900  0.04997400  0.32063100  1
  Cu  Cu14  1  0.91454900  0.95002600  0.17936900  1
  Cu  Cu15  1  0.58545100  0.54997400  0.67936900  1
