# generated using pymatgen
data_Cu(NiC)2
_symmetry_space_group_name_H-M   'P 1'
_cell_length_a   3.74348500
_cell_length_b   3.74348500
_cell_length_c   15.14611000
_cell_angle_alpha   90.00000000
_cell_angle_beta   90.00000000
_cell_angle_gamma   90.00000000
_symmetry_Int_Tables_number   1
_chemical_formula_structural   Cu(NiC)2
_chemical_formula_sum   'Cu1 Ni2 C2'
_cell_volume   212.25273796
_cell_formula_units_Z   1
loop_
 _symmetry_equiv_pos_site_id
 _symmetry_equiv_pos_as_xyz
  1  'x, y, z'
loop_
 _atom_site_type_symbol
 _atom_site_label
 _atom_site_symmetry_multiplicity
 _atom_site_fract_x
 _atom_site_fract_y
 _atom_site_fract_z
 _atom_site_occupancy
  C  C0  1  0.50000000  0.50000000  0.13589500  1
  C  C1  1  0.50000000  0.50000000  0.86410500  1
  Ni  Ni2  1  0.50000000  0.50000000  0.67321400  1
  Ni  Ni3  1  0.50000000  0.50000000  0.32678600  1
  Cu  Cu4  1  0.50000000  0.50000000  0.00000000  1
