# generated using pymatgen
data_CuNi12
_symmetry_space_group_name_H-M   'P 1'
_cell_length_a   5.22895605
_cell_length_b   5.22895605
_cell_length_c   5.22895583
_cell_angle_alpha   64.64423120
_cell_angle_beta   64.64423120
_cell_angle_gamma   64.64423757
_symmetry_Int_Tables_number   1
_chemical_formula_structural   CuNi12
_chemical_formula_sum   'Cu1 Ni12'
_cell_volume   111.37946217
_cell_formula_units_Z   1
loop_
 _symmetry_equiv_pos_site_id
 _symmetry_equiv_pos_as_xyz
  1  'x, y, z'
loop_
 _atom_site_type_symbol
 _atom_site_label
 _atom_site_symmetry_multiplicity
 _atom_site_fract_x
 _atom_site_fract_y
 _atom_site_fract_z
 _atom_site_occupancy
  Ni  Ni0  1  0.82809100  0.50398800  0.50398800  1
  Ni  Ni1  1  0.50398800  0.50398800  0.82809100  1
  Ni  Ni2  1  0.50398800  0.82809100  0.50398800  1
  Ni  Ni3  1  0.16621200  0.49470400  0.49470400  1
  Ni  Ni4  1  0.49470400  0.49470400  0.16621200  1
  Ni  Ni5  1  0.49470400  0.16621200  0.49470400  1
  Ni  Ni6  1  0.82094000  0.30059100  0.30059100  1
  Ni  Ni7  1  0.30059100  0.30059100  0.82094000  1
  Ni  Ni8  1  0.30059100  0.82094000  0.30059100  1
  Ni  Ni9  1  0.20094900  0.68619900  0.68619900  1
  Ni  Ni10  1  0.68619900  0.68619900  0.20094900  1
  Ni  Ni11  1  0.68619900  0.20094900  0.68619900  1
  Cu  Cu12  1  0.91364500  0.91364500  0.91364500  1
