# generated using pymatgen
data_Cu4Ni7C3
_symmetry_space_group_name_H-M   'P 1'
_cell_length_a   10.11606590
_cell_length_b   10.11606590
_cell_length_c   19.95836336
_cell_angle_alpha   83.74728448
_cell_angle_beta   83.74728448
_cell_angle_gamma   58.19903083
_symmetry_Int_Tables_number   1
_chemical_formula_structural   Cu4Ni7C3
_chemical_formula_sum   'Cu16 Ni28 C12'
_cell_volume   1722.29471026
_cell_formula_units_Z   4
loop_
 _symmetry_equiv_pos_site_id
 _symmetry_equiv_pos_as_xyz
  1  'x, y, z'
loop_
 _atom_site_type_symbol
 _atom_site_label
 _atom_site_symmetry_multiplicity
 _atom_site_fract_x
 _atom_site_fract_y
 _atom_site_fract_z
 _atom_site_occupancy
  C  C0  1  0.10008200  0.40772900  0.40002700  1
  C  C1  1  0.59227100  0.89991800  0.09997300  1
  C  C2  1  0.89991800  0.59227100  0.59997300  1
  C  C3  1  0.40772900  0.10008200  0.90002700  1
  C  C4  1  0.79563200  0.71492100  0.44888600  1
  C  C5  1  0.28507900  0.20436800  0.05111400  1
  C  C6  1  0.20436800  0.28507900  0.55111400  1
  C  C7  1  0.71492100  0.79563200  0.94888600  1
  C  C8  1  0.18125800  0.64704400  0.48522600  1
  C  C9  1  0.35295600  0.81874200  0.01477400  1
  C  C10  1  0.81874200  0.35295600  0.51477400  1
  C  C11  1  0.64704400  0.18125800  0.98522600  1
  Ni  Ni12  1  0.34718100  0.35704300  0.45204800  1
  Ni  Ni13  1  0.64295700  0.65281900  0.04795200  1
  Ni  Ni14  1  0.65281900  0.64295700  0.54795200  1
  Ni  Ni15  1  0.35704300  0.34718100  0.95204800  1
  Ni  Ni16  1  0.02668400  0.69173600  0.37403900  1
  Ni  Ni17  1  0.30826400  0.97331600  0.12596100  1
  Ni  Ni18  1  0.97331600  0.30826400  0.62596100  1
  Ni  Ni19  1  0.69173600  0.02668400  0.87403900  1
  Ni  Ni20  1  0.15700200  0.15643300  0.46326000  1
  Ni  Ni21  1  0.84356700  0.84299800  0.03674000  1
  Ni  Ni22  1  0.84299800  0.84356700  0.53674000  1
  Ni  Ni23  1  0.15643300  0.15700200  0.96326000  1
  Ni  Ni24  1  0.82326200  0.51329100  0.37613300  1
  Ni  Ni25  1  0.48670900  0.17673800  0.12386700  1
  Ni  Ni26  1  0.17673800  0.48670900  0.62386700  1
  Ni  Ni27  1  0.51329100  0.82326200  0.87613300  1
  Ni  Ni28  1  0.30642100  0.77609700  0.41191700  1
  Ni  Ni29  1  0.22390300  0.69357900  0.08808300  1
  Ni  Ni30  1  0.69357900  0.22390300  0.58808300  1
  Ni  Ni31  1  0.77609700  0.30642100  0.91191700  1
  Ni  Ni32  1  0.21671400  0.31313800  0.29483000  1
  Ni  Ni33  1  0.68686200  0.78328600  0.20517000  1
  Ni  Ni34  1  0.78328600  0.68686200  0.70517000  1
  Ni  Ni35  1  0.31313800  0.21671400  0.79483000  1
  Ni  Ni36  1  0.58014300  0.92958300  0.39826000  1
  Ni  Ni37  1  0.07041700  0.41985700  0.10174000  1
  Ni  Ni38  1  0.41985700  0.07041700  0.60174000  1
  Ni  Ni39  1  0.92958300  0.58014300  0.89826000  1
  Cu  Cu40  1  0.66963400  0.18866900  0.30874600  1
  Cu  Cu41  1  0.81133100  0.33036600  0.19125400  1
  Cu  Cu42  1  0.33036600  0.81133100  0.69125400  1
  Cu  Cu43  1  0.18866900  0.66963400  0.80874600  1
  Cu  Cu44  1  0.79821900  0.11920400  0.33290300  1
  Cu  Cu45  1  0.88079600  0.20178100  0.16709700  1
  Cu  Cu46  1  0.20178100  0.88079600  0.66709700  1
  Cu  Cu47  1  0.11920400  0.79821900  0.83290300  1
  Cu  Cu48  1  0.32271400  0.77510000  0.33291600  1
  Cu  Cu49  1  0.22490000  0.67728600  0.16708400  1
  Cu  Cu50  1  0.67728600  0.22490000  0.66708400  1
  Cu  Cu51  1  0.77510000  0.32271400  0.83291600  1
  Cu  Cu52  1  0.73778300  0.22372000  0.03978900  1
  Cu  Cu53  1  0.77628000  0.26221700  0.46021100  1
  Cu  Cu54  1  0.26221700  0.77628000  0.96021100  1
  Cu  Cu55  1  0.22372000  0.73778300  0.53978900  1
