# generated using pymatgen
data_Cu12Ni3C
_symmetry_space_group_name_H-M   'P 1'
_cell_length_a   9.51194388
_cell_length_b   9.51194388
_cell_length_c   5.76854200
_cell_angle_alpha   90.00000000
_cell_angle_beta   90.00000000
_cell_angle_gamma   119.99999914
_symmetry_Int_Tables_number   1
_chemical_formula_structural   Cu12Ni3C
_chemical_formula_sum   'Cu24 Ni6 C2'
_cell_volume   451.99668819
_cell_formula_units_Z   2
loop_
 _symmetry_equiv_pos_site_id
 _symmetry_equiv_pos_as_xyz
  1  'x, y, z'
loop_
 _atom_site_type_symbol
 _atom_site_label
 _atom_site_symmetry_multiplicity
 _atom_site_fract_x
 _atom_site_fract_y
 _atom_site_fract_z
 _atom_site_occupancy
  C  C0  1  0.33333300  0.66666700  0.75000000  1
  C  C1  1  0.66666700  0.33333300  0.25000000  1
  Ni  Ni2  1  0.90922400  0.29751400  0.75000000  1
  Ni  Ni3  1  0.09077600  0.70248600  0.25000000  1
  Ni  Ni4  1  0.38828900  0.09077600  0.75000000  1
  Ni  Ni5  1  0.61171100  0.90922400  0.25000000  1
  Ni  Ni6  1  0.70248600  0.61171100  0.75000000  1
  Ni  Ni7  1  0.29751400  0.38828900  0.25000000  1
  Cu  Cu8  1  0.85580000  0.35046100  0.95464900  1
  Cu  Cu9  1  0.14420000  0.64953900  0.04535100  1
  Cu  Cu10  1  0.49466100  0.14420000  0.95464900  1
  Cu  Cu11  1  0.14420000  0.64953900  0.45464900  1
  Cu  Cu12  1  0.50533900  0.85580000  0.04535100  1
  Cu  Cu13  1  0.85580000  0.35046100  0.54535100  1
  Cu  Cu14  1  0.64953900  0.50533900  0.95464900  1
  Cu  Cu15  1  0.50533900  0.85580000  0.45464900  1
  Cu  Cu16  1  0.35046100  0.49466100  0.04535100  1
  Cu  Cu17  1  0.49466100  0.14420000  0.54535100  1
  Cu  Cu18  1  0.35046100  0.49466100  0.45464900  1
  Cu  Cu19  1  0.64953900  0.50533900  0.54535100  1
  Cu  Cu20  1  0.84701600  0.12690800  0.75000000  1
  Cu  Cu21  1  0.15298400  0.87309200  0.25000000  1
  Cu  Cu22  1  0.27989200  0.15298400  0.75000000  1
  Cu  Cu23  1  0.72010800  0.84701600  0.25000000  1
  Cu  Cu24  1  0.87309200  0.72010800  0.75000000  1
  Cu  Cu25  1  0.12690800  0.27989200  0.25000000  1
  Cu  Cu26  1  0.61580500  0.70254900  0.75000000  1
  Cu  Cu27  1  0.38419500  0.29745100  0.25000000  1
  Cu  Cu28  1  0.08674400  0.38419500  0.75000000  1
  Cu  Cu29  1  0.91325600  0.61580500  0.25000000  1
  Cu  Cu30  1  0.29745100  0.91325600  0.75000000  1
  Cu  Cu31  1  0.70254900  0.08674400  0.25000000  1
