# generated using pymatgen
data_CuNi2C9
_symmetry_space_group_name_H-M   'P 1'
_cell_length_a   8.83535660
_cell_length_b   8.83535660
_cell_length_c   8.32081182
_cell_angle_alpha   65.19185594
_cell_angle_beta   65.19185594
_cell_angle_gamma   34.45114651
_symmetry_Int_Tables_number   1
_chemical_formula_structural   CuNi2C9
_chemical_formula_sum   'Cu2 Ni4 C18'
_cell_volume   330.10125282
_cell_formula_units_Z   2
loop_
 _symmetry_equiv_pos_site_id
 _symmetry_equiv_pos_as_xyz
  1  'x, y, z'
loop_
 _atom_site_type_symbol
 _atom_site_label
 _atom_site_symmetry_multiplicity
 _atom_site_fract_x
 _atom_site_fract_y
 _atom_site_fract_z
 _atom_site_occupancy
  C  C0  1  0.00000000  0.50000000  0.50000000  1
  C  C1  1  0.50000000  0.00000000  0.00000000  1
  Ni  Ni2  1  0.61746800  0.09476800  0.25809400  1
  Ni  Ni3  1  0.90523200  0.38253200  0.24190600  1
  Ni  Ni4  1  0.38253200  0.90523200  0.74190600  1
  Ni  Ni5  1  0.09476800  0.61746800  0.75809400  1
  Cu  Cu6  1  0.67296800  0.32703200  0.75000000  1
  Cu  Cu7  1  0.32703200  0.67296800  0.25000000  1
  C  C8  1  0.37388100  0.29119600  0.39967200  1
  C  C9  1  0.70880400  0.62611900  0.10032800  1
  C  C10  1  0.62611900  0.70880400  0.60032800  1
  C  C11  1  0.29119600  0.37388100  0.89967200  1
  C  C12  1  0.66271600  0.23691400  0.11268200  1
  C  C13  1  0.76308600  0.33728400  0.38731800  1
  C  C14  1  0.33728400  0.76308600  0.88731800  1
  C  C15  1  0.23691400  0.66271600  0.61268200  1
  C  C16  1  0.87286800  0.82985000  0.35361300  1
  C  C17  1  0.17015000  0.12713200  0.14638700  1
  C  C18  1  0.12713200  0.17015000  0.64638700  1
  C  C19  1  0.82985000  0.87286800  0.85361300  1
  C  C20  1  0.55257300  0.01931800  0.18638200  1
  C  C21  1  0.98068200  0.44742700  0.31361800  1
  C  C22  1  0.44742700  0.98068200  0.81361800  1
  C  C23  1  0.01931800  0.55257300  0.68638200  1
