# generated using pymatgen
data_CuNi6C
_symmetry_space_group_name_H-M   'P 1'
_cell_length_a   4.82968200
_cell_length_b   6.06616500
_cell_length_c   11.08539000
_cell_angle_alpha   90.00000000
_cell_angle_beta   90.00000000
_cell_angle_gamma   90.00000000
_symmetry_Int_Tables_number   1
_chemical_formula_structural   CuNi6C
_chemical_formula_sum   'Cu2 Ni12 C2'
_cell_volume   324.77585316
_cell_formula_units_Z   2
loop_
 _symmetry_equiv_pos_site_id
 _symmetry_equiv_pos_as_xyz
  1  'x, y, z'
loop_
 _atom_site_type_symbol
 _atom_site_label
 _atom_site_symmetry_multiplicity
 _atom_site_fract_x
 _atom_site_fract_y
 _atom_site_fract_z
 _atom_site_occupancy
  Ni  Ni0  1  0.00000000  0.25694800  0.07672200  1
  Ni  Ni1  1  0.00000000  0.74305200  0.07672200  1
  Ni  Ni2  1  0.00000000  0.00000000  0.33189600  1
  Ni  Ni3  1  0.50000000  0.73989800  0.42025200  1
  Ni  Ni4  1  0.50000000  0.26010200  0.42025200  1
  Ni  Ni5  1  0.50000000  0.00000000  0.17202900  1
  Ni  Ni6  1  0.00000000  0.75694800  0.57672200  1
  Ni  Ni7  1  0.00000000  0.24305200  0.57672200  1
  Ni  Ni8  1  0.00000000  0.50000000  0.83189600  1
  Ni  Ni9  1  0.50000000  0.23989800  0.92025200  1
  Ni  Ni10  1  0.50000000  0.76010200  0.92025200  1
  Ni  Ni11  1  0.50000000  0.50000000  0.67202900  1
  C  C12  1  0.00000000  0.50000000  0.30921600  1
  C  C13  1  0.00000000  0.00000000  0.80921600  1
  Cu  Cu14  1  0.50000000  0.50000000  0.19291100  1
  Cu  Cu15  1  0.50000000  0.00000000  0.69291100  1
