# generated using pymatgen
data_Cu8NiC31
_symmetry_space_group_name_H-M   'P 1'
_cell_length_a   7.51279340
_cell_length_b   7.51279340
_cell_length_c   7.51279317
_cell_angle_alpha   79.55827528
_cell_angle_beta   79.55827528
_cell_angle_gamma   79.55827642
_symmetry_Int_Tables_number   1
_chemical_formula_structural   Cu8NiC31
_chemical_formula_sum   'Cu8 Ni1 C31'
_cell_volume   405.25370371
_cell_formula_units_Z   1
loop_
 _symmetry_equiv_pos_site_id
 _symmetry_equiv_pos_as_xyz
  1  'x, y, z'
loop_
 _atom_site_type_symbol
 _atom_site_label
 _atom_site_symmetry_multiplicity
 _atom_site_fract_x
 _atom_site_fract_y
 _atom_site_fract_z
 _atom_site_occupancy
  C  C0  1  0.00000000  0.00000000  0.00000000  1
  C  C1  1  0.44549100  0.00000000  0.55450900  1
  C  C2  1  0.94789100  0.50000000  0.05210900  1
  C  C3  1  0.00000000  0.55450900  0.44549100  1
  C  C4  1  0.50000000  0.05210900  0.94789100  1
  C  C5  1  0.05210900  0.94789100  0.50000000  1
  C  C6  1  0.55450900  0.44549100  0.00000000  1
  Ni  Ni7  1  0.50000000  0.50000000  0.50000000  1
  Cu  Cu8  1  0.25403200  0.25403200  0.25403200  1
  Cu  Cu9  1  0.74596800  0.74596800  0.74596800  1
  Cu  Cu10  1  0.80544800  0.25375300  0.69523300  1
  Cu  Cu11  1  0.30476700  0.74624700  0.19455200  1
  Cu  Cu12  1  0.25375300  0.69523300  0.80544800  1
  Cu  Cu13  1  0.74624700  0.19455200  0.30476700  1
  Cu  Cu14  1  0.69523300  0.80544800  0.25375300  1
  Cu  Cu15  1  0.19455200  0.30476700  0.74624700  1
  C  C16  1  0.66199700  0.25399300  0.84152700  1
  C  C17  1  0.15847300  0.74600700  0.33800300  1
  C  C18  1  0.25399300  0.84152700  0.66199700  1
  C  C19  1  0.74600700  0.33800300  0.15847300  1
  C  C20  1  0.84152700  0.66199700  0.25399300  1
  C  C21  1  0.33800300  0.15847300  0.74600700  1
  C  C22  1  0.93205000  0.09647100  0.69295800  1
  C  C23  1  0.43623300  0.59270900  0.19001500  1
  C  C24  1  0.09647100  0.69295800  0.93205000  1
  C  C25  1  0.59270900  0.19001500  0.43623300  1
  C  C26  1  0.69295800  0.93205000  0.09647100  1
  C  C27  1  0.19001500  0.43623300  0.59270900  1
  C  C28  1  0.80998500  0.40729100  0.56376700  1
  C  C29  1  0.30704200  0.90352900  0.06795000  1
  C  C30  1  0.56376700  0.80998500  0.40729100  1
  C  C31  1  0.06795000  0.30704200  0.90352900  1
  C  C32  1  0.40729100  0.56376700  0.80998500  1
  C  C33  1  0.90352900  0.06795000  0.30704200  1
  C  C34  1  0.39612800  0.25468100  0.10638000  1
  C  C35  1  0.89362000  0.74531900  0.60387200  1
  C  C36  1  0.25468100  0.10638000  0.39612800  1
  C  C37  1  0.74531900  0.60387200  0.89362000  1
  C  C38  1  0.10638000  0.39612800  0.25468100  1
  C  C39  1  0.60387200  0.89362000  0.74531900  1
