# generated using pymatgen
data_CuNiC5
_symmetry_space_group_name_H-M   'P 1'
_cell_length_a   11.76043300
_cell_length_b   7.05951700
_cell_length_c   12.45260100
_cell_angle_alpha   90.00000000
_cell_angle_beta   90.00000000
_cell_angle_gamma   90.00000000
_symmetry_Int_Tables_number   1
_chemical_formula_structural   CuNiC5
_chemical_formula_sum   'Cu8 Ni8 C40'
_cell_volume   1033.85200256
_cell_formula_units_Z   8
loop_
 _symmetry_equiv_pos_site_id
 _symmetry_equiv_pos_as_xyz
  1  'x, y, z'
loop_
 _atom_site_type_symbol
 _atom_site_label
 _atom_site_symmetry_multiplicity
 _atom_site_fract_x
 _atom_site_fract_y
 _atom_site_fract_z
 _atom_site_occupancy
  Ni  Ni0  1  0.09438300  0.90500600  0.68440800  1
  Ni  Ni1  1  0.90561700  0.09499400  0.18440800  1
  Ni  Ni2  1  0.40561700  0.90500600  0.18440800  1
  Ni  Ni3  1  0.59438300  0.09499400  0.68440800  1
  Ni  Ni4  1  0.11338100  0.39057000  0.33702100  1
  Ni  Ni5  1  0.88661900  0.60943000  0.83702100  1
  Ni  Ni6  1  0.38661900  0.39057000  0.83702100  1
  Ni  Ni7  1  0.61338100  0.60943000  0.33702100  1
  Cu  Cu8  1  0.16182600  0.63001000  0.95058300  1
  Cu  Cu9  1  0.83817400  0.36999000  0.45058300  1
  Cu  Cu10  1  0.33817400  0.63001000  0.45058300  1
  Cu  Cu11  1  0.66182600  0.36999000  0.95058300  1
  Cu  Cu12  1  0.15544100  0.13016500  0.96090100  1
  Cu  Cu13  1  0.84455900  0.86983500  0.46090200  1
  Cu  Cu14  1  0.34455900  0.13016500  0.46090200  1
  Cu  Cu15  1  0.65544100  0.86983500  0.96090100  1
  C  C16  1  0.10816900  0.37041200  0.68461300  1
  C  C17  1  0.89183100  0.62958800  0.18461300  1
  C  C18  1  0.39183100  0.37041200  0.18461300  1
  C  C19  1  0.60816900  0.62958800  0.68461300  1
  C  C20  1  0.12727800  0.88960900  0.30773700  1
  C  C21  1  0.87272200  0.11039100  0.80773700  1
  C  C22  1  0.37272200  0.88960900  0.80773700  1
  C  C23  1  0.62727800  0.11039100  0.30773700  1
  C  C24  1  0.03126000  0.87616400  0.88869400  1
  C  C25  1  0.96874000  0.12383600  0.38869400  1
  C  C26  1  0.46874000  0.87616400  0.38869400  1
  C  C27  1  0.53126000  0.12383600  0.88869400  1
  C  C28  1  0.02727400  0.36990500  0.14916500  1
  C  C29  1  0.97272600  0.63009500  0.64916500  1
  C  C30  1  0.47272600  0.36990500  0.64916500  1
  C  C31  1  0.52727400  0.63009500  0.14916500  1
  C  C32  1  0.03549500  0.38452600  0.89439200  1
  C  C33  1  0.96450500  0.61547400  0.39439200  1
  C  C34  1  0.46450500  0.38452600  0.39439200  1
  C  C35  1  0.53549500  0.61547400  0.89439200  1
  C  C36  1  0.03730000  0.84815600  0.14381800  1
  C  C37  1  0.96270000  0.15184400  0.64381800  1
  C  C38  1  0.46270000  0.84815600  0.64381800  1
  C  C39  1  0.53730000  0.15184400  0.14381800  1
  C  C40  1  0.21492600  0.88268100  0.51054000  1
  C  C41  1  0.78507400  0.11731900  0.01054000  1
  C  C42  1  0.28507400  0.88268100  0.01054000  1
  C  C43  1  0.71492600  0.11731900  0.51054000  1
  C  C44  1  0.22161500  0.37608000  0.51951200  1
  C  C45  1  0.77838500  0.62392000  0.01951200  1
  C  C46  1  0.27838400  0.37608000  0.01951200  1
  C  C47  1  0.72161500  0.62392000  0.51951200  1
  C  C48  1  0.23760400  0.13111900  0.78660600  1
  C  C49  1  0.76239600  0.86888100  0.28660600  1
  C  C50  1  0.26239600  0.13111900  0.28660600  1
  C  C51  1  0.73760400  0.86888100  0.78660600  1
  C  C52  1  0.24196800  0.63267000  0.77900900  1
  C  C53  1  0.75803200  0.36733000  0.27900900  1
  C  C54  1  0.25803200  0.63267000  0.27900900  1
  C  C55  1  0.74196800  0.36733000  0.77900900  1
