# generated using pymatgen
data_Cu4(NiC)3
_symmetry_space_group_name_H-M   'P 1'
_cell_length_a   5.17628890
_cell_length_b   5.17628890
_cell_length_c   22.66351908
_cell_angle_alpha   83.70153818
_cell_angle_beta   83.70153818
_cell_angle_gamma   88.76816496
_symmetry_Int_Tables_number   1
_chemical_formula_structural   Cu4(NiC)3
_chemical_formula_sum   'Cu16 Ni12 C12'
_cell_volume   599.90939641
_cell_formula_units_Z   4
loop_
 _symmetry_equiv_pos_site_id
 _symmetry_equiv_pos_as_xyz
  1  'x, y, z'
loop_
 _atom_site_type_symbol
 _atom_site_label
 _atom_site_symmetry_multiplicity
 _atom_site_fract_x
 _atom_site_fract_y
 _atom_site_fract_z
 _atom_site_occupancy
  Ni  Ni0  1  0.49517600  0.67038700  0.56684700  1
  Ni  Ni1  1  0.32961300  0.50482400  0.93315300  1
  Ni  Ni2  1  0.50482400  0.32961300  0.43315300  1
  Ni  Ni3  1  0.67038700  0.49517600  0.06684700  1
  Ni  Ni4  1  0.67955000  0.30397900  0.62586100  1
  Ni  Ni5  1  0.69602100  0.32045000  0.87413900  1
  Ni  Ni6  1  0.32045000  0.69602100  0.37413900  1
  Ni  Ni7  1  0.30397900  0.67955000  0.12586100  1
  Ni  Ni8  1  0.72526000  0.94776500  0.70372100  1
  Ni  Ni9  1  0.05223500  0.27474000  0.79627900  1
  Ni  Ni10  1  0.27474000  0.05223500  0.29627900  1
  Ni  Ni11  1  0.94776500  0.72526000  0.20372100  1
  Cu  Cu12  1  0.73535700  0.72655700  0.53291400  1
  Cu  Cu13  1  0.27344300  0.26464300  0.96708600  1
  Cu  Cu14  1  0.26464300  0.27344300  0.46708600  1
  Cu  Cu15  1  0.72655700  0.73535700  0.03291400  1
  Cu  Cu16  1  0.48536600  0.46975800  0.60992400  1
  Cu  Cu17  1  0.53024200  0.51463400  0.89007600  1
  Cu  Cu18  1  0.51463400  0.53024200  0.39007600  1
  Cu  Cu19  1  0.46975800  0.48536600  0.10992400  1
  Cu  Cu20  1  0.59863700  0.13811100  0.67497300  1
  Cu  Cu21  1  0.86188900  0.40136300  0.82502700  1
  Cu  Cu22  1  0.40136300  0.86188900  0.32502700  1
  Cu  Cu23  1  0.13811100  0.59863700  0.17497300  1
  Cu  Cu24  1  0.95184100  0.83730100  0.68159300  1
  Cu  Cu25  1  0.16269900  0.04815900  0.81840700  1
  Cu  Cu26  1  0.04815900  0.16269900  0.31840700  1
  Cu  Cu27  1  0.83730100  0.95184100  0.18159300  1
  C  C28  1  0.30746000  0.81675800  0.55417800  1
  C  C29  1  0.18324200  0.69254000  0.94582200  1
  C  C30  1  0.69254000  0.18324200  0.44582200  1
  C  C31  1  0.81675800  0.30746000  0.05417800  1
  C  C32  1  0.90413900  0.30191500  0.59938700  1
  C  C33  1  0.69808500  0.09586100  0.90061300  1
  C  C34  1  0.09586100  0.69808500  0.40061300  1
  C  C35  1  0.30191500  0.90413900  0.09938700  1
  C  C36  1  0.64923800  0.83494600  0.75541200  1
  C  C37  1  0.16505400  0.35076200  0.74458800  1
  C  C38  1  0.35076200  0.16505400  0.24458800  1
  C  C39  1  0.83494600  0.64923800  0.25541200  1
