# generated using pymatgen
data_Cu3Ni2C15
_symmetry_space_group_name_H-M   'P 1'
_cell_length_a   10.17751149
_cell_length_b   10.17751149
_cell_length_c   10.17751149
_cell_angle_alpha   109.47122063
_cell_angle_beta   109.47122063
_cell_angle_gamma   109.47122063
_symmetry_Int_Tables_number   1
_chemical_formula_structural   Cu3Ni2C15
_chemical_formula_sum   'Cu12 Ni8 C60'
_cell_volume   811.52688790
_cell_formula_units_Z   4
loop_
 _symmetry_equiv_pos_site_id
 _symmetry_equiv_pos_as_xyz
  1  'x, y, z'
loop_
 _atom_site_type_symbol
 _atom_site_label
 _atom_site_symmetry_multiplicity
 _atom_site_fract_x
 _atom_site_fract_y
 _atom_site_fract_z
 _atom_site_occupancy
  Ni  Ni0  1  0.00000000  0.00000000  0.50000000  1
  Ni  Ni1  1  0.00000000  0.00000000  0.00000000  1
  Ni  Ni2  1  0.50000000  0.00000000  0.00000000  1
  Ni  Ni3  1  0.00000000  0.50000000  0.00000000  1
  Ni  Ni4  1  0.50000000  0.50000000  0.00000000  1
  Ni  Ni5  1  0.00000000  0.50000000  0.50000000  1
  Ni  Ni6  1  0.50000000  0.00000000  0.50000000  1
  Ni  Ni7  1  0.50000000  0.50000000  0.50000000  1
  Cu  Cu8  1  0.87500000  0.62500000  0.25000000  1
  Cu  Cu9  1  0.62500000  0.25000000  0.87500000  1
  Cu  Cu10  1  0.87500000  0.75000000  0.62500000  1
  Cu  Cu11  1  0.75000000  0.62500000  0.87500000  1
  Cu  Cu12  1  0.25000000  0.87500000  0.62500000  1
  Cu  Cu13  1  0.62500000  0.87500000  0.75000000  1
  Cu  Cu14  1  0.12500000  0.37500000  0.75000000  1
  Cu  Cu15  1  0.37500000  0.75000000  0.12500000  1
  Cu  Cu16  1  0.12500000  0.25000000  0.37500000  1
  Cu  Cu17  1  0.25000000  0.37500000  0.12500000  1
  Cu  Cu18  1  0.75000000  0.12500000  0.37500000  1
  Cu  Cu19  1  0.37500000  0.12500000  0.25000000  1
  C  C20  1  0.12500000  0.87500000  0.25000000  1
  C  C21  1  0.25000000  0.12500000  0.87500000  1
  C  C22  1  0.75000000  0.37500000  0.62500000  1
  C  C23  1  0.62500000  0.37500000  0.25000000  1
  C  C24  1  0.62500000  0.75000000  0.37500000  1
  C  C25  1  0.37500000  0.62500000  0.75000000  1
  C  C26  1  0.12500000  0.75000000  0.87500000  1
  C  C27  1  0.75000000  0.87500000  0.12500000  1
  C  C28  1  0.87500000  0.25000000  0.12500000  1
  C  C29  1  0.37500000  0.25000000  0.62500000  1
  C  C30  1  0.25000000  0.62500000  0.37500000  1
  C  C31  1  0.87500000  0.12500000  0.75000000  1
  C  C32  1  0.48822800  0.37920800  0.30235500  1
  C  C33  1  0.31412600  0.89098000  0.01177200  1
  C  C34  1  0.60902000  0.92314700  0.12079200  1
  C  C35  1  0.57685300  0.18587400  0.19764500  1
  C  C36  1  0.12079200  0.01177200  0.19764500  1
  C  C37  1  0.18587400  0.19764500  0.57685300  1
  C  C38  1  0.18587400  0.48822800  0.60902000  1
  C  C39  1  0.19764500  0.57685300  0.18587400  1
  C  C40  1  0.37920800  0.57685300  0.89098000  1
  C  C41  1  0.92314700  0.30235500  0.31412600  1
  C  C42  1  0.30235500  0.31412600  0.92314700  1
  C  C43  1  0.19764500  0.12079200  0.01177200  1
  C  C44  1  0.48822800  0.60902000  0.18587400  1
  C  C45  1  0.89098000  0.37920800  0.57685300  1
  C  C46  1  0.01177200  0.19764500  0.12079200  1
  C  C47  1  0.60902000  0.18587400  0.48822800  1
  C  C48  1  0.57685300  0.89098000  0.37920800  1
  C  C49  1  0.01177200  0.31412600  0.89098000  1
  C  C50  1  0.92314700  0.12079200  0.60902000  1
  C  C51  1  0.62079200  0.42314700  0.10902000  1
  C  C52  1  0.37920800  0.30235500  0.48822800  1
  C  C53  1  0.30235500  0.48822800  0.37920800  1
  C  C54  1  0.89098000  0.01177200  0.31412600  1
  C  C55  1  0.31412600  0.92314700  0.30235500  1
  C  C56  1  0.51177200  0.62079200  0.69764500  1
  C  C57  1  0.68587400  0.10902000  0.98822800  1
  C  C58  1  0.39098000  0.07685300  0.87920800  1
  C  C59  1  0.42314700  0.81412600  0.80235500  1
  C  C60  1  0.87920800  0.98822800  0.80235500  1
  C  C61  1  0.81412600  0.80235500  0.42314700  1
  C  C62  1  0.81412600  0.51177200  0.39098000  1
  C  C63  1  0.80235500  0.42314700  0.81412600  1
  C  C64  1  0.68587400  0.07685300  0.69764500  1
  C  C65  1  0.10902000  0.98822800  0.68587400  1
  C  C66  1  0.69764500  0.51177200  0.62079200  1
  C  C67  1  0.62079200  0.69764500  0.51177200  1
  C  C68  1  0.87920800  0.39098000  0.07685300  1
  C  C69  1  0.07685300  0.87920800  0.39098000  1
  C  C70  1  0.98822800  0.68587400  0.10902000  1
  C  C71  1  0.42314700  0.10902000  0.62079200  1
  C  C72  1  0.39098000  0.81412600  0.51177200  1
  C  C73  1  0.98822800  0.80235500  0.87920800  1
  C  C74  1  0.10902000  0.62079200  0.42314700  1
  C  C75  1  0.51177200  0.39098000  0.81412600  1
  C  C76  1  0.80235500  0.87920800  0.98822800  1
  C  C77  1  0.69764500  0.68587400  0.07685300  1
  C  C78  1  0.07685300  0.69764500  0.68587400  1
  C  C79  1  0.12079200  0.60902000  0.92314700  1
