# generated using pymatgen
data_CuNiC7
_symmetry_space_group_name_H-M   'P 1'
_cell_length_a   11.60795552
_cell_length_b   11.82283578
_cell_length_c   17.69029640
_cell_angle_alpha   109.61129466
_cell_angle_beta   109.09629653
_cell_angle_gamma   90.17128573
_symmetry_Int_Tables_number   1
_chemical_formula_structural   CuNiC7
_chemical_formula_sum   'Cu16 Ni16 C112'
_cell_volume   2143.69257273
_cell_formula_units_Z   16
loop_
 _symmetry_equiv_pos_site_id
 _symmetry_equiv_pos_as_xyz
  1  'x, y, z'
loop_
 _atom_site_type_symbol
 _atom_site_label
 _atom_site_symmetry_multiplicity
 _atom_site_fract_x
 _atom_site_fract_y
 _atom_site_fract_z
 _atom_site_occupancy
  C  C0  1  0.30289000  0.06684300  0.11054200  1
  C  C1  1  0.30631500  0.56565800  0.10783000  1
  C  C2  1  0.79951800  0.06221600  0.10429800  1
  C  C3  1  0.80932200  0.56247700  0.11281700  1
  C  C4  1  0.81456900  0.57235000  0.61893400  1
  C  C5  1  0.20462400  0.93618100  0.39727200  1
  C  C6  1  0.19409600  0.92884500  0.87949100  1
  C  C7  1  0.69653500  0.43726700  0.39128800  1
  C  C8  1  0.68747200  0.42380300  0.88242900  1
  C  C9  1  0.69739600  0.93358500  0.38902600  1
  C  C10  1  0.69276200  0.92094200  0.87774300  1
  C  C11  1  0.04847700  0.28874400  0.10536900  1
  C  C12  1  0.05854500  0.79152300  0.10790500  1
  C  C13  1  0.55370300  0.29970600  0.11188000  1
  C  C14  1  0.55862600  0.79513200  0.11294700  1
  C  C15  1  0.44535000  0.20679300  0.39167200  1
  C  C16  1  0.45381000  0.71404800  0.39568400  1
  C  C17  1  0.44696400  0.70639000  0.88607800  1
  C  C18  1  0.95122900  0.70395500  0.39058400  1
  C  C19  1  0.94142700  0.69943800  0.87929400  1
  C  C20  1  0.29898700  0.07794800  0.60531900  1
  C  C21  1  0.30483100  0.56902900  0.60350300  1
  C  C22  1  0.80082400  0.07062000  0.60164400  1
  C  C23  1  0.20449900  0.43606300  0.40705300  1
  C  C24  1  0.19661200  0.42755600  0.89534800  1
  C  C25  1  0.04752200  0.27854300  0.60387600  1
  C  C26  1  0.05982700  0.79121900  0.60821100  1
  C  C27  1  0.55275600  0.28215400  0.60076500  1
  C  C28  1  0.55931700  0.78959800  0.60819000  1
  C  C29  1  0.44409100  0.21554700  0.89578800  1
  C  C30  1  0.95573300  0.22049900  0.40768800  1
  C  C31  1  0.94659400  0.21725100  0.89665000  1
  Ni  Ni32  1  0.09100400  0.08408000  0.25461100  1
  Ni  Ni33  1  0.08527600  0.08365300  0.74603600  1
  Ni  Ni34  1  0.13992100  0.58000900  0.25460800  1
  Ni  Ni35  1  0.13431600  0.57039700  0.74721200  1
  Ni  Ni36  1  0.61923000  0.09413500  0.25057500  1
  Ni  Ni37  1  0.58301300  0.07769200  0.74583900  1
  Ni  Ni38  1  0.60921000  0.59649800  0.25201600  1
  Ni  Ni39  1  0.59872200  0.57052200  0.74264100  1
  Ni  Ni40  1  0.33659700  0.42194200  0.25395600  1
  Ni  Ni41  1  0.33350700  0.42018000  0.74573000  1
  Ni  Ni42  1  0.36115400  0.90782500  0.25187200  1
  Ni  Ni43  1  0.37142300  0.92516000  0.74497700  1
  Ni  Ni44  1  0.87377200  0.40297100  0.25278500  1
  Ni  Ni45  1  0.85797500  0.39948600  0.74572400  1
  Ni  Ni46  1  0.89104400  0.92704100  0.25422500  1
  Ni  Ni47  1  0.87557100  0.93287600  0.74783200  1
  Cu  Cu48  1  0.99951700  0.99602000  0.99538200  1
  Cu  Cu49  1  0.00770600  0.00213200  0.50472800  1
  Cu  Cu50  1  0.00098500  0.49642000  0.99621200  1
  Cu  Cu51  1  0.01022700  0.50222800  0.50509100  1
  Cu  Cu52  1  0.50026400  0.99854000  0.99546200  1
  Cu  Cu53  1  0.50938000  0.00527900  0.50902500  1
  Cu  Cu54  1  0.49899200  0.49759600  0.99492300  1
  Cu  Cu55  1  0.50817300  0.50369700  0.50515400  1
  Cu  Cu56  1  0.24759200  0.24674500  0.99493600  1
  Cu  Cu57  1  0.25612500  0.25338100  0.50489500  1
  Cu  Cu58  1  0.25143400  0.74711000  0.99481000  1
  Cu  Cu59  1  0.26158100  0.75298400  0.50719000  1
  Cu  Cu60  1  0.74788600  0.24433800  0.99457300  1
  Cu  Cu61  1  0.75848400  0.25134700  0.50349800  1
  Cu  Cu62  1  0.75240900  0.74598300  0.99776100  1
  Cu  Cu63  1  0.76171100  0.75501000  0.50753500  1
  C  C64  1  0.12458000  0.12482700  0.49448200  1
  C  C65  1  0.11847700  0.11954800  0.98792100  1
  C  C66  1  0.13088900  0.61979300  0.49342500  1
  C  C67  1  0.12050100  0.61343300  0.98254100  1
  C  C68  1  0.62932700  0.12514700  0.49875800  1
  C  C69  1  0.61767900  0.11829300  0.98580100  1
  C  C70  1  0.62927500  0.62705900  0.49834200  1
  C  C71  1  0.62410300  0.61991100  0.99261900  1
  C  C72  1  0.12576900  0.37308200  0.99834100  1
  C  C73  1  0.13911800  0.38373000  0.51492000  1
  C  C74  1  0.12837700  0.87563600  0.00193500  1
  C  C75  1  0.14185000  0.88481200  0.52102700  1
  C  C76  1  0.62478400  0.37215400  0.00146700  1
  C  C77  1  0.63732100  0.38191600  0.51657700  1
  C  C78  1  0.63022200  0.87564100  0.00449000  1
  C  C79  1  0.64323000  0.88775000  0.52253100  1
  C  C80  1  0.37870400  0.12590500  0.50027900  1
  C  C81  1  0.37125500  0.12076900  0.98715400  1
  C  C82  1  0.37691700  0.62088700  0.49533800  1
  C  C83  1  0.36947300  0.61693500  0.98664100  1
  C  C84  1  0.87698900  0.11977700  0.48857400  1
  C  C85  1  0.86973600  0.11564200  0.98373600  1
  C  C86  1  0.88216900  0.62411900  0.49670900  1
  C  C87  1  0.87318200  0.61764800  0.99066500  1
  C  C88  1  0.37447600  0.37370900  0.99787800  1
  C  C89  1  0.38771700  0.38649100  0.51808100  1
  C  C90  1  0.37971700  0.87863700  0.00468300  1
  C  C91  1  0.39278300  0.88574000  0.52334300  1
  C  C92  1  0.87864300  0.37396700  0.00330400  1
  C  C93  1  0.89266700  0.38018200  0.51613500  1
  C  C94  1  0.87817500  0.87394200  0.00140200  1
  C  C95  1  0.88984800  0.88542800  0.51780100  1
  C  C96  1  0.06207200  0.07573800  0.13981500  1
  C  C97  1  0.06719800  0.09908300  0.63910800  1
  C  C98  1  0.08462800  0.57903900  0.13982700  1
  C  C99  1  0.09173600  0.60001400  0.64282400  1
  C  C100  1  0.57062900  0.08381500  0.13316900  1
  C  C101  1  0.57041100  0.10369900  0.64344100  1
  C  C102  1  0.57096600  0.57400000  0.13338000  1
  C  C103  1  0.58335600  0.60168400  0.64122100  1
  C  C104  1  0.43271800  0.41937000  0.36384800  1
  C  C105  1  0.42777100  0.42045900  0.85665600  1
  C  C106  1  0.44105700  0.92531700  0.37030800  1
  C  C107  1  0.43527100  0.91330100  0.85416400  1
  C  C108  1  0.94350400  0.40116500  0.36674700  1
  C  C109  1  0.92664300  0.40229000  0.86015300  1
  C  C110  1  0.94956000  0.90876800  0.36221700  1
  C  C111  1  0.93745100  0.91325800  0.85488500  1
  C  C112  1  0.30883800  0.31377300  0.13958800  1
  C  C113  1  0.31806700  0.29729300  0.64021700  1
  C  C114  1  0.31784900  0.80735000  0.13291500  1
  C  C115  1  0.33831500  0.78855600  0.64334000  1
  C  C116  1  0.82338800  0.29797200  0.13511600  1
  C  C117  1  0.83669800  0.28152300  0.63695300  1
  C  C118  1  0.83772300  0.80839800  0.14158400  1
  C  C119  1  0.84728100  0.80181600  0.64483300  1
  C  C120  1  0.18733600  0.19985300  0.36408600  1
  C  C121  1  0.17900800  0.19204200  0.85762000  1
  C  C122  1  0.19839700  0.70245700  0.36552600  1
  C  C123  1  0.19456300  0.69409600  0.85560500  1
  C  C124  1  0.68915500  0.20318700  0.36660300  1
  C  C125  1  0.67445300  0.18553700  0.85762800  1
  C  C126  1  0.69097600  0.69922200  0.36988200  1
  C  C127  1  0.67978700  0.67879900  0.85795600  1
  C  C128  1  0.45891600  0.04477500  0.25110500  1
  C  C129  1  0.41064800  0.09214000  0.74683800  1
  C  C130  1  0.45224600  0.54876500  0.25290300  1
  C  C131  1  0.42617000  0.55667300  0.73454500  1
  C  C132  1  0.92621600  0.10100500  0.26481800  1
  C  C133  1  0.91282100  0.09882800  0.74804400  1
  C  C134  1  0.97158600  0.53514600  0.25356200  1
  C  C135  1  0.96785100  0.52546600  0.74706200  1
  C  C136  1  0.17187500  0.41636600  0.26443900  1
  C  C137  1  0.16353500  0.40086300  0.74731000  1
  C  C138  1  0.20158000  0.95166500  0.25413200  1
  C  C139  1  0.19780200  0.95429900  0.73537200  1
  C  C140  1  0.72008400  0.46936800  0.25402500  1
  C  C141  1  0.68342200  0.42327000  0.73159700  1
  C  C142  1  0.72335000  0.96786800  0.25128800  1
  C  C143  1  0.69971800  0.95292200  0.73591400  1
