# generated using pymatgen
data_CuNi3C2
_symmetry_space_group_name_H-M   'P 1'
_cell_length_a   3.29145642
_cell_length_b   3.29145642
_cell_length_c   37.40797200
_cell_angle_alpha   90.00000000
_cell_angle_beta   90.00000000
_cell_angle_gamma   120.00000850
_symmetry_Int_Tables_number   1
_chemical_formula_structural   CuNi3C2
_chemical_formula_sum   'Cu2 Ni6 C4'
_cell_volume   350.97079403
_cell_formula_units_Z   2
loop_
 _symmetry_equiv_pos_site_id
 _symmetry_equiv_pos_as_xyz
  1  'x, y, z'
loop_
 _atom_site_type_symbol
 _atom_site_label
 _atom_site_symmetry_multiplicity
 _atom_site_fract_x
 _atom_site_fract_y
 _atom_site_fract_z
 _atom_site_occupancy
  C  C0  1  0.00000000  0.00000000  0.09392000  1
  C  C1  1  0.33333300  0.66666700  0.28179800  1
  C  C2  1  0.00000000  0.00000000  0.46965100  1
  C  C3  1  0.33333300  0.66666700  0.65755200  1
  Ni  Ni4  1  0.00000000  0.00000000  0.32685300  1
  Ni  Ni5  1  0.00000000  0.00000000  0.70290200  1
  Ni  Ni6  1  0.33333300  0.66666700  0.42432200  1
  Ni  Ni7  1  0.33333300  0.66666700  0.51496800  1
  Ni  Ni8  1  0.00000000  0.00000000  0.23670400  1
  Ni  Ni9  1  0.00000000  0.00000000  0.61222800  1
  Cu  Cu10  1  0.33333300  0.66666700  0.05292900  1
  Cu  Cu11  1  0.33333300  0.66666700  0.13492100  1
