# generated using pymatgen
data_Cu5NiC4
_symmetry_space_group_name_H-M   'P 1'
_cell_length_a   17.85005755
_cell_length_b   17.85005755
_cell_length_c   17.85005778
_cell_angle_alpha   13.78094891
_cell_angle_beta   13.78094891
_cell_angle_gamma   13.78094671
_symmetry_Int_Tables_number   1
_chemical_formula_structural   Cu5NiC4
_chemical_formula_sum   'Cu5 Ni1 C4'
_cell_volume   280.84063288
_cell_formula_units_Z   1
loop_
 _symmetry_equiv_pos_site_id
 _symmetry_equiv_pos_as_xyz
  1  'x, y, z'
loop_
 _atom_site_type_symbol
 _atom_site_label
 _atom_site_symmetry_multiplicity
 _atom_site_fract_x
 _atom_site_fract_y
 _atom_site_fract_z
 _atom_site_occupancy
  C  C0  1  0.10475100  0.10475100  0.10475100  1
  C  C1  1  0.29842500  0.29842500  0.29842500  1
  C  C2  1  0.89879700  0.89879700  0.89879700  1
  C  C3  1  0.49816600  0.49816600  0.49816600  1
  Ni  Ni4  1  0.70166100  0.70166100  0.70166100  1
  Cu  Cu5  1  0.00008800  0.00008800  0.00008800  1
  Cu  Cu6  1  0.60284800  0.60284800  0.60284800  1
  Cu  Cu7  1  0.20337700  0.20337700  0.20337700  1
  Cu  Cu8  1  0.80250000  0.80250000  0.80250000  1
  Cu  Cu9  1  0.40318800  0.40318800  0.40318800  1
