# generated using pymatgen
data_Cu3NiC17
_symmetry_space_group_name_H-M   'P 1'
_cell_length_a   7.47088134
_cell_length_b   7.47088134
_cell_length_c   7.47088096
_cell_angle_alpha   60.59646338
_cell_angle_beta   60.59646338
_cell_angle_gamma   60.59646454
_symmetry_Int_Tables_number   1
_chemical_formula_structural   Cu3NiC17
_chemical_formula_sum   'Cu3 Ni1 C17'
_cell_volume   298.82163313
_cell_formula_units_Z   1
loop_
 _symmetry_equiv_pos_site_id
 _symmetry_equiv_pos_as_xyz
  1  'x, y, z'
loop_
 _atom_site_type_symbol
 _atom_site_label
 _atom_site_symmetry_multiplicity
 _atom_site_fract_x
 _atom_site_fract_y
 _atom_site_fract_z
 _atom_site_occupancy
  Ni  Ni0  1  0.49942800  0.49942800  0.49942800  1
  Cu  Cu1  1  0.00095700  0.49976100  0.49976100  1
  Cu  Cu2  1  0.49976100  0.49976100  0.00095700  1
  Cu  Cu3  1  0.49976100  0.00095700  0.49976100  1
  C  C4  1  0.99842500  0.99842500  0.99842500  1
  C  C5  1  0.50523100  0.99835400  0.99835400  1
  C  C6  1  0.99835400  0.99835400  0.50523100  1
  C  C7  1  0.99835400  0.50523100  0.99835400  1
  C  C8  1  0.82607200  0.42714800  0.42714800  1
  C  C9  1  0.42570600  0.82331000  0.82331000  1
  C  C10  1  0.42714800  0.42714800  0.82607200  1
  C  C11  1  0.82331000  0.82331000  0.42570600  1
  C  C12  1  0.82331000  0.42570600  0.82331000  1
  C  C13  1  0.42714800  0.82607200  0.42714800  1
  C  C14  1  0.17649500  0.57070100  0.57070100  1
  C  C15  1  0.57225800  0.17879800  0.17879800  1
  C  C16  1  0.57070100  0.57070100  0.17649500  1
  C  C17  1  0.17879800  0.17879800  0.57225800  1
  C  C18  1  0.17879800  0.57225800  0.17879800  1
  C  C19  1  0.57070100  0.17649500  0.57070100  1
  C  C20  1  0.12428600  0.12428600  0.12428600  1
