# generated using pymatgen
data_Cu16Ni3C11
_symmetry_space_group_name_H-M   'P 1'
_cell_length_a   9.98046048
_cell_length_b   9.98046048
_cell_length_c   10.13333700
_cell_angle_alpha   90.00000000
_cell_angle_beta   90.00000000
_cell_angle_gamma   133.37478728
_symmetry_Int_Tables_number   1
_chemical_formula_structural   Cu16Ni3C11
_chemical_formula_sum   'Cu32 Ni6 C22'
_cell_volume   733.69328051
_cell_formula_units_Z   2
loop_
 _symmetry_equiv_pos_site_id
 _symmetry_equiv_pos_as_xyz
  1  'x, y, z'
loop_
 _atom_site_type_symbol
 _atom_site_label
 _atom_site_symmetry_multiplicity
 _atom_site_fract_x
 _atom_site_fract_y
 _atom_site_fract_z
 _atom_site_occupancy
  C  C0  1  0.23831100  0.85140800  0.28191500  1
  C  C1  1  0.85140800  0.23831100  0.28191500  1
  C  C2  1  0.76168900  0.14859200  0.78191500  1
  C  C3  1  0.14859200  0.76168900  0.78191500  1
  C  C4  1  0.55843400  0.38154900  0.73555600  1
  C  C5  1  0.38154900  0.55843400  0.73555600  1
  C  C6  1  0.44156600  0.61845100  0.23555600  1
  C  C7  1  0.61845100  0.44156600  0.23555600  1
  C  C8  1  0.80763700  0.80763700  0.51728900  1
  C  C9  1  0.19236300  0.19236300  0.01728900  1
  C  C10  1  0.48161000  0.48161000  0.52142500  1
  C  C11  1  0.51839000  0.51839000  0.02142500  1
  C  C12  1  0.19964300  0.19964300  0.76919200  1
  C  C13  1  0.80035700  0.80035700  0.26919200  1
  C  C14  1  0.91573700  0.72551500  0.07944100  1
  C  C15  1  0.72551500  0.91573700  0.07944100  1
  C  C16  1  0.08426300  0.27448500  0.57944100  1
  C  C17  1  0.27448500  0.08426300  0.57944100  1
  C  C18  1  0.91915300  0.57038700  0.07607000  1
  C  C19  1  0.57038700  0.91915300  0.07607000  1
  C  C20  1  0.08084700  0.42961300  0.57607000  1
  C  C21  1  0.42961300  0.08084700  0.57607000  1
  Ni  Ni22  1  0.87651100  0.52171200  0.50554400  1
  Ni  Ni23  1  0.52171200  0.87651100  0.50554400  1
  Ni  Ni24  1  0.12348900  0.47828800  0.00554400  1
  Ni  Ni25  1  0.47828800  0.12348900  0.00554400  1
  Ni  Ni26  1  0.81721300  0.81721300  0.84497000  1
  Ni  Ni27  1  0.18278700  0.18278700  0.34497000  1
  Cu  Cu28  1  0.55221800  0.55221800  0.60078700  1
  Cu  Cu29  1  0.44778200  0.44778200  0.10078700  1
  Cu  Cu30  1  0.30652800  0.30652800  0.81844900  1
  Cu  Cu31  1  0.69347200  0.69347200  0.31844900  1
  Cu  Cu32  1  0.36429400  0.10045900  0.63614000  1
  Cu  Cu33  1  0.10045900  0.36429400  0.63614000  1
  Cu  Cu34  1  0.63570600  0.89954100  0.13614000  1
  Cu  Cu35  1  0.89954100  0.63570600  0.13614000  1
  Cu  Cu36  1  0.73747400  0.41628800  0.39831000  1
  Cu  Cu37  1  0.41628800  0.73747400  0.39831000  1
  Cu  Cu38  1  0.26252600  0.58371200  0.89831000  1
  Cu  Cu39  1  0.58371200  0.26252600  0.89831000  1
  Cu  Cu40  1  0.78974500  0.43184200  0.63647600  1
  Cu  Cu41  1  0.43184200  0.78974500  0.63647600  1
  Cu  Cu42  1  0.21025500  0.56815800  0.13647600  1
  Cu  Cu43  1  0.56815800  0.21025500  0.13647600  1
  Cu  Cu44  1  0.02589300  0.52588800  0.47947800  1
  Cu  Cu45  1  0.52588800  0.02589300  0.47947800  1
  Cu  Cu46  1  0.97410700  0.47411200  0.97947800  1
  Cu  Cu47  1  0.47411200  0.97410700  0.97947800  1
  Cu  Cu48  1  0.95849400  0.71572800  0.50925400  1
  Cu  Cu49  1  0.71572800  0.95849400  0.50925400  1
  Cu  Cu50  1  0.04150600  0.28427200  0.00925400  1
  Cu  Cu51  1  0.28427200  0.04150600  0.00925400  1
  Cu  Cu52  1  0.64226500  0.77562200  0.84501900  1
  Cu  Cu53  1  0.77562200  0.64226500  0.84501900  1
  Cu  Cu54  1  0.35773500  0.22437800  0.34501900  1
  Cu  Cu55  1  0.22437800  0.35773500  0.34501900  1
  Cu  Cu56  1  0.93059700  0.93059700  0.72704200  1
  Cu  Cu57  1  0.06940300  0.06940300  0.22704200  1
  Cu  Cu58  1  0.91916400  0.91916400  0.96933200  1
  Cu  Cu59  1  0.08083600  0.08083600  0.46933200  1
