# generated using pymatgen
data_Cu4NiC4
_symmetry_space_group_name_H-M   'P 1'
_cell_length_a   10.83512600
_cell_length_b   3.42094000
_cell_length_c   14.85919100
_cell_angle_alpha   90.00000000
_cell_angle_beta   90.00000000
_cell_angle_gamma   90.00000000
_symmetry_Int_Tables_number   1
_chemical_formula_structural   Cu4NiC4
_chemical_formula_sum   'Cu16 Ni4 C16'
_cell_volume   550.77546820
_cell_formula_units_Z   4
loop_
 _symmetry_equiv_pos_site_id
 _symmetry_equiv_pos_as_xyz
  1  'x, y, z'
loop_
 _atom_site_type_symbol
 _atom_site_label
 _atom_site_symmetry_multiplicity
 _atom_site_fract_x
 _atom_site_fract_y
 _atom_site_fract_z
 _atom_site_occupancy
  C  C0  1  0.10049700  0.25000000  0.16983900  1
  C  C1  1  0.60049700  0.25000000  0.33016100  1
  C  C2  1  0.89950300  0.75000000  0.83016100  1
  C  C3  1  0.39950300  0.75000000  0.66983900  1
  C  C4  1  0.87432300  0.25000000  0.02475200  1
  C  C5  1  0.37432300  0.25000000  0.47524800  1
  C  C6  1  0.12567700  0.75000000  0.97524800  1
  C  C7  1  0.62567700  0.75000000  0.52475200  1
  C  C8  1  0.39513500  0.25000000  0.86578700  1
  C  C9  1  0.89513500  0.25000000  0.63421300  1
  C  C10  1  0.60486500  0.75000000  0.13421300  1
  C  C11  1  0.10486500  0.75000000  0.36578700  1
  C  C12  1  0.14692500  0.25000000  0.77604400  1
  C  C13  1  0.64692500  0.25000000  0.72395600  1
  C  C14  1  0.85307500  0.75000000  0.22395600  1
  C  C15  1  0.35307500  0.75000000  0.27604400  1
  Ni  Ni16  1  0.36657400  0.25000000  0.06604800  1
  Ni  Ni17  1  0.86657400  0.25000000  0.43395200  1
  Ni  Ni18  1  0.63342600  0.75000000  0.93395200  1
  Ni  Ni19  1  0.13342600  0.75000000  0.56604800  1
  Cu  Cu20  1  0.71424000  0.25000000  0.20990500  1
  Cu  Cu21  1  0.21424000  0.25000000  0.29009500  1
  Cu  Cu22  1  0.28576000  0.75000000  0.79009500  1
  Cu  Cu23  1  0.78576000  0.75000000  0.70990500  1
  Cu  Cu24  1  0.01036600  0.25000000  0.89618700  1
  Cu  Cu25  1  0.51036600  0.25000000  0.60381300  1
  Cu  Cu26  1  0.98963400  0.75000000  0.10381300  1
  Cu  Cu27  1  0.48963400  0.75000000  0.39618700  1
  Cu  Cu28  1  0.28654800  0.25000000  0.00587500  1
  Cu  Cu29  1  0.78654800  0.25000000  0.49412500  1
  Cu  Cu30  1  0.71345200  0.75000000  0.99412500  1
  Cu  Cu31  1  0.21345200  0.75000000  0.50587500  1
  Cu  Cu32  1  0.44553400  0.25000000  0.12621800  1
  Cu  Cu33  1  0.94553400  0.25000000  0.37378200  1
  Cu  Cu34  1  0.55446600  0.75000000  0.87378200  1
  Cu  Cu35  1  0.05446600  0.75000000  0.62621800  1
