# generated using pymatgen
data_Cu2Ni8C25
_symmetry_space_group_name_H-M   'P 1'
_cell_length_a   13.82257000
_cell_length_b   13.82257000
_cell_length_c   9.76592600
_cell_angle_alpha   90.00000000
_cell_angle_beta   90.00000000
_cell_angle_gamma   90.00000000
_symmetry_Int_Tables_number   1
_chemical_formula_structural   Cu2Ni8C25
_chemical_formula_sum   'Cu8 Ni32 C100'
_cell_volume   1865.91143007
_cell_formula_units_Z   4
loop_
 _symmetry_equiv_pos_site_id
 _symmetry_equiv_pos_as_xyz
  1  'x, y, z'
loop_
 _atom_site_type_symbol
 _atom_site_label
 _atom_site_symmetry_multiplicity
 _atom_site_fract_x
 _atom_site_fract_y
 _atom_site_fract_z
 _atom_site_occupancy
  C  C0  1  0.75000000  0.25000000  0.25000000  1
  C  C1  1  0.25000000  0.75000000  0.25000000  1
  C  C2  1  0.25000000  0.25000000  0.75000000  1
  C  C3  1  0.75000000  0.75000000  0.75000000  1
  C  C4  1  0.75088300  0.95077800  0.48324000  1
  C  C5  1  0.24911700  0.04922200  0.48324000  1
  C  C6  1  0.54922200  0.25088300  0.98324000  1
  C  C7  1  0.45077800  0.74911700  0.98324000  1
  C  C8  1  0.74911700  0.54922200  0.01676000  1
  C  C9  1  0.25088300  0.45077800  0.01676000  1
  C  C10  1  0.95077800  0.24911700  0.51676000  1
  C  C11  1  0.04922200  0.75088300  0.51676000  1
  C  C12  1  0.75097900  0.07768000  0.46627800  1
  C  C13  1  0.24902100  0.92232000  0.46627800  1
  C  C14  1  0.42232000  0.25097900  0.96627800  1
  C  C15  1  0.57768000  0.74902100  0.96627800  1
  C  C16  1  0.74902100  0.42232000  0.03372200  1
  C  C17  1  0.25097900  0.57768000  0.03372200  1
  C  C18  1  0.07768000  0.24902100  0.53372200  1
  C  C19  1  0.92232000  0.75097900  0.53372200  1
  C  C20  1  0.66830800  0.85528100  0.32793600  1
  C  C21  1  0.33169200  0.14471900  0.32793600  1
  C  C22  1  0.64471900  0.16830800  0.82793600  1
  C  C23  1  0.35528100  0.83169200  0.82793600  1
  C  C24  1  0.83169200  0.64471900  0.17206400  1
  C  C25  1  0.16830800  0.35528100  0.17206400  1
  C  C26  1  0.85528100  0.33169200  0.67206400  1
  C  C27  1  0.14471900  0.66830800  0.67206400  1
  C  C28  1  0.60371600  0.91197200  0.19478900  1
  C  C29  1  0.39628400  0.08802800  0.19478900  1
  C  C30  1  0.58802800  0.10371600  0.69478900  1
  C  C31  1  0.41197200  0.89628400  0.69478900  1
  C  C32  1  0.89628400  0.58802800  0.30521100  1
  C  C33  1  0.10371600  0.41197200  0.30521100  1
  C  C34  1  0.91197200  0.39628400  0.80521100  1
  C  C35  1  0.08802800  0.60371600  0.80521100  1
  C  C36  1  0.13775100  0.12603200  0.10272600  1
  C  C37  1  0.86224900  0.87396800  0.10272600  1
  C  C38  1  0.37396800  0.63775100  0.60272600  1
  C  C39  1  0.62603200  0.36224900  0.60272600  1
  C  C40  1  0.36224900  0.37396800  0.39727400  1
  C  C41  1  0.63775100  0.62603200  0.39727400  1
  C  C42  1  0.12603200  0.86224900  0.89727400  1
  C  C43  1  0.87396800  0.13775100  0.89727400  1
  C  C44  1  0.08053500  0.04868100  0.22050700  1
  C  C45  1  0.91946500  0.95131900  0.22050700  1
  C  C46  1  0.45131900  0.58053500  0.72050700  1
  C  C47  1  0.54868100  0.41946500  0.72050700  1
  C  C48  1  0.41946500  0.45131900  0.27949300  1
  C  C49  1  0.58053500  0.54868100  0.27949300  1
  C  C50  1  0.04868100  0.91946500  0.77949300  1
  C  C51  1  0.95131900  0.08053500  0.77949300  1
  C  C52  1  0.05401800  0.25505900  0.00910000  1
  C  C53  1  0.94598200  0.74494100  0.00910000  1
  C  C54  1  0.24494100  0.55401800  0.50910000  1
  C  C55  1  0.75505900  0.44598200  0.50910000  1
  C  C56  1  0.44598200  0.24494100  0.49090000  1
  C  C57  1  0.55401800  0.75505900  0.49090000  1
  C  C58  1  0.25505900  0.94598200  0.99090000  1
  C  C59  1  0.74494100  0.05401800  0.99090000  1
  C  C60  1  0.94037400  0.28607600  0.07608200  1
  C  C61  1  0.05962600  0.71392400  0.07608200  1
  C  C62  1  0.21392400  0.44037400  0.57608200  1
  C  C63  1  0.78607600  0.55962600  0.57608200  1
  C  C64  1  0.55962600  0.21392400  0.42391800  1
  C  C65  1  0.44037400  0.78607600  0.42391800  1
  C  C66  1  0.28607600  0.05962600  0.92391800  1
  C  C67  1  0.71392400  0.94037400  0.92391800  1
  C  C68  1  0.99946400  0.16472900  0.15957300  1
  C  C69  1  0.00053600  0.83527100  0.15957300  1
  C  C70  1  0.33527100  0.49946400  0.65957300  1
  C  C71  1  0.66472900  0.50053600  0.65957300  1
  C  C72  1  0.50053600  0.33527100  0.34042700  1
  C  C73  1  0.49946400  0.66472900  0.34042700  1
  C  C74  1  0.16472900  0.00053600  0.84042700  1
  C  C75  1  0.83527100  0.99946400  0.84042700  1
  C  C76  1  0.67557400  0.00462100  0.31850300  1
  C  C77  1  0.32442600  0.99537900  0.31850300  1
  C  C78  1  0.49537900  0.17557400  0.81850300  1
  C  C79  1  0.50462100  0.82442600  0.81850300  1
  C  C80  1  0.82442600  0.49537900  0.18149700  1
  C  C81  1  0.17557400  0.50462100  0.18149700  1
  C  C82  1  0.00462100  0.32442600  0.68149700  1
  C  C83  1  0.99537900  0.67557400  0.68149700  1
  C  C84  1  0.90522500  0.13678500  0.26671200  1
  C  C85  1  0.09477500  0.86321500  0.26671200  1
  C  C86  1  0.36321500  0.40522500  0.76671200  1
  C  C87  1  0.63678500  0.59477500  0.76671200  1
  C  C88  1  0.59477500  0.36321500  0.23328800  1
  C  C89  1  0.40522500  0.63678500  0.23328800  1
  C  C90  1  0.13678500  0.09477500  0.73328800  1
  C  C91  1  0.86321500  0.90522500  0.73328800  1
  C  C92  1  0.63847900  0.10303100  0.22468400  1
  C  C93  1  0.36152100  0.89696900  0.22468400  1
  C  C94  1  0.39696900  0.13847900  0.72468400  1
  C  C95  1  0.60303100  0.86152100  0.72468400  1
  C  C96  1  0.86152100  0.39696900  0.27531600  1
  C  C97  1  0.13847900  0.60303100  0.27531600  1
  C  C98  1  0.10303100  0.36152100  0.77531600  1
  C  C99  1  0.89696900  0.63847900  0.77531600  1
  Ni  Ni100  1  0.72958000  0.01130800  0.43153000  1
  Ni  Ni101  1  0.27042000  0.98869200  0.43153000  1
  Ni  Ni102  1  0.48869200  0.22958000  0.93153000  1
  Ni  Ni103  1  0.51130800  0.77042000  0.93153000  1
  Ni  Ni104  1  0.77042000  0.48869200  0.06847000  1
  Ni  Ni105  1  0.22958000  0.51130800  0.06847000  1
  Ni  Ni106  1  0.01130800  0.27042000  0.56847000  1
  Ni  Ni107  1  0.98869200  0.72958000  0.56847000  1
  Ni  Ni108  1  0.64912300  0.91646100  0.27573800  1
  Ni  Ni109  1  0.35087700  0.08353900  0.27573800  1
  Ni  Ni110  1  0.58353900  0.14912300  0.77573800  1
  Ni  Ni111  1  0.41646100  0.85087700  0.77573800  1
  Ni  Ni112  1  0.85087700  0.58353900  0.22426200  1
  Ni  Ni113  1  0.14912300  0.41646100  0.22426200  1
  Ni  Ni114  1  0.91646100  0.35087700  0.72426200  1
  Ni  Ni115  1  0.08353900  0.64912300  0.72426200  1
  Ni  Ni116  1  0.07941100  0.10999800  0.16231800  1
  Ni  Ni117  1  0.92058900  0.89000200  0.16231800  1
  Ni  Ni118  1  0.39000200  0.57941100  0.66231800  1
  Ni  Ni119  1  0.60999800  0.42058900  0.66231800  1
  Ni  Ni120  1  0.42058900  0.39000200  0.33768200  1
  Ni  Ni121  1  0.57941100  0.60999800  0.33768200  1
  Ni  Ni122  1  0.10999800  0.92058900  0.83768200  1
  Ni  Ni123  1  0.89000200  0.07941100  0.83768200  1
  Ni  Ni124  1  0.99699900  0.23924400  0.07163300  1
  Ni  Ni125  1  0.00300100  0.76075600  0.07163300  1
  Ni  Ni126  1  0.26075600  0.49699900  0.57163300  1
  Ni  Ni127  1  0.73924400  0.50300100  0.57163300  1
  Ni  Ni128  1  0.50300100  0.26075600  0.42836700  1
  Ni  Ni129  1  0.49699900  0.73924400  0.42836700  1
  Ni  Ni130  1  0.23924400  0.00300100  0.92836700  1
  Ni  Ni131  1  0.76075600  0.99699900  0.92836700  1
  Cu  Cu132  1  0.74724600  0.25578400  0.98550800  1
  Cu  Cu133  1  0.25275400  0.74421600  0.98550800  1
  Cu  Cu134  1  0.24421600  0.24724600  0.48550800  1
  Cu  Cu135  1  0.75578400  0.75275400  0.48550800  1
  Cu  Cu136  1  0.75275400  0.24421600  0.51449200  1
  Cu  Cu137  1  0.24724600  0.75578400  0.51449200  1
  Cu  Cu138  1  0.25578400  0.25275400  0.01449200  1
  Cu  Cu139  1  0.74421600  0.74724600  0.01449200  1
