# generated using pymatgen
data_CuNiC16
_symmetry_space_group_name_H-M   'P 1'
_cell_length_a   8.68758449
_cell_length_b   8.68758501
_cell_length_c   8.68758538
_cell_angle_alpha   60.45085104
_cell_angle_beta   60.45085444
_cell_angle_gamma   60.45086517
_symmetry_Int_Tables_number   1
_chemical_formula_structural   CuNiC16
_chemical_formula_sum   'Cu2 Ni2 C32'
_cell_volume   468.36709019
_cell_formula_units_Z   2
loop_
 _symmetry_equiv_pos_site_id
 _symmetry_equiv_pos_as_xyz
  1  'x, y, z'
loop_
 _atom_site_type_symbol
 _atom_site_label
 _atom_site_symmetry_multiplicity
 _atom_site_fract_x
 _atom_site_fract_y
 _atom_site_fract_z
 _atom_site_occupancy
  Ni  Ni0  1  0.14622200  0.14622200  0.14622200  1
  Ni  Ni1  1  0.64622200  0.64622200  0.64622200  1
  C  C2  1  0.00113500  0.00113500  0.00113500  1
  C  C3  1  0.50113500  0.50113500  0.50113500  1
  Cu  Cu4  1  0.35773700  0.35773700  0.35773700  1
  Cu  Cu5  1  0.85773700  0.85773700  0.85773700  1
  C  C6  1  0.04301700  0.44988200  0.75686200  1
  C  C7  1  0.44988200  0.75686200  0.04301700  1
  C  C8  1  0.75686200  0.04301700  0.44988200  1
  C  C9  1  0.25686200  0.94988200  0.54301700  1
  C  C10  1  0.54301700  0.25686200  0.94988200  1
  C  C11  1  0.94988200  0.54301700  0.25686200  1
  C  C12  1  0.09658600  0.50423800  0.32666500  1
  C  C13  1  0.32666500  0.09658600  0.50423800  1
  C  C14  1  0.05279600  0.25470900  0.91656400  1
  C  C15  1  0.50423800  0.32666500  0.09658600  1
  C  C16  1  0.00423800  0.59658600  0.82666500  1
  C  C17  1  0.23746000  0.43417200  0.60052900  1
  C  C18  1  0.25470900  0.91656400  0.05279600  1
  C  C19  1  0.43417200  0.60052900  0.23746000  1
  C  C20  1  0.19070400  0.00190900  0.37881400  1
  C  C21  1  0.60052900  0.23746000  0.43417200  1
  C  C22  1  0.10052900  0.93417200  0.73746000  1
  C  C23  1  0.37881400  0.19070400  0.00190900  1
  C  C24  1  0.59658600  0.82666500  0.00423800  1
  C  C25  1  0.91656400  0.05279600  0.25470900  1
  C  C26  1  0.41656400  0.75470900  0.55279600  1
  C  C27  1  0.82666500  0.00423800  0.59658600  1
  C  C28  1  0.55279600  0.41656400  0.75470900  1
  C  C29  1  0.73746000  0.10052900  0.93417200  1
  C  C30  1  0.75470900  0.55279600  0.41656400  1
  C  C31  1  0.00190900  0.37881400  0.19070400  1
  C  C32  1  0.50190900  0.69070400  0.87881400  1
  C  C33  1  0.93417200  0.73746000  0.10052900  1
  C  C34  1  0.69070400  0.87881400  0.50190900  1
  C  C35  1  0.87881400  0.50190900  0.69070400  1
