# generated using pymatgen
data_Cu12NiC21
_symmetry_space_group_name_H-M   'P 1'
_cell_length_a   9.20185199
_cell_length_b   9.20185199
_cell_length_c   9.20185199
_cell_angle_alpha   109.98011262
_cell_angle_beta   109.98011262
_cell_angle_gamma   109.98011262
_symmetry_Int_Tables_number   1
_chemical_formula_structural   Cu12NiC21
_chemical_formula_sum   'Cu12 Ni1 C21'
_cell_volume   588.22427166
_cell_formula_units_Z   1
loop_
 _symmetry_equiv_pos_site_id
 _symmetry_equiv_pos_as_xyz
  1  'x, y, z'
loop_
 _atom_site_type_symbol
 _atom_site_label
 _atom_site_symmetry_multiplicity
 _atom_site_fract_x
 _atom_site_fract_y
 _atom_site_fract_z
 _atom_site_occupancy
  Ni  Ni0  1  0.59463645  0.59463645  0.59463645  1
  Cu  Cu1  1  0.80432867  0.15615388  0.30287643  1
  Cu  Cu2  1  0.86680957  0.66142842  0.15312191  1
  Cu  Cu3  1  0.50263949  0.34411236  0.19639015  1
  Cu  Cu4  1  0.66142842  0.15312191  0.86680957  1
  Cu  Cu5  1  0.34411236  0.19639015  0.50263949  1
  Cu  Cu6  1  0.87584887  0.48595639  0.69783251  1
  Cu  Cu7  1  0.19639015  0.50263949  0.34411236  1
  Cu  Cu8  1  0.30287643  0.80432867  0.15615388  1
  Cu  Cu9  1  0.69783251  0.87584887  0.48595639  1
  Cu  Cu10  1  0.15615388  0.30287643  0.80432867  1
  Cu  Cu11  1  0.48595639  0.69783251  0.87584887  1
  Cu  Cu12  1  0.15312191  0.86680957  0.66142842  1
  C  C13  1  0.00745722  0.00745722  0.00745722  1
  C  C14  1  0.60217946  0.00502755  0.99828252  1
  C  C15  1  0.75380721  0.38803259  0.11807489  1
  C  C16  1  0.19302029  0.01249853  0.99449287  1
  C  C17  1  0.62714381  0.24562549  0.35666656  1
  C  C18  1  0.87515997  0.23045889  0.62043731  1
  C  C19  1  0.99449287  0.19302029  0.01249853  1
  C  C20  1  0.01249853  0.99449287  0.19302029  1
  C  C21  1  0.70049120  0.61836085  0.43481191  1
  C  C22  1  0.36440770  0.36440770  0.36440770  1
  C  C23  1  0.61836085  0.43481191  0.70049120  1
  C  C24  1  0.38803259  0.11807489  0.75380721  1
  C  C25  1  0.35666656  0.62714381  0.24562549  1
  C  C26  1  0.62043731  0.87515997  0.23045889  1
  C  C27  1  0.00502755  0.99828252  0.60217946  1
  C  C28  1  0.99828252  0.60217946  0.00502755  1
  C  C29  1  0.24562549  0.35666656  0.62714381  1
  C  C30  1  0.81619010  0.81619010  0.81619010  1
  C  C31  1  0.43481191  0.70049120  0.61836085  1
  C  C32  1  0.11807489  0.75380721  0.38803259  1
  C  C33  1  0.23045889  0.62043731  0.87515997  1
