# generated using pymatgen
data_Cu2NiC5
_symmetry_space_group_name_H-M   'P 1'
_cell_length_a   7.45256200
_cell_length_b   8.03171800
_cell_length_c   11.81657500
_cell_angle_alpha   90.00000000
_cell_angle_beta   90.00000000
_cell_angle_gamma   90.00000000
_symmetry_Int_Tables_number   1
_chemical_formula_structural   Cu2NiC5
_chemical_formula_sum   'Cu8 Ni4 C20'
_cell_volume   707.30326879
_cell_formula_units_Z   4
loop_
 _symmetry_equiv_pos_site_id
 _symmetry_equiv_pos_as_xyz
  1  'x, y, z'
loop_
 _atom_site_type_symbol
 _atom_site_label
 _atom_site_symmetry_multiplicity
 _atom_site_fract_x
 _atom_site_fract_y
 _atom_site_fract_z
 _atom_site_occupancy
  Ni  Ni0  1  0.02497400  0.49953000  0.82294400  1
  Ni  Ni1  1  0.97502600  0.99953000  0.17705600  1
  Ni  Ni2  1  0.52497400  0.99953000  0.67705600  1
  Ni  Ni3  1  0.47502600  0.49953000  0.32294400  1
  Cu  Cu4  1  0.57462900  0.24977800  0.99226800  1
  Cu  Cu5  1  0.92537100  0.24977800  0.49226800  1
  Cu  Cu6  1  0.42537100  0.74977800  0.00773200  1
  Cu  Cu7  1  0.07462900  0.74977800  0.50773200  1
  Cu  Cu8  1  0.48022000  0.00146300  0.31981300  1
  Cu  Cu9  1  0.51978000  0.50146300  0.68018700  1
  Cu  Cu10  1  0.98022000  0.50146300  0.18018700  1
  Cu  Cu11  1  0.01978000  0.00146300  0.81981300  1
  C  C12  1  0.34488400  0.04217800  0.09929800  1
  C  C13  1  0.17108500  0.45490400  0.59363600  1
  C  C14  1  0.65511600  0.54217800  0.90070200  1
  C  C15  1  0.82891500  0.95490400  0.40636400  1
  C  C16  1  0.67108500  0.95490400  0.90636400  1
  C  C17  1  0.84488400  0.54217800  0.40070200  1
  C  C18  1  0.32891500  0.45490400  0.09363600  1
  C  C19  1  0.15511600  0.04217800  0.59929800  1
  C  C20  1  0.69911900  0.25094300  0.21555700  1
  C  C21  1  0.80088100  0.25094300  0.71555700  1
  C  C22  1  0.30088100  0.75094300  0.78444300  1
  C  C23  1  0.19911900  0.75094300  0.28444300  1
  C  C24  1  0.33033600  0.24960200  0.81294000  1
  C  C25  1  0.16966400  0.24960200  0.31294000  1
  C  C26  1  0.66966400  0.74960200  0.18706000  1
  C  C27  1  0.83033600  0.74960200  0.68706000  1
  C  C28  1  0.95861000  0.25160200  0.99884700  1
  C  C29  1  0.54139000  0.25160200  0.49884700  1
  C  C30  1  0.04139000  0.75160200  0.00115300  1
  C  C31  1  0.45861000  0.75160200  0.50115300  1
