# generated using pymatgen
data_Cu3(NiC2)5
_symmetry_space_group_name_H-M   'P 1'
_cell_length_a   6.83299000
_cell_length_b   8.83328718
_cell_length_c   10.86336378
_cell_angle_alpha   85.28532932
_cell_angle_beta   82.21195441
_cell_angle_gamma   73.17916320
_symmetry_Int_Tables_number   1
_chemical_formula_structural   Cu3(NiC2)5
_chemical_formula_sum   'Cu6 Ni10 C20'
_cell_volume   621.20613950
_cell_formula_units_Z   2
loop_
 _symmetry_equiv_pos_site_id
 _symmetry_equiv_pos_as_xyz
  1  'x, y, z'
loop_
 _atom_site_type_symbol
 _atom_site_label
 _atom_site_symmetry_multiplicity
 _atom_site_fract_x
 _atom_site_fract_y
 _atom_site_fract_z
 _atom_site_occupancy
  C  C0  1  0.30783300  0.29548600  0.31079400  1
  C  C1  1  0.69216700  0.70451400  0.68920600  1
  Ni  Ni2  1  0.07575800  0.47392000  0.33633200  1
  Ni  Ni3  1  0.92424200  0.52608000  0.66366800  1
  Ni  Ni4  1  0.68223400  0.17959300  0.07909900  1
  Ni  Ni5  1  0.31776600  0.82040700  0.92090100  1
  Ni  Ni6  1  0.72574000  0.21528800  0.45154000  1
  Ni  Ni7  1  0.27426000  0.78471200  0.54846000  1
  Ni  Ni8  1  0.12552900  0.20582600  0.91037600  1
  Ni  Ni9  1  0.87447100  0.79417400  0.08962400  1
  Ni  Ni10  1  0.13154700  0.41863300  0.12354300  1
  Ni  Ni11  1  0.86845300  0.58136700  0.87645700  1
  Cu  Cu12  1  0.29551000  0.18754600  0.56658700  1
  Cu  Cu13  1  0.70449000  0.81245400  0.43341300  1
  Cu  Cu14  1  0.14583200  0.07989600  0.19649900  1
  Cu  Cu15  1  0.85416800  0.92010400  0.80350100  1
  Cu  Cu16  1  0.49989700  0.58345800  0.20317700  1
  Cu  Cu17  1  0.50010300  0.41654200  0.79682300  1
  C  C18  1  0.03448600  0.19654000  0.26489800  1
  C  C19  1  0.96551400  0.80346000  0.73510200  1
  C  C20  1  0.29389000  0.33276800  0.53680200  1
  C  C21  1  0.70611000  0.66723200  0.46319800  1
  C  C22  1  0.60024500  0.66126700  0.13620400  1
  C  C23  1  0.39975500  0.33873300  0.86379600  1
  C  C24  1  0.57325500  0.42983200  0.20779200  1
  C  C25  1  0.42674500  0.57016800  0.79220800  1
  C  C26  1  0.33130300  0.64494000  0.26594800  1
  C  C27  1  0.66869700  0.35506000  0.73405200  1
  C  C28  1  0.27996600  0.10516500  0.47485900  1
  C  C29  1  0.72003400  0.89483500  0.52514100  1
  C  C30  1  0.07233600  0.98217100  0.16261700  1
  C  C31  1  0.92766400  0.01782900  0.83738300  1
  C  C32  1  0.31105000  0.12825200  0.67145600  1
  C  C33  1  0.68895000  0.87174800  0.32854400  1
  C  C34  1  0.33674500  0.07561900  0.16723500  1
  C  C35  1  0.66325500  0.92438100  0.83276500  1
