# generated using pymatgen
data_Cu2NiC7
_symmetry_space_group_name_H-M   'P 1'
_cell_length_a   5.32678500
_cell_length_b   9.18934900
_cell_length_c   18.72667900
_cell_angle_alpha   90.00000000
_cell_angle_beta   90.00000000
_cell_angle_gamma   90.00000000
_symmetry_Int_Tables_number   1
_chemical_formula_structural   Cu2NiC7
_chemical_formula_sum   'Cu16 Ni8 C56'
_cell_volume   916.66506461
_cell_formula_units_Z   8
loop_
 _symmetry_equiv_pos_site_id
 _symmetry_equiv_pos_as_xyz
  1  'x, y, z'
loop_
 _atom_site_type_symbol
 _atom_site_label
 _atom_site_symmetry_multiplicity
 _atom_site_fract_x
 _atom_site_fract_y
 _atom_site_fract_z
 _atom_site_occupancy
  Ni  Ni0  1  0.61793200  0.15010100  0.37569800  1
  Ni  Ni1  1  0.38206800  0.84989900  0.62430200  1
  Ni  Ni2  1  0.61793200  0.65010100  0.12430200  1
  Ni  Ni3  1  0.11793200  0.84989900  0.12430200  1
  Ni  Ni4  1  0.88206800  0.15010100  0.87569800  1
  Ni  Ni5  1  0.38206800  0.34989900  0.87569800  1
  Ni  Ni6  1  0.11793200  0.34989900  0.37569800  1
  Ni  Ni7  1  0.88206800  0.65010100  0.62430200  1
  C  C8  1  0.37604100  0.98262200  0.87629200  1
  C  C9  1  0.62395900  0.01737800  0.12370800  1
  C  C10  1  0.87604100  0.01737800  0.62370800  1
  C  C11  1  0.12395900  0.98262200  0.37629200  1
  C  C12  1  0.37604100  0.48262200  0.62370800  1
  C  C13  1  0.62395900  0.51737800  0.37629200  1
  C  C14  1  0.87604100  0.51737800  0.87629200  1
  C  C15  1  0.12395900  0.48262200  0.12370800  1
  Cu  Cu16  1  0.56462600  0.66234900  0.77185700  1
  Cu  Cu17  1  0.71231800  0.83570400  0.47525500  1
  Cu  Cu18  1  0.78768200  0.83570400  0.97525500  1
  Cu  Cu19  1  0.93537400  0.16234900  0.22814300  1
  Cu  Cu20  1  0.06462600  0.33765100  0.72814300  1
  Cu  Cu21  1  0.43537400  0.83765100  0.27185700  1
  Cu  Cu22  1  0.21231800  0.66429600  0.47525500  1
  Cu  Cu23  1  0.71231800  0.33570400  0.02474500  1
  Cu  Cu24  1  0.78768200  0.33570400  0.52474500  1
  Cu  Cu25  1  0.93537400  0.66234900  0.27185700  1
  Cu  Cu26  1  0.43537400  0.33765100  0.22814300  1
  Cu  Cu27  1  0.56462600  0.16234900  0.72814300  1
  Cu  Cu28  1  0.28768200  0.16429600  0.52474500  1
  Cu  Cu29  1  0.06462600  0.83765100  0.77185700  1
  Cu  Cu30  1  0.28768200  0.66429600  0.97525500  1
  Cu  Cu31  1  0.21231800  0.16429600  0.02474500  1
  C  C32  1  0.93228100  0.50480300  0.31090600  1
  C  C33  1  0.29711100  0.01671800  0.06562800  1
  C  C34  1  0.06771900  0.49519700  0.68909400  1
  C  C35  1  0.71065600  0.33946000  0.93696200  1
  C  C36  1  0.21065600  0.16054000  0.93696200  1
  C  C37  1  0.92271100  0.21028000  0.05080600  1
  C  C38  1  0.94170700  0.66440700  0.18477300  1
  C  C39  1  0.05829300  0.83559300  0.68477300  1
  C  C40  1  0.71065600  0.83946000  0.56303800  1
  C  C41  1  0.94170700  0.16440700  0.31522700  1
  C  C42  1  0.43228100  0.49519700  0.18909400  1
  C  C43  1  0.78934400  0.33946000  0.43696200  1
  C  C44  1  0.70288900  0.98328200  0.93437200  1
  C  C45  1  0.44170700  0.83559300  0.18477300  1
  C  C46  1  0.56771900  0.00480300  0.68909400  1
  C  C47  1  0.29711100  0.51671800  0.43437200  1
  C  C48  1  0.43228100  0.99519700  0.31090600  1
  C  C49  1  0.16523000  0.76749600  0.30259100  1
  C  C50  1  0.33477000  0.76749600  0.80259100  1
  C  C51  1  0.57728900  0.71028000  0.94919400  1
  C  C52  1  0.78934400  0.83946000  0.06303800  1
  C  C53  1  0.55829300  0.66440700  0.68477300  1
  C  C54  1  0.79711100  0.48328200  0.06562800  1
  C  C55  1  0.16523000  0.26749600  0.19740900  1
  C  C56  1  0.28934400  0.16054000  0.43696200  1
  C  C57  1  0.55829300  0.16440700  0.81522700  1
  C  C58  1  0.70288900  0.48328200  0.56562800  1
  C  C59  1  0.21065600  0.66054000  0.56303800  1
  C  C60  1  0.20288900  0.51671800  0.93437200  1
  C  C61  1  0.66523000  0.73250400  0.30259100  1
  C  C62  1  0.06771900  0.99519700  0.81090600  1
  C  C63  1  0.83477000  0.73250400  0.80259100  1
  C  C64  1  0.83477000  0.23250400  0.69740900  1
  C  C65  1  0.79711100  0.98328200  0.43437200  1
  C  C66  1  0.28934400  0.66054000  0.06303800  1
  C  C67  1  0.20288900  0.01671800  0.56562800  1
  C  C68  1  0.33477000  0.26749600  0.69740900  1
  C  C69  1  0.07728900  0.78972000  0.94919400  1
  C  C70  1  0.42271100  0.78972000  0.44919400  1
  C  C71  1  0.66523000  0.23250400  0.19740900  1
  C  C72  1  0.42271100  0.28972000  0.05080600  1
  C  C73  1  0.57728900  0.21028000  0.55080600  1
  C  C74  1  0.07728900  0.28972000  0.55080600  1
  C  C75  1  0.44170700  0.33559300  0.31522700  1
  C  C76  1  0.56771900  0.50480300  0.81090600  1
  C  C77  1  0.92271100  0.71028000  0.44919400  1
  C  C78  1  0.05829300  0.33559300  0.81522700  1
  C  C79  1  0.93228100  0.00480300  0.18909400  1
