# generated using pymatgen
data_Cu2Ni2C11
_symmetry_space_group_name_H-M   'P 1'
_cell_length_a   7.66006829
_cell_length_b   7.66006829
_cell_length_c   9.09593800
_cell_angle_alpha   90.00000000
_cell_angle_beta   90.00000000
_cell_angle_gamma   125.57450574
_symmetry_Int_Tables_number   1
_chemical_formula_structural   Cu2Ni2C11
_chemical_formula_sum   'Cu4 Ni4 C22'
_cell_volume   434.10563705
_cell_formula_units_Z   2
loop_
 _symmetry_equiv_pos_site_id
 _symmetry_equiv_pos_as_xyz
  1  'x, y, z'
loop_
 _atom_site_type_symbol
 _atom_site_label
 _atom_site_symmetry_multiplicity
 _atom_site_fract_x
 _atom_site_fract_y
 _atom_site_fract_z
 _atom_site_occupancy
  Ni  Ni0  1  0.74702600  0.25297400  0.21752300  1
  Ni  Ni1  1  0.44591100  0.55408900  0.48961000  1
  Ni  Ni2  1  0.55408900  0.44591100  0.98961000  1
  Ni  Ni3  1  0.25297400  0.74702600  0.71752300  1
  Cu  Cu4  1  0.00508000  0.99492000  0.51643400  1
  Cu  Cu5  1  0.29835200  0.70164800  0.14679100  1
  Cu  Cu6  1  0.99492000  0.00508000  0.01643400  1
  Cu  Cu7  1  0.70164800  0.29835200  0.64679100  1
  C  C8  1  0.62316600  0.37683400  0.16809900  1
  C  C9  1  0.82936800  0.17063200  0.65600800  1
  C  C10  1  0.16052000  0.27162100  0.46678900  1
  C  C11  1  0.96281000  0.03719000  0.20083800  1
  C  C12  1  0.74700100  0.25299900  0.40111200  1
  C  C13  1  0.72837900  0.83948000  0.46678900  1
  C  C14  1  0.17063200  0.82936800  0.15600800  1
  C  C15  1  0.65684700  0.34315300  0.83224000  1
  C  C16  1  0.25299900  0.74700100  0.90111200  1
  C  C17  1  0.41932000  0.58068000  0.04678100  1
  C  C18  1  0.27162100  0.16052000  0.96678900  1
  C  C19  1  0.37683400  0.62316600  0.66809900  1
  C  C20  1  0.42806700  0.01691900  0.64516400  1
  C  C21  1  0.57193300  0.98308100  0.14516400  1
  C  C22  1  0.83948000  0.72837900  0.96678900  1
  C  C23  1  0.01691900  0.42806700  0.14516400  1
  C  C24  1  0.98308100  0.57193300  0.64516400  1
  C  C25  1  0.58068000  0.41932000  0.54678100  1
  C  C26  1  0.34315300  0.65684700  0.33224000  1
  C  C27  1  0.03719000  0.96281000  0.70083800  1
  C  C28  1  0.88405000  0.11595000  0.92665800  1
  C  C29  1  0.11595000  0.88405000  0.42665800  1
