# generated using pymatgen
data_CuNiC7
_symmetry_space_group_name_H-M   'P 1'
_cell_length_a   6.27036500
_cell_length_b   8.40903000
_cell_length_c   10.48639748
_cell_angle_alpha   90.00000000
_cell_angle_beta   99.05350887
_cell_angle_gamma   90.00000000
_symmetry_Int_Tables_number   1
_chemical_formula_structural   CuNiC7
_chemical_formula_sum   'Cu4 Ni4 C28'
_cell_volume   546.03506512
_cell_formula_units_Z   4
loop_
 _symmetry_equiv_pos_site_id
 _symmetry_equiv_pos_as_xyz
  1  'x, y, z'
loop_
 _atom_site_type_symbol
 _atom_site_label
 _atom_site_symmetry_multiplicity
 _atom_site_fract_x
 _atom_site_fract_y
 _atom_site_fract_z
 _atom_site_occupancy
  C  C0  1  0.96562500  0.29252000  0.67668300  1
  C  C1  1  0.03437500  0.79252000  0.82331700  1
  C  C2  1  0.03437500  0.70748000  0.32331700  1
  C  C3  1  0.96562500  0.20748000  0.17668300  1
  Ni  Ni4  1  0.51383500  0.47956000  0.81773200  1
  Ni  Ni5  1  0.48616500  0.97956000  0.68226800  1
  Ni  Ni6  1  0.48616500  0.52044000  0.18226800  1
  Ni  Ni7  1  0.51383500  0.02044000  0.31773200  1
  Cu  Cu8  1  0.37093200  0.14846300  0.95500900  1
  Cu  Cu9  1  0.62906800  0.64846300  0.54499100  1
  Cu  Cu10  1  0.62906800  0.85153700  0.04499100  1
  Cu  Cu11  1  0.37093200  0.35153700  0.45500900  1
  C  C12  1  0.55660400  0.06365600  0.10392200  1
  C  C13  1  0.44339600  0.56365600  0.39607800  1
  C  C14  1  0.44339600  0.93634400  0.89607800  1
  C  C15  1  0.55660400  0.43634400  0.60392200  1
  C  C16  1  0.45834200  0.34838300  0.00772600  1
  C  C17  1  0.54165800  0.84838300  0.49227400  1
  C  C18  1  0.54165800  0.65161700  0.99227400  1
  C  C19  1  0.45834200  0.15161700  0.50772600  1
  C  C20  1  0.38058500  0.21069600  0.78571000  1
  C  C21  1  0.61941500  0.71069600  0.71429000  1
  C  C22  1  0.61941500  0.78930400  0.21429000  1
  C  C23  1  0.38058500  0.28930400  0.28571000  1
  C  C24  1  0.22970000  0.53983100  0.77360500  1
  C  C25  1  0.77030000  0.03983100  0.72639500  1
  C  C26  1  0.77030000  0.46016900  0.22639500  1
  C  C27  1  0.22970000  0.96016900  0.27360500  1
  C  C28  1  0.79726400  0.41978100  0.85507000  1
  C  C29  1  0.20273600  0.91978100  0.64493000  1
  C  C30  1  0.20273600  0.58021900  0.14493000  1
  C  C31  1  0.79726400  0.08021900  0.35507000  1
  C  C32  1  0.11967100  0.13860700  0.97801500  1
  C  C33  1  0.88032900  0.63860700  0.52198500  1
  C  C34  1  0.88032900  0.86139300  0.02198500  1
  C  C35  1  0.11967100  0.36139300  0.47801500  1
