# generated using pymatgen
data_Cu2NiC11
_symmetry_space_group_name_H-M   'P 1'
_cell_length_a   2.98570039
_cell_length_b   2.98570039
_cell_length_c   34.57706200
_cell_angle_alpha   86.85690491
_cell_angle_beta   86.85690491
_cell_angle_gamma   57.59627137
_symmetry_Int_Tables_number   1
_chemical_formula_structural   Cu2NiC11
_chemical_formula_sum   'Cu4 Ni2 C22'
_cell_volume   259.72993423
_cell_formula_units_Z   2
loop_
 _symmetry_equiv_pos_site_id
 _symmetry_equiv_pos_as_xyz
  1  'x, y, z'
loop_
 _atom_site_type_symbol
 _atom_site_label
 _atom_site_symmetry_multiplicity
 _atom_site_fract_x
 _atom_site_fract_y
 _atom_site_fract_z
 _atom_site_occupancy
  C  C0  1  0.71414000  0.71414000  0.92892000  1
  C  C1  1  0.14593700  0.14593700  0.78379300  1
  C  C2  1  0.57830700  0.57830700  0.64168300  1
  C  C3  1  0.99216600  0.99216600  0.50055900  1
  C  C4  1  0.42985100  0.42985100  0.35685000  1
  C  C5  1  0.85628500  0.85628500  0.21450000  1
  C  C6  1  0.28014600  0.28014600  0.07346200  1
  C  C7  1  0.28566300  0.28566300  0.57148800  1
  Ni  Ni8  1  0.99718800  0.99718800  0.00086000  1
  Ni  Ni9  1  0.42939800  0.42939800  0.85667700  1
  Cu  Cu10  1  0.86076700  0.86076700  0.71503600  1
  Cu  Cu11  1  0.71423600  0.71423600  0.42736300  1
  Cu  Cu12  1  0.14364900  0.14364900  0.28519200  1
  Cu  Cu13  1  0.57061400  0.57061400  0.14333300  1
  C  C14  1  0.38008100  0.38008100  0.96729900  1
  C  C15  1  0.81002500  0.81002500  0.82330200  1
  C  C16  1  0.22477100  0.22477100  0.68555900  1
  C  C17  1  0.64509200  0.64509200  0.53425900  1
  C  C18  1  0.07139700  0.07139700  0.39491500  1
  C  C19  1  0.49897900  0.49897900  0.25321500  1
  C  C20  1  0.92210100  0.92210100  0.10993000  1
  C  C21  1  0.04798600  0.04798600  0.89014600  1
  C  C22  1  0.48751000  0.48751000  0.74672700  1
  C  C23  1  0.92640800  0.92640800  0.60918900  1
  C  C24  1  0.36039100  0.36039100  0.45857500  1
  C  C25  1  0.78908000  0.78908000  0.31746200  1
  C  C26  1  0.22060000  0.22060000  0.17589000  1
  C  C27  1  0.61723000  0.61723000  0.03381700  1
