# generated using pymatgen
data_Cu12Ni3C2
_symmetry_space_group_name_H-M   'P 1'
_cell_length_a   9.31809500
_cell_length_b   9.40740200
_cell_length_c   13.00896700
_cell_angle_alpha   90.00000000
_cell_angle_beta   90.00000000
_cell_angle_gamma   90.00000000
_symmetry_Int_Tables_number   1
_chemical_formula_structural   Cu12Ni3C2
_chemical_formula_sum   'Cu48 Ni12 C8'
_cell_volume   1140.35389085
_cell_formula_units_Z   4
loop_
 _symmetry_equiv_pos_site_id
 _symmetry_equiv_pos_as_xyz
  1  'x, y, z'
loop_
 _atom_site_type_symbol
 _atom_site_label
 _atom_site_symmetry_multiplicity
 _atom_site_fract_x
 _atom_site_fract_y
 _atom_site_fract_z
 _atom_site_occupancy
  C  C0  1  0.75052100  0.46394400  0.11670100  1
  C  C1  1  0.75052100  0.03605600  0.88329900  1
  C  C2  1  0.74947900  0.96394400  0.38329900  1
  C  C3  1  0.74947900  0.53605600  0.61670100  1
  C  C4  1  0.24947900  0.53605600  0.88329900  1
  C  C5  1  0.24947900  0.96394400  0.11670100  1
  C  C6  1  0.25052100  0.03605600  0.61670100  1
  C  C7  1  0.25052100  0.46394400  0.38329900  1
  Ni  Ni8  1  0.96603000  0.75000000  0.00000000  1
  Ni  Ni9  1  0.53397000  0.25000000  0.50000000  1
  Ni  Ni10  1  0.03397000  0.25000000  0.00000000  1
  Ni  Ni11  1  0.46603000  0.75000000  0.50000000  1
  Ni  Ni12  1  0.89212300  0.61025100  0.35442400  1
  Ni  Ni13  1  0.89212300  0.88974900  0.64557600  1
  Ni  Ni14  1  0.60787700  0.11025100  0.14557600  1
  Ni  Ni15  1  0.60787700  0.38974900  0.85442400  1
  Ni  Ni16  1  0.10787700  0.38974900  0.64557600  1
  Ni  Ni17  1  0.10787700  0.11025100  0.35442400  1
  Ni  Ni18  1  0.39212300  0.88974900  0.85442400  1
  Ni  Ni19  1  0.39212300  0.61025100  0.14557600  1
  Cu  Cu20  1  0.83499400  0.57214600  0.45695100  1
  Cu  Cu21  1  0.83499400  0.92785400  0.54304900  1
  Cu  Cu22  1  0.66500600  0.07214600  0.04304900  1
  Cu  Cu23  1  0.66500600  0.42785400  0.95695100  1
  Cu  Cu24  1  0.16500600  0.42785400  0.54304900  1
  Cu  Cu25  1  0.16500600  0.07214600  0.45695100  1
  Cu  Cu26  1  0.33499400  0.92785400  0.95695100  1
  Cu  Cu27  1  0.33499400  0.57214600  0.04304900  1
  Cu  Cu28  1  0.64216100  0.26070600  0.16918100  1
  Cu  Cu29  1  0.64216100  0.23929400  0.83081900  1
  Cu  Cu30  1  0.85783900  0.76070600  0.33081900  1
  Cu  Cu31  1  0.85783900  0.73929400  0.66918100  1
  Cu  Cu32  1  0.35783900  0.73929400  0.83081900  1
  Cu  Cu33  1  0.35783900  0.76070600  0.16918100  1
  Cu  Cu34  1  0.14216100  0.23929400  0.66918100  1
  Cu  Cu35  1  0.14216100  0.26070600  0.33081900  1
  Cu  Cu36  1  0.05709800  0.66938700  0.92700400  1
  Cu  Cu37  1  0.94290200  0.33061300  0.07299600  1
  Cu  Cu38  1  0.55709800  0.83061300  0.42700400  1
  Cu  Cu39  1  0.55709800  0.66938700  0.57299600  1
  Cu  Cu40  1  0.04995600  0.59165400  0.35296100  1
  Cu  Cu41  1  0.04995600  0.90834600  0.64703900  1
  Cu  Cu42  1  0.45004400  0.09165400  0.14703900  1
  Cu  Cu43  1  0.45004400  0.40834600  0.85296100  1
  Cu  Cu44  1  0.95004400  0.40834600  0.64703900  1
  Cu  Cu45  1  0.95004400  0.09165400  0.35296100  1
  Cu  Cu46  1  0.54995600  0.90834600  0.85296100  1
  Cu  Cu47  1  0.54995600  0.59165400  0.14703900  1
  Cu  Cu48  1  0.37385900  0.65154000  0.44093300  1
  Cu  Cu49  1  0.37385900  0.84846000  0.55906700  1
  Cu  Cu50  1  0.12614100  0.15154000  0.05906700  1
  Cu  Cu51  1  0.12614100  0.34846000  0.94093300  1
  Cu  Cu52  1  0.62614100  0.34846000  0.55906700  1
  Cu  Cu53  1  0.62614100  0.15154000  0.44093300  1
  Cu  Cu54  1  0.87385900  0.84846000  0.94093300  1
  Cu  Cu55  1  0.87385900  0.65154000  0.05906700  1
  Cu  Cu56  1  0.32615900  0.51598700  0.22375000  1
  Cu  Cu57  1  0.32615900  0.98401300  0.77625000  1
  Cu  Cu58  1  0.17384100  0.01598700  0.27625000  1
  Cu  Cu59  1  0.17384100  0.48401300  0.72375000  1
  Cu  Cu60  1  0.67384100  0.48401300  0.77625000  1
  Cu  Cu61  1  0.67384100  0.01598700  0.22375000  1
  Cu  Cu62  1  0.82615900  0.98401300  0.72375000  1
  Cu  Cu63  1  0.82615900  0.51598700  0.27625000  1
  Cu  Cu64  1  0.44290200  0.33061300  0.42700400  1
  Cu  Cu65  1  0.44290200  0.16938700  0.57299600  1
  Cu  Cu66  1  0.05709800  0.83061300  0.07299600  1
  Cu  Cu67  1  0.94290200  0.16938700  0.92700400  1
