# generated using pymatgen
data_Cu14Ni2C9
_symmetry_space_group_name_H-M   'P 1'
_cell_length_a   6.66115600
_cell_length_b   8.85330900
_cell_length_c   10.40868405
_cell_angle_alpha   88.49763542
_cell_angle_beta   90.00000000
_cell_angle_gamma   90.00000000
_symmetry_Int_Tables_number   1
_chemical_formula_structural   Cu14Ni2C9
_chemical_formula_sum   'Cu28 Ni4 C18'
_cell_volume   613.62315013
_cell_formula_units_Z   2
loop_
 _symmetry_equiv_pos_site_id
 _symmetry_equiv_pos_as_xyz
  1  'x, y, z'
loop_
 _atom_site_type_symbol
 _atom_site_label
 _atom_site_symmetry_multiplicity
 _atom_site_fract_x
 _atom_site_fract_y
 _atom_site_fract_z
 _atom_site_occupancy
  C  C0  1  0.75000000  0.91448500  0.61040700  1
  C  C1  1  0.99296700  0.74325300  0.88120500  1
  C  C2  1  0.50703300  0.74325300  0.88120500  1
  C  C3  1  0.98780900  0.72889900  0.36563400  1
  C  C4  1  0.51219100  0.72889900  0.36563400  1
  C  C5  1  0.48780900  0.27110100  0.63436600  1
  C  C6  1  0.01219100  0.27110100  0.63436600  1
  C  C7  1  0.49296700  0.25674700  0.11879500  1
  C  C8  1  0.00703300  0.25674700  0.11879500  1
  C  C9  1  0.25000000  0.08551500  0.38959300  1
  C  C10  1  0.25000000  0.65394700  0.60976700  1
  C  C11  1  0.25000000  0.65199300  0.11060600  1
  C  C12  1  0.75000000  0.34800700  0.88939400  1
  C  C13  1  0.75000000  0.34605300  0.39023300  1
  C  C14  1  0.75000000  0.58234400  0.64146900  1
  C  C15  1  0.75000000  0.58022400  0.14095900  1
  C  C16  1  0.25000000  0.41977600  0.85904100  1
  C  C17  1  0.25000000  0.41765600  0.35853100  1
  Ni  Ni18  1  0.25000000  0.93666800  0.64160800  1
  Ni  Ni19  1  0.25000000  0.93405900  0.14433700  1
  Ni  Ni20  1  0.75000000  0.06594100  0.85566300  1
  Ni  Ni21  1  0.75000000  0.06333200  0.35839200  1
  Cu  Cu22  1  0.75000000  0.92385400  0.83839300  1
  Cu  Cu23  1  0.75000000  0.92012000  0.34850500  1
  Cu  Cu24  1  0.25000000  0.87563600  0.52779100  1
  Cu  Cu25  1  0.25000000  0.87357400  0.03288700  1
  Cu  Cu26  1  0.25000000  0.84130400  0.73899200  1
  Cu  Cu27  1  0.25000000  0.83883200  0.24293900  1
  Cu  Cu28  1  0.93565600  0.68146500  0.60512900  1
  Cu  Cu29  1  0.56434400  0.68146500  0.60512900  1
  Cu  Cu30  1  0.93778600  0.67563300  0.10452900  1
  Cu  Cu31  1  0.56221400  0.67563300  0.10452900  1
  Cu  Cu32  1  0.25000000  0.57255800  0.92856700  1
  Cu  Cu33  1  0.25000000  0.56957100  0.42861200  1
  Cu  Cu34  1  0.75000000  0.54818400  0.79014200  1
  Cu  Cu35  1  0.75000000  0.54693800  0.28981200  1
  Cu  Cu36  1  0.25000000  0.45306200  0.71018800  1
  Cu  Cu37  1  0.25000000  0.45181600  0.20985800  1
  Cu  Cu38  1  0.75000000  0.43042900  0.57138800  1
  Cu  Cu39  1  0.75000000  0.42744200  0.07143300  1
  Cu  Cu40  1  0.43778600  0.32436700  0.89547100  1
  Cu  Cu41  1  0.06221400  0.32436700  0.89547100  1
  Cu  Cu42  1  0.43565600  0.31853500  0.39487100  1
  Cu  Cu43  1  0.06434400  0.31853500  0.39487100  1
  Cu  Cu44  1  0.75000000  0.16116800  0.75706100  1
  Cu  Cu45  1  0.75000000  0.15869600  0.26100800  1
  Cu  Cu46  1  0.75000000  0.12642600  0.96711300  1
  Cu  Cu47  1  0.75000000  0.12436400  0.47220900  1
  Cu  Cu48  1  0.25000000  0.07988000  0.65149500  1
  Cu  Cu49  1  0.25000000  0.07614600  0.16160700  1
