# generated using pymatgen
data_Cu3NiC6
_symmetry_space_group_name_H-M   'P 1'
_cell_length_a   4.76374294
_cell_length_b   6.73017419
_cell_length_c   13.86992356
_cell_angle_alpha   81.46980006
_cell_angle_beta   86.41724214
_cell_angle_gamma   101.92776223
_symmetry_Int_Tables_number   1
_chemical_formula_structural   Cu3NiC6
_chemical_formula_sum   'Cu3 Ni1 C6'
_cell_volume   428.26868526
_cell_formula_units_Z   1
loop_
 _symmetry_equiv_pos_site_id
 _symmetry_equiv_pos_as_xyz
  1  'x, y, z'
loop_
 _atom_site_type_symbol
 _atom_site_label
 _atom_site_symmetry_multiplicity
 _atom_site_fract_x
 _atom_site_fract_y
 _atom_site_fract_z
 _atom_site_occupancy
  Ni  Ni0  1  0.00000000  0.00000000  0.00000000  1
  Cu  Cu1  1  0.00000000  0.00000000  0.50000000  1
  Cu  Cu2  1  0.50000000  0.50000000  0.00000000  1
  Cu  Cu3  1  0.00000000  0.50000000  0.00000000  1
  C  C4  1  0.95948200  0.28544100  0.91108600  1
  C  C5  1  0.04051800  0.71455900  0.08891400  1
  C  C6  1  0.93244400  0.93285900  0.63655900  1
  C  C7  1  0.06755600  0.06714100  0.36344100  1
  C  C8  1  0.58712000  0.81232700  0.97353400  1
  C  C9  1  0.41288000  0.18767300  0.02646600  1
