# generated using pymatgen
data_Cu2Ni3C7
_symmetry_space_group_name_H-M   'P 1'
_cell_length_a   16.51111800
_cell_length_b   6.40526400
_cell_length_c   6.45160178
_cell_angle_alpha   88.07874523
_cell_angle_beta   90.00000000
_cell_angle_gamma   90.00000000
_symmetry_Int_Tables_number   1
_chemical_formula_structural   Cu2Ni3C7
_chemical_formula_sum   'Cu8 Ni12 C28'
_cell_volume   681.92538964
_cell_formula_units_Z   4
loop_
 _symmetry_equiv_pos_site_id
 _symmetry_equiv_pos_as_xyz
  1  'x, y, z'
loop_
 _atom_site_type_symbol
 _atom_site_label
 _atom_site_symmetry_multiplicity
 _atom_site_fract_x
 _atom_site_fract_y
 _atom_site_fract_z
 _atom_site_occupancy
  C  C0  1  0.00120300  0.31198700  0.75477600  1
  C  C1  1  0.99879700  0.68801300  0.24522400  1
  C  C2  1  0.50120300  0.18801300  0.24522400  1
  C  C3  1  0.49879700  0.81198700  0.75477600  1
  Ni  Ni4  1  0.32512600  0.06902700  0.53219800  1
  Ni  Ni5  1  0.67487400  0.93097300  0.46780200  1
  Ni  Ni6  1  0.82512600  0.43097300  0.46780200  1
  Ni  Ni7  1  0.17487400  0.56902700  0.53219800  1
  Ni  Ni8  1  0.16914200  0.44009800  0.02768400  1
  Ni  Ni9  1  0.83085800  0.55990200  0.97231600  1
  Ni  Ni10  1  0.66914200  0.05990200  0.97231600  1
  Ni  Ni11  1  0.33085800  0.94009800  0.02768400  1
  Ni  Ni12  1  0.01112100  0.12104900  0.24277800  1
  Ni  Ni13  1  0.98887900  0.87895100  0.75722200  1
  Ni  Ni14  1  0.51112100  0.37895100  0.75722200  1
  Ni  Ni15  1  0.48887900  0.62104900  0.24277800  1
  Cu  Cu16  1  0.34960600  0.31316900  0.78485500  1
  Cu  Cu17  1  0.65039400  0.68683100  0.21514500  1
  Cu  Cu18  1  0.84960600  0.18683100  0.21514500  1
  Cu  Cu19  1  0.15039400  0.81316900  0.78485500  1
  Cu  Cu20  1  0.15058700  0.19473100  0.30224000  1
  Cu  Cu21  1  0.84941300  0.80526900  0.69776000  1
  Cu  Cu22  1  0.65058700  0.30526900  0.69776000  1
  Cu  Cu23  1  0.34941300  0.69473100  0.30224000  1
  C  C24  1  0.38912700  0.10759800  0.92600800  1
  C  C25  1  0.61087300  0.89240200  0.07399200  1
  C  C26  1  0.88912700  0.39240200  0.07399200  1
  C  C27  1  0.11087300  0.60759800  0.92600800  1
  C  C28  1  0.43137600  0.39851500  0.64065500  1
  C  C29  1  0.56862400  0.60148500  0.35934500  1
  C  C30  1  0.93137600  0.10148500  0.35934500  1
  C  C31  1  0.06862400  0.89851500  0.64065500  1
  C  C32  1  0.29008000  0.18301600  0.59064200  1
  C  C33  1  0.70992000  0.81698400  0.40935800  1
  C  C34  1  0.79008000  0.31698400  0.40935800  1
  C  C35  1  0.20992000  0.68301600  0.59064200  1
  C  C36  1  0.11095200  0.39393700  0.43237200  1
  C  C37  1  0.88904800  0.60606300  0.56762800  1
  C  C38  1  0.61095200  0.10606300  0.56762800  1
  C  C39  1  0.38904800  0.89393700  0.43237200  1
  C  C40  1  0.06418400  0.11163300  0.15472500  1
  C  C41  1  0.93581600  0.88836700  0.84527500  1
  C  C42  1  0.56418400  0.38836700  0.84527500  1
  C  C43  1  0.43581600  0.61163300  0.15472500  1
  C  C44  1  0.20280200  0.31678800  0.09151800  1
  C  C45  1  0.79719800  0.68321200  0.90848200  1
  C  C46  1  0.70280200  0.18321200  0.90848200  1
  C  C47  1  0.29719800  0.81678800  0.09151800  1
