# generated using pymatgen
data_Cu2Ni6C19
_symmetry_space_group_name_H-M   'P 1'
_cell_length_a   5.97011700
_cell_length_b   7.95398700
_cell_length_c   18.55933872
_cell_angle_alpha   88.30291517
_cell_angle_beta   90.00000000
_cell_angle_gamma   90.00000000
_symmetry_Int_Tables_number   1
_chemical_formula_structural   Cu2Ni6C19
_chemical_formula_sum   'Cu4 Ni12 C38'
_cell_volume   880.92651078
_cell_formula_units_Z   2
loop_
 _symmetry_equiv_pos_site_id
 _symmetry_equiv_pos_as_xyz
  1  'x, y, z'
loop_
 _atom_site_type_symbol
 _atom_site_label
 _atom_site_symmetry_multiplicity
 _atom_site_fract_x
 _atom_site_fract_y
 _atom_site_fract_z
 _atom_site_occupancy
  Ni  Ni0  1  0.75822100  0.50199000  0.08234600  1
  Ni  Ni1  1  0.24177900  0.49801000  0.91765400  1
  Ni  Ni2  1  0.75822100  0.49801000  0.41765400  1
  Ni  Ni3  1  0.24177900  0.50199000  0.58234600  1
  Ni  Ni4  1  0.74535900  0.96937200  0.08952700  1
  Ni  Ni5  1  0.25464100  0.03062800  0.91047300  1
  Ni  Ni6  1  0.74535900  0.03062800  0.41047300  1
  Ni  Ni7  1  0.25464100  0.96937200  0.58952700  1
  Ni  Ni8  1  0.72604800  0.00000000  0.75000000  1
  Ni  Ni9  1  0.27395200  0.00000000  0.25000000  1
  Ni  Ni10  1  0.67058400  0.50000000  0.75000000  1
  Ni  Ni11  1  0.32941600  0.50000000  0.25000000  1
  Cu  Cu12  1  0.74688100  0.75175400  0.91033800  1
  Cu  Cu13  1  0.25311900  0.24824600  0.08966200  1
  Cu  Cu14  1  0.74688100  0.24824600  0.58966200  1
  Cu  Cu15  1  0.25311900  0.75175400  0.41033800  1
  C  C16  1  0.74937300  0.75229400  0.55590600  1
  C  C17  1  0.25062700  0.24770600  0.44409400  1
  C  C18  1  0.74937300  0.24770600  0.94409400  1
  C  C19  1  0.25062700  0.75229400  0.05590600  1
  C  C20  1  0.77117600  0.77968900  0.26799500  1
  C  C21  1  0.22882400  0.22031100  0.73200500  1
  C  C22  1  0.77117600  0.22031100  0.23200500  1
  C  C23  1  0.22882400  0.77968900  0.76799500  1
  C  C24  1  0.20885200  0.00000000  0.75000000  1
  C  C25  1  0.79114800  0.00000000  0.25000000  1
  C  C26  1  0.49758800  0.76394900  0.00071300  1
  C  C27  1  0.50241200  0.23605100  0.99928700  1
  C  C28  1  0.49758800  0.23605100  0.49928700  1
  C  C29  1  0.50241200  0.76394900  0.50071300  1
  C  C30  1  0.76016200  0.94293000  0.60600000  1
  C  C31  1  0.23983800  0.05707000  0.39400000  1
  C  C32  1  0.76016200  0.05707000  0.89400000  1
  C  C33  1  0.23983800  0.94293000  0.10600000  1
  C  C34  1  0.01244200  0.76216100  0.99584300  1
  C  C35  1  0.98755800  0.23783900  0.00415700  1
  C  C36  1  0.01244200  0.23783900  0.50415700  1
  C  C37  1  0.98755800  0.76216100  0.49584300  1
  C  C38  1  0.31390900  0.69251000  0.68702400  1
  C  C39  1  0.68609100  0.30749000  0.31297600  1
  C  C40  1  0.31390900  0.30749000  0.81297600  1
  C  C41  1  0.68609100  0.69251000  0.18702400  1
  C  C42  1  0.45048400  0.75339700  0.83301600  1
  C  C43  1  0.54951600  0.24660300  0.16698400  1
  C  C44  1  0.45048400  0.24660300  0.66698400  1
  C  C45  1  0.54951600  0.75339700  0.33301600  1
  C  C46  1  0.97121900  0.72978800  0.81137400  1
  C  C47  1  0.02878100  0.27021200  0.18862600  1
  C  C48  1  0.97121900  0.27021200  0.68862600  1
  C  C49  1  0.02878100  0.72978800  0.31137400  1
  C  C50  1  0.75371700  0.54007700  0.59220500  1
  C  C51  1  0.24628300  0.45992300  0.40779500  1
  C  C52  1  0.75371700  0.45992300  0.90779500  1
  C  C53  1  0.24628300  0.54007700  0.09220500  1
