# generated using pymatgen
data_CuNi3C4
_symmetry_space_group_name_H-M   'P 1'
_cell_length_a   3.62622700
_cell_length_b   3.62622700
_cell_length_c   13.04445900
_cell_angle_alpha   90.00000000
_cell_angle_beta   90.00000000
_cell_angle_gamma   90.00000000
_symmetry_Int_Tables_number   1
_chemical_formula_structural   CuNi3C4
_chemical_formula_sum   'Cu1 Ni3 C4'
_cell_volume   171.52840393
_cell_formula_units_Z   1
loop_
 _symmetry_equiv_pos_site_id
 _symmetry_equiv_pos_as_xyz
  1  'x, y, z'
loop_
 _atom_site_type_symbol
 _atom_site_label
 _atom_site_symmetry_multiplicity
 _atom_site_fract_x
 _atom_site_fract_y
 _atom_site_fract_z
 _atom_site_occupancy
  C  C0  1  0.50000000  0.00000000  0.00512400  1
  C  C1  1  0.50000000  0.00000000  0.49965900  1
  C  C2  1  0.00000000  0.50000000  0.00512400  1
  C  C3  1  0.00000000  0.50000000  0.49965900  1
  Ni  Ni4  1  0.00000000  0.00000000  0.64284000  1
  Ni  Ni5  1  0.50000000  0.50000000  0.35649000  1
  Ni  Ni6  1  0.50000000  0.50000000  0.86405200  1
  Cu  Cu7  1  0.00000000  0.00000000  0.12705300  1
