# generated using pymatgen
data_Cu14NiC9
_symmetry_space_group_name_H-M   'P 1'
_cell_length_a   7.02975300
_cell_length_b   12.57602700
_cell_length_c   19.73263500
_cell_angle_alpha   90.00000000
_cell_angle_beta   90.00000000
_cell_angle_gamma   90.00000000
_symmetry_Int_Tables_number   1
_chemical_formula_structural   Cu14NiC9
_chemical_formula_sum   'Cu56 Ni4 C36'
_cell_volume   1744.49050324
_cell_formula_units_Z   4
loop_
 _symmetry_equiv_pos_site_id
 _symmetry_equiv_pos_as_xyz
  1  'x, y, z'
loop_
 _atom_site_type_symbol
 _atom_site_label
 _atom_site_symmetry_multiplicity
 _atom_site_fract_x
 _atom_site_fract_y
 _atom_site_fract_z
 _atom_site_occupancy
  C  C0  1  0.18344800  0.10978200  0.94916400  1
  C  C1  1  0.31655200  0.60978200  0.55083600  1
  C  C2  1  0.68344800  0.89021800  0.55083600  1
  C  C3  1  0.81655200  0.39021800  0.94916400  1
  C  C4  1  0.81655200  0.89021800  0.05083600  1
  C  C5  1  0.68344800  0.39021800  0.44916400  1
  C  C6  1  0.31655200  0.10978200  0.44916400  1
  C  C7  1  0.18344800  0.60978200  0.05083600  1
  C  C8  1  0.30436500  0.84550000  0.90569000  1
  C  C9  1  0.19563500  0.34550000  0.59431000  1
  C  C10  1  0.80436500  0.15450000  0.59431000  1
  C  C11  1  0.69563500  0.65450000  0.90569000  1
  C  C12  1  0.69563500  0.15450000  0.09431000  1
  C  C13  1  0.80436500  0.65450000  0.40569000  1
  C  C14  1  0.19563500  0.84550000  0.40569000  1
  C  C15  1  0.30436500  0.34550000  0.09431000  1
  C  C16  1  0.97344400  0.00661100  0.79119200  1
  C  C17  1  0.52655600  0.50661100  0.70880800  1
  C  C18  1  0.47344400  0.99338900  0.70880800  1
  C  C19  1  0.02655600  0.49338900  0.79119200  1
  C  C20  1  0.02655600  0.99338900  0.20880800  1
  C  C21  1  0.47344400  0.49338900  0.29119200  1
  C  C22  1  0.52655600  0.00661100  0.29119200  1
  C  C23  1  0.97344400  0.50661100  0.20880800  1
  C  C24  1  0.50000000  0.75000000  0.75743200  1
  C  C25  1  0.00000000  0.25000000  0.74256800  1
  C  C26  1  0.50000000  0.25000000  0.24256800  1
  C  C27  1  0.00000000  0.75000000  0.25743200  1
  C  C28  1  0.35198600  0.96546700  0.08108500  1
  C  C29  1  0.14801400  0.46546700  0.41891500  1
  C  C30  1  0.85198600  0.03453300  0.41891500  1
  C  C31  1  0.64801400  0.53453300  0.08108500  1
  C  C32  1  0.64801400  0.03453300  0.91891500  1
  C  C33  1  0.85198600  0.53453300  0.58108500  1
  C  C34  1  0.14801400  0.96546700  0.58108500  1
  C  C35  1  0.35198600  0.46546700  0.91891500  1
  Ni  Ni36  1  0.50000000  0.25000000  0.80720400  1
  Ni  Ni37  1  0.00000000  0.75000000  0.69279600  1
  Ni  Ni38  1  0.50000000  0.75000000  0.19279600  1
  Ni  Ni39  1  0.00000000  0.25000000  0.30720400  1
  Cu  Cu40  1  0.21770600  0.97338400  0.01675800  1
  Cu  Cu41  1  0.28229400  0.47338400  0.48324200  1
  Cu  Cu42  1  0.71770600  0.02661600  0.48324200  1
  Cu  Cu43  1  0.78229400  0.52661600  0.01675800  1
  Cu  Cu44  1  0.78229400  0.02661600  0.98324200  1
  Cu  Cu45  1  0.71770600  0.52661600  0.51675800  1
  Cu  Cu46  1  0.28229400  0.97338400  0.51675800  1
  Cu  Cu47  1  0.21770600  0.47338400  0.98324200  1
  Cu  Cu48  1  0.48702700  0.11305600  0.93673000  1
  Cu  Cu49  1  0.01297300  0.61305600  0.56327000  1
  Cu  Cu50  1  0.98702700  0.88694400  0.56327000  1
  Cu  Cu51  1  0.51297300  0.38694400  0.93673000  1
  Cu  Cu52  1  0.51297300  0.88694400  0.06327000  1
  Cu  Cu53  1  0.98702700  0.38694400  0.43673000  1
  Cu  Cu54  1  0.01297300  0.11305600  0.43673000  1
  Cu  Cu55  1  0.48702700  0.61305600  0.06327000  1
  Cu  Cu56  1  0.15027500  0.98234400  0.87949400  1
  Cu  Cu57  1  0.34972500  0.48234400  0.62050600  1
  Cu  Cu58  1  0.65027500  0.01765600  0.62050600  1
  Cu  Cu59  1  0.84972500  0.51765600  0.87949400  1
  Cu  Cu60  1  0.84972500  0.01765600  0.12050600  1
  Cu  Cu61  1  0.65027500  0.51765600  0.37949400  1
  Cu  Cu62  1  0.34972500  0.98234400  0.37949400  1
  Cu  Cu63  1  0.15027500  0.48234400  0.12050600  1
  Cu  Cu64  1  0.57353500  0.92037600  0.90312900  1
  Cu  Cu65  1  0.92646500  0.42037600  0.59687100  1
  Cu  Cu66  1  0.07353500  0.07962400  0.59687100  1
  Cu  Cu67  1  0.42646500  0.57962400  0.90312900  1
  Cu  Cu68  1  0.42646500  0.07962400  0.09687100  1
  Cu  Cu69  1  0.07353500  0.57962400  0.40312900  1
  Cu  Cu70  1  0.92646500  0.92037600  0.40312900  1
  Cu  Cu71  1  0.57353500  0.42037600  0.09687100  1
  Cu  Cu72  1  0.34293200  0.80473400  0.80140500  1
  Cu  Cu73  1  0.15706800  0.30473400  0.69859500  1
  Cu  Cu74  1  0.84293200  0.19526600  0.69859500  1
  Cu  Cu75  1  0.65706800  0.69526600  0.80140500  1
  Cu  Cu76  1  0.65706800  0.19526600  0.19859500  1
  Cu  Cu77  1  0.84293200  0.69526600  0.30140500  1
  Cu  Cu78  1  0.15706800  0.80473400  0.30140500  1
  Cu  Cu79  1  0.34293200  0.30473400  0.19859500  1
  Cu  Cu80  1  0.09312900  0.16308100  0.78764600  1
  Cu  Cu81  1  0.40687100  0.66308100  0.71235400  1
  Cu  Cu82  1  0.59312900  0.83691900  0.71235400  1
  Cu  Cu83  1  0.90687100  0.33691900  0.78764600  1
  Cu  Cu84  1  0.90687100  0.83691900  0.21235400  1
  Cu  Cu85  1  0.59312900  0.33691900  0.28764600  1
  Cu  Cu86  1  0.40687100  0.16308100  0.28764600  1
  Cu  Cu87  1  0.09312900  0.66308100  0.21235400  1
  Cu  Cu88  1  0.76510200  0.07639200  0.85863400  1
  Cu  Cu89  1  0.73489800  0.57639200  0.64136600  1
  Cu  Cu90  1  0.26510200  0.92360800  0.64136600  1
  Cu  Cu91  1  0.23489800  0.42360800  0.85863400  1
  Cu  Cu92  1  0.23489800  0.92360800  0.14136600  1
  Cu  Cu93  1  0.26510200  0.42360800  0.35863400  1
  Cu  Cu94  1  0.73489800  0.07639200  0.35863400  1
  Cu  Cu95  1  0.76510200  0.57639200  0.14136600  1
