# generated using pymatgen
data_Cu6Ni
_symmetry_space_group_name_H-M   'P 1'
_cell_length_a   4.98826045
_cell_length_b   4.98826045
_cell_length_c   9.56223098
_cell_angle_alpha   85.03260707
_cell_angle_beta   85.03260707
_cell_angle_gamma   119.95713522
_symmetry_Int_Tables_number   1
_chemical_formula_structural   Cu6Ni
_chemical_formula_sum   'Cu12 Ni2'
_cell_volume   203.03561145
_cell_formula_units_Z   2
loop_
 _symmetry_equiv_pos_site_id
 _symmetry_equiv_pos_as_xyz
  1  'x, y, z'
loop_
 _atom_site_type_symbol
 _atom_site_label
 _atom_site_symmetry_multiplicity
 _atom_site_fract_x
 _atom_site_fract_y
 _atom_site_fract_z
 _atom_site_occupancy
  Ni  Ni0  1  0.91671900  0.08328100  0.75000000  1
  Ni  Ni1  1  0.08328100  0.91671900  0.25000000  1
  Cu  Cu2  1  0.78670100  0.95923900  0.12271500  1
  Cu  Cu3  1  0.21329900  0.04076100  0.87728500  1
  Cu  Cu4  1  0.04076100  0.21329900  0.37728500  1
  Cu  Cu5  1  0.95923900  0.78670100  0.62271500  1
  Cu  Cu6  1  0.53468500  0.70093600  0.87808000  1
  Cu  Cu7  1  0.46531500  0.29906400  0.12192000  1
  Cu  Cu8  1  0.29906400  0.46531500  0.62192000  1
  Cu  Cu9  1  0.70093600  0.53468500  0.37808000  1
  Cu  Cu10  1  0.61965000  0.12572200  0.62188500  1
  Cu  Cu11  1  0.38035000  0.87427800  0.37811500  1
  Cu  Cu12  1  0.87427800  0.38035000  0.87811500  1
  Cu  Cu13  1  0.12572200  0.61965000  0.12188500  1
