# generated using pymatgen
data_CuNi2C21
_symmetry_space_group_name_H-M   'P 1'
_cell_length_a   3.90531700
_cell_length_b   3.90531700
_cell_length_c   19.87926700
_cell_angle_alpha   90.00000000
_cell_angle_beta   90.00000000
_cell_angle_gamma   90.00000000
_symmetry_Int_Tables_number   1
_chemical_formula_structural   CuNi2C21
_chemical_formula_sum   'Cu1 Ni2 C21'
_cell_volume   303.18865796
_cell_formula_units_Z   1
loop_
 _symmetry_equiv_pos_site_id
 _symmetry_equiv_pos_as_xyz
  1  'x, y, z'
loop_
 _atom_site_type_symbol
 _atom_site_label
 _atom_site_symmetry_multiplicity
 _atom_site_fract_x
 _atom_site_fract_y
 _atom_site_fract_z
 _atom_site_occupancy
  Ni  Ni0  1  0.50000000  0.50000000  0.81291100  1
  Ni  Ni1  1  0.50000000  0.50000000  0.18434000  1
  Cu  Cu2  1  0.50000000  0.50000000  0.61096700  1
  C  C3  1  0.50000000  0.50000000  0.99942700  1
  C  C4  1  0.50000000  0.50000000  0.40112700  1
  C  C5  1  0.00000000  0.00000000  0.70135200  1
  C  C6  1  0.00000000  0.00000000  0.30107700  1
  C  C7  1  0.00000000  0.00000000  0.50075700  1
  C  C8  1  0.00000000  0.00000000  0.91782700  1
  C  C9  1  0.00000000  0.00000000  0.08123500  1
  C  C10  1  0.00000000  0.50000000  0.69134600  1
  C  C11  1  0.50000000  0.00000000  0.31331900  1
  C  C12  1  0.00000000  0.50000000  0.31331900  1
  C  C13  1  0.50000000  0.00000000  0.69134600  1
  C  C14  1  0.00000000  0.50000000  0.92741600  1
  C  C15  1  0.50000000  0.00000000  0.07311400  1
  C  C16  1  0.00000000  0.50000000  0.07311400  1
  C  C17  1  0.50000000  0.00000000  0.92741600  1
  C  C18  1  0.00000000  0.00000000  0.79482200  1
  C  C19  1  0.00000000  0.00000000  0.20660800  1
  C  C20  1  0.00000000  0.00000000  0.59484000  1
  C  C21  1  0.00000000  0.00000000  0.40151900  1
  C  C22  1  0.00000000  0.50000000  0.49040100  1
  C  C23  1  0.50000000  0.00000000  0.49040100  1
