# generated using pymatgen
data_Cu8NiC16
_symmetry_space_group_name_H-M   'P 1'
_cell_length_a   7.28196126
_cell_length_b   7.77075283
_cell_length_c   5.81790682
_cell_angle_alpha   113.21715348
_cell_angle_beta   110.45790346
_cell_angle_gamma   79.20173399
_symmetry_Int_Tables_number   1
_chemical_formula_structural   Cu8NiC16
_chemical_formula_sum   'Cu8 Ni1 C16'
_cell_volume   283.00102406
_cell_formula_units_Z   1
loop_
 _symmetry_equiv_pos_site_id
 _symmetry_equiv_pos_as_xyz
  1  'x, y, z'
loop_
 _atom_site_type_symbol
 _atom_site_label
 _atom_site_symmetry_multiplicity
 _atom_site_fract_x
 _atom_site_fract_y
 _atom_site_fract_z
 _atom_site_occupancy
  Ni  Ni0  1  0.74258700  0.73554300  0.97256900  1
  Cu  Cu1  1  0.74682000  0.23570200  0.50066500  1
  Cu  Cu2  1  0.47766700  0.02245000  0.97557600  1
  Cu  Cu3  1  0.24144300  0.26360600  0.53000300  1
  Cu  Cu4  1  0.72961500  0.78268800  0.47505900  1
  Cu  Cu5  1  0.50372600  0.46866000  0.03609500  1
  Cu  Cu6  1  0.97616200  0.03323500  0.98250000  1
  Cu  Cu7  1  0.23345200  0.75505500  0.50472500  1
  Cu  Cu8  1  0.03442700  0.46633100  0.05251900  1
  C  C9  1  0.97471700  0.18430900  0.34656800  1
  C  C10  1  0.92294900  0.22867600  0.83969700  1
  C  C11  1  0.56341000  0.26579200  0.17430900  1
  C  C12  1  0.30299600  0.03137900  0.65407700  1
  C  C13  1  0.51948700  0.31919700  0.68515500  1
  C  C14  1  0.75975400  0.56561400  0.16332900  1
  C  C15  1  0.71621700  0.93216200  0.82485500  1
  C  C16  1  0.23455100  0.42701100  0.88166300  1
  C  C17  1  0.47471100  0.67912000  0.34353800  1
  C  C18  1  0.66980600  0.96633300  0.29112900  1
  C  C19  1  0.19268900  0.47610200  0.39342300  1
  C  C20  1  0.43224300  0.76594200  0.83760600  1
  C  C21  1  0.04652200  0.73723100  0.16616600  1
  C  C22  1  0.00486400  0.82946200  0.65603400  1
  C  C23  1  0.80839400  0.52060200  0.68195100  1
  C  C24  1  0.26486300  0.07631600  0.16173900  1
