# generated using pymatgen
data_Cu8NiC7
_symmetry_space_group_name_H-M   'P 1'
_cell_length_a   3.92728957
_cell_length_b   3.92728957
_cell_length_c   15.34237400
_cell_angle_alpha   90.00000000
_cell_angle_beta   90.00000000
_cell_angle_gamma   90.19654206
_symmetry_Int_Tables_number   1
_chemical_formula_structural   Cu8NiC7
_chemical_formula_sum   'Cu8 Ni1 C7'
_cell_volume   236.63329870
_cell_formula_units_Z   1
loop_
 _symmetry_equiv_pos_site_id
 _symmetry_equiv_pos_as_xyz
  1  'x, y, z'
loop_
 _atom_site_type_symbol
 _atom_site_label
 _atom_site_symmetry_multiplicity
 _atom_site_fract_x
 _atom_site_fract_y
 _atom_site_fract_z
 _atom_site_occupancy
  C  C0  1  0.49575600  0.49575600  0.64237000  1
  C  C1  1  0.49575600  0.49575600  0.35763000  1
  C  C2  1  0.99889700  0.99889700  0.76773600  1
  C  C3  1  0.99889700  0.99889700  0.23226400  1
  C  C4  1  0.97621400  0.97621400  0.50000000  1
  C  C5  1  0.49980900  0.49980900  0.87741700  1
  C  C6  1  0.49980900  0.49980900  0.12258300  1
  Ni  Ni7  1  0.99957400  0.99957400  0.00000000  1
  Cu  Cu8  1  0.99940100  0.49891200  0.78016700  1
  Cu  Cu9  1  0.49891200  0.99940100  0.78016700  1
  Cu  Cu10  1  0.99940100  0.49891200  0.21983300  1
  Cu  Cu11  1  0.49891200  0.99940100  0.21983300  1
  Cu  Cu12  1  0.01048000  0.01048000  0.62683700  1
  Cu  Cu13  1  0.01048000  0.01048000  0.37316300  1
  Cu  Cu14  1  0.95045000  0.48043700  0.50000000  1
  Cu  Cu15  1  0.48043700  0.95045000  0.50000000  1
