# generated using pymatgen
data_CuNi2C3
_symmetry_space_group_name_H-M   'P 1'
_cell_length_a   6.05012612
_cell_length_b   6.05012556
_cell_length_c   33.67972471
_cell_angle_alpha   94.99590251
_cell_angle_beta   94.99591124
_cell_angle_gamma   119.76280398
_symmetry_Int_Tables_number   1
_chemical_formula_structural   CuNi2C3
_chemical_formula_sum   'Cu12 Ni24 C36'
_cell_volume   1053.95083517
_cell_formula_units_Z   12
loop_
 _symmetry_equiv_pos_site_id
 _symmetry_equiv_pos_as_xyz
  1  'x, y, z'
loop_
 _atom_site_type_symbol
 _atom_site_label
 _atom_site_symmetry_multiplicity
 _atom_site_fract_x
 _atom_site_fract_y
 _atom_site_fract_z
 _atom_site_occupancy
  Ni  Ni0  1  0.17556100  0.81739500  0.83285300  1
  Ni  Ni1  1  0.18777600  0.85118700  0.49913600  1
  Ni  Ni2  1  0.08162600  0.41837400  0.75000000  1
  Ni  Ni3  1  0.16627200  0.83017600  0.16668300  1
  Ni  Ni4  1  0.33017600  0.66627200  0.66668300  1
  Ni  Ni5  1  0.98002400  0.00083300  0.66577300  1
  Ni  Ni6  1  0.31739500  0.67556100  0.33285300  1
  Ni  Ni7  1  0.59022400  0.91366000  0.91682200  1
  Ni  Ni8  1  0.01997600  0.99916700  0.33422700  1
  Ni  Ni9  1  0.35118700  0.68777600  0.99913600  1
  Ni  Ni10  1  0.58634000  0.90977600  0.58317800  1
  Ni  Ni11  1  0.00000000  0.00000000  0.00000000  1
  Ni  Ni12  1  0.49916700  0.51997600  0.83422700  1
  Ni  Ni13  1  0.50000000  0.50000000  0.50000000  1
  Ni  Ni14  1  0.50083300  0.48002400  0.16577300  1
  Ni  Ni15  1  0.41366000  0.09022400  0.41682200  1
  Ni  Ni16  1  0.64881300  0.31222400  0.00086400  1
  Ni  Ni17  1  0.40977600  0.08634000  0.08317800  1
  Ni  Ni18  1  0.68260500  0.32443900  0.66714700  1
  Ni  Ni19  1  0.66982400  0.33372800  0.33331700  1
  Ni  Ni20  1  0.83372800  0.16982400  0.83331700  1
  Ni  Ni21  1  0.91837400  0.58162600  0.25000000  1
  Ni  Ni22  1  0.81222400  0.14881300  0.50086400  1
  Ni  Ni23  1  0.82443900  0.18260500  0.16714700  1
  Cu  Cu24  1  0.08004400  0.42217700  0.41724600  1
  Cu  Cu25  1  0.07782300  0.41995600  0.08275400  1
  Cu  Cu26  1  0.25575400  0.24587200  0.91621400  1
  Cu  Cu27  1  0.25412800  0.24424600  0.58378600  1
  Cu  Cu28  1  0.25166600  0.24833400  0.25000000  1
  Cu  Cu29  1  0.58659700  0.91340300  0.25000000  1
  Cu  Cu30  1  0.41340300  0.08659700  0.75000000  1
  Cu  Cu31  1  0.74833400  0.75166600  0.75000000  1
  Cu  Cu32  1  0.74587200  0.75575400  0.41621400  1
  Cu  Cu33  1  0.74424600  0.75412800  0.08378600  1
  Cu  Cu34  1  0.92217700  0.58004400  0.91724600  1
  Cu  Cu35  1  0.91995600  0.57782300  0.58275400  1
  C  C36  1  0.26139400  0.94988600  0.95386500  1
  C  C37  1  0.25517600  0.94411200  0.61926400  1
  C  C38  1  0.99251400  0.31485900  0.95265300  1
  C  C39  1  0.32022700  0.98256700  0.28710600  1
  C  C40  1  0.98478600  0.31066600  0.62034000  1
  C  C41  1  0.18933400  0.51521400  0.87966000  1
  C  C42  1  0.95261500  0.25074700  0.28596000  1
  C  C43  1  0.18514100  0.50748600  0.54734700  1
  C  C44  1  0.11445500  0.08701400  0.78597300  1
  C  C45  1  0.48256700  0.82022700  0.78710600  1
  C  C46  1  0.24925300  0.54738500  0.21404000  1
  C  C47  1  0.08241100  0.12157500  0.45265100  1
  C  C48  1  0.44988600  0.76139400  0.45386500  1
  C  C49  1  0.08079900  0.12246300  0.11902400  1
  C  C50  1  0.41298500  0.38554500  0.71402700  1
  C  C51  1  0.62157500  0.58241100  0.95265100  1
  C  C52  1  0.44411200  0.75517600  0.11926400  1
  C  C53  1  0.37753700  0.41920100  0.38097600  1
  C  C54  1  0.62246300  0.58079900  0.61902400  1
  C  C55  1  0.55588800  0.24482400  0.88073600  1
  C  C56  1  0.37842500  0.41758900  0.04734900  1
  C  C57  1  0.58701400  0.61445500  0.28597300  1
  C  C58  1  0.91920100  0.87753700  0.88097600  1
  C  C59  1  0.55011400  0.23860600  0.54613500  1
  C  C60  1  0.91758900  0.87842500  0.54734900  1
  C  C61  1  0.75074700  0.45261500  0.78596000  1
  C  C62  1  0.51743300  0.17977300  0.21289400  1
  C  C63  1  0.88554500  0.91298600  0.21402700  1
  C  C64  1  0.81485900  0.49251400  0.45265300  1
  C  C65  1  0.04738500  0.74925300  0.71404000  1
  C  C66  1  0.81066600  0.48478600  0.12034000  1
  C  C67  1  0.01521400  0.68933400  0.37966000  1
  C  C68  1  0.67977300  0.01743300  0.71289400  1
  C  C69  1  0.00748600  0.68514100  0.04734700  1
  C  C70  1  0.74482400  0.05588800  0.38073600  1
  C  C71  1  0.73860600  0.05011400  0.04613500  1
