# generated using pymatgen
data_Cu12Ni3C2
_symmetry_space_group_name_H-M   'P 1'
_cell_length_a   8.98896377
_cell_length_b   9.18272826
_cell_length_c   9.05788650
_cell_angle_alpha   54.49915219
_cell_angle_beta   54.42354088
_cell_angle_gamma   55.44320389
_symmetry_Int_Tables_number   1
_chemical_formula_structural   Cu12Ni3C2
_chemical_formula_sum   'Cu24 Ni6 C4'
_cell_volume   464.41289063
_cell_formula_units_Z   2
loop_
 _symmetry_equiv_pos_site_id
 _symmetry_equiv_pos_as_xyz
  1  'x, y, z'
loop_
 _atom_site_type_symbol
 _atom_site_label
 _atom_site_symmetry_multiplicity
 _atom_site_fract_x
 _atom_site_fract_y
 _atom_site_fract_z
 _atom_site_occupancy
  C  C0  1  0.58100000  0.22697500  0.83132600  1
  C  C1  1  0.35036700  0.35481100  0.35779500  1
  C  C2  1  0.65721500  0.65228900  0.63931500  1
  C  C3  1  0.84918200  0.83617700  0.84877600  1
  Ni  Ni4  1  0.04886800  0.72873900  0.46747600  1
  Ni  Ni5  1  0.46990600  0.02664600  0.73690600  1
  Ni  Ni6  1  0.73924500  0.46875700  0.03449200  1
  Ni  Ni7  1  0.25130000  0.56666200  0.95257700  1
  Ni  Ni8  1  0.52823300  0.95963200  0.26513300  1
  Ni  Ni9  1  0.95622300  0.25316700  0.53610700  1
  Cu  Cu10  1  0.11075300  0.27472300  0.53046800  1
  Cu  Cu11  1  0.26821700  0.53381000  0.12379300  1
  Cu  Cu12  1  0.00036500  0.92026100  0.32983800  1
  Cu  Cu13  1  0.50906900  0.12775700  0.27271500  1
  Cu  Cu14  1  0.02636500  0.71776800  0.65227600  1
  Cu  Cu15  1  0.24986000  0.59754400  0.39515800  1
  Cu  Cu16  1  0.38375100  0.22496500  0.61273700  1
  Cu  Cu17  1  0.33642200  0.95839700  0.92980700  1
  Cu  Cu18  1  0.60991300  0.38157600  0.23517300  1
  Cu  Cu19  1  0.04481400  0.67740200  0.97579300  1
  Cu  Cu20  1  0.31681000  0.38385600  0.94080600  1
  Cu  Cu21  1  0.34708100  0.94987400  0.32230600  1
  Cu  Cu22  1  0.63285200  0.04251300  0.74030000  1
  Cu  Cu23  1  0.70759800  0.65595800  0.02017500  1
  Cu  Cu24  1  0.94082200  0.34826700  0.98291500  1
  Cu  Cu25  1  0.37314500  0.68213000  0.76676200  1
  Cu  Cu26  1  0.65969900  0.98239100  0.04902000  1
  Cu  Cu27  1  0.64942800  0.77657100  0.37673900  1
  Cu  Cu28  1  0.75128700  0.38824400  0.63795500  1
  Cu  Cu29  1  0.96866900  0.29280900  0.35263600  1
  Cu  Cu30  1  0.58235500  0.90534900  0.62050800  1
  Cu  Cu31  1  0.94259000  0.06180200  0.69341700  1
  Cu  Cu32  1  0.65828800  0.50895700  0.90088700  1
  Cu  Cu33  1  0.92209500  0.62843600  0.52741700  1
