# generated using pymatgen
data_Cu3Ni5C
_symmetry_space_group_name_H-M   'P 1'
_cell_length_a   14.54655000
_cell_length_b   14.54655014
_cell_length_c   3.64200000
_cell_angle_alpha   90.00000000
_cell_angle_beta   90.00000000
_cell_angle_gamma   119.99999968
_symmetry_Int_Tables_number   1
_chemical_formula_structural   Cu3Ni5C
_chemical_formula_sum   'Cu18 Ni30 C6'
_cell_volume   667.40673802
_cell_formula_units_Z   6
loop_
 _symmetry_equiv_pos_site_id
 _symmetry_equiv_pos_as_xyz
  1  'x, y, z'
loop_
 _atom_site_type_symbol
 _atom_site_label
 _atom_site_symmetry_multiplicity
 _atom_site_fract_x
 _atom_site_fract_y
 _atom_site_fract_z
 _atom_site_occupancy
  C  C0  1  0.39486400  0.29441700  0.75000000  1
  C  C1  1  0.70558300  0.10044700  0.75000000  1
  C  C2  1  0.89955300  0.60513600  0.75000000  1
  C  C3  1  0.60513600  0.70558300  0.25000000  1
  C  C4  1  0.29441700  0.89955300  0.25000000  1
  C  C5  1  0.10044700  0.39486400  0.25000000  1
  Ni  Ni6  1  0.65233900  0.42854400  0.75000000  1
  Ni  Ni7  1  0.57145600  0.22379600  0.75000000  1
  Ni  Ni8  1  0.77620400  0.34766100  0.75000000  1
  Ni  Ni9  1  0.34766100  0.57145600  0.25000000  1
  Ni  Ni10  1  0.42854400  0.77620400  0.25000000  1
  Ni  Ni11  1  0.22379600  0.65233900  0.25000000  1
  Ni  Ni12  1  0.46020600  0.53466900  0.75000000  1
  Ni  Ni13  1  0.46533100  0.92553700  0.75000000  1
  Ni  Ni14  1  0.07446300  0.53979400  0.75000000  1
  Ni  Ni15  1  0.53979400  0.46533100  0.25000000  1
  Ni  Ni16  1  0.53466900  0.07446300  0.25000000  1
  Ni  Ni17  1  0.92553700  0.46020600  0.25000000  1
  Ni  Ni18  1  0.26829100  0.04780800  0.75000000  1
  Ni  Ni19  1  0.95219200  0.22048300  0.75000000  1
  Ni  Ni20  1  0.77951700  0.73170900  0.75000000  1
  Ni  Ni21  1  0.73170900  0.95219200  0.25000000  1
  Ni  Ni22  1  0.04780800  0.77951700  0.25000000  1
  Ni  Ni23  1  0.22048300  0.26829100  0.25000000  1
  Ni  Ni24  1  0.14881100  0.73507400  0.75000000  1
  Ni  Ni25  1  0.26492600  0.41373700  0.75000000  1
  Ni  Ni26  1  0.58626300  0.85118900  0.75000000  1
  Ni  Ni27  1  0.85118900  0.26492600  0.25000000  1
  Ni  Ni28  1  0.73507400  0.58626300  0.25000000  1
  Ni  Ni29  1  0.41373700  0.14881100  0.25000000  1
  Ni  Ni30  1  0.13215900  0.10464600  0.75000000  1
  Ni  Ni31  1  0.89535400  0.02751400  0.75000000  1
  Ni  Ni32  1  0.97248600  0.86784100  0.75000000  1
  Ni  Ni33  1  0.86784100  0.89535400  0.25000000  1
  Ni  Ni34  1  0.10464600  0.97248600  0.25000000  1
  Ni  Ni35  1  0.02751400  0.13215900  0.25000000  1
  Cu  Cu36  1  0.44494100  0.68242600  0.75000000  1
  Cu  Cu37  1  0.31757400  0.76251500  0.75000000  1
  Cu  Cu38  1  0.23748500  0.55505900  0.75000000  1
  Cu  Cu39  1  0.55505900  0.31757400  0.25000000  1
  Cu  Cu40  1  0.68242600  0.23748500  0.25000000  1
  Cu  Cu41  1  0.76251500  0.44494100  0.25000000  1
  Cu  Cu42  1  0.13379300  0.88208000  0.75000000  1
  Cu  Cu43  1  0.11792000  0.25171300  0.75000000  1
  Cu  Cu44  1  0.74828700  0.86620700  0.75000000  1
  Cu  Cu45  1  0.86620700  0.11792000  0.25000000  1
  Cu  Cu46  1  0.88208000  0.74828700  0.25000000  1
  Cu  Cu47  1  0.25171300  0.13379300  0.25000000  1
  Cu  Cu48  1  0.42905100  0.05876900  0.75000000  1
  Cu  Cu49  1  0.94123100  0.37028300  0.75000000  1
  Cu  Cu50  1  0.62971700  0.57094900  0.75000000  1
  Cu  Cu51  1  0.57094900  0.94123100  0.25000000  1
  Cu  Cu52  1  0.05876900  0.62971700  0.25000000  1
  Cu  Cu53  1  0.37028300  0.42905100  0.25000000  1
