# generated using pymatgen
data_Cu2(NiC3)3
_symmetry_space_group_name_H-M   'P 1'
_cell_length_a   5.38355623
_cell_length_b   5.38355623
_cell_length_c   28.73341612
_cell_angle_alpha   88.18573261
_cell_angle_beta   88.18573261
_cell_angle_gamma   117.48296924
_symmetry_Int_Tables_number   1
_chemical_formula_structural   Cu2(NiC3)3
_chemical_formula_sum   'Cu8 Ni12 C36'
_cell_volume   737.41507668
_cell_formula_units_Z   4
loop_
 _symmetry_equiv_pos_site_id
 _symmetry_equiv_pos_as_xyz
  1  'x, y, z'
loop_
 _atom_site_type_symbol
 _atom_site_label
 _atom_site_symmetry_multiplicity
 _atom_site_fract_x
 _atom_site_fract_y
 _atom_site_fract_z
 _atom_site_occupancy
  Ni  Ni0  1  0.91665400  0.08334600  0.25000000  1
  Ni  Ni1  1  0.08334600  0.91665400  0.75000000  1
  Ni  Ni2  1  0.67691900  0.85240500  0.99996000  1
  Ni  Ni3  1  0.32308100  0.14759500  0.00004000  1
  Ni  Ni4  1  0.14759500  0.32308100  0.50004000  1
  Ni  Ni5  1  0.85240500  0.67691900  0.49996000  1
  Ni  Ni6  1  0.58467700  0.41532300  0.25000000  1
  Ni  Ni7  1  0.41532300  0.58467700  0.75000000  1
  Ni  Ni8  1  0.24876300  0.75123700  0.25000000  1
  Ni  Ni9  1  0.75123700  0.24876300  0.75000000  1
  Ni  Ni10  1  0.50000000  0.00000000  0.50000000  1
  Ni  Ni11  1  0.00000000  0.50000000  0.00000000  1
  Cu  Cu12  1  0.63554900  0.13913100  0.09652100  1
  Cu  Cu13  1  0.36445100  0.86086900  0.90347900  1
  Cu  Cu14  1  0.86086900  0.36445100  0.40347900  1
  Cu  Cu15  1  0.13913100  0.63554900  0.59652100  1
  Cu  Cu16  1  0.80185200  0.97416100  0.59646000  1
  Cu  Cu17  1  0.19814800  0.02583900  0.40354000  1
  Cu  Cu18  1  0.02583900  0.19814800  0.90354000  1
  Cu  Cu19  1  0.97416100  0.80185200  0.09646000  1
  C  C20  1  0.34570100  0.49659400  0.02884300  1
  C  C21  1  0.65429900  0.50340600  0.97115700  1
  C  C22  1  0.50340600  0.65429900  0.47115700  1
  C  C23  1  0.49659400  0.34570100  0.52884300  1
  C  C24  1  0.82310300  0.99639400  0.53909300  1
  C  C25  1  0.17689700  0.00360600  0.46090700  1
  C  C26  1  0.00360600  0.17689700  0.96090700  1
  C  C27  1  0.99639400  0.82310300  0.03909300  1
  C  C28  1  0.53500500  0.20098900  0.38592300  1
  C  C29  1  0.46499500  0.79901100  0.61407700  1
  C  C30  1  0.79901100  0.46499500  0.11407700  1
  C  C31  1  0.20098900  0.53500500  0.88592300  1
  C  C32  1  0.29915300  0.96607200  0.11444400  1
  C  C33  1  0.70084700  0.03392800  0.88555600  1
  C  C34  1  0.03392800  0.70084700  0.38555600  1
  C  C35  1  0.96607200  0.29915300  0.61444400  1
  C  C36  1  0.61528400  0.78176300  0.21965400  1
  C  C37  1  0.38471600  0.21823700  0.78034600  1
  C  C38  1  0.21823700  0.38471600  0.28034600  1
  C  C39  1  0.78176300  0.61528400  0.71965400  1
  C  C40  1  0.28276000  0.11699500  0.21898900  1
  C  C41  1  0.71724000  0.88300500  0.78101100  1
  C  C42  1  0.88300500  0.71724000  0.28101100  1
  C  C43  1  0.11699500  0.28276000  0.71898900  1
  C  C44  1  0.55055200  0.04965100  0.28099000  1
  C  C45  1  0.44944800  0.95034900  0.71901000  1
  C  C46  1  0.95034900  0.44944800  0.21901000  1
  C  C47  1  0.04965100  0.55055200  0.78099000  1
  C  C48  1  0.79760700  0.96293600  0.11558900  1
  C  C49  1  0.20239300  0.03706400  0.88441100  1
  C  C50  1  0.03706400  0.20239300  0.38441100  1
  C  C51  1  0.96293600  0.79760700  0.61558900  1
  C  C52  1  0.65780600  0.15402200  0.03922000  1
  C  C53  1  0.34219400  0.84597800  0.96078000  1
  C  C54  1  0.84597800  0.34219400  0.46078000  1
  C  C55  1  0.15402200  0.65780600  0.53922000  1
