# generated using pymatgen
data_Cu7NiC3
_symmetry_space_group_name_H-M   'P 1'
_cell_length_a   7.69750932
_cell_length_b   7.69750932
_cell_length_c   14.60532624
_cell_angle_alpha   89.88947005
_cell_angle_beta   89.88947005
_cell_angle_gamma   60.02427940
_symmetry_Int_Tables_number   1
_chemical_formula_structural   Cu7NiC3
_chemical_formula_sum   'Cu14 Ni2 C6'
_cell_volume   749.63087138
_cell_formula_units_Z   2
loop_
 _symmetry_equiv_pos_site_id
 _symmetry_equiv_pos_as_xyz
  1  'x, y, z'
loop_
 _atom_site_type_symbol
 _atom_site_label
 _atom_site_symmetry_multiplicity
 _atom_site_fract_x
 _atom_site_fract_y
 _atom_site_fract_z
 _atom_site_occupancy
  C  C0  1  0.13060500  0.13060500  0.75054100  1
  C  C1  1  0.13059200  0.73883900  0.75063900  1
  C  C2  1  0.73883900  0.13059200  0.75063900  1
  C  C3  1  0.86799200  0.86799200  0.25086000  1
  C  C4  1  0.86856200  0.26346200  0.25008100  1
  C  C5  1  0.26346200  0.86856200  0.25008100  1
  Ni  Ni6  1  0.99979600  0.99979600  0.89484700  1
  Ni  Ni7  1  0.99925900  0.99925900  0.39355400  1
  Cu  Cu8  1  0.50088200  0.50088200  0.85484400  1
  Cu  Cu9  1  0.50065200  0.99790600  0.85489300  1
  Cu  Cu10  1  0.99790600  0.50065200  0.85489300  1
  Cu  Cu11  1  0.49948700  0.49948700  0.35680700  1
  Cu  Cu12  1  0.50070200  0.00239700  0.35570800  1
  Cu  Cu13  1  0.00239700  0.50070200  0.35570800  1
  Cu  Cu14  1  0.16715600  0.16715600  0.12226800  1
  Cu  Cu15  1  0.16486800  0.66531700  0.12323300  1
  Cu  Cu16  1  0.66531700  0.16486800  0.12323300  1
  Cu  Cu17  1  0.83312500  0.83312500  0.62318200  1
  Cu  Cu18  1  0.83325700  0.33421200  0.62292200  1
  Cu  Cu19  1  0.33421200  0.83325700  0.62292200  1
  Cu  Cu20  1  0.66741500  0.66741500  0.15013500  1
  Cu  Cu21  1  0.33351700  0.33351700  0.65101100  1
