# generated using pymatgen
data_Cu(Ni2C)2
_symmetry_space_group_name_H-M   'P 1'
_cell_length_a   6.45182900
_cell_length_b   7.00275600
_cell_length_c   8.41211000
_cell_angle_alpha   90.00000000
_cell_angle_beta   90.00000000
_cell_angle_gamma   90.00000000
_symmetry_Int_Tables_number   1
_chemical_formula_structural   Cu(Ni2C)2
_chemical_formula_sum   'Cu4 Ni16 C8'
_cell_volume   380.06404450
_cell_formula_units_Z   4
loop_
 _symmetry_equiv_pos_site_id
 _symmetry_equiv_pos_as_xyz
  1  'x, y, z'
loop_
 _atom_site_type_symbol
 _atom_site_label
 _atom_site_symmetry_multiplicity
 _atom_site_fract_x
 _atom_site_fract_y
 _atom_site_fract_z
 _atom_site_occupancy
  C  C0  1  0.65207900  0.75000000  0.44567600  1
  C  C1  1  0.15207900  0.25000000  0.05432400  1
  C  C2  1  0.34792100  0.25000000  0.55432400  1
  C  C3  1  0.84792100  0.75000000  0.94567600  1
  C  C4  1  0.18584800  0.75000000  0.59268700  1
  C  C5  1  0.68584800  0.25000000  0.90731300  1
  C  C6  1  0.81415200  0.25000000  0.40731300  1
  C  C7  1  0.31415200  0.75000000  0.09268700  1
  Ni  Ni8  1  0.01235600  0.75000000  0.48023300  1
  Ni  Ni9  1  0.51235600  0.25000000  0.01976700  1
  Ni  Ni10  1  0.98764400  0.25000000  0.51976700  1
  Ni  Ni11  1  0.48764400  0.75000000  0.98023300  1
  Ni  Ni12  1  0.38208400  0.75000000  0.25838400  1
  Ni  Ni13  1  0.88208400  0.25000000  0.24161600  1
  Ni  Ni14  1  0.61791600  0.25000000  0.74161600  1
  Ni  Ni15  1  0.11791600  0.75000000  0.75838400  1
  Ni  Ni16  1  0.32631600  0.91806000  0.56126100  1
  Ni  Ni17  1  0.82631600  0.08194000  0.93873900  1
  Ni  Ni18  1  0.67368400  0.41806000  0.43873900  1
  Ni  Ni19  1  0.17368400  0.58194000  0.06126100  1
  Ni  Ni20  1  0.82631600  0.41806000  0.93873900  1
  Ni  Ni21  1  0.32631600  0.58194000  0.56126100  1
  Ni  Ni22  1  0.17368400  0.91806000  0.06126100  1
  Ni  Ni23  1  0.67368400  0.08194000  0.43873900  1
  Cu  Cu24  1  0.70166500  0.75000000  0.70559400  1
  Cu  Cu25  1  0.20166500  0.25000000  0.79440600  1
  Cu  Cu26  1  0.29833500  0.25000000  0.29440600  1
  Cu  Cu27  1  0.79833500  0.75000000  0.20559400  1
