# generated using pymatgen
data_Cu5NiC
_symmetry_space_group_name_H-M   'P 1'
_cell_length_a   10.98204000
_cell_length_b   5.38691800
_cell_length_c   20.99543634
_cell_angle_alpha   90.00000000
_cell_angle_beta   115.82833565
_cell_angle_gamma   90.00000000
_symmetry_Int_Tables_number   1
_chemical_formula_structural   Cu5NiC
_chemical_formula_sum   'Cu40 Ni8 C8'
_cell_volume   1117.99716271
_cell_formula_units_Z   8
loop_
 _symmetry_equiv_pos_site_id
 _symmetry_equiv_pos_as_xyz
  1  'x, y, z'
loop_
 _atom_site_type_symbol
 _atom_site_label
 _atom_site_symmetry_multiplicity
 _atom_site_fract_x
 _atom_site_fract_y
 _atom_site_fract_z
 _atom_site_occupancy
  C  C0  1  0.63203600  0.69837700  0.66764100  1
  C  C1  1  0.63203600  0.80162300  0.16764100  1
  C  C2  1  0.36796400  0.30162300  0.33235900  1
  C  C3  1  0.36796400  0.19837700  0.83235900  1
  C  C4  1  0.87409100  0.42337000  0.83607000  1
  C  C5  1  0.87409100  0.07663000  0.33607000  1
  C  C6  1  0.12590900  0.57663000  0.16393000  1
  C  C7  1  0.12590900  0.92337000  0.66393000  1
  Ni  Ni8  1  0.37795500  0.52673800  0.56865400  1
  Ni  Ni9  1  0.37795500  0.97326200  0.06865400  1
  Ni  Ni10  1  0.62204500  0.47326200  0.43134600  1
  Ni  Ni11  1  0.62204500  0.02673800  0.93134600  1
  Ni  Ni12  1  0.13058800  0.58563900  0.93583300  1
  Ni  Ni13  1  0.13058800  0.91436100  0.43583300  1
  Ni  Ni14  1  0.86941200  0.41436100  0.06416700  1
  Ni  Ni15  1  0.86941200  0.08563900  0.56416700  1
  Cu  Cu16  1  0.69369600  0.55039100  0.60775700  1
  Cu  Cu17  1  0.69369600  0.94960900  0.10775700  1
  Cu  Cu18  1  0.30630400  0.44960900  0.39224300  1
  Cu  Cu19  1  0.30630400  0.05039100  0.89224300  1
  Cu  Cu20  1  0.53337200  0.82862200  0.71144200  1
  Cu  Cu21  1  0.53337200  0.67137800  0.21144200  1
  Cu  Cu22  1  0.46662800  0.17137800  0.28855800  1
  Cu  Cu23  1  0.46662800  0.32862200  0.78855800  1
  Cu  Cu24  1  0.68625800  0.99640400  0.64553000  1
  Cu  Cu25  1  0.68625800  0.50359600  0.14553000  1
  Cu  Cu26  1  0.31374200  0.00359600  0.35447000  1
  Cu  Cu27  1  0.31374200  0.49640400  0.85447000  1
  Cu  Cu28  1  0.44444400  0.78959300  0.56233300  1
  Cu  Cu29  1  0.44444400  0.71040700  0.06233300  1
  Cu  Cu30  1  0.55555600  0.21040700  0.43766700  1
  Cu  Cu31  1  0.55555600  0.28959300  0.93766700  1
  Cu  Cu32  1  0.97338600  0.29711700  0.79208000  1
  Cu  Cu33  1  0.97338600  0.20288300  0.29208000  1
  Cu  Cu34  1  0.02661400  0.70288300  0.20792000  1
  Cu  Cu35  1  0.02661400  0.79711700  0.70792000  1
  Cu  Cu36  1  0.81429600  0.56610200  0.89724800  1
  Cu  Cu37  1  0.81429600  0.93389800  0.39724800  1
  Cu  Cu38  1  0.18570400  0.43389800  0.10275200  1
  Cu  Cu39  1  0.18570400  0.06610200  0.60275200  1
  Cu  Cu40  1  0.06338300  0.32325600  0.94079900  1
  Cu  Cu41  1  0.06338300  0.17674400  0.44079900  1
  Cu  Cu42  1  0.93661700  0.67674400  0.05920100  1
  Cu  Cu43  1  0.93661700  0.82325600  0.55920100  1
  Cu  Cu44  1  0.81681100  0.12533100  0.85649300  1
  Cu  Cu45  1  0.81681100  0.37466900  0.35649300  1
  Cu  Cu46  1  0.18318900  0.87466900  0.14350700  1
  Cu  Cu47  1  0.18318900  0.62533100  0.64350700  1
  Cu  Cu48  1  0.85192200  0.71419500  0.78073300  1
  Cu  Cu49  1  0.85192200  0.78580500  0.28073300  1
  Cu  Cu50  1  0.14807800  0.28580500  0.21926700  1
  Cu  Cu51  1  0.14807800  0.21419500  0.71926700  1
  Cu  Cu52  1  0.65498100  0.41018300  0.72402200  1
  Cu  Cu53  1  0.65498100  0.08981700  0.22402200  1
  Cu  Cu54  1  0.34501900  0.58981700  0.27597800  1
  Cu  Cu55  1  0.34501900  0.91018300  0.77597800  1
