# generated using pymatgen
data_Cu2NiC7
_symmetry_space_group_name_H-M   'P 1'
_cell_length_a   7.86544200
_cell_length_b   5.38643500
_cell_length_c   5.41937273
_cell_angle_alpha   88.18105127
_cell_angle_beta   90.00000000
_cell_angle_gamma   90.00000000
_symmetry_Int_Tables_number   1
_chemical_formula_structural   Cu2NiC7
_chemical_formula_sum   'Cu4 Ni2 C14'
_cell_volume   229.48520372
_cell_formula_units_Z   2
loop_
 _symmetry_equiv_pos_site_id
 _symmetry_equiv_pos_as_xyz
  1  'x, y, z'
loop_
 _atom_site_type_symbol
 _atom_site_label
 _atom_site_symmetry_multiplicity
 _atom_site_fract_x
 _atom_site_fract_y
 _atom_site_fract_z
 _atom_site_occupancy
  Ni  Ni0  1  0.00000000  0.50000000  0.00000000  1
  Ni  Ni1  1  0.50000000  0.50000000  0.00000000  1
  Cu  Cu2  1  0.25000000  0.98843700  0.97278600  1
  Cu  Cu3  1  0.25000000  0.47221900  0.50345100  1
  Cu  Cu4  1  0.75000000  0.52778100  0.49654900  1
  Cu  Cu5  1  0.75000000  0.01156300  0.02721400  1
  C  C6  1  0.00000000  0.00000000  0.50000000  1
  C  C7  1  0.50000000  0.00000000  0.50000000  1
  C  C8  1  0.56733600  0.82184600  0.84968300  1
  C  C9  1  0.43464300  0.65941200  0.31297200  1
  C  C10  1  0.43266400  0.17815400  0.15031700  1
  C  C11  1  0.93464300  0.34058800  0.68702800  1
  C  C12  1  0.75000000  0.42414200  0.12219600  1
  C  C13  1  0.56535700  0.34058800  0.68702800  1
  C  C14  1  0.06535700  0.65941200  0.31297200  1
  C  C15  1  0.93266400  0.82184600  0.84968300  1
  C  C16  1  0.25000000  0.10702000  0.61825200  1
  C  C17  1  0.06733600  0.17815400  0.15031700  1
  C  C18  1  0.75000000  0.89298000  0.38174800  1
  C  C19  1  0.25000000  0.57585800  0.87780400  1
