# generated using pymatgen
data_Cu5Ni2C25
_symmetry_space_group_name_H-M   'P 1'
_cell_length_a   5.09175171
_cell_length_b   7.76347861
_cell_length_c   7.76347810
_cell_angle_alpha   95.92479007
_cell_angle_beta   75.81446069
_cell_angle_gamma   75.81446525
_symmetry_Int_Tables_number   1
_chemical_formula_structural   Cu5Ni2C25
_chemical_formula_sum   'Cu5 Ni2 C25'
_cell_volume   284.07211375
_cell_formula_units_Z   1
loop_
 _symmetry_equiv_pos_site_id
 _symmetry_equiv_pos_as_xyz
  1  'x, y, z'
loop_
 _atom_site_type_symbol
 _atom_site_label
 _atom_site_symmetry_multiplicity
 _atom_site_fract_x
 _atom_site_fract_y
 _atom_site_fract_z
 _atom_site_occupancy
  C  C0  1  0.98335100  0.13945500  0.38945500  1
  C  C1  1  0.01664900  0.61054500  0.86054500  1
  C  C2  1  0.50106500  0.01317100  0.51123600  1
  C  C3  1  0.49893500  0.48876400  0.98682900  1
  C  C4  1  0.00000000  0.87500000  0.62500000  1
  C  C5  1  0.00000000  0.37500000  0.12500000  1
  C  C6  1  0.49893500  0.73682900  0.73876400  1
  C  C7  1  0.50106500  0.26123600  0.26317100  1
  C  C8  1  0.50000000  0.37500000  0.62500000  1
  Ni  Ni9  1  0.00000000  0.00191800  0.99808200  1
  Ni  Ni10  1  0.00000000  0.74808200  0.25191800  1
  Cu  Cu11  1  0.00000000  0.49606800  0.50393200  1
  Cu  Cu12  1  0.50000000  0.87500000  0.12500000  1
  Cu  Cu13  1  0.00000000  0.25393200  0.74606800  1
  Cu  Cu14  1  0.50000000  0.62260100  0.37739900  1
  Cu  Cu15  1  0.50000000  0.12739900  0.87260100  1
  C  C16  1  0.75287800  0.98333500  0.23333500  1
  C  C17  1  0.77237300  0.49837300  0.74837300  1
  C  C18  1  0.25291800  0.85554400  0.35067000  1
  C  C19  1  0.25684700  0.35247900  0.87265500  1
  C  C20  1  0.76955100  0.75103700  0.48502400  1
  C  C21  1  0.76955100  0.23502400  0.00103700  1
  C  C22  1  0.25684700  0.62265500  0.60247900  1
  C  C23  1  0.25291800  0.10067000  0.10554400  1
  C  C24  1  0.22762700  0.25162700  0.50162700  1
  C  C25  1  0.24712200  0.76666500  0.01666500  1
  C  C26  1  0.74315300  0.12734500  0.64752100  1
  C  C27  1  0.74708200  0.64933000  0.14445600  1
  C  C28  1  0.23044900  0.99896300  0.76497600  1
  C  C29  1  0.23044900  0.51497600  0.24896300  1
  C  C30  1  0.74708200  0.89445600  0.89933000  1
  C  C31  1  0.74315300  0.39752100  0.37734500  1
