# generated using pymatgen
data_Cu(NiC)2
_symmetry_space_group_name_H-M   'P 1'
_cell_length_a   3.49243900
_cell_length_b   7.42051000
_cell_length_c   9.05634600
_cell_angle_alpha   90.00000000
_cell_angle_beta   90.00000000
_cell_angle_gamma   90.00000000
_symmetry_Int_Tables_number   1
_chemical_formula_structural   Cu(NiC)2
_chemical_formula_sum   'Cu4 Ni8 C8'
_cell_volume   234.70135154
_cell_formula_units_Z   4
loop_
 _symmetry_equiv_pos_site_id
 _symmetry_equiv_pos_as_xyz
  1  'x, y, z'
loop_
 _atom_site_type_symbol
 _atom_site_label
 _atom_site_symmetry_multiplicity
 _atom_site_fract_x
 _atom_site_fract_y
 _atom_site_fract_z
 _atom_site_occupancy
  Ni  Ni0  1  0.57412900  0.82281300  0.41975100  1
  Ni  Ni1  1  0.42587100  0.32281300  0.58024900  1
  Ni  Ni2  1  0.07412900  0.32281300  0.08024900  1
  Ni  Ni3  1  0.92587100  0.82281300  0.91975100  1
  Ni  Ni4  1  0.26875300  0.11895400  0.75241800  1
  Ni  Ni5  1  0.73124700  0.61895400  0.24758200  1
  Ni  Ni6  1  0.76875300  0.61895400  0.74758200  1
  Ni  Ni7  1  0.23124700  0.11895400  0.25241800  1
  Cu  Cu8  1  0.40078400  0.17927100  0.54811600  1
  Cu  Cu9  1  0.59921600  0.67927100  0.45188400  1
  Cu  Cu10  1  0.90078400  0.67927100  0.95188400  1
  Cu  Cu11  1  0.09921600  0.17927100  0.04811600  1
  C  C12  1  0.44718400  0.12769400  0.42025600  1
  C  C13  1  0.55281600  0.62769400  0.57974400  1
  C  C14  1  0.94718400  0.62769400  0.07974400  1
  C  C15  1  0.05281600  0.12769400  0.92025600  1
  C  C16  1  0.32498700  0.06227900  0.65459100  1
  C  C17  1  0.67501300  0.56227900  0.34540900  1
  C  C18  1  0.82498700  0.56227900  0.84540900  1
  C  C19  1  0.17501300  0.06227900  0.15459100  1
