# generated using pymatgen
data_CuNiC5
_symmetry_space_group_name_H-M   'P 1'
_cell_length_a   5.85443300
_cell_length_b   6.84777300
_cell_length_c   12.33087400
_cell_angle_alpha   90.00000000
_cell_angle_beta   90.00000000
_cell_angle_gamma   90.00000000
_symmetry_Int_Tables_number   1
_chemical_formula_structural   CuNiC5
_chemical_formula_sum   'Cu4 Ni4 C20'
_cell_volume   494.34262056
_cell_formula_units_Z   4
loop_
 _symmetry_equiv_pos_site_id
 _symmetry_equiv_pos_as_xyz
  1  'x, y, z'
loop_
 _atom_site_type_symbol
 _atom_site_label
 _atom_site_symmetry_multiplicity
 _atom_site_fract_x
 _atom_site_fract_y
 _atom_site_fract_z
 _atom_site_occupancy
  Ni  Ni0  1  0.50000000  0.25000000  0.25000000  1
  Ni  Ni1  1  0.50000000  0.75000000  0.75000000  1
  Ni  Ni2  1  0.50000000  0.75000000  0.25000000  1
  Ni  Ni3  1  0.50000000  0.25000000  0.75000000  1
  Cu  Cu4  1  0.99525900  0.00000000  0.24601200  1
  Cu  Cu5  1  0.99525900  0.00000000  0.75398800  1
  Cu  Cu6  1  0.00474100  0.50000000  0.25398800  1
  Cu  Cu7  1  0.00474100  0.50000000  0.74601200  1
  C  C8  1  0.35656200  0.00000000  0.00000000  1
  C  C9  1  0.64343800  0.50000000  0.50000000  1
  C  C10  1  0.03277200  0.00000000  0.50000000  1
  C  C11  1  0.96722800  0.50000000  0.00000000  1
  C  C12  1  0.83871100  0.25109000  0.36533700  1
  C  C13  1  0.83871100  0.74891000  0.63466300  1
  C  C14  1  0.16128900  0.75109000  0.13466300  1
  C  C15  1  0.16128900  0.24891000  0.86533700  1
  C  C16  1  0.16128900  0.24891000  0.13466300  1
  C  C17  1  0.16128900  0.75109000  0.86533700  1
  C  C18  1  0.83871100  0.74891000  0.36533700  1
  C  C19  1  0.83871100  0.25109000  0.63466300  1
  C  C20  1  0.66053100  0.00000000  0.13510500  1
  C  C21  1  0.66053100  0.00000000  0.86489500  1
  C  C22  1  0.33946900  0.50000000  0.36489500  1
  C  C23  1  0.33946900  0.50000000  0.63510500  1
  C  C24  1  0.32252100  0.00000000  0.36175600  1
  C  C25  1  0.32252100  0.00000000  0.63824400  1
  C  C26  1  0.67747900  0.50000000  0.13824400  1
  C  C27  1  0.67747900  0.50000000  0.86175600  1
