# generated using pymatgen
data_Cu2Ni4C5
_symmetry_space_group_name_H-M   'P 1'
_cell_length_a   3.35268100
_cell_length_b   7.73716900
_cell_length_c   17.69198300
_cell_angle_alpha   90.00000000
_cell_angle_beta   90.00000000
_cell_angle_gamma   90.00000000
_symmetry_Int_Tables_number   1
_chemical_formula_structural   Cu2Ni4C5
_chemical_formula_sum   'Cu4 Ni8 C10'
_cell_volume   458.93463009
_cell_formula_units_Z   2
loop_
 _symmetry_equiv_pos_site_id
 _symmetry_equiv_pos_as_xyz
  1  'x, y, z'
loop_
 _atom_site_type_symbol
 _atom_site_label
 _atom_site_symmetry_multiplicity
 _atom_site_fract_x
 _atom_site_fract_y
 _atom_site_fract_z
 _atom_site_occupancy
  C  C0  1  0.00000000  0.00000000  0.00000000  1
  C  C1  1  0.00000000  0.50000000  0.50000000  1
  C  C2  1  0.00000000  0.74499000  0.77908200  1
  C  C3  1  0.00000000  0.25501000  0.22091800  1
  C  C4  1  0.00000000  0.24499000  0.72091800  1
  C  C5  1  0.00000000  0.75501000  0.27908200  1
  C  C6  1  0.00000000  0.87595400  0.58548200  1
  C  C7  1  0.00000000  0.12404600  0.41451800  1
  C  C8  1  0.00000000  0.37595400  0.91451800  1
  C  C9  1  0.00000000  0.62404600  0.08548200  1
  Ni  Ni10  1  0.50000000  0.79621800  0.43320900  1
  Ni  Ni11  1  0.50000000  0.20378200  0.56679100  1
  Ni  Ni12  1  0.50000000  0.29621800  0.06679100  1
  Ni  Ni13  1  0.50000000  0.70378200  0.93320900  1
  Ni  Ni14  1  0.50000000  0.93072300  0.14926700  1
  Ni  Ni15  1  0.50000000  0.06927700  0.85073300  1
  Ni  Ni16  1  0.50000000  0.43072300  0.35073300  1
  Ni  Ni17  1  0.50000000  0.56927700  0.64926700  1
  Cu  Cu18  1  0.50000000  0.96256100  0.69426600  1
  Cu  Cu19  1  0.50000000  0.03743900  0.30573400  1
  Cu  Cu20  1  0.50000000  0.46256100  0.80573400  1
  Cu  Cu21  1  0.50000000  0.53743900  0.19426600  1
