# generated using pymatgen
data_Cu2Ni2C5
_symmetry_space_group_name_H-M   'P 1'
_cell_length_a   8.56042624
_cell_length_b   8.56042624
_cell_length_c   7.88997000
_cell_angle_alpha   90.00000000
_cell_angle_beta   90.00000000
_cell_angle_gamma   125.31462574
_symmetry_Int_Tables_number   1
_chemical_formula_structural   Cu2Ni2C5
_chemical_formula_sum   'Cu4 Ni4 C10'
_cell_volume   471.79246150
_cell_formula_units_Z   2
loop_
 _symmetry_equiv_pos_site_id
 _symmetry_equiv_pos_as_xyz
  1  'x, y, z'
loop_
 _atom_site_type_symbol
 _atom_site_label
 _atom_site_symmetry_multiplicity
 _atom_site_fract_x
 _atom_site_fract_y
 _atom_site_fract_z
 _atom_site_occupancy
  C  C0  1  0.04254200  0.29591500  0.33164600  1
  C  C1  1  0.95745800  0.70408500  0.66835400  1
  C  C2  1  0.45745800  0.20408500  0.83164600  1
  C  C3  1  0.79591500  0.54254200  0.16835400  1
  C  C4  1  0.54254200  0.79591500  0.16835400  1
  C  C5  1  0.20408500  0.45745800  0.83164600  1
  C  C6  1  0.70408500  0.95745800  0.66835400  1
  C  C7  1  0.29591500  0.04254200  0.33164600  1
  C  C8  1  0.00000000  0.00000000  0.00000000  1
  C  C9  1  0.50000000  0.50000000  0.50000000  1
  Ni  Ni10  1  0.37374800  0.37374800  0.12550000  1
  Ni  Ni11  1  0.62625200  0.62625200  0.87450000  1
  Ni  Ni12  1  0.12625200  0.12625200  0.62550000  1
  Ni  Ni13  1  0.87374800  0.87374800  0.37450000  1
  Cu  Cu14  1  0.79380200  0.20619800  0.00000000  1
  Cu  Cu15  1  0.20619800  0.79380200  0.00000000  1
  Cu  Cu16  1  0.70619800  0.29380200  0.50000000  1
  Cu  Cu17  1  0.29380200  0.70619800  0.50000000  1
