# generated using pymatgen
data_CuNi2C19
_symmetry_space_group_name_H-M   'P 1'
_cell_length_a   3.63737501
_cell_length_b   8.49451558
_cell_length_c   10.08501231
_cell_angle_alpha   81.05862790
_cell_angle_beta   90.00162852
_cell_angle_gamma   77.63474560
_symmetry_Int_Tables_number   1
_chemical_formula_structural   CuNi2C19
_chemical_formula_sum   'Cu1 Ni2 C19'
_cell_volume   300.49755764
_cell_formula_units_Z   1
loop_
 _symmetry_equiv_pos_site_id
 _symmetry_equiv_pos_as_xyz
  1  'x, y, z'
loop_
 _atom_site_type_symbol
 _atom_site_label
 _atom_site_symmetry_multiplicity
 _atom_site_fract_x
 _atom_site_fract_y
 _atom_site_fract_z
 _atom_site_occupancy
  Ni  Ni0  1  0.52212400  0.95215000  0.81115400  1
  Ni  Ni1  1  0.45162100  0.09321900  0.29310600  1
  Cu  Cu2  1  0.72501900  0.54694500  0.95997200  1
  C  C3  1  0.10825300  0.78009400  0.12443300  1
  C  C4  1  0.17417200  0.64819700  0.39559600  1
  C  C5  1  0.20530700  0.58613900  0.69586100  1
  C  C6  1  0.77761400  0.44129800  0.26758100  1
  C  C7  1  0.83781900  0.32107500  0.58530900  1
  C  C8  1  0.89339700  0.20946200  0.97115900  1
  C  C9  1  0.22778800  0.54091400  0.21165500  1
  C  C10  1  0.85778600  0.28080500  0.13476200  1
  C  C11  1  0.06320500  0.87008800  0.28579100  1
  C  C12  1  0.11953800  0.75770400  0.56964800  1
  C  C13  1  0.15617300  0.68448800  0.85285100  1
  C  C14  1  0.61766800  0.76126100  0.06825200  1
  C  C15  1  0.70729800  0.58196600  0.42262900  1
  C  C16  1  0.74932100  0.49812700  0.72821600  1
  C  C17  1  0.29536200  0.40597700  0.57136000  1
  C  C18  1  0.36098200  0.27428500  0.91008200  1
  C  C19  1  0.87257200  0.25159100  0.41194500  1
  C  C20  1  0.93091600  0.13462300  0.69660000  1
  C  C21  1  0.00339300  0.98960400  0.98673300  1
