# generated using pymatgen
data_Cu2NiC8
_symmetry_space_group_name_H-M   'P 1'
_cell_length_a   9.06763000
_cell_length_b   7.42544600
_cell_length_c   9.43070898
_cell_angle_alpha   69.64657599
_cell_angle_beta   90.00000000
_cell_angle_gamma   90.00000000
_symmetry_Int_Tables_number   1
_chemical_formula_structural   Cu2NiC8
_chemical_formula_sum   'Cu8 Ni4 C32'
_cell_volume   595.33591198
_cell_formula_units_Z   4
loop_
 _symmetry_equiv_pos_site_id
 _symmetry_equiv_pos_as_xyz
  1  'x, y, z'
loop_
 _atom_site_type_symbol
 _atom_site_label
 _atom_site_symmetry_multiplicity
 _atom_site_fract_x
 _atom_site_fract_y
 _atom_site_fract_z
 _atom_site_occupancy
  C  C0  1  0.06545700  0.74522000  0.93744000  1
  C  C1  1  0.56545700  0.25478000  0.56256000  1
  C  C2  1  0.93454300  0.25478000  0.06256000  1
  C  C3  1  0.43454300  0.74522000  0.43744000  1
  Ni  Ni4  1  0.94216700  0.19763000  0.69525200  1
  Ni  Ni5  1  0.44216700  0.80237000  0.80474800  1
  Ni  Ni6  1  0.05783300  0.80237000  0.30474800  1
  Ni  Ni7  1  0.55783300  0.19763000  0.19525200  1
  Cu  Cu8  1  0.76095000  0.57999900  0.73385200  1
  Cu  Cu9  1  0.26095000  0.42000100  0.76614800  1
  Cu  Cu10  1  0.23905000  0.42000100  0.26614800  1
  Cu  Cu11  1  0.73905000  0.57999900  0.23385200  1
  Cu  Cu12  1  0.70140800  0.98210300  0.95286400  1
  Cu  Cu13  1  0.20140800  0.01789700  0.54713600  1
  Cu  Cu14  1  0.29859200  0.01789700  0.04713600  1
  Cu  Cu15  1  0.79859200  0.98210300  0.45286400  1
  C  C16  1  0.68723000  0.14772500  0.03992100  1
  C  C17  1  0.18723000  0.85227500  0.46007900  1
  C  C18  1  0.31277000  0.85227500  0.96007900  1
  C  C19  1  0.81277000  0.14772500  0.53992100  1
  C  C20  1  0.58234000  0.65580400  0.71749700  1
  C  C21  1  0.08234000  0.34419600  0.78250300  1
  C  C22  1  0.41766000  0.34419600  0.28250300  1
  C  C23  1  0.91766000  0.65580400  0.21749700  1
  C  C24  1  0.86072200  0.57008900  0.88952200  1
  C  C25  1  0.36072200  0.42991100  0.61047800  1
  C  C26  1  0.13927800  0.42991100  0.11047800  1
  C  C27  1  0.63927800  0.57008900  0.38952200  1
  C  C28  1  0.85748000  0.75190700  0.57599300  1
  C  C29  1  0.35748000  0.24809300  0.92400700  1
  C  C30  1  0.14252000  0.24809300  0.42400700  1
  C  C31  1  0.64252000  0.75190700  0.07599300  1
  C  C32  1  0.91255900  0.00816200  0.30385600  1
  C  C33  1  0.41255900  0.99183800  0.19614400  1
  C  C34  1  0.08744100  0.99183800  0.69614400  1
  C  C35  1  0.58744100  0.00816200  0.80385600  1
  C  C36  1  0.73240800  0.36933300  0.19963400  1
  C  C37  1  0.23240800  0.63066700  0.30036600  1
  C  C38  1  0.26759200  0.63066700  0.80036600  1
  C  C39  1  0.76759200  0.36933300  0.69963400  1
  C  C40  1  0.61640900  0.99538500  0.40213200  1
  C  C41  1  0.11640900  0.00461500  0.09786800  1
  C  C42  1  0.38359100  0.00461500  0.59786800  1
  C  C43  1  0.88359100  0.99538500  0.90213200  1
