# generated using pymatgen
data_Cu11(NiC)4
_symmetry_space_group_name_H-M   'P 1'
_cell_length_a   7.41557017
_cell_length_b   7.41557017
_cell_length_c   13.28373766
_cell_angle_alpha   86.94403544
_cell_angle_beta   86.94403544
_cell_angle_gamma   81.53397216
_symmetry_Int_Tables_number   1
_chemical_formula_structural   Cu11(NiC)4
_chemical_formula_sum   'Cu22 Ni8 C8'
_cell_volume   720.72978030
_cell_formula_units_Z   2
loop_
 _symmetry_equiv_pos_site_id
 _symmetry_equiv_pos_as_xyz
  1  'x, y, z'
loop_
 _atom_site_type_symbol
 _atom_site_label
 _atom_site_symmetry_multiplicity
 _atom_site_fract_x
 _atom_site_fract_y
 _atom_site_fract_z
 _atom_site_occupancy
  C  C0  1  0.19380000  0.80620000  0.75000000  1
  C  C1  1  0.80620000  0.19380000  0.25000000  1
  C  C2  1  0.49561700  0.50438300  0.75000000  1
  C  C3  1  0.50438300  0.49561700  0.25000000  1
  C  C4  1  0.93079300  0.84255300  0.59390000  1
  C  C5  1  0.15744700  0.06920700  0.90610000  1
  C  C6  1  0.06920700  0.15744700  0.40610000  1
  C  C7  1  0.84255300  0.93079300  0.09390000  1
  Ni  Ni8  1  0.66063900  0.98270900  0.85528700  1
  Ni  Ni9  1  0.01729100  0.33936100  0.64471300  1
  Ni  Ni10  1  0.33936100  0.01729100  0.14471300  1
  Ni  Ni11  1  0.98270900  0.66063900  0.35528700  1
  Ni  Ni12  1  0.22143100  0.56657800  0.04294800  1
  Ni  Ni13  1  0.43342200  0.77856900  0.45705200  1
  Ni  Ni14  1  0.77856900  0.43342200  0.95705200  1
  Ni  Ni15  1  0.56657800  0.22143100  0.54294800  1
  Cu  Cu16  1  0.39063300  0.53413700  0.67580600  1
  Cu  Cu17  1  0.46586300  0.60936700  0.82419400  1
  Cu  Cu18  1  0.60936700  0.46586300  0.32419400  1
  Cu  Cu19  1  0.53413700  0.39063300  0.17580600  1
  Cu  Cu20  1  0.07767400  0.72724800  0.58864300  1
  Cu  Cu21  1  0.27275200  0.92232600  0.91135700  1
  Cu  Cu22  1  0.92232600  0.27275200  0.41135700  1
  Cu  Cu23  1  0.72724800  0.07767400  0.08864300  1
  Cu  Cu24  1  0.90828800  0.95273900  0.66630800  1
  Cu  Cu25  1  0.04726100  0.09171200  0.83369200  1
  Cu  Cu26  1  0.09171200  0.04726100  0.33369200  1
  Cu  Cu27  1  0.95273900  0.90828800  0.16630800  1
  Cu  Cu28  1  0.62828500  0.37171500  0.75000000  1
  Cu  Cu29  1  0.37171500  0.62828500  0.25000000  1
  Cu  Cu30  1  0.80883200  0.84860200  0.52774600  1
  Cu  Cu31  1  0.15139800  0.19116800  0.97225400  1
  Cu  Cu32  1  0.19116800  0.15139800  0.47225400  1
  Cu  Cu33  1  0.84860200  0.80883200  0.02774600  1
  Cu  Cu34  1  0.05168300  0.66209600  0.81876300  1
  Cu  Cu35  1  0.33790400  0.94831700  0.68123700  1
  Cu  Cu36  1  0.94831700  0.33790400  0.18123700  1
  Cu  Cu37  1  0.66209600  0.05168300  0.31876300  1
