# generated using pymatgen
data_Cu14NiC16
_symmetry_space_group_name_H-M   'P 1'
_cell_length_a   8.62506936
_cell_length_b   8.63432370
_cell_length_c   4.28705545
_cell_angle_alpha   90.00000000
_cell_angle_beta   90.00000000
_cell_angle_gamma   90.00000000
_symmetry_Int_Tables_number   1
_chemical_formula_structural   Cu14NiC16
_chemical_formula_sum   'Cu14 Ni1 C16'
_cell_volume   319.26405352
_cell_formula_units_Z   1
loop_
 _symmetry_equiv_pos_site_id
 _symmetry_equiv_pos_as_xyz
  1  'x, y, z'
loop_
 _atom_site_type_symbol
 _atom_site_label
 _atom_site_symmetry_multiplicity
 _atom_site_fract_x
 _atom_site_fract_y
 _atom_site_fract_z
 _atom_site_occupancy
  C  C0  1  0.99237263  -0.00000000  0.00000000  1
  Ni  Ni1  1  0.50070294  0.50000000  0.00000000  1
  Cu  Cu2  1  0.99966340  0.50000000  0.00000000  1
  Cu  Cu3  1  0.50064965  -0.00000000  0.00000000  1
  Cu  Cu4  1  0.00031581  0.24150553  0.50000000  1
  Cu  Cu5  1  0.00031581  0.75849447  0.50000000  1
  Cu  Cu6  1  0.50028095  0.23947404  0.50000000  1
  Cu  Cu7  1  0.50028095  0.76052596  0.50000000  1
  Cu  Cu8  1  0.24200260  -0.00000000  0.50000000  1
  Cu  Cu9  1  0.23941278  0.50000000  0.50000000  1
  Cu  Cu10  1  0.75810455  -0.00000000  0.50000000  1
  Cu  Cu11  1  0.76103765  0.50000000  0.50000000  1
  Cu  Cu12  1  0.23926241  0.24072747  -0.00000000  1
  Cu  Cu13  1  0.23926241  0.75927253  -0.00000000  1
  Cu  Cu14  1  0.76071296  0.23930105  0.00000000  1
  Cu  Cu15  1  0.76071296  0.76069895  0.00000000  1
  C  C16  1  0.25125061  0.50000000  0.00000000  1
  C  C17  1  0.74245286  -0.00000000  0.00000000  1
  C  C18  1  0.74977552  0.50000000  0.00000000  1
  C  C19  1  0.25158578  0.25324033  0.50000000  1
  C  C20  1  0.25158578  0.74675967  0.50000000  1
  C  C21  1  0.74955594  0.25093290  0.50000000  1
  C  C22  1  0.74955594  0.74906710  0.50000000  1
  C  C23  1  0.00011340  -0.00000000  0.50000000  1
  C  C24  1  0.00010031  0.50000000  0.50000000  1
  C  C25  1  0.50324446  -0.00000000  0.50000000  1
  C  C26  1  0.50090606  0.50000000  0.50000000  1
  C  C27  1  0.99969099  0.25917063  0.00000000  1
  C  C28  1  0.99969099  0.74082937  0.00000000  1
  C  C29  1  0.50270046  0.25027916  -0.00000000  1
  C  C30  1  0.50270046  0.74972084  -0.00000000  1
