# generated using pymatgen
data_CuNiC8
_symmetry_space_group_name_H-M   'P 1'
_cell_length_a   5.74626400
_cell_length_b   5.61676600
_cell_length_c   9.59307496
_cell_angle_alpha   54.47533136
_cell_angle_beta   90.00000000
_cell_angle_gamma   90.00000000
_symmetry_Int_Tables_number   1
_chemical_formula_structural   CuNiC8
_chemical_formula_sum   'Cu2 Ni2 C16'
_cell_volume   251.98943999
_cell_formula_units_Z   2
loop_
 _symmetry_equiv_pos_site_id
 _symmetry_equiv_pos_as_xyz
  1  'x, y, z'
loop_
 _atom_site_type_symbol
 _atom_site_label
 _atom_site_symmetry_multiplicity
 _atom_site_fract_x
 _atom_site_fract_y
 _atom_site_fract_z
 _atom_site_occupancy
  C  C0  1  0.54706000  0.73939100  0.74900000  1
  C  C1  1  0.04706000  0.26060900  0.75100000  1
  C  C2  1  0.45294000  0.26060900  0.25100000  1
  C  C3  1  0.95294000  0.73939100  0.24900000  1
  Ni  Ni4  1  0.50000000  0.50000000  0.50000000  1
  Ni  Ni5  1  0.00000000  0.50000000  0.00000000  1
  Cu  Cu6  1  0.50000000  0.00000000  0.00000000  1
  Cu  Cu7  1  0.00000000  0.00000000  0.50000000  1
  C  C8  1  0.97506700  0.83381900  0.75416100  1
  C  C9  1  0.47506700  0.16618100  0.74583900  1
  C  C10  1  0.02493300  0.16618100  0.24583900  1
  C  C11  1  0.52493300  0.83381900  0.25416100  1
  C  C12  1  0.79947700  0.26985400  0.95339700  1
  C  C13  1  0.29947700  0.73014600  0.54660300  1
  C  C14  1  0.22230800  0.34879100  0.45092900  1
  C  C15  1  0.72230800  0.65120900  0.04907100  1
  C  C16  1  0.20052300  0.73014600  0.04660300  1
  C  C17  1  0.70052300  0.26985400  0.45339700  1
  C  C18  1  0.77769200  0.65120900  0.54907100  1
  C  C19  1  0.27769200  0.34879100  0.95092900  1
