# generated using pymatgen
data_Cu14NiC
_symmetry_space_group_name_H-M   'P 1'
_cell_length_a   6.35596342
_cell_length_b   6.35596291
_cell_length_c   10.16387902
_cell_angle_alpha   90.00000000
_cell_angle_beta   90.00000000
_cell_angle_gamma   120.00000265
_symmetry_Int_Tables_number   1
_chemical_formula_structural   Cu14NiC
_chemical_formula_sum   'Cu14 Ni1 C1'
_cell_volume   355.59271133
_cell_formula_units_Z   1
loop_
 _symmetry_equiv_pos_site_id
 _symmetry_equiv_pos_as_xyz
  1  'x, y, z'
loop_
 _atom_site_type_symbol
 _atom_site_label
 _atom_site_symmetry_multiplicity
 _atom_site_fract_x
 _atom_site_fract_y
 _atom_site_fract_z
 _atom_site_occupancy
  Ni  Ni0  1  0.16666700  0.33333300  0.62500000  1
  Cu  Cu1  1  0.16489323  0.83244611  0.12500000  1
  Cu  Cu2  1  0.17171008  0.83585454  0.62500000  1
  Cu  Cu3  1  0.66755389  0.33510677  0.12500000  1
  Cu  Cu4  1  0.66414546  0.32828992  0.62500000  1
  Cu  Cu5  1  0.66755389  0.83244611  0.12500000  1
  Cu  Cu6  1  0.66414546  0.83585454  0.62500000  1
  Cu  Cu7  1  0.32891343  0.17108657  0.37439828  1
  Cu  Cu8  1  0.32891343  0.17108657  0.87560172  1
  Cu  Cu9  1  0.32891343  0.65782787  0.37439828  1
  Cu  Cu10  1  0.32891343  0.65782787  0.87560172  1
  Cu  Cu11  1  0.84217213  0.17108657  0.37439828  1
  Cu  Cu12  1  0.84217213  0.17108657  0.87560172  1
  Cu  Cu13  1  0.83333300  0.66666700  0.38027679  1
  Cu  Cu14  1  0.83333300  0.66666700  0.86972321  1
  C  C15  1  0.16666700  0.33333300  0.12500000  1
