# generated using pymatgen
data_Cu8Ni2C39
_symmetry_space_group_name_H-M   'P 1'
_cell_length_a   10.61456504
_cell_length_b   10.53845562
_cell_length_c   8.48336985
_cell_angle_alpha   91.57663602
_cell_angle_beta   88.82804477
_cell_angle_gamma   119.33512570
_symmetry_Int_Tables_number   1
_chemical_formula_structural   Cu8Ni2C39
_chemical_formula_sum   'Cu8 Ni2 C39'
_cell_volume   826.93369214
_cell_formula_units_Z   1
loop_
 _symmetry_equiv_pos_site_id
 _symmetry_equiv_pos_as_xyz
  1  'x, y, z'
loop_
 _atom_site_type_symbol
 _atom_site_label
 _atom_site_symmetry_multiplicity
 _atom_site_fract_x
 _atom_site_fract_y
 _atom_site_fract_z
 _atom_site_occupancy
  C  C0  1  0.08665100  0.69730700  0.15405200  1
  C  C1  1  0.58932900  0.91852800  0.13702000  1
  C  C2  1  0.41689500  0.10709300  0.85267900  1
  C  C3  1  0.01548300  0.01450500  0.01273700  1
  C  C4  1  0.89952700  0.31563500  0.85512000  1
  C  C5  1  0.70825500  0.64731300  0.88783600  1
  C  C6  1  0.31572000  0.41490600  0.15792000  1
  C  C7  1  0.01754200  0.01201800  0.50780700  1
  C  C8  1  0.69296500  0.47542100  0.54446500  1
  Ni  Ni9  1  0.33325200  0.66523400  0.47762000  1
  Ni  Ni10  1  0.65513900  0.19584100  0.47700300  1
  Cu  Cu11  1  0.98276600  0.33150100  0.36496100  1
  Cu  Cu12  1  0.03075200  0.69483100  0.64482700  1
  Cu  Cu13  1  0.33988200  0.01490700  0.36678100  1
  Cu  Cu14  1  0.66486100  0.36080700  0.13852300  1
  Cu  Cu15  1  0.66359900  0.94775000  0.64104500  1
  Cu  Cu16  1  0.32174700  0.66559500  0.86131300  1
  Cu  Cu17  1  0.67486300  0.69457500  0.35643900  1
  Cu  Cu18  1  0.32497700  0.34795300  0.64322400  1
  C  C19  1  0.48185500  0.79990500  0.66936400  1
  C  C20  1  0.65590900  0.49185100  0.31966400  1
  C  C21  1  0.72061600  0.91912300  0.44536400  1
  C  C22  1  0.47824200  0.64712100  0.34856400  1
  C  C23  1  0.16460900  0.52705200  0.95346500  1
  C  C24  1  0.14060600  0.51080600  0.35941800  1
  C  C25  1  0.28888200  0.03113500  0.56295600  1
  C  C26  1  0.35549000  0.85083400  0.34986400  1
  C  C27  1  0.52119200  0.35886700  0.03373900  1
  C  C28  1  0.87120900  0.51475700  0.66207200  1
  C  C29  1  0.32039900  0.52072200  0.66735900  1
  C  C30  1  0.81324400  0.34209300  0.33965600  1
  C  C31  1  0.96700700  0.24806900  0.54849200  1
  C  C32  1  0.72687400  0.68031600  0.56288600  1
  C  C33  1  0.33700700  0.82877200  0.94683800  1
  C  C34  1  0.82196300  0.50027600  0.04661200  1
  C  C35  1  0.20803400  0.00047800  0.22944200  1
  C  C36  1  0.02987000  0.76063900  0.45684900  1
  C  C37  1  0.66575100  0.20148000  0.05626500  1
  C  C38  1  0.77999200  0.95484600  0.79206500  1
  C  C39  1  0.99894200  0.22287300  0.21027500  1
  C  C40  1  0.51368100  0.18167700  0.32018200  1
  C  C41  1  0.50732700  0.37491300  0.66477200  1
  C  C42  1  0.19736200  0.68093100  0.66172400  1
  C  C43  1  0.26022000  0.28087100  0.45239700  1
  C  C44  1  0.64995200  0.11422900  0.67055600  1
  C  C45  1  0.78561200  0.78833700  0.18942400  1
  C  C46  1  0.02162300  0.81038600  0.79551000  1
  C  C47  1  0.46422800  0.65480200  0.95494700  1
  C  C48  1  0.21184600  0.22386700  0.78853000  1
