# generated using pymatgen
data_Cu2Ni8C21
_symmetry_space_group_name_H-M   'P 1'
_cell_length_a   8.19786520
_cell_length_b   9.56841362
_cell_length_c   10.51727800
_cell_angle_alpha   90.00000000
_cell_angle_beta   90.00000000
_cell_angle_gamma   96.77857853
_symmetry_Int_Tables_number   1
_chemical_formula_structural   Cu2Ni8C21
_chemical_formula_sum   'Cu4 Ni16 C42'
_cell_volume   819.21436883
_cell_formula_units_Z   2
loop_
 _symmetry_equiv_pos_site_id
 _symmetry_equiv_pos_as_xyz
  1  'x, y, z'
loop_
 _atom_site_type_symbol
 _atom_site_label
 _atom_site_symmetry_multiplicity
 _atom_site_fract_x
 _atom_site_fract_y
 _atom_site_fract_z
 _atom_site_occupancy
  C  C0  1  0.50000000  0.00000000  0.00000000  1
  C  C1  1  0.00000000  0.50000000  0.50000000  1
  C  C2  1  0.76548600  0.05185600  0.71096800  1
  C  C3  1  0.26548600  0.55185600  0.78903200  1
  C  C4  1  0.23451400  0.94814400  0.28903200  1
  C  C5  1  0.73451400  0.44814400  0.21096800  1
  C  C6  1  0.90683700  0.93940800  0.64894100  1
  C  C7  1  0.40683700  0.43940800  0.85105900  1
  C  C8  1  0.09316300  0.06059200  0.35105900  1
  C  C9  1  0.59316300  0.56059200  0.14894100  1
  C  C10  1  0.96994100  0.06079500  0.77732100  1
  C  C11  1  0.46994100  0.56079500  0.72267900  1
  C  C12  1  0.03005900  0.93920500  0.22267900  1
  C  C13  1  0.53005900  0.43920500  0.27732100  1
  C  C14  1  0.95716100  0.71735900  0.96321700  1
  C  C15  1  0.45716100  0.21735900  0.53678300  1
  C  C16  1  0.04283900  0.28264100  0.03678300  1
  C  C17  1  0.54283900  0.78264100  0.46321700  1
  C  C18  1  0.06695100  0.88830900  0.92360400  1
  C  C19  1  0.56695100  0.38830900  0.57639600  1
  C  C20  1  0.93304900  0.11169100  0.07639600  1
  C  C21  1  0.43304900  0.61169100  0.42360400  1
  C  C22  1  0.02875900  0.75013300  0.80415700  1
  C  C23  1  0.52875900  0.25013300  0.69584300  1
  C  C24  1  0.97124100  0.24986700  0.19584300  1
  C  C25  1  0.47124100  0.74986700  0.30415700  1
  Ni  Ni26  1  0.64110500  0.05139000  0.29606400  1
  Ni  Ni27  1  0.14110500  0.55139000  0.20393600  1
  Ni  Ni28  1  0.35889500  0.94861000  0.70393600  1
  Ni  Ni29  1  0.85889500  0.44861000  0.79606400  1
  Ni  Ni30  1  0.81052200  0.18545200  0.43310900  1
  Ni  Ni31  1  0.31052200  0.68545200  0.06689100  1
  Ni  Ni32  1  0.18947800  0.81454800  0.56689100  1
  Ni  Ni33  1  0.68947800  0.31454800  0.93310900  1
  Ni  Ni34  1  0.86763500  0.99217100  0.73455100  1
  Ni  Ni35  1  0.36763500  0.49217100  0.76544900  1
  Ni  Ni36  1  0.13236500  0.00782900  0.26544900  1
  Ni  Ni37  1  0.63236500  0.50782900  0.23455100  1
  Ni  Ni38  1  0.98218000  0.79838500  0.88948100  1
  Ni  Ni39  1  0.48218000  0.29838500  0.61051900  1
  Ni  Ni40  1  0.01782000  0.20161500  0.11051900  1
  Ni  Ni41  1  0.51782000  0.70161500  0.38948100  1
  Cu  Cu42  1  0.78951200  0.85854900  0.84772800  1
  Cu  Cu43  1  0.28951200  0.35854900  0.65227200  1
  Cu  Cu44  1  0.21048800  0.14145100  0.15227200  1
  Cu  Cu45  1  0.71048800  0.64145100  0.34772800  1
  C  C46  1  0.56603800  0.02257600  0.20219500  1
  C  C47  1  0.06603800  0.52257600  0.29780500  1
  C  C48  1  0.43396200  0.97742400  0.79780500  1
  C  C49  1  0.93396200  0.47742400  0.70219500  1
  C  C50  1  0.89937200  0.28373900  0.46835400  1
  C  C51  1  0.39937200  0.78373900  0.03164600  1
  C  C52  1  0.10062800  0.71626100  0.53164600  1
  C  C53  1  0.60062800  0.21626100  0.96835400  1
  C  C54  1  0.71655500  0.07089900  0.40423200  1
  C  C55  1  0.21655500  0.57089900  0.09576800  1
  C  C56  1  0.28344500  0.92910100  0.59576800  1
  C  C57  1  0.78344500  0.42910100  0.90423200  1
  C  C58  1  0.74229200  0.93813200  0.96626400  1
  C  C59  1  0.24229200  0.43813200  0.53373600  1
  C  C60  1  0.25770800  0.06186800  0.03373600  1
  C  C61  1  0.75770800  0.56186800  0.46626400  1
