# generated using pymatgen
data_Cu7NiC2
_symmetry_space_group_name_H-M   'P 1'
_cell_length_a   14.02645200
_cell_length_b   5.70131400
_cell_length_c   7.68021602
_cell_angle_alpha   70.57859021
_cell_angle_beta   90.00000000
_cell_angle_gamma   90.00000000
_symmetry_Int_Tables_number   1
_chemical_formula_structural   Cu7NiC2
_chemical_formula_sum   'Cu28 Ni4 C8'
_cell_volume   579.23296129
_cell_formula_units_Z   4
loop_
 _symmetry_equiv_pos_site_id
 _symmetry_equiv_pos_as_xyz
  1  'x, y, z'
loop_
 _atom_site_type_symbol
 _atom_site_label
 _atom_site_symmetry_multiplicity
 _atom_site_fract_x
 _atom_site_fract_y
 _atom_site_fract_z
 _atom_site_occupancy
  C  C0  1  0.63304000  0.58063800  0.59026300  1
  C  C1  1  0.13304000  0.91936200  0.40973700  1
  C  C2  1  0.36696000  0.41936200  0.40973700  1
  C  C3  1  0.86696000  0.08063800  0.59026300  1
  C  C4  1  0.62623400  0.27121000  0.26537400  1
  C  C5  1  0.12623400  0.22879000  0.73462600  1
  C  C6  1  0.37376600  0.72879000  0.73462600  1
  C  C7  1  0.87376600  0.77121000  0.26537400  1
  Ni  Ni8  1  0.63901400  0.89518500  0.88475000  1
  Ni  Ni9  1  0.13901400  0.60481500  0.11525000  1
  Ni  Ni10  1  0.36098600  0.10481500  0.11525000  1
  Ni  Ni11  1  0.86098600  0.39518500  0.88475000  1
  Cu  Cu12  1  0.58693200  0.95401700  0.41470400  1
  Cu  Cu13  1  0.08693200  0.54598300  0.58529600  1
  Cu  Cu14  1  0.41306800  0.04598300  0.58529600  1
  Cu  Cu15  1  0.91306800  0.45401700  0.41470400  1
  Cu  Cu16  1  0.67313000  0.82761000  0.07491900  1
  Cu  Cu17  1  0.17313000  0.67239000  0.92508100  1
  Cu  Cu18  1  0.32687000  0.17239000  0.92508100  1
  Cu  Cu19  1  0.82687000  0.32761000  0.07491900  1
  Cu  Cu20  1  0.59927400  0.14998100  0.81740400  1
  Cu  Cu21  1  0.09927400  0.35001900  0.18259600  1
  Cu  Cu22  1  0.40072600  0.85001900  0.18259600  1
  Cu  Cu23  1  0.90072600  0.64998100  0.81740400  1
  Cu  Cu24  1  0.56777300  0.70884200  0.86313400  1
  Cu  Cu25  1  0.06777300  0.79115800  0.13686600  1
  Cu  Cu26  1  0.43222700  0.29115800  0.13686600  1
  Cu  Cu27  1  0.93222700  0.20884200  0.86313400  1
  Cu  Cu28  1  0.71902000  0.87171200  0.75668200  1
  Cu  Cu29  1  0.21902000  0.62828800  0.24331800  1
  Cu  Cu30  1  0.28098000  0.12828800  0.24331800  1
  Cu  Cu31  1  0.78098000  0.37171200  0.75668200  1
  Cu  Cu32  1  0.54085300  0.45317700  0.36784600  1
  Cu  Cu33  1  0.04085300  0.04682300  0.63215400  1
  Cu  Cu34  1  0.45914700  0.54682300  0.63215400  1
  Cu  Cu35  1  0.95914700  0.95317700  0.36784600  1
  Cu  Cu36  1  0.71920100  0.32479400  0.43294900  1
  Cu  Cu37  1  0.21920100  0.17520600  0.56705100  1
  Cu  Cu38  1  0.28079900  0.67520600  0.56705100  1
  Cu  Cu39  1  0.78079900  0.82479400  0.43294900  1
