# generated using pymatgen
data_Cu3(NiC8)2
_symmetry_space_group_name_H-M   'P 1'
_cell_length_a   5.81321300
_cell_length_b   8.58571873
_cell_length_c   10.53856608
_cell_angle_alpha   91.03276070
_cell_angle_beta   90.00000000
_cell_angle_gamma   90.00000000
_symmetry_Int_Tables_number   1
_chemical_formula_structural   Cu3(NiC8)2
_chemical_formula_sum   'Cu6 Ni4 C32'
_cell_volume   525.90083497
_cell_formula_units_Z   2
loop_
 _symmetry_equiv_pos_site_id
 _symmetry_equiv_pos_as_xyz
  1  'x, y, z'
loop_
 _atom_site_type_symbol
 _atom_site_label
 _atom_site_symmetry_multiplicity
 _atom_site_fract_x
 _atom_site_fract_y
 _atom_site_fract_z
 _atom_site_occupancy
  C  C0  1  0.75000000  0.92540800  0.34162100  1
  C  C1  1  0.25000000  0.07459200  0.65837900  1
  C  C2  1  0.25000000  0.09413000  0.34736000  1
  C  C3  1  0.75000000  0.90587000  0.65264000  1
  Ni  Ni4  1  0.75000000  0.23039500  0.14794100  1
  Ni  Ni5  1  0.25000000  0.76960500  0.85205900  1
  Ni  Ni6  1  0.75000000  0.40154200  0.42415900  1
  Ni  Ni7  1  0.25000000  0.59845800  0.57584100  1
  C  C8  1  0.50000000  0.00000000  0.00000000  1
  C  C9  1  0.00000000  0.00000000  0.00000000  1
  Cu  Cu10  1  0.25000000  0.43812800  0.32797200  1
  Cu  Cu11  1  0.75000000  0.56187200  0.67202800  1
  Cu  Cu12  1  0.25000000  0.67649300  0.14898900  1
  Cu  Cu13  1  0.75000000  0.32350700  0.85101100  1
  Cu  Cu14  1  0.75000000  0.60717900  0.22170800  1
  Cu  Cu15  1  0.25000000  0.39282100  0.77829200  1
  C  C16  1  0.25000000  0.48669400  0.17414500  1
  C  C17  1  0.75000000  0.51330600  0.82585500  1
  C  C18  1  0.75000000  0.87926200  0.02324500  1
  C  C19  1  0.25000000  0.12073800  0.97675500  1
  C  C20  1  0.25000000  0.79382400  0.02507500  1
  C  C21  1  0.75000000  0.20617600  0.97492500  1
  C  C22  1  0.50000000  0.00000000  0.50000000  1
  C  C23  1  0.00000000  0.00000000  0.50000000  1
  C  C24  1  0.52466200  0.08929000  0.17728300  1
  C  C25  1  0.02466200  0.91071000  0.82271700  1
  C  C26  1  0.47533800  0.91071000  0.82271700  1
  C  C27  1  0.97533800  0.08929000  0.17728300  1
  C  C28  1  0.75000000  0.43962300  0.14870400  1
  C  C29  1  0.25000000  0.56037700  0.85129600  1
  C  C30  1  0.47997100  0.32911600  0.35823500  1
  C  C31  1  0.97997100  0.67088400  0.64176500  1
  C  C32  1  0.52002900  0.67088400  0.64176500  1
  C  C33  1  0.02002900  0.32911600  0.35823500  1
  C  C34  1  0.51648800  0.72089500  0.19975500  1
  C  C35  1  0.01648800  0.27910500  0.80024500  1
  C  C36  1  0.48351200  0.27910500  0.80024500  1
  C  C37  1  0.98351200  0.72089500  0.19975500  1
  C  C38  1  0.25000000  0.59732700  0.41164100  1
  C  C39  1  0.75000000  0.40267300  0.58835900  1
  C  C40  1  0.75000000  0.59642600  0.37496700  1
  C  C41  1  0.25000000  0.40357400  0.62503300  1
