# generated using pymatgen
data_Cu4NiC
_symmetry_space_group_name_H-M   'P 1'
_cell_length_a   8.17625519
_cell_length_b   10.46469375
_cell_length_c   8.64341949
_cell_angle_alpha   107.68285109
_cell_angle_beta   116.85628245
_cell_angle_gamma   90.01284746
_symmetry_Int_Tables_number   1
_chemical_formula_structural   Cu4NiC
_chemical_formula_sum   'Cu32 Ni8 C8'
_cell_volume   620.33682606
_cell_formula_units_Z   8
loop_
 _symmetry_equiv_pos_site_id
 _symmetry_equiv_pos_as_xyz
  1  'x, y, z'
loop_
 _atom_site_type_symbol
 _atom_site_label
 _atom_site_symmetry_multiplicity
 _atom_site_fract_x
 _atom_site_fract_y
 _atom_site_fract_z
 _atom_site_occupancy
  C  C0  1  0.25000700  0.62497000  0.50001600  1
  C  C1  1  0.74999900  0.37498700  0.50001500  1
  C  C2  1  0.25000300  0.12502400  0.50007600  1
  C  C3  1  0.75004600  0.87500500  0.50009400  1
  C  C4  1  0.00013600  0.00018900  0.00027500  1
  C  C5  1  0.50012000  0.75011600  0.00016100  1
  C  C6  1  0.99988900  0.50010100  0.99986000  1
  C  C7  1  0.49982100  0.24988300  0.99987500  1
  Ni  Ni8  1  0.25318400  0.30596900  0.22188400  1
  Ni  Ni9  1  0.75323600  0.05602900  0.22213000  1
  Ni  Ni10  1  0.25325300  0.80593800  0.22194100  1
  Ni  Ni11  1  0.75319700  0.55590300  0.22193200  1
  Ni  Ni12  1  0.24678600  0.44407900  0.77801600  1
  Ni  Ni13  1  0.74676900  0.19401800  0.77795400  1
  Ni  Ni14  1  0.24674200  0.94404700  0.77810900  1
  Ni  Ni15  1  0.74676400  0.69407400  0.77795600  1
  Cu  Cu16  1  0.29509500  0.26618500  0.06423300  1
  Cu  Cu17  1  0.79538500  0.01658900  0.06465100  1
  Cu  Cu18  1  0.29528000  0.76648500  0.06443300  1
  Cu  Cu19  1  0.79521700  0.51645100  0.06438600  1
  Cu  Cu20  1  0.20470300  0.48358000  0.93554300  1
  Cu  Cu21  1  0.70459400  0.23337400  0.93540700  1
  Cu  Cu22  1  0.20474600  0.98359400  0.93567200  1
  Cu  Cu23  1  0.70462400  0.73342200  0.93540100  1
  Cu  Cu24  1  0.41629200  0.35140200  0.40179600  1
  Cu  Cu25  1  0.91620000  0.10160600  0.40208700  1
  Cu  Cu26  1  0.41629600  0.85131600  0.40178900  1
  Cu  Cu27  1  0.91631000  0.60136000  0.40178600  1
  Cu  Cu28  1  0.08382200  0.39849300  0.59807900  1
  Cu  Cu29  1  0.58381300  0.14840400  0.59795100  1
  Cu  Cu30  1  0.08367600  0.89866400  0.59824100  1
  Cu  Cu31  1  0.58380000  0.64847200  0.59796900  1
  Cu  Cu32  1  0.13625000  0.41753400  0.20194600  1
  Cu  Cu33  1  0.63612200  0.16748700  0.20197500  1
  Cu  Cu34  1  0.13629100  0.91750600  0.20207700  1
  Cu  Cu35  1  0.63623100  0.66748500  0.20198400  1
  Cu  Cu36  1  0.13646800  0.18481400  0.20315100  1
  Cu  Cu37  1  0.63652800  0.93483000  0.20322600  1
  Cu  Cu38  1  0.13638700  0.68473600  0.20292500  1
  Cu  Cu39  1  0.63641700  0.43474200  0.20310500  1
  Cu  Cu40  1  0.36362900  0.56527400  0.79697700  1
  Cu  Cu41  1  0.86348400  0.31520500  0.79683400  1
  Cu  Cu42  1  0.36345800  0.06523900  0.79696800  1
  Cu  Cu43  1  0.86355000  0.81526800  0.79693700  1
  Cu  Cu44  1  0.36383900  0.33253400  0.79804300  1
  Cu  Cu45  1  0.86387700  0.08252400  0.79808000  1
  Cu  Cu46  1  0.36380000  0.83253600  0.79802700  1
  Cu  Cu47  1  0.86384900  0.58255900  0.79802400  1
