# generated using pymatgen
data_Cu3Ni2C15
_symmetry_space_group_name_H-M   'P 1'
_cell_length_a   6.50409196
_cell_length_b   6.50409196
_cell_length_c   6.43433835
_cell_angle_alpha   82.78688272
_cell_angle_beta   82.78688272
_cell_angle_gamma   82.95148569
_symmetry_Int_Tables_number   1
_chemical_formula_structural   Cu3Ni2C15
_chemical_formula_sum   'Cu3 Ni2 C15'
_cell_volume   266.31576759
_cell_formula_units_Z   1
loop_
 _symmetry_equiv_pos_site_id
 _symmetry_equiv_pos_as_xyz
  1  'x, y, z'
loop_
 _atom_site_type_symbol
 _atom_site_label
 _atom_site_symmetry_multiplicity
 _atom_site_fract_x
 _atom_site_fract_y
 _atom_site_fract_z
 _atom_site_occupancy
  C  C0  1  0.65624300  0.65624300  0.64158800  1
  C  C1  1  0.34375700  0.34375700  0.35841200  1
  Ni  Ni2  1  0.89599000  0.89599000  0.89725300  1
  Ni  Ni3  1  0.10401000  0.10401000  0.10274700  1
  C  C4  1  0.34443600  0.34443600  0.84892200  1
  C  C5  1  0.34004100  0.84578300  0.34270200  1
  C  C6  1  0.84578300  0.34004100  0.34270200  1
  C  C7  1  0.65556400  0.65556400  0.15107800  1
  C  C8  1  0.65995900  0.15421700  0.65729800  1
  C  C9  1  0.15421700  0.65995900  0.65729800  1
  C  C10  1  0.28748300  0.71251700  0.00000000  1
  C  C11  1  0.70521200  0.00080900  0.29237000  1
  C  C12  1  0.99919100  0.29478800  0.70763000  1
  C  C13  1  0.29478800  0.99919100  0.70763000  1
  C  C14  1  0.00080900  0.70521200  0.29237000  1
  C  C15  1  0.71251700  0.28748300  0.00000000  1
  Cu  Cu16  1  0.00000000  0.00000000  0.50000000  1
  Cu  Cu17  1  0.00000000  0.50000000  0.00000000  1
  Cu  Cu18  1  0.50000000  0.00000000  0.00000000  1
  C  C19  1  0.50000000  0.50000000  0.00000000  1
