# generated using pymatgen
data_Cu2(Ni2C)3
_symmetry_space_group_name_H-M   'P 1'
_cell_length_a   3.91046696
_cell_length_b   6.01622056
_cell_length_c   6.01622056
_cell_angle_alpha   88.41377808
_cell_angle_beta   87.82761900
_cell_angle_gamma   92.17238100
_symmetry_Int_Tables_number   1
_chemical_formula_structural   Cu2(Ni2C)3
_chemical_formula_sum   'Cu2 Ni6 C3'
_cell_volume   141.27552313
_cell_formula_units_Z   1
loop_
 _symmetry_equiv_pos_site_id
 _symmetry_equiv_pos_as_xyz
  1  'x, y, z'
loop_
 _atom_site_type_symbol
 _atom_site_label
 _atom_site_symmetry_multiplicity
 _atom_site_fract_x
 _atom_site_fract_y
 _atom_site_fract_z
 _atom_site_occupancy
  C  C0  1  0.00000000  0.00528200  0.00528200  1
  Ni  Ni1  1  0.79504600  0.81391800  0.37481800  1
  Ni  Ni2  1  0.20495400  0.37481800  0.81391800  1
  Ni  Ni3  1  0.19591700  0.75465500  0.33161600  1
  Ni  Ni4  1  0.10558400  0.20290800  0.61459300  1
  Ni  Ni5  1  0.80408300  0.33161600  0.75465500  1
  Ni  Ni6  1  0.89441600  0.61459300  0.20290800  1
  C  C7  1  0.50000000  0.79940800  0.79940800  1
  C  C8  1  0.50000000  0.21357100  0.21357100  1
  Cu  Cu9  1  0.03029800  0.25368100  0.76955000  1
  Cu  Cu10  1  0.96970200  0.76955000  0.25368100  1
