# generated using pymatgen
data_Cu15NiC10
_symmetry_space_group_name_H-M   'P 1'
_cell_length_a   9.15160900
_cell_length_b   9.24661322
_cell_length_c   9.27912646
_cell_angle_alpha   89.28017391
_cell_angle_beta   89.28425392
_cell_angle_gamma   88.38605628
_symmetry_Int_Tables_number   1
_chemical_formula_structural   Cu15NiC10
_chemical_formula_sum   'Cu30 Ni2 C20'
_cell_volume   784.78125095
_cell_formula_units_Z   2
loop_
 _symmetry_equiv_pos_site_id
 _symmetry_equiv_pos_as_xyz
  1  'x, y, z'
loop_
 _atom_site_type_symbol
 _atom_site_label
 _atom_site_symmetry_multiplicity
 _atom_site_fract_x
 _atom_site_fract_y
 _atom_site_fract_z
 _atom_site_occupancy
  C  C0  1  0.78898100  0.20149000  0.81228100  1
  C  C1  1  0.20996000  0.80630000  0.78950200  1
  C  C2  1  0.71610300  0.73431400  0.72892700  1
  C  C3  1  0.26518400  0.26070900  0.73476600  1
  C  C4  1  0.77673100  0.23865600  0.21611700  1
  C  C5  1  0.27380200  0.74369100  0.26378000  1
  C  C6  1  0.77595700  0.77642900  0.23281700  1
  C  C7  1  0.19448200  0.20681900  0.19891600  1
  C  C8  1  0.74394400  0.50027200  0.99199800  1
  C  C9  1  0.49662100  0.00261400  0.75288500  1
  C  C10  1  0.00187500  0.26055500  0.50185200  1
  C  C11  1  0.99550100  0.76471700  0.49346200  1
  C  C12  1  0.51887700  0.03042800  0.25182700  1
  C  C13  1  0.23438800  0.50694200  0.99209300  1
  C  C14  1  0.48944400  0.25842300  0.99943400  1
  C  C15  1  0.99223100  0.51090500  0.74008000  1
  C  C16  1  0.25635200  0.00395000  0.49276100  1
  C  C17  1  0.75051800  0.02454900  0.51730100  1
  C  C18  1  0.99202100  0.50612400  0.24696500  1
  C  C19  1  0.48384300  0.74368600  0.99142800  1
  Ni  Ni20  1  0.02922200  0.11023400  0.91798200  1
  Ni  Ni21  1  0.49193800  0.49573300  0.50008500  1
  Cu  Cu22  1  0.63371500  0.65254100  0.95063500  1
  Cu  Cu23  1  0.35053700  0.36097400  0.94625800  1
  Cu  Cu24  1  0.84630600  0.46547200  0.83248400  1
  Cu  Cu25  1  0.12673500  0.55290900  0.84304000  1
  Cu  Cu26  1  0.52487300  0.15060500  0.86371300  1
  Cu  Cu27  1  0.45874300  0.83990400  0.84144300  1
  Cu  Cu28  1  0.66662100  0.97230200  0.66581500  1
  Cu  Cu29  1  0.34800900  0.03948000  0.63841500  1
  Cu  Cu30  1  0.94895400  0.65719600  0.64487400  1
  Cu  Cu31  1  0.05063900  0.37402300  0.64284500  1
  Cu  Cu32  1  0.85486900  0.15758500  0.56129200  1
  Cu  Cu33  1  0.15816900  0.85805900  0.52568300  1
  Cu  Cu34  1  0.84443000  0.88206700  0.45862000  1
  Cu  Cu35  1  0.15281800  0.14762700  0.45627700  1
  Cu  Cu36  1  0.95724300  0.36272700  0.34615200  1
  Cu  Cu37  1  0.01860000  0.65511200  0.33843100  1
  Cu  Cu38  1  0.63130300  0.08838400  0.40117200  1
  Cu  Cu39  1  0.35959300  0.97033700  0.35278300  1
  Cu  Cu40  1  0.44246400  0.17906400  0.15032200  1
  Cu  Cu41  1  0.52497800  0.73765300  0.20501600  1
  Cu  Cu42  1  0.84893600  0.53603300  0.14479900  1
  Cu  Cu43  1  0.14091900  0.46915400  0.15396400  1
  Cu  Cu44  1  0.47986200  0.87417900  0.11899000  1
  Cu  Cu45  1  0.70369500  0.00868400  0.17622500  1
  Cu  Cu46  1  0.64050800  0.34646000  0.02537000  1
  Cu  Cu47  1  0.32933700  0.66435300  0.01613600  1
  Cu  Cu48  1  0.15763900  0.05545000  0.91433000  1
  Cu  Cu49  1  0.89266100  0.84566600  0.96889700  1
  Cu  Cu50  1  0.01475200  0.80628400  0.01537000  1
  Cu  Cu51  1  0.99531400  0.18337600  0.02959500  1
