# generated using pymatgen
data_Cu2Ni3C4
_symmetry_space_group_name_H-M   'P 1'
_cell_length_a   10.88884365
_cell_length_b   10.88884365
_cell_length_c   15.61491100
_cell_angle_alpha   90.00000000
_cell_angle_beta   90.00000000
_cell_angle_gamma   143.24732116
_symmetry_Int_Tables_number   1
_chemical_formula_structural   Cu2Ni3C4
_chemical_formula_sum   'Cu8 Ni12 C16'
_cell_volume   1107.81460720
_cell_formula_units_Z   4
loop_
 _symmetry_equiv_pos_site_id
 _symmetry_equiv_pos_as_xyz
  1  'x, y, z'
loop_
 _atom_site_type_symbol
 _atom_site_label
 _atom_site_symmetry_multiplicity
 _atom_site_fract_x
 _atom_site_fract_y
 _atom_site_fract_z
 _atom_site_occupancy
  Ni  Ni0  1  0.60049800  0.93388300  0.82455500  1
  Ni  Ni1  1  0.25969800  0.25969800  0.32230000  1
  Ni  Ni2  1  0.24030200  0.24030200  0.82230000  1
  Ni  Ni3  1  0.74030200  0.74030200  0.67770000  1
  Ni  Ni4  1  0.43388300  0.10049800  0.67544500  1
  Ni  Ni5  1  0.89950200  0.56611700  0.32455500  1
  Ni  Ni6  1  0.06611700  0.39950200  0.17544500  1
  Ni  Ni7  1  0.39950200  0.06611700  0.17544500  1
  Ni  Ni8  1  0.56611700  0.89950200  0.32455500  1
  Ni  Ni9  1  0.10049800  0.43388300  0.67544500  1
  Ni  Ni10  1  0.93388300  0.60049800  0.82455500  1
  Ni  Ni11  1  0.75969800  0.75969800  0.17770000  1
  Cu  Cu12  1  0.08136000  0.91864000  0.00000000  1
  Cu  Cu13  1  0.58136000  0.41864000  0.50000000  1
  Cu  Cu14  1  0.91864000  0.08136000  0.00000000  1
  Cu  Cu15  1  0.75477300  0.24522700  0.00000000  1
  Cu  Cu16  1  0.74522700  0.25477300  0.50000000  1
  Cu  Cu17  1  0.24522700  0.75477300  0.00000000  1
  Cu  Cu18  1  0.25477300  0.74522700  0.50000000  1
  Cu  Cu19  1  0.41864000  0.58136000  0.50000000  1
  C  C20  1  0.08859700  0.91140300  0.50000000  1
  C  C21  1  0.41140300  0.58859700  0.00000000  1
  C  C22  1  0.91140300  0.08859700  0.50000000  1
  C  C23  1  0.58859700  0.41140300  0.00000000  1
  C  C24  1  0.06372400  0.38148700  0.39425400  1
  C  C25  1  0.88148700  0.56372400  0.10574600  1
  C  C26  1  0.43627600  0.11851300  0.89425400  1
  C  C27  1  0.61851300  0.93627600  0.60574600  1
  C  C28  1  0.93627600  0.61851300  0.60574600  1
  C  C29  1  0.11851300  0.43627600  0.89425400  1
  C  C30  1  0.56372400  0.88148700  0.10574600  1
  C  C31  1  0.38148700  0.06372400  0.39425400  1
  C  C32  1  0.20607800  0.20607800  0.59486400  1
  C  C33  1  0.70607800  0.70607800  0.90513600  1
  C  C34  1  0.29392200  0.29392200  0.09486400  1
  C  C35  1  0.79392200  0.79392200  0.40513600  1
