# generated using pymatgen
data_Cu5NiC14
_symmetry_space_group_name_H-M   'P 1'
_cell_length_a   13.89775200
_cell_length_b   13.91041200
_cell_length_c   13.92318300
_cell_angle_alpha   90.00000000
_cell_angle_beta   90.00000000
_cell_angle_gamma   90.00000000
_symmetry_Int_Tables_number   1
_chemical_formula_structural   Cu5NiC14
_chemical_formula_sum   'Cu40 Ni8 C112'
_cell_volume   2691.67785878
_cell_formula_units_Z   8
loop_
 _symmetry_equiv_pos_site_id
 _symmetry_equiv_pos_as_xyz
  1  'x, y, z'
loop_
 _atom_site_type_symbol
 _atom_site_label
 _atom_site_symmetry_multiplicity
 _atom_site_fract_x
 _atom_site_fract_y
 _atom_site_fract_z
 _atom_site_occupancy
  C  C0  1  0.85445100  0.62824500  0.13780000  1
  C  C1  1  0.14554900  0.12824500  0.36220000  1
  C  C2  1  0.64554900  0.37175500  0.63780000  1
  C  C3  1  0.35445100  0.87175500  0.86220000  1
  C  C4  1  0.14554900  0.37175500  0.86220000  1
  C  C5  1  0.85445100  0.87175500  0.63780000  1
  C  C6  1  0.35445100  0.62824500  0.36220000  1
  C  C7  1  0.64554900  0.12824500  0.13780000  1
  C  C8  1  0.61135900  0.88357400  0.39557200  1
  C  C9  1  0.38864100  0.38357400  0.10442800  1
  C  C10  1  0.88864100  0.11642600  0.89557200  1
  C  C11  1  0.11135900  0.61642600  0.60442800  1
  C  C12  1  0.38864100  0.11642600  0.60442800  1
  C  C13  1  0.61135900  0.61642600  0.89557200  1
  C  C14  1  0.11135900  0.88357400  0.10442800  1
  C  C15  1  0.88864100  0.38357400  0.39557200  1
  Ni  Ni16  1  0.06922900  0.87774200  0.83793000  1
  Ni  Ni17  1  0.93077100  0.37774200  0.66207000  1
  Ni  Ni18  1  0.43077100  0.12225800  0.33793000  1
  Ni  Ni19  1  0.56922900  0.62225800  0.16207000  1
  Ni  Ni20  1  0.93077100  0.12225800  0.16207000  1
  Ni  Ni21  1  0.06922900  0.62225800  0.33793000  1
  Ni  Ni22  1  0.56922900  0.87774200  0.66207000  1
  Ni  Ni23  1  0.43077100  0.37774200  0.83793000  1
  Cu  Cu24  1  0.40018800  0.62649200  0.66681200  1
  Cu  Cu25  1  0.59981200  0.12649200  0.83318800  1
  Cu  Cu26  1  0.09981200  0.37350800  0.16681200  1
  Cu  Cu27  1  0.90018800  0.87350800  0.33318800  1
  Cu  Cu28  1  0.59981200  0.37350800  0.33318800  1
  Cu  Cu29  1  0.40018800  0.87350800  0.16681200  1
  Cu  Cu30  1  0.90018800  0.62649200  0.83318800  1
  Cu  Cu31  1  0.09981200  0.12649200  0.66681200  1
  Cu  Cu32  1  0.36154000  0.08821500  0.11819200  1
  Cu  Cu33  1  0.63846000  0.58821500  0.38180800  1
  Cu  Cu34  1  0.13846000  0.91178500  0.61819200  1
  Cu  Cu35  1  0.86154000  0.41178500  0.88180800  1
  Cu  Cu36  1  0.63846000  0.91178500  0.88180800  1
  Cu  Cu37  1  0.36154000  0.41178500  0.61819200  1
  Cu  Cu38  1  0.86154000  0.08821500  0.38180800  1
  Cu  Cu39  1  0.13846000  0.58821500  0.11819200  1
  Cu  Cu40  1  0.88947600  0.15493800  0.59605100  1
  Cu  Cu41  1  0.11052400  0.65493800  0.90394900  1
  Cu  Cu42  1  0.61052400  0.84506200  0.09605100  1
  Cu  Cu43  1  0.38947600  0.34506200  0.40394900  1
  Cu  Cu44  1  0.11052400  0.84506200  0.40394900  1
  Cu  Cu45  1  0.88947600  0.34506200  0.09605100  1
  Cu  Cu46  1  0.38947600  0.15493800  0.90394900  1
  Cu  Cu47  1  0.61052400  0.65493800  0.59605100  1
  Cu  Cu48  1  0.18072500  0.40895900  0.37163100  1
  Cu  Cu49  1  0.81927500  0.90895900  0.12836900  1
  Cu  Cu50  1  0.31927500  0.59104100  0.87163100  1
  Cu  Cu51  1  0.68072500  0.09104100  0.62836900  1
  Cu  Cu52  1  0.81927500  0.59104100  0.62836900  1
  Cu  Cu53  1  0.18072500  0.09104100  0.87163100  1
  Cu  Cu54  1  0.68072500  0.40895900  0.12836900  1
  Cu  Cu55  1  0.31927500  0.90895900  0.37163100  1
  Cu  Cu56  1  0.64887600  0.33171400  0.92001500  1
  Cu  Cu57  1  0.35112400  0.83171400  0.57998500  1
  Cu  Cu58  1  0.85112400  0.66828600  0.42001500  1
  Cu  Cu59  1  0.14887600  0.16828600  0.07998500  1
  Cu  Cu60  1  0.35112400  0.66828600  0.07998500  1
  Cu  Cu61  1  0.64887600  0.16828600  0.42001500  1
  Cu  Cu62  1  0.14887600  0.33171400  0.57998500  1
  Cu  Cu63  1  0.85112400  0.83171400  0.92001500  1
  C  C64  1  0.84576800  0.96954400  0.37350200  1
  C  C65  1  0.15423200  0.46954400  0.12649800  1
  C  C66  1  0.65423200  0.03045600  0.87350200  1
  C  C67  1  0.34576800  0.53045600  0.62649800  1
  C  C68  1  0.15423200  0.03045600  0.62649800  1
  C  C69  1  0.84576800  0.53045600  0.87350200  1
  C  C70  1  0.34576800  0.96954400  0.12649800  1
  C  C71  1  0.65423200  0.46954400  0.37350200  1
  C  C72  1  0.59383300  0.60636500  0.48965600  1
  C  C73  1  0.40616700  0.10636500  0.01034400  1
  C  C74  1  0.90616700  0.39363500  0.98965600  1
  C  C75  1  0.09383300  0.89363500  0.51034400  1
  C  C76  1  0.40616700  0.39363500  0.51034400  1
  C  C77  1  0.59383300  0.89363500  0.98965600  1
  C  C78  1  0.09383300  0.60636500  0.01034400  1
  C  C79  1  0.90616700  0.10636500  0.48965600  1
  C  C80  1  0.51718900  0.88240500  0.16125000  1
  C  C81  1  0.48281100  0.38240500  0.33875000  1
  C  C82  1  0.98281100  0.11759500  0.66125000  1
  C  C83  1  0.01718900  0.61759500  0.83875000  1
  C  C84  1  0.48281100  0.11759500  0.83875000  1
  C  C85  1  0.51718900  0.61759500  0.66125000  1
  C  C86  1  0.01718900  0.88240500  0.33875000  1
  C  C87  1  0.98281100  0.38240500  0.16125000  1
  C  C88  1  0.37698600  0.23160600  0.40687800  1
  C  C89  1  0.62301400  0.73160600  0.09312200  1
  C  C90  1  0.12301400  0.76839400  0.90687800  1
  C  C91  1  0.87698600  0.26839400  0.59312200  1
  C  C92  1  0.62301400  0.76839400  0.59312200  1
  C  C93  1  0.37698600  0.26839400  0.90687800  1
  C  C94  1  0.87698600  0.23160600  0.09312200  1
  C  C95  1  0.12301400  0.73160600  0.40687800  1
  C  C96  1  0.62707700  0.14520700  0.72039300  1
  C  C97  1  0.37292300  0.64520700  0.77960700  1
  C  C98  1  0.87292300  0.85479300  0.22039300  1
  C  C99  1  0.12707700  0.35479300  0.27960700  1
  C  C100  1  0.37292300  0.85479300  0.27960700  1
  C  C101  1  0.62707700  0.35479300  0.22039300  1
  C  C102  1  0.12707700  0.14520700  0.77960700  1
  C  C103  1  0.87292300  0.64520700  0.72039300  1
  C  C104  1  0.24689900  0.86522400  0.62439100  1
  C  C105  1  0.75310100  0.36522400  0.87560900  1
  C  C106  1  0.25310100  0.13477600  0.12439100  1
  C  C107  1  0.74689900  0.63477600  0.37560900  1
  C  C108  1  0.75310100  0.13477600  0.37560900  1
  C  C109  1  0.24689900  0.63477600  0.12439100  1
  C  C110  1  0.74689900  0.86522400  0.87560900  1
  C  C111  1  0.25310100  0.36522400  0.62439100  1
  C  C112  1  0.35211000  0.48285200  0.88743400  1
  C  C113  1  0.64789000  0.98285200  0.61256600  1
  C  C114  1  0.14789000  0.51714800  0.38743400  1
  C  C115  1  0.85211000  0.01714800  0.11256600  1
  C  C116  1  0.64789000  0.51714800  0.11256600  1
  C  C117  1  0.35211000  0.01714800  0.38743400  1
  C  C118  1  0.85211000  0.48285200  0.61256600  1
  C  C119  1  0.14789000  0.98285200  0.88743400  1
  C  C120  1  0.15346500  0.16363100  0.96148600  1
  C  C121  1  0.84653500  0.66363100  0.53851400  1
  C  C122  1  0.34653500  0.83636900  0.46148600  1
  C  C123  1  0.65346500  0.33636900  0.03851400  1
  C  C124  1  0.84653500  0.83636900  0.03851400  1
  C  C125  1  0.15346500  0.33636900  0.46148600  1
  C  C126  1  0.65346500  0.16363100  0.53851400  1
  C  C127  1  0.34653500  0.66363100  0.96148600  1
  C  C128  1  0.06497900  0.39401900  0.62612800  1
  C  C129  1  0.93502100  0.89401900  0.87387200  1
  C  C130  1  0.43502100  0.60598100  0.12612800  1
  C  C131  1  0.56497900  0.10598100  0.37387200  1
  C  C132  1  0.93502100  0.60598100  0.37387200  1
  C  C133  1  0.06497900  0.10598100  0.12612800  1
  C  C134  1  0.56497900  0.39401900  0.87387200  1
  C  C135  1  0.43502100  0.89401900  0.62612800  1
  C  C136  1  0.85909700  0.71437100  0.89903300  1
  C  C137  1  0.14090300  0.21437100  0.60096700  1
  C  C138  1  0.64090300  0.28562900  0.39903300  1
  C  C139  1  0.35909700  0.78562900  0.10096700  1
  C  C140  1  0.14090300  0.28562900  0.10096700  1
  C  C141  1  0.85909700  0.78562900  0.39903300  1
  C  C142  1  0.35909700  0.71437100  0.60096700  1
  C  C143  1  0.64090300  0.21437100  0.89903300  1
  C  C144  1  0.06983900  0.63128000  0.19869400  1
  C  C145  1  0.93016100  0.13128000  0.30130600  1
  C  C146  1  0.43016100  0.36872000  0.69869400  1
  C  C147  1  0.56983900  0.86872000  0.80130600  1
  C  C148  1  0.93016100  0.36872000  0.80130600  1
  C  C149  1  0.06983900  0.86872000  0.69869400  1
  C  C150  1  0.56983900  0.63128000  0.30130600  1
  C  C151  1  0.43016100  0.13128000  0.19869400  1
  C  C152  1  0.79817700  0.40172900  0.14822300  1
  C  C153  1  0.20182300  0.90172900  0.35177700  1
  C  C154  1  0.70182300  0.59827100  0.64822300  1
  C  C155  1  0.29817700  0.09827100  0.85177700  1
  C  C156  1  0.20182300  0.59827100  0.85177700  1
  C  C157  1  0.79817700  0.09827100  0.64822300  1
  C  C158  1  0.29817700  0.40172900  0.35177700  1
  C  C159  1  0.70182300  0.90172900  0.14822300  1
