# generated using pymatgen
data_Cu10Ni4C3
_symmetry_space_group_name_H-M   'P 1'
_cell_length_a   6.83844200
_cell_length_b   7.09887487
_cell_length_c   7.28532827
_cell_angle_alpha   118.90483863
_cell_angle_beta   102.50112263
_cell_angle_gamma   93.82945114
_symmetry_Int_Tables_number   1
_chemical_formula_structural   Cu10Ni4C3
_chemical_formula_sum   'Cu10 Ni4 C3'
_cell_volume   296.12733876
_cell_formula_units_Z   1
loop_
 _symmetry_equiv_pos_site_id
 _symmetry_equiv_pos_as_xyz
  1  'x, y, z'
loop_
 _atom_site_type_symbol
 _atom_site_label
 _atom_site_symmetry_multiplicity
 _atom_site_fract_x
 _atom_site_fract_y
 _atom_site_fract_z
 _atom_site_occupancy
  C  C0  1  0.88747000  0.66201100  0.15958800  1
  C  C1  1  0.11253000  0.33798900  0.84041200  1
  C  C2  1  0.50000000  0.00000000  0.50000000  1
  Ni  Ni3  1  0.31503200  0.82353400  0.37646800  1
  Ni  Ni4  1  0.68496800  0.17646600  0.62353200  1
  Ni  Ni5  1  0.75480200  0.82891000  0.54282500  1
  Ni  Ni6  1  0.24519800  0.17109000  0.45717500  1
  Cu  Cu7  1  0.22502800  0.91429200  0.17595300  1
  Cu  Cu8  1  0.77497200  0.08570800  0.82404700  1
  Cu  Cu9  1  0.28631000  0.63197500  0.49800300  1
  Cu  Cu10  1  0.71369000  0.36802500  0.50199700  1
  Cu  Cu11  1  0.80378400  0.85823200  0.37993300  1
  Cu  Cu12  1  0.19621600  0.14176800  0.62006700  1
  Cu  Cu13  1  0.85907600  0.69751600  0.73254000  1
  Cu  Cu14  1  0.14092400  0.30248400  0.26746000  1
  Cu  Cu15  1  0.54824600  0.40875600  0.04795900  1
  Cu  Cu16  1  0.45175400  0.59124400  0.95204100  1
