# generated using pymatgen
data_CuNi5C8
_symmetry_space_group_name_H-M   'P 1'
_cell_length_a   5.85724200
_cell_length_b   24.37098800
_cell_length_c   8.16203763
_cell_angle_alpha   90.00000000
_cell_angle_beta   96.43361341
_cell_angle_gamma   90.00000000
_symmetry_Int_Tables_number   1
_chemical_formula_structural   CuNi5C8
_chemical_formula_sum   'Cu8 Ni40 C64'
_cell_volume   1157.76712810
_cell_formula_units_Z   8
loop_
 _symmetry_equiv_pos_site_id
 _symmetry_equiv_pos_as_xyz
  1  'x, y, z'
loop_
 _atom_site_type_symbol
 _atom_site_label
 _atom_site_symmetry_multiplicity
 _atom_site_fract_x
 _atom_site_fract_y
 _atom_site_fract_z
 _atom_site_occupancy
  C  C0  1  0.22145100  0.45029200  0.54737800  1
  C  C1  1  0.77854900  0.95029200  0.95262200  1
  C  C2  1  0.77854900  0.54970800  0.45262200  1
  C  C3  1  0.22145100  0.04970800  0.04737800  1
  C  C4  1  0.17070500  0.55229200  0.84823200  1
  C  C5  1  0.82929500  0.05229200  0.65176800  1
  C  C6  1  0.82929500  0.44770800  0.15176800  1
  C  C7  1  0.17070500  0.94770800  0.34823200  1
  C  C8  1  0.53985300  0.36003400  0.81783600  1
  C  C9  1  0.46014700  0.86003400  0.68216400  1
  C  C10  1  0.46014700  0.63996600  0.18216400  1
  C  C11  1  0.53985300  0.13996600  0.31783600  1
  Ni  Ni12  1  0.08957600  0.37442300  0.80134400  1
  Ni  Ni13  1  0.91042400  0.87442300  0.69865600  1
  Ni  Ni14  1  0.91042400  0.62557700  0.19865600  1
  Ni  Ni15  1  0.08957600  0.12557700  0.30134400  1
  Ni  Ni16  1  0.21031500  0.42644200  0.89175000  1
  Ni  Ni17  1  0.78968500  0.92644200  0.60825000  1
  Ni  Ni18  1  0.78968500  0.57355800  0.10825000  1
  Ni  Ni19  1  0.21031500  0.07355800  0.39175000  1
  Ni  Ni20  1  0.44812600  0.34774400  0.49046100  1
  Ni  Ni21  1  0.55187400  0.84774400  0.00953900  1
  Ni  Ni22  1  0.55187400  0.65225600  0.50953900  1
  Ni  Ni23  1  0.44812600  0.15225600  0.99046100  1
  Ni  Ni24  1  0.68900800  0.37816300  0.51683700  1
  Ni  Ni25  1  0.31099200  0.87816300  0.98316300  1
  Ni  Ni26  1  0.31099200  0.62183700  0.48316300  1
  Ni  Ni27  1  0.68900800  0.12183700  0.01683700  1
  Ni  Ni28  1  0.92359200  0.32247300  0.97327500  1
  Ni  Ni29  1  0.07640800  0.82247300  0.52672500  1
  Ni  Ni30  1  0.07640800  0.67752700  0.02672500  1
  Ni  Ni31  1  0.92359200  0.17752700  0.47327500  1
  Ni  Ni32  1  0.83958200  0.27746400  0.83631000  1
  Ni  Ni33  1  0.16041800  0.77746400  0.66369000  1
  Ni  Ni34  1  0.16041800  0.72253600  0.16369000  1
  Ni  Ni35  1  0.83958200  0.22253600  0.33631000  1
  Ni  Ni36  1  0.59839000  0.32404300  0.14705500  1
  Ni  Ni37  1  0.40161000  0.82404300  0.35294500  1
  Ni  Ni38  1  0.40161000  0.67595700  0.85294500  1
  Ni  Ni39  1  0.59839000  0.17595700  0.64705500  1
  Ni  Ni40  1  0.34980900  0.35072000  0.10712700  1
  Ni  Ni41  1  0.65019100  0.85072000  0.39287300  1
  Ni  Ni42  1  0.65019100  0.64928000  0.89287300  1
  Ni  Ni43  1  0.34980900  0.14928000  0.60712700  1
  Ni  Ni44  1  0.31660200  0.25620200  0.80492400  1
  Ni  Ni45  1  0.68339800  0.75620200  0.69507600  1
  Ni  Ni46  1  0.68339800  0.74379800  0.19507600  1
  Ni  Ni47  1  0.31660200  0.24379800  0.30492400  1
  Ni  Ni48  1  0.28655700  0.28624300  0.62970500  1
  Ni  Ni49  1  0.71344300  0.78624300  0.87029500  1
  Ni  Ni50  1  0.71344300  0.71375700  0.37029500  1
  Ni  Ni51  1  0.28655700  0.21375700  0.12970500  1
  Cu  Cu52  1  0.29114800  0.50936800  0.19917800  1
  Cu  Cu53  1  0.70885200  0.00936800  0.30082200  1
  Cu  Cu54  1  0.70885200  0.49063200  0.80082200  1
  Cu  Cu55  1  0.29114800  0.99063200  0.69917800  1
  Cu  Cu56  1  0.00818800  0.33198800  0.32227400  1
  Cu  Cu57  1  0.99181200  0.83198800  0.17772600  1
  Cu  Cu58  1  0.99181200  0.66801200  0.67772600  1
  Cu  Cu59  1  0.00818800  0.16801200  0.82227400  1
  C  C60  1  0.95124300  0.38118300  0.41862100  1
  C  C61  1  0.04875700  0.88118300  0.08137900  1
  C  C62  1  0.04875700  0.61881700  0.58137900  1
  C  C63  1  0.95124300  0.11881700  0.91862100  1
  C  C64  1  0.06012300  0.35045400  0.15501600  1
  C  C65  1  0.93987700  0.85045400  0.34498400  1
  C  C66  1  0.93987700  0.64954600  0.84498400  1
  C  C67  1  0.06012300  0.14954600  0.65501600  1
  C  C68  1  0.81073600  0.29322500  0.30324600  1
  C  C69  1  0.18926400  0.79322500  0.19675400  1
  C  C70  1  0.18926400  0.70677500  0.69675400  1
  C  C71  1  0.81073600  0.20677500  0.80324600  1
  C  C72  1  0.21753800  0.30371500  0.40777100  1
  C  C73  1  0.78246200  0.80371500  0.09222900  1
  C  C74  1  0.78246200  0.69628500  0.59222900  1
  C  C75  1  0.21753800  0.19628500  0.90777100  1
  C  C76  1  0.11356300  0.50388700  0.31647300  1
  C  C77  1  0.88643700  0.00388700  0.18352700  1
  C  C78  1  0.88643700  0.49611300  0.68352700  1
  C  C79  1  0.11356300  0.99611300  0.81647300  1
  C  C80  1  0.22663400  0.47367200  0.05401200  1
  C  C81  1  0.77336600  0.97367200  0.44598800  1
  C  C82  1  0.77336600  0.52632800  0.94598800  1
  C  C83  1  0.22663400  0.02632800  0.55401200  1
  C  C84  1  0.28907000  0.56771700  0.13687900  1
  C  C85  1  0.71093000  0.06771700  0.36312100  1
  C  C86  1  0.71093000  0.43228300  0.86312100  1
  C  C87  1  0.28907000  0.93228300  0.63687900  1
  C  C88  1  0.52082800  0.49500400  0.28269200  1
  C  C89  1  0.47917200  0.99500400  0.21730800  1
  C  C90  1  0.47917200  0.50499600  0.71730800  1
  C  C91  1  0.52082800  0.00499600  0.78269200  1
  C  C92  1  0.22113500  0.39949200  0.80193200  1
  C  C93  1  0.77886500  0.89949200  0.69806800  1
  C  C94  1  0.77886500  0.60050800  0.19806800  1
  C  C95  1  0.22113500  0.10050800  0.30193200  1
  C  C96  1  0.53919800  0.37462700  0.56173000  1
  C  C97  1  0.46080200  0.87462700  0.93827000  1
  C  C98  1  0.46080200  0.62537300  0.43827000  1
  C  C99  1  0.53919800  0.12537300  0.06173000  1
  C  C100  1  0.85122500  0.31774800  0.85783400  1
  C  C101  1  0.14877500  0.81774800  0.64216600  1
  C  C102  1  0.14877500  0.68225200  0.14216600  1
  C  C103  1  0.85122500  0.18225200  0.35783400  1
  C  C104  1  0.50401600  0.34799200  0.06846200  1
  C  C105  1  0.49598400  0.84799200  0.43153800  1
  C  C106  1  0.49598400  0.65200800  0.93153800  1
  C  C107  1  0.50401600  0.15200800  0.56846200  1
  C  C108  1  0.36662600  0.28788400  0.74223700  1
  C  C109  1  0.63337400  0.78788400  0.75776300  1
  C  C110  1  0.63337400  0.71211600  0.25776300  1
  C  C111  1  0.36662600  0.21211600  0.24223700  1
