# generated using pymatgen
data_CuNiC2
_symmetry_space_group_name_H-M   'P 1'
_cell_length_a   4.92594000
_cell_length_b   7.84932900
_cell_length_c   12.00358717
_cell_angle_alpha   63.75081878
_cell_angle_beta   90.00000000
_cell_angle_gamma   90.00000000
_symmetry_Int_Tables_number   1
_chemical_formula_structural   CuNiC2
_chemical_formula_sum   'Cu4 Ni4 C8'
_cell_volume   416.26182721
_cell_formula_units_Z   4
loop_
 _symmetry_equiv_pos_site_id
 _symmetry_equiv_pos_as_xyz
  1  'x, y, z'
loop_
 _atom_site_type_symbol
 _atom_site_label
 _atom_site_symmetry_multiplicity
 _atom_site_fract_x
 _atom_site_fract_y
 _atom_site_fract_z
 _atom_site_occupancy
  C  C0  1  0.86894900  0.81419700  0.25219500  1
  C  C1  1  0.13105100  0.18580300  0.74780500  1
  C  C2  1  0.36894900  0.18580300  0.24780500  1
  C  C3  1  0.63105100  0.81419700  0.75219500  1
  Ni  Ni4  1  0.50747400  0.71356100  0.14323200  1
  Ni  Ni5  1  0.49252600  0.28643900  0.85676800  1
  Ni  Ni6  1  0.00747400  0.28643900  0.35676800  1
  Ni  Ni7  1  0.99252600  0.71356100  0.64323200  1
  Cu  Cu8  1  0.68370500  0.41487600  0.16890300  1
  Cu  Cu9  1  0.31629500  0.58512400  0.83109700  1
  Cu  Cu10  1  0.18370500  0.58512400  0.33109700  1
  Cu  Cu11  1  0.81629500  0.41487600  0.66890300  1
  C  C12  1  0.65219300  0.92532800  0.37766100  1
  C  C13  1  0.34780700  0.07467200  0.62233900  1
  C  C14  1  0.15219300  0.07467200  0.12233900  1
  C  C15  1  0.84780700  0.92532800  0.87766100  1
