# generated using pymatgen
data_Cu8Ni8C9
_symmetry_space_group_name_H-M   'P 1'
_cell_length_a   4.90113570
_cell_length_b   10.83178958
_cell_length_c   5.74232714
_cell_angle_alpha   85.30080551
_cell_angle_beta   89.82239818
_cell_angle_gamma   91.29728572
_symmetry_Int_Tables_number   1
_chemical_formula_structural   Cu8Ni8C9
_chemical_formula_sum   'Cu8 Ni8 C9'
_cell_volume   303.74270036
_cell_formula_units_Z   1
loop_
 _symmetry_equiv_pos_site_id
 _symmetry_equiv_pos_as_xyz
  1  'x, y, z'
loop_
 _atom_site_type_symbol
 _atom_site_label
 _atom_site_symmetry_multiplicity
 _atom_site_fract_x
 _atom_site_fract_y
 _atom_site_fract_z
 _atom_site_occupancy
  C  C0  1  0.51678700  0.86858700  0.87872600  1
  C  C1  1  0.47838300  0.26905600  0.72988700  1
  C  C2  1  0.50297500  0.00812300  0.45178700  1
  C  C3  1  0.53604300  0.70335700  0.31291100  1
  C  C4  1  0.49276400  0.50443300  0.00718100  1
  C  C5  1  0.97706200  0.24131700  0.23734900  1
  C  C6  1  0.01290900  0.74563900  0.76061900  1
  C  C7  1  0.98682000  0.47356900  0.51987900  1
  C  C8  1  0.02658200  0.03425200  0.96732600  1
  Ni  Ni9  1  0.80333000  0.31568600  0.52613500  1
  Ni  Ni10  1  0.80060800  0.08191800  0.23135400  1
  Ni  Ni11  1  0.65718800  0.81740100  0.53250100  1
  Ni  Ni12  1  0.70966300  0.54994100  0.28757600  1
  Ni  Ni13  1  0.30936100  0.43199700  0.72953100  1
  Ni  Ni14  1  0.34966100  0.67789000  0.00183800  1
  Ni  Ni15  1  0.14319800  0.93818600  0.71543400  1
  Ni  Ni16  1  0.20277700  0.19114200  0.94919600  1
  Cu  Cu17  1  0.80942000  0.56458800  0.79002500  1
  Cu  Cu18  1  0.85912000  0.80049800  0.08668200  1
  Cu  Cu19  1  0.67081800  0.08212400  0.75706700  1
  Cu  Cu20  1  0.69447100  0.33176100  0.01507900  1
  Cu  Cu21  1  0.29548200  0.94004900  0.18318500  1
  Cu  Cu22  1  0.29955000  0.18399100  0.44948800  1
  Cu  Cu23  1  0.18188700  0.65296800  0.48435200  1
  Cu  Cu24  1  0.19703000  0.41652800  0.22822300  1
