# generated using pymatgen
data_Cu4NiC37
_symmetry_space_group_name_H-M   'P 1'
_cell_length_a   9.91006376
_cell_length_b   13.70765863
_cell_length_c   13.95485643
_cell_angle_alpha   90.00000000
_cell_angle_beta   90.00000000
_cell_angle_gamma   90.00000000
_symmetry_Int_Tables_number   1
_chemical_formula_structural   Cu4NiC37
_chemical_formula_sum   'Cu16 Ni4 C148'
_cell_volume   1895.68032154
_cell_formula_units_Z   4
loop_
 _symmetry_equiv_pos_site_id
 _symmetry_equiv_pos_as_xyz
  1  'x, y, z'
loop_
 _atom_site_type_symbol
 _atom_site_label
 _atom_site_symmetry_multiplicity
 _atom_site_fract_x
 _atom_site_fract_y
 _atom_site_fract_z
 _atom_site_occupancy
  C  C0  1  0.49636947  0.88811018  0.38371360  1
  C  C1  1  0.99636947  0.61188982  0.11628640  1
  C  C2  1  0.50363053  0.11188982  0.88371360  1
  C  C3  1  0.00363053  0.38811018  0.61628640  1
  C  C4  1  0.50363053  0.11188982  0.61628640  1
  C  C5  1  0.00363053  0.38811018  0.88371360  1
  C  C6  1  0.49636947  0.88811018  0.11628640  1
  C  C7  1  0.99636947  0.61188982  0.38371360  1
  C  C8  1  0.00963131  0.18399868  0.38823307  1
  C  C9  1  0.50963131  0.31600132  0.11176693  1
  C  C10  1  0.99036869  0.81600132  0.88823307  1
  C  C11  1  0.49036869  0.68399868  0.61176693  1
  C  C12  1  0.99036869  0.81600132  0.61176693  1
  C  C13  1  0.49036869  0.68399868  0.88823307  1
  C  C14  1  0.00963131  0.18399868  0.11176693  1
  C  C15  1  0.50963131  0.31600132  0.38823307  1
  C  C16  1  0.99949521  0.91011669  0.39212205  1
  C  C17  1  0.49949521  0.58988331  0.10787795  1
  C  C18  1  0.00050479  0.08988331  0.89212205  1
  C  C19  1  0.50050479  0.41011669  0.60787795  1
  C  C20  1  0.00050479  0.08988331  0.60787795  1
  C  C21  1  0.50050479  0.41011669  0.89212205  1
  C  C22  1  0.99949521  0.91011669  0.10787795  1
  C  C23  1  0.49949521  0.58988331  0.39212205  1
  Ni  Ni24  1  0.49933343  0.10509931  0.25000000  1
  Ni  Ni25  1  0.99933343  0.39490069  0.25000000  1
  Ni  Ni26  1  0.50066657  0.89490069  0.75000000  1
  Ni  Ni27  1  0.00066657  0.60509931  0.75000000  1
  Cu  Cu28  1  0.73727279  0.09831002  0.41570771  1
  Cu  Cu29  1  0.23727279  0.40168998  0.08429229  1
  Cu  Cu30  1  0.26272721  0.90168998  0.91570771  1
  Cu  Cu31  1  0.76272721  0.59831002  0.58429229  1
  Cu  Cu32  1  0.26272721  0.90168998  0.58429229  1
  Cu  Cu33  1  0.76272721  0.59831002  0.91570771  1
  Cu  Cu34  1  0.73727279  0.09831002  0.08429229  1
  Cu  Cu35  1  0.23727279  0.40168998  0.41570771  1
  Cu  Cu36  1  0.76228599  0.96166035  0.75000000  1
  Cu  Cu37  1  0.26228599  0.53833965  0.75000000  1
  Cu  Cu38  1  0.23771401  0.03833965  0.25000000  1
  Cu  Cu39  1  0.73771401  0.46166035  0.25000000  1
  Cu  Cu40  1  0.76752573  0.77144567  0.25000000  1
  Cu  Cu41  1  0.26752573  0.72855433  0.25000000  1
  Cu  Cu42  1  0.23247427  0.22855433  0.75000000  1
  Cu  Cu43  1  0.73247427  0.27144567  0.75000000  1
  C  C44  1  0.72825505  0.24269976  0.25000000  1
  C  C45  1  0.22825505  0.25730024  0.25000000  1
  C  C46  1  0.27174495  0.75730024  0.75000000  1
  C  C47  1  0.77174495  0.74269976  0.75000000  1
  C  C48  1  0.78281769  0.98471447  0.25000000  1
  C  C49  1  0.28281769  0.51528553  0.25000000  1
  C  C50  1  0.21718231  0.01528553  0.75000000  1
  C  C51  1  0.71718231  0.48471447  0.75000000  1
  C  C52  1  0.71459014  0.95055054  0.54887565  1
  C  C53  1  0.21459014  0.54944946  0.95112435  1
  C  C54  1  0.28540986  0.04944946  0.04887565  1
  C  C55  1  0.78540986  0.45055054  0.45112435  1
  C  C56  1  0.28540986  0.04944946  0.45112435  1
  C  C57  1  0.78540986  0.45055054  0.04887565  1
  C  C58  1  0.71459014  0.95055054  0.95112435  1
  C  C59  1  0.21459014  0.54944946  0.54887565  1
  C  C60  1  0.73318948  0.75154418  0.45219093  1
  C  C61  1  0.23318948  0.74845582  0.04780907  1
  C  C62  1  0.26681052  0.24845582  0.95219093  1
  C  C63  1  0.76681052  0.25154418  0.54780907  1
  C  C64  1  0.26681052  0.24845582  0.54780907  1
  C  C65  1  0.76681052  0.25154418  0.95219093  1
  C  C66  1  0.73318948  0.75154418  0.04780907  1
  C  C67  1  0.23318948  0.74845582  0.45219093  1
  C  C68  1  0.67957660  0.61332889  0.25000000  1
  C  C69  1  0.17957660  0.88667111  0.25000000  1
  C  C70  1  0.32042340  0.38667111  0.75000000  1
  C  C71  1  0.82042340  0.11332889  0.75000000  1
  C  C72  1  0.65767001  0.84140393  0.51445912  1
  C  C73  1  0.15767001  0.65859607  0.98554088  1
  C  C74  1  0.34232999  0.15859607  0.01445912  1
  C  C75  1  0.84232999  0.34140393  0.48554088  1
  C  C76  1  0.34232999  0.15859607  0.48554088  1
  C  C77  1  0.84232999  0.34140393  0.01445912  1
  C  C78  1  0.65767001  0.84140393  0.98554088  1
  C  C79  1  0.15767001  0.65859607  0.51445912  1
  C  C80  1  0.89577948  0.75865014  0.45642646  1
  C  C81  1  0.39577948  0.74134986  0.04357354  1
  C  C82  1  0.10422052  0.24134986  0.95642646  1
  C  C83  1  0.60422052  0.25865014  0.54357354  1
  C  C84  1  0.10422052  0.24134986  0.54357354  1
  C  C85  1  0.60422052  0.25865014  0.95642646  1
  C  C86  1  0.89577948  0.75865014  0.04357354  1
  C  C87  1  0.39577948  0.74134986  0.45642646  1
  C  C88  1  0.66924607  0.65466785  0.50443554  1
  C  C89  1  0.16924607  0.84533215  0.99556446  1
  C  C90  1  0.33075393  0.34533215  0.00443554  1
  C  C91  1  0.83075393  0.15466785  0.49556446  1
  C  C92  1  0.33075393  0.34533215  0.49556446  1
  C  C93  1  0.83075393  0.15466785  0.00443554  1
  C  C94  1  0.66924607  0.65466785  0.99556446  1
  C  C95  1  0.16924607  0.84533215  0.50443554  1
  C  C96  1  0.66826590  0.75991052  0.34469804  1
  C  C97  1  0.16826590  0.74008948  0.15530196  1
  C  C98  1  0.33173410  0.24008948  0.84469804  1
  C  C99  1  0.83173410  0.25991052  0.65530196  1
  C  C100  1  0.33173410  0.24008948  0.65530196  1
  C  C101  1  0.83173410  0.25991052  0.84469804  1
  C  C102  1  0.66826590  0.75991052  0.15530196  1
  C  C103  1  0.16826590  0.74008948  0.34469804  1
  C  C104  1  0.63820946  0.02695744  0.47588301  1
  C  C105  1  0.13820946  0.47304256  0.02411699  1
  C  C106  1  0.36179054  0.97304256  0.97588301  1
  C  C107  1  0.86179054  0.52695744  0.52411699  1
  C  C108  1  0.36179054  0.97304256  0.52411699  1
  C  C109  1  0.86179054  0.52695744  0.97588301  1
  C  C110  1  0.63820946  0.02695744  0.02411699  1
  C  C111  1  0.13820946  0.47304256  0.47588301  1
  C  C112  1  0.65332013  0.96882121  0.65788385  1
  C  C113  1  0.15332013  0.53117879  0.84211615  1
  C  C114  1  0.34667987  0.03117879  0.15788385  1
  C  C115  1  0.84667987  0.46882121  0.34211615  1
  C  C116  1  0.34667987  0.03117879  0.34211615  1
  C  C117  1  0.84667987  0.46882121  0.15788385  1
  C  C118  1  0.65332013  0.96882121  0.84211615  1
  C  C119  1  0.15332013  0.53117879  0.65788385  1
  C  C120  1  0.87801562  0.94990164  0.54755092  1
  C  C121  1  0.37801562  0.55009836  0.95244908  1
  C  C122  1  0.12198438  0.05009836  0.04755092  1
  C  C123  1  0.62198438  0.44990164  0.45244908  1
  C  C124  1  0.12198438  0.05009836  0.45244908  1
  C  C125  1  0.62198438  0.44990164  0.04755092  1
  C  C126  1  0.87801562  0.94990164  0.95244908  1
  C  C127  1  0.37801562  0.55009836  0.54755092  1
  C  C128  1  0.66083423  0.18311842  0.34311357  1
  C  C129  1  0.16083423  0.31688158  0.15688643  1
  C  C130  1  0.33916577  0.81688158  0.84311357  1
  C  C131  1  0.83916577  0.68311842  0.65688643  1
  C  C132  1  0.33916577  0.81688158  0.65688643  1
  C  C133  1  0.83916577  0.68311842  0.84311357  1
  C  C134  1  0.66083423  0.18311842  0.15688643  1
  C  C135  1  0.16083423  0.31688158  0.34311357  1
  C  C136  1  0.84222614  0.03965689  0.34632241  1
  C  C137  1  0.34222614  0.46034311  0.15367759  1
  C  C138  1  0.15777386  0.96034311  0.84632241  1
  C  C139  1  0.65777386  0.53965689  0.65367759  1
  C  C140  1  0.15777386  0.96034311  0.65367759  1
  C  C141  1  0.65777386  0.53965689  0.84632241  1
  C  C142  1  0.84222614  0.03965689  0.15367759  1
  C  C143  1  0.34222614  0.46034311  0.34632241  1
  C  C144  1  0.61632539  0.97706112  0.25000000  1
  C  C145  1  0.11632539  0.52293888  0.25000000  1
  C  C146  1  0.38367461  0.02293888  0.75000000  1
  C  C147  1  0.88367461  0.47706112  0.75000000  1
  C  C148  1  0.65966777  0.35289262  0.25000000  1
  C  C149  1  0.15966777  0.14710738  0.25000000  1
  C  C150  1  0.34033223  0.64710738  0.75000000  1
  C  C151  1  0.84033223  0.85289262  0.75000000  1
  C  C152  1  0.89279579  0.25320417  0.25000000  1
  C  C153  1  0.39279579  0.24679583  0.25000000  1
  C  C154  1  0.10720421  0.74679583  0.75000000  1
  C  C155  1  0.60720421  0.75320417  0.75000000  1
  C  C156  1  0.85102547  0.87485703  0.25000000  1
  C  C157  1  0.35102547  0.62514297  0.25000000  1
  C  C158  1  0.14897453  0.12514297  0.75000000  1
  C  C159  1  0.64897453  0.37485703  0.75000000  1
  C  C160  1  0.86876338  0.05077910  0.75000000  1
  C  C161  1  0.36876338  0.44922090  0.75000000  1
  C  C162  1  0.13123662  0.94922090  0.25000000  1
  C  C163  1  0.63123662  0.55077910  0.25000000  1
  C  C164  1  0.61788484  0.18310063  0.75000000  1
  C  C165  1  0.11788484  0.31689937  0.75000000  1
  C  C166  1  0.38211516  0.81689937  0.25000000  1
  C  C167  1  0.88211516  0.68310063  0.25000000  1
