# generated using pymatgen
data_Cu3(NiC10)2
_symmetry_space_group_name_H-M   'P 1'
_cell_length_a   6.60881587
_cell_length_b   9.91098631
_cell_length_c   10.07414247
_cell_angle_alpha   84.31190611
_cell_angle_beta   70.85203448
_cell_angle_gamma   72.41229136
_symmetry_Int_Tables_number   1
_chemical_formula_structural   Cu3(NiC10)2
_chemical_formula_sum   'Cu6 Ni4 C40'
_cell_volume   594.21033686
_cell_formula_units_Z   2
loop_
 _symmetry_equiv_pos_site_id
 _symmetry_equiv_pos_as_xyz
  1  'x, y, z'
loop_
 _atom_site_type_symbol
 _atom_site_label
 _atom_site_symmetry_multiplicity
 _atom_site_fract_x
 _atom_site_fract_y
 _atom_site_fract_z
 _atom_site_occupancy
  C  C0  1  0.38287800  0.43918400  0.03815600  1
  C  C1  1  0.17103400  0.93918400  0.46184400  1
  Ni  Ni2  1  0.41917200  0.56594400  0.31609400  1
  Ni  Ni3  1  0.48526600  0.06594400  0.18390600  1
  Ni  Ni4  1  0.31968900  0.40339700  0.67689900  1
  Ni  Ni5  1  0.74658700  0.90339700  0.82310100  1
  Cu  Cu6  1  0.75311500  0.49989900  0.48837600  1
  Cu  Cu7  1  0.99149100  0.99989900  0.01162400  1
  Cu  Cu8  1  0.41650200  0.80137100  0.08725300  1
  Cu  Cu9  1  0.25375500  0.30137100  0.41274700  1
  Cu  Cu10  1  0.34199700  0.16585800  0.91132300  1
  Cu  Cu11  1  0.00332000  0.66585800  0.58867700  1
  C  C12  1  0.87458300  0.55676600  0.19376700  1
  C  C13  1  0.81835000  0.05676600  0.30623300  1
  C  C14  1  0.97607600  0.65799400  0.07526900  1
  C  C15  1  0.80134500  0.15799400  0.42473100  1
  C  C16  1  0.89631400  0.31204300  0.93843800  1
  C  C17  1  0.58475300  0.81204300  0.56156200  1
  C  C18  1  0.83535900  0.46733900  0.88117900  1
  C  C19  1  0.46653900  0.96733900  0.61882100  1
  C  C20  1  0.30438000  0.71621500  0.86600500  1
  C  C21  1  0.92038600  0.21621500  0.63399500  1
  C  C22  1  0.45519800  0.58481800  0.76279900  1
  C  C23  1  0.96799700  0.08481800  0.73720100  1
  C  C24  1  0.67828400  0.53445600  0.34637400  1
  C  C25  1  0.77465900  0.03445600  0.15362600  1
  C  C26  1  0.55496700  0.46956000  0.62232800  1
  C  C27  1  0.92729500  0.96956000  0.87767200  1
  C  C28  1  0.41969200  0.64397600  0.15219900  1
  C  C29  1  0.32189200  0.14397600  0.34780100  1
  C  C30  1  0.30997300  0.32349800  0.84234900  1
  C  C31  1  0.90232200  0.82349800  0.65765100  1
  C  C32  1  0.21627400  0.68035000  0.45149500  1
  C  C33  1  0.41776900  0.18035000  0.04850500  1
  C  C34  1  0.34430700  0.29327100  0.54460000  1
  C  C35  1  0.63890800  0.79327100  0.95540000  1
  C  C36  1  0.35546300  0.40961200  0.29143200  1
  C  C37  1  0.39689500  0.90961200  0.20856800  1
  C  C38  1  0.07073500  0.54198300  0.69655000  1
  C  C39  1  0.51728500  0.04198300  0.80345000  1
  C  C40  1  0.97552800  0.36146900  0.46161600  1
  C  C41  1  0.18714300  0.86146900  0.03838400  1
  C  C42  1  0.81201400  0.63896800  0.52816100  1
  C  C43  1  0.09017600  0.13896800  0.97183900  1
  C  C44  1  0.00066100  0.55998600  0.10660300  1
  C  C45  1  0.85726500  0.05998600  0.39339700  1
  C  C46  1  0.77074000  0.39130100  0.92671800  1
  C  C47  1  0.44745800  0.89130100  0.57328200  1
  C  C48  1  0.37850900  0.61516300  0.86240600  1
  C  C49  1  0.99091500  0.11516300  0.63759400  1
