# generated using pymatgen
data_CuNiC8
_symmetry_space_group_name_H-M   'P 1'
_cell_length_a   5.45067100
_cell_length_b   5.25974400
_cell_length_c   9.15532330
_cell_angle_alpha   54.82513332
_cell_angle_beta   90.00000000
_cell_angle_gamma   90.00000000
_symmetry_Int_Tables_number   1
_chemical_formula_structural   CuNiC8
_chemical_formula_sum   'Cu2 Ni2 C16'
_cell_volume   214.54661171
_cell_formula_units_Z   2
loop_
 _symmetry_equiv_pos_site_id
 _symmetry_equiv_pos_as_xyz
  1  'x, y, z'
loop_
 _atom_site_type_symbol
 _atom_site_label
 _atom_site_symmetry_multiplicity
 _atom_site_fract_x
 _atom_site_fract_y
 _atom_site_fract_z
 _atom_site_occupancy
  C  C0  1  0.56113800  0.73548900  0.74994400  1
  C  C1  1  0.06113800  0.26451100  0.75005600  1
  C  C2  1  0.43886200  0.26451100  0.25005600  1
  C  C3  1  0.93886200  0.73548900  0.24994400  1
  Ni  Ni4  1  0.50000000  0.50000000  0.50000000  1
  Ni  Ni5  1  0.00000000  0.50000000  0.00000000  1
  Cu  Cu6  1  0.50000000  0.00000000  0.00000000  1
  Cu  Cu7  1  0.00000000  0.00000000  0.50000000  1
  C  C8  1  0.97550300  0.83741000  0.75374400  1
  C  C9  1  0.47550300  0.16259000  0.74625600  1
  C  C10  1  0.02449700  0.16259000  0.24625600  1
  C  C11  1  0.52449700  0.83741000  0.25374400  1
  C  C12  1  0.80062100  0.25049900  0.95411400  1
  C  C13  1  0.30062100  0.74950100  0.54588600  1
  C  C14  1  0.20647000  0.35141100  0.45161800  1
  C  C15  1  0.70647000  0.64858900  0.04838200  1
  C  C16  1  0.19937900  0.74950100  0.04588600  1
  C  C17  1  0.69937900  0.25049900  0.45411400  1
  C  C18  1  0.79353000  0.64858900  0.54838200  1
  C  C19  1  0.29353000  0.35141100  0.95161800  1
