# generated using pymatgen
data_CuNiC16
_symmetry_space_group_name_H-M   'P 1'
_cell_length_a   5.30562278
_cell_length_b   5.30562278
_cell_length_c   7.46821291
_cell_angle_alpha   90.00000000
_cell_angle_beta   90.00000000
_cell_angle_gamma   90.00000000
_symmetry_Int_Tables_number   1
_chemical_formula_structural   CuNiC16
_chemical_formula_sum   'Cu1 Ni1 C16'
_cell_volume   210.22745321
_cell_formula_units_Z   1
loop_
 _symmetry_equiv_pos_site_id
 _symmetry_equiv_pos_as_xyz
  1  'x, y, z'
loop_
 _atom_site_type_symbol
 _atom_site_label
 _atom_site_symmetry_multiplicity
 _atom_site_fract_x
 _atom_site_fract_y
 _atom_site_fract_z
 _atom_site_occupancy
  Ni  Ni0  1  0.00000000  -0.00000000  0.50000000  1
  Cu  Cu1  1  0.50000000  0.50000000  0.00000000  1
  C  C2  1  0.00000000  0.50000000  0.74726103  1
  C  C3  1  0.00000000  0.50000000  0.25273897  1
  C  C4  1  0.50000000  -0.00000000  0.25273897  1
  C  C5  1  0.50000000  0.00000000  0.74726103  1
  C  C6  1  0.26043240  0.26043240  0.23630912  1
  C  C7  1  0.26043240  0.26043240  0.76369088  1
  C  C8  1  0.73956760  0.73956760  0.23630912  1
  C  C9  1  0.73956760  0.73956760  0.76369088  1
  C  C10  1  0.73956760  0.26043240  0.76369088  1
  C  C11  1  0.73956760  0.26043240  0.23630912  1
  C  C12  1  0.26043240  0.73956760  0.76369088  1
  C  C13  1  0.26043240  0.73956760  0.23630912  1
  C  C14  1  0.00000000  0.50000000  0.50000000  1
  C  C15  1  0.00000000  0.50000000  0.00000000  1
  C  C16  1  0.50000000  0.00000000  0.50000000  1
  C  C17  1  0.50000000  -0.00000000  0.00000000  1
