# generated using pymatgen
data_Cu4NiC9
_symmetry_space_group_name_H-M   'P 1'
_cell_length_a   9.14386317
_cell_length_b   9.14386317
_cell_length_c   8.62899222
_cell_angle_alpha   75.95284216
_cell_angle_beta   75.95284216
_cell_angle_gamma   21.91152945
_symmetry_Int_Tables_number   1
_chemical_formula_structural   Cu4NiC9
_chemical_formula_sum   'Cu4 Ni1 C9'
_cell_volume   260.87730460
_cell_formula_units_Z   1
loop_
 _symmetry_equiv_pos_site_id
 _symmetry_equiv_pos_as_xyz
  1  'x, y, z'
loop_
 _atom_site_type_symbol
 _atom_site_label
 _atom_site_symmetry_multiplicity
 _atom_site_fract_x
 _atom_site_fract_y
 _atom_site_fract_z
 _atom_site_occupancy
  Ni  Ni0  1  0.00071200  0.00071200  0.99786600  1
  C  C1  1  0.84411200  0.84411200  0.47452600  1
  Cu  Cu2  1  0.20364600  0.20364600  0.16514500  1
  Cu  Cu3  1  0.79392000  0.79392000  0.83395400  1
  Cu  Cu4  1  0.15862900  0.15862900  0.52509000  1
  Cu  Cu5  1  0.49865500  0.49865500  0.50023200  1
  C  C6  1  0.41498600  0.41498600  0.32183800  1
  C  C7  1  0.58557900  0.58557900  0.66771900  1
  C  C8  1  0.73758000  0.73758000  0.34724900  1
  C  C9  1  0.26233300  0.26233300  0.65722500  1
  C  C10  1  0.07473600  0.07473600  0.34831300  1
  C  C11  1  0.92625500  0.92625500  0.66105300  1
  C  C12  1  0.32811200  0.32811200  0.98831400  1
  C  C13  1  0.67074500  0.67074500  0.01147600  1
