# generated using pymatgen
data_Cu4NiC16
_symmetry_space_group_name_H-M   'P 1'
_cell_length_a   9.73568342
_cell_length_b   9.73568342
_cell_length_c   7.18651900
_cell_angle_alpha   90.00000000
_cell_angle_beta   90.00000000
_cell_angle_gamma   119.99999607
_symmetry_Int_Tables_number   1
_chemical_formula_structural   Cu4NiC16
_chemical_formula_sum   'Cu8 Ni2 C32'
_cell_volume   589.90504961
_cell_formula_units_Z   2
loop_
 _symmetry_equiv_pos_site_id
 _symmetry_equiv_pos_as_xyz
  1  'x, y, z'
loop_
 _atom_site_type_symbol
 _atom_site_label
 _atom_site_symmetry_multiplicity
 _atom_site_fract_x
 _atom_site_fract_y
 _atom_site_fract_z
 _atom_site_occupancy
  Ni  Ni0  1  0.66666700  0.33333300  0.49922800  1
  Ni  Ni1  1  0.33333300  0.66666700  0.99922800  1
  Cu  Cu2  1  0.33333300  0.66666700  0.50030000  1
  Cu  Cu3  1  0.66666700  0.33333300  0.00030000  1
  Cu  Cu4  1  0.01065400  0.24370900  0.75047800  1
  Cu  Cu5  1  0.75629100  0.76694500  0.75047800  1
  Cu  Cu6  1  0.23305500  0.98934600  0.75047800  1
  Cu  Cu7  1  0.98934600  0.75629100  0.25047800  1
  Cu  Cu8  1  0.24370900  0.23305500  0.25047800  1
  Cu  Cu9  1  0.76694500  0.01065400  0.25047800  1
  C  C10  1  0.40289500  0.37290300  0.74867800  1
  C  C11  1  0.62709700  0.02999200  0.74867800  1
  C  C12  1  0.97000800  0.59710500  0.74867800  1
  C  C13  1  0.59710500  0.62709700  0.24867800  1
  C  C14  1  0.37290300  0.97000800  0.24867800  1
  C  C15  1  0.02999200  0.40289500  0.24867800  1
  C  C16  1  0.33864800  0.25279100  0.56820200  1
  C  C17  1  0.74720900  0.08585700  0.56820200  1
  C  C18  1  0.91414300  0.66135200  0.56820200  1
  C  C19  1  0.66135200  0.74720900  0.06820200  1
  C  C20  1  0.25279100  0.91414300  0.06820200  1
  C  C21  1  0.08585700  0.33864800  0.06820200  1
  C  C22  1  0.65647600  0.74550100  0.43246200  1
  C  C23  1  0.25449900  0.91097500  0.43246200  1
  C  C24  1  0.08902500  0.34352400  0.43246200  1
  C  C25  1  0.34352400  0.25449900  0.93246200  1
  C  C26  1  0.74550100  0.08902500  0.93246200  1
  C  C27  1  0.91097500  0.65647600  0.93246200  1
  C  C28  1  0.59758900  0.46938100  0.74953000  1
  C  C29  1  0.53061900  0.12820800  0.74953000  1
  C  C30  1  0.87179200  0.40241100  0.74953000  1
  C  C31  1  0.40241100  0.53061900  0.24953000  1
  C  C32  1  0.46938100  0.87179200  0.24953000  1
  C  C33  1  0.12820800  0.59758900  0.24953000  1
  C  C34  1  0.00000000  0.00000000  0.75073600  1
  C  C35  1  0.00000000  0.00000000  0.25073600  1
  C  C36  1  0.32773900  0.49081100  0.75057000  1
  C  C37  1  0.50918900  0.83692800  0.75057000  1
  C  C38  1  0.16307200  0.67226100  0.75057000  1
  C  C39  1  0.67226100  0.50918900  0.25057000  1
  C  C40  1  0.49081100  0.16307200  0.25057000  1
  C  C41  1  0.83692800  0.32773900  0.25057000  1
