# generated using pymatgen
data_Cu2Ni2C11
_symmetry_space_group_name_H-M   'P 1'
_cell_length_a   15.91642748
_cell_length_b   15.91642748
_cell_length_c   15.91642748
_cell_angle_alpha   166.29579024
_cell_angle_beta   166.29579024
_cell_angle_gamma   19.42744689
_symmetry_Int_Tables_number   1
_chemical_formula_structural   Cu2Ni2C11
_chemical_formula_sum   'Cu2 Ni2 C11'
_cell_volume   226.28541507
_cell_formula_units_Z   1
loop_
 _symmetry_equiv_pos_site_id
 _symmetry_equiv_pos_as_xyz
  1  'x, y, z'
loop_
 _atom_site_type_symbol
 _atom_site_label
 _atom_site_symmetry_multiplicity
 _atom_site_fract_x
 _atom_site_fract_y
 _atom_site_fract_z
 _atom_site_occupancy
  C  C0  1  0.11244500  0.11244500  0.00000000  1
  C  C1  1  0.88755500  0.88755500  0.00000000  1
  C  C2  1  0.00000000  0.00000000  0.00000000  1
  Ni  Ni3  1  0.44650000  0.44650000  0.00000000  1
  Ni  Ni4  1  0.55350000  0.55350000  0.00000000  1
  Cu  Cu5  1  0.29734300  0.29734300  0.00000000  1
  Cu  Cu6  1  0.70265700  0.70265700  0.00000000  1
  C  C7  1  0.55255000  0.05255000  0.50000000  1
  C  C8  1  0.44745000  0.94745000  0.50000000  1
  C  C9  1  0.05255000  0.55255000  0.50000000  1
  C  C10  1  0.94745000  0.44745000  0.50000000  1
  C  C11  1  0.20262400  0.20262400  0.00000000  1
  C  C12  1  0.79737600  0.79737600  0.00000000  1
  C  C13  1  0.36421000  0.36421000  0.00000000  1
  C  C14  1  0.63579000  0.63579000  0.00000000  1
