# generated using pymatgen
data_Cu3Ni2C15
_symmetry_space_group_name_H-M   'P 1'
_cell_length_a   10.50585636
_cell_length_b   10.50585636
_cell_length_c   10.50585636
_cell_angle_alpha   109.47122063
_cell_angle_beta   109.47122063
_cell_angle_gamma   109.47122063
_symmetry_Int_Tables_number   1
_chemical_formula_structural   Cu3Ni2C15
_chemical_formula_sum   'Cu12 Ni8 C60'
_cell_volume   892.63206982
_cell_formula_units_Z   4
loop_
 _symmetry_equiv_pos_site_id
 _symmetry_equiv_pos_as_xyz
  1  'x, y, z'
loop_
 _atom_site_type_symbol
 _atom_site_label
 _atom_site_symmetry_multiplicity
 _atom_site_fract_x
 _atom_site_fract_y
 _atom_site_fract_z
 _atom_site_occupancy
  C  C0  1  0.75000000  0.62500000  0.87500000  1
  C  C1  1  0.25000000  0.87500000  0.62500000  1
  C  C2  1  0.62500000  0.25000000  0.87500000  1
  C  C3  1  0.87500000  0.75000000  0.62500000  1
  C  C4  1  0.87500000  0.62500000  0.25000000  1
  C  C5  1  0.62500000  0.87500000  0.75000000  1
  C  C6  1  0.25000000  0.37500000  0.12500000  1
  C  C7  1  0.75000000  0.12500000  0.37500000  1
  C  C8  1  0.37500000  0.75000000  0.12500000  1
  C  C9  1  0.12500000  0.25000000  0.37500000  1
  C  C10  1  0.12500000  0.37500000  0.75000000  1
  C  C11  1  0.37500000  0.12500000  0.25000000  1
  Ni  Ni12  1  0.50000000  0.00000000  0.50000000  1
  Ni  Ni13  1  0.00000000  0.50000000  0.00000000  1
  Ni  Ni14  1  0.50000000  0.50000000  0.50000000  1
  Ni  Ni15  1  0.00000000  0.00000000  0.50000000  1
  Ni  Ni16  1  0.00000000  0.00000000  0.00000000  1
  Ni  Ni17  1  0.00000000  0.50000000  0.50000000  1
  Ni  Ni18  1  0.50000000  0.50000000  0.00000000  1
  Ni  Ni19  1  0.50000000  0.00000000  0.00000000  1
  Cu  Cu20  1  0.37500000  0.62500000  0.75000000  1
  Cu  Cu21  1  0.62500000  0.37500000  0.25000000  1
  Cu  Cu22  1  0.62500000  0.75000000  0.37500000  1
  Cu  Cu23  1  0.25000000  0.12500000  0.87500000  1
  Cu  Cu24  1  0.87500000  0.25000000  0.12500000  1
  Cu  Cu25  1  0.75000000  0.37500000  0.62500000  1
  Cu  Cu26  1  0.25000000  0.62500000  0.37500000  1
  Cu  Cu27  1  0.75000000  0.87500000  0.12500000  1
  Cu  Cu28  1  0.12500000  0.75000000  0.87500000  1
  Cu  Cu29  1  0.37500000  0.25000000  0.62500000  1
  Cu  Cu30  1  0.87500000  0.12500000  0.75000000  1
  Cu  Cu31  1  0.12500000  0.87500000  0.25000000  1
  C  C32  1  0.52035100  0.39969900  0.81953400  1
  C  C33  1  0.81953400  0.52035100  0.39969900  1
  C  C34  1  0.79918300  0.87934800  0.97964900  1
  C  C35  1  0.41983500  0.10030100  0.62065200  1
  C  C36  1  0.87934800  0.39969900  0.08016500  1
  C  C37  1  0.68046600  0.08016500  0.70081700  1
  C  C38  1  0.81953400  0.79918300  0.41983500  1
  C  C39  1  0.39969900  0.81953400  0.52035100  1
  C  C40  1  0.62065200  0.70081700  0.52035100  1
  C  C41  1  0.41983500  0.81953400  0.79918300  1
  C  C42  1  0.39969900  0.08016500  0.87934800  1
  C  C43  1  0.10030100  0.97964900  0.68046600  1
  C  C44  1  0.97964900  0.68046600  0.10030100  1
  C  C45  1  0.79918300  0.41983500  0.81953400  1
  C  C46  1  0.52035100  0.62065200  0.70081700  1
  C  C47  1  0.70081700  0.52035100  0.62065200  1
  C  C48  1  0.08016500  0.87934800  0.39969900  1
  C  C49  1  0.97964900  0.79918300  0.87934800  1
  C  C50  1  0.08016500  0.70081700  0.68046600  1
  C  C51  1  0.37934800  0.29918300  0.47964900  1
  C  C52  1  0.62065200  0.41983500  0.10030100  1
  C  C53  1  0.10030100  0.62065200  0.41983500  1
  C  C54  1  0.70081700  0.68046600  0.08016500  1
  C  C55  1  0.68046600  0.10030100  0.97964900  1
  C  C56  1  0.47964900  0.60030100  0.18046600  1
  C  C57  1  0.18046600  0.47964900  0.60030100  1
  C  C58  1  0.20081700  0.12065200  0.02035100  1
  C  C59  1  0.58016500  0.89969900  0.37934800  1
  C  C60  1  0.12065200  0.60030100  0.91983500  1
  C  C61  1  0.31953400  0.91983500  0.29918300  1
  C  C62  1  0.18046600  0.20081700  0.58016500  1
  C  C63  1  0.60030100  0.18046600  0.47964900  1
  C  C64  1  0.31953400  0.89969900  0.02035100  1
  C  C65  1  0.29918300  0.31953400  0.91983500  1
  C  C66  1  0.89969900  0.37934800  0.58016500  1
  C  C67  1  0.12065200  0.02035100  0.20081700  1
  C  C68  1  0.37934800  0.58016500  0.89969900  1
  C  C69  1  0.91983500  0.29918300  0.31953400  1
  C  C70  1  0.02035100  0.20081700  0.12065200  1
  C  C71  1  0.91983500  0.12065200  0.60030100  1
  C  C72  1  0.29918300  0.47964900  0.37934800  1
  C  C73  1  0.47964900  0.37934800  0.29918300  1
  C  C74  1  0.20081700  0.58016500  0.18046600  1
  C  C75  1  0.02035100  0.31953400  0.89969900  1
  C  C76  1  0.89969900  0.02035100  0.31953400  1
  C  C77  1  0.60030100  0.91983500  0.12065200  1
  C  C78  1  0.58016500  0.18046600  0.20081700  1
  C  C79  1  0.87934800  0.97964900  0.79918300  1
