# generated using pymatgen
data_CuNi4C3
_symmetry_space_group_name_H-M   'P 1'
_cell_length_a   7.64840800
_cell_length_b   7.64840800
_cell_length_c   6.03142500
_cell_angle_alpha   90.00000000
_cell_angle_beta   90.00000000
_cell_angle_gamma   90.00000000
_symmetry_Int_Tables_number   1
_chemical_formula_structural   CuNi4C3
_chemical_formula_sum   'Cu2 Ni8 C6'
_cell_volume   352.82717381
_cell_formula_units_Z   2
loop_
 _symmetry_equiv_pos_site_id
 _symmetry_equiv_pos_as_xyz
  1  'x, y, z'
loop_
 _atom_site_type_symbol
 _atom_site_label
 _atom_site_symmetry_multiplicity
 _atom_site_fract_x
 _atom_site_fract_y
 _atom_site_fract_z
 _atom_site_occupancy
  C  C0  1  0.50000000  0.50000000  0.00000000  1
  C  C1  1  0.00000000  0.00000000  0.00000000  1
  Ni  Ni2  1  0.72728700  0.66939500  0.00000000  1
  Ni  Ni3  1  0.27271300  0.33060500  0.00000000  1
  Ni  Ni4  1  0.22728700  0.83060500  0.00000000  1
  Ni  Ni5  1  0.77271300  0.16939500  0.00000000  1
  Ni  Ni6  1  0.33060500  0.72728700  0.00000000  1
  Ni  Ni7  1  0.66939500  0.27271300  0.00000000  1
  Ni  Ni8  1  0.16939500  0.22728700  0.00000000  1
  Ni  Ni9  1  0.83060500  0.77271300  0.00000000  1
  C  C10  1  0.80254300  0.30254300  0.50000000  1
  C  C11  1  0.19745700  0.69745700  0.50000000  1
  C  C12  1  0.30254300  0.19745700  0.50000000  1
  C  C13  1  0.69745700  0.80254300  0.50000000  1
  Cu  Cu14  1  0.50000000  0.00000000  0.00000000  1
  Cu  Cu15  1  0.00000000  0.50000000  0.00000000  1
