# generated using pymatgen
data_CuNiC10
_symmetry_space_group_name_H-M   'P 1'
_cell_length_a   7.29519105
_cell_length_b   8.42501021
_cell_length_c   14.61126100
_cell_angle_alpha   90.00000000
_cell_angle_beta   90.00000000
_cell_angle_gamma   103.26873213
_symmetry_Int_Tables_number   1
_chemical_formula_structural   CuNiC10
_chemical_formula_sum   'Cu4 Ni4 C40'
_cell_volume   874.06440326
_cell_formula_units_Z   4
loop_
 _symmetry_equiv_pos_site_id
 _symmetry_equiv_pos_as_xyz
  1  'x, y, z'
loop_
 _atom_site_type_symbol
 _atom_site_label
 _atom_site_symmetry_multiplicity
 _atom_site_fract_x
 _atom_site_fract_y
 _atom_site_fract_z
 _atom_site_occupancy
  Ni  Ni0  1  0.59018300  0.77550500  0.95600300  1
  Ni  Ni1  1  0.40981700  0.22449500  0.04399700  1
  Ni  Ni2  1  0.40981700  0.72449500  0.45600300  1
  Ni  Ni3  1  0.59018300  0.27550500  0.54399700  1
  Cu  Cu4  1  0.96566200  0.65233100  0.71240500  1
  Cu  Cu5  1  0.03433800  0.34766900  0.28759500  1
  Cu  Cu6  1  0.03433800  0.84766900  0.21240500  1
  Cu  Cu7  1  0.96566200  0.15233100  0.78759500  1
  C  C8  1  0.91803300  0.73329300  0.46185200  1
  C  C9  1  0.08196700  0.26670700  0.53814800  1
  C  C10  1  0.08196700  0.76670700  0.96185200  1
  C  C11  1  0.91803300  0.23329300  0.03814800  1
  C  C12  1  0.50297400  0.85333200  0.69310500  1
  C  C13  1  0.49702600  0.14666800  0.30689500  1
  C  C14  1  0.49702600  0.64666800  0.19310500  1
  C  C15  1  0.50297400  0.35333200  0.80689500  1
  C  C16  1  0.56256800  0.96137000  0.61437600  1
  C  C17  1  0.43743200  0.03863000  0.38562400  1
  C  C18  1  0.43743200  0.53863000  0.11437600  1
  C  C19  1  0.56256800  0.46137000  0.88562400  1
  C  C20  1  0.34065800  0.89595500  0.74328600  1
  C  C21  1  0.65934200  0.10404500  0.25671400  1
  C  C22  1  0.65934200  0.60404500  0.24328600  1
  C  C23  1  0.34065800  0.39595500  0.75671400  1
  C  C24  1  0.41415900  0.68375200  0.65957300  1
  C  C25  1  0.58584100  0.31624800  0.34042700  1
  C  C26  1  0.58584100  0.81624800  0.15957300  1
  C  C27  1  0.41415900  0.18375200  0.84042700  1
  C  C28  1  0.98980200  0.85438600  0.89368800  1
  C  C29  1  0.01019800  0.14561400  0.10631200  1
  C  C30  1  0.01019800  0.64561400  0.39368800  1
  C  C31  1  0.98980200  0.35438600  0.60631200  1
  C  C32  1  0.75746500  0.62213900  0.50842500  1
  C  C33  1  0.24253500  0.37786100  0.49157500  1
  C  C34  1  0.24253500  0.87786100  0.00842500  1
  C  C35  1  0.75746500  0.12213900  0.99157500  1
  C  C36  1  0.93980600  0.18833300  0.46998800  1
  C  C37  1  0.06019400  0.81166700  0.53001200  1
  C  C38  1  0.06019400  0.31166700  0.96998800  1
  C  C39  1  0.93980600  0.68833300  0.03001200  1
  C  C40  1  0.84399600  0.85947800  0.41086900  1
  C  C41  1  0.15600400  0.14052200  0.58913100  1
  C  C42  1  0.15600400  0.64052200  0.91086900  1
  C  C43  1  0.84399600  0.35947800  0.08913100  1
  C  C44  1  0.65957700  0.85195700  0.75623100  1
  C  C45  1  0.34042300  0.14804300  0.24376900  1
  C  C46  1  0.34042300  0.64804300  0.25623100  1
  C  C47  1  0.65957700  0.35195700  0.74376900  1
