# generated using pymatgen
data_CuNiC9
_symmetry_space_group_name_H-M   'P 1'
_cell_length_a   7.41530269
_cell_length_b   7.41530269
_cell_length_c   7.41530269
_cell_angle_alpha   120.83949542
_cell_angle_beta   118.72205113
_cell_angle_gamma   90.38984977
_symmetry_Int_Tables_number   1
_chemical_formula_structural   CuNiC9
_chemical_formula_sum   'Cu2 Ni2 C18'
_cell_volume   289.14361146
_cell_formula_units_Z   2
loop_
 _symmetry_equiv_pos_site_id
 _symmetry_equiv_pos_as_xyz
  1  'x, y, z'
loop_
 _atom_site_type_symbol
 _atom_site_label
 _atom_site_symmetry_multiplicity
 _atom_site_fract_x
 _atom_site_fract_y
 _atom_site_fract_z
 _atom_site_occupancy
  C  C0  1  0.00000000  0.00000000  0.00000000  1
  C  C1  1  0.50000000  0.50000000  0.00000000  1
  C  C2  1  0.50000000  0.00000000  0.00000000  1
  C  C3  1  0.50000000  0.50000000  0.50000000  1
  Ni  Ni4  1  0.00000000  0.00000000  0.50000000  1
  Ni  Ni5  1  0.00000000  0.50000000  0.00000000  1
  Cu  Cu6  1  0.50000000  0.00000000  0.50000000  1
  Cu  Cu7  1  0.00000000  0.50000000  0.50000000  1
  C  C8  1  0.36289500  0.09335200  0.26954300  1
  C  C9  1  0.67619100  0.40664800  0.26954300  1
  C  C10  1  0.68220700  0.31597000  0.76513700  1
  C  C11  1  0.94916800  0.18403000  0.36623800  1
  C  C12  1  0.94916800  0.58293000  0.76513700  1
  C  C13  1  0.68220700  0.91707000  0.36623800  1
  C  C14  1  0.31779300  0.08293000  0.63376200  1
  C  C15  1  0.05083200  0.41707000  0.23486300  1
  C  C16  1  0.05083200  0.81597000  0.63376200  1
  C  C17  1  0.31779300  0.68403000  0.23486300  1
  C  C18  1  0.90973300  0.75000000  0.15973300  1
  C  C19  1  0.63710500  0.90664800  0.73045700  1
  C  C20  1  0.32380900  0.59335200  0.73045700  1
  C  C21  1  0.09026700  0.25000000  0.84026700  1
