# generated using pymatgen
data_Cu(NiC5)5
_symmetry_space_group_name_H-M   'P 1'
_cell_length_a   14.11590376
_cell_length_b   14.11590376
_cell_length_c   11.83425640
_cell_angle_alpha   82.15855813
_cell_angle_beta   82.15855813
_cell_angle_gamma   30.19326024
_symmetry_Int_Tables_number   1
_chemical_formula_structural   Cu(NiC5)5
_chemical_formula_sum   'Cu2 Ni10 C50'
_cell_volume   1174.02095349
_cell_formula_units_Z   2
loop_
 _symmetry_equiv_pos_site_id
 _symmetry_equiv_pos_as_xyz
  1  'x, y, z'
loop_
 _atom_site_type_symbol
 _atom_site_label
 _atom_site_symmetry_multiplicity
 _atom_site_fract_x
 _atom_site_fract_y
 _atom_site_fract_z
 _atom_site_occupancy
  Ni  Ni0  1  0.50914900  0.18684500  0.75935900  1
  Ni  Ni1  1  0.79356000  0.52465900  0.76186200  1
  Ni  Ni2  1  0.52465900  0.79356000  0.26186200  1
  Ni  Ni3  1  0.18684500  0.50914900  0.25935900  1
  Ni  Ni4  1  0.61583700  0.05614300  0.44132400  1
  Ni  Ni5  1  0.96616700  0.38153800  0.07383000  1
  Ni  Ni6  1  0.38153800  0.96616700  0.57383000  1
  Ni  Ni7  1  0.05614300  0.61583700  0.94132400  1
  Ni  Ni8  1  0.26849100  0.68881300  0.58479300  1
  Ni  Ni9  1  0.68881300  0.26849100  0.08479300  1
  Cu  Cu10  1  0.25458700  0.83149700  0.21712200  1
  Cu  Cu11  1  0.83149700  0.25458700  0.71712200  1
  C  C12  1  0.99435400  0.49945400  0.50991100  1
  C  C13  1  0.49945400  0.99435400  0.00991100  1
  C  C14  1  0.07366700  0.62712500  0.59468700  1
  C  C15  1  0.33066000  0.96438200  0.90755600  1
  C  C16  1  0.96438200  0.33066000  0.40755600  1
  C  C17  1  0.62712500  0.07366700  0.09468700  1
  C  C18  1  0.97230200  0.65131300  0.45945900  1
  C  C19  1  0.32990300  0.00852900  0.05816500  1
  C  C20  1  0.00852900  0.32990300  0.55816500  1
  C  C21  1  0.65131300  0.97230200  0.95945900  1
  C  C22  1  0.98810700  0.81867800  0.52269500  1
  C  C23  1  0.17129300  0.96390600  0.00610900  1
  C  C24  1  0.96390600  0.17129300  0.50610900  1
  C  C25  1  0.81867800  0.98810700  0.02269500  1
  C  C26  1  0.16960700  0.57718500  0.72534000  1
  C  C27  1  0.40326600  0.83653100  0.78883100  1
  C  C28  1  0.83653100  0.40326600  0.28883100  1
  C  C29  1  0.57718500  0.16960700  0.22534000  1
  C  C30  1  0.81584400  0.10911100  0.68270200  1
  C  C31  1  0.77457700  0.32896900  0.90108500  1
  C  C32  1  0.32896900  0.77457700  0.40108500  1
  C  C33  1  0.10911100  0.81584400  0.18270200  1
  C  C34  1  0.81513400  0.85442400  0.64750700  1
  C  C35  1  0.10808400  0.20667900  0.86168500  1
  C  C36  1  0.20667900  0.10808400  0.36168500  1
  C  C37  1  0.85442400  0.81513400  0.14750700  1
  C  C38  1  0.30610800  0.43170900  0.51802400  1
  C  C39  1  0.57406100  0.61779600  0.00164600  1
  C  C40  1  0.61779600  0.57406100  0.50164600  1
  C  C41  1  0.43170900  0.30610800  0.01802400  1
  C  C42  1  0.28351200  0.65547300  0.34004300  1
  C  C43  1  0.55372400  0.60450600  0.10822100  1
  C  C44  1  0.60450600  0.55372400  0.60822100  1
  C  C45  1  0.65547300  0.28351200  0.84004300  1
  C  C46  1  0.08337800  0.47331100  0.64521800  1
  C  C47  1  0.51324400  0.90703300  0.86332800  1
  C  C48  1  0.90703300  0.51324400  0.36332800  1
  C  C49  1  0.47331100  0.08337800  0.14521800  1
  C  C50  1  0.46667600  0.04334300  0.69119800  1
  C  C51  1  0.94976700  0.55687200  0.81366600  1
  C  C52  1  0.55687200  0.94976700  0.31366600  1
  C  C53  1  0.04334300  0.46667600  0.19119800  1
  C  C54  1  0.12441800  0.76729500  0.29372900  1
  C  C55  1  0.02975100  0.10754300  0.06992800  1
  C  C56  1  0.10754300  0.02975100  0.56992800  1
  C  C57  1  0.76729600  0.12441800  0.79372900  1
  C  C58  1  0.75977100  0.67911400  0.55976400  1
  C  C59  1  0.28373100  0.22409400  0.95701300  1
  C  C60  1  0.22409400  0.28373100  0.45701300  1
  C  C61  1  0.67911400  0.75977100  0.05976400  1
