# generated using pymatgen
data_Cu12NiC8
_symmetry_space_group_name_H-M   'P 1'
_cell_length_a   10.41523020
_cell_length_b   10.41523020
_cell_length_c   7.37997700
_cell_angle_alpha   90.00000000
_cell_angle_beta   90.00000000
_cell_angle_gamma   120.00000129
_symmetry_Int_Tables_number   1
_chemical_formula_structural   Cu12NiC8
_chemical_formula_sum   'Cu24 Ni2 C16'
_cell_volume   693.30348164
_cell_formula_units_Z   2
loop_
 _symmetry_equiv_pos_site_id
 _symmetry_equiv_pos_as_xyz
  1  'x, y, z'
loop_
 _atom_site_type_symbol
 _atom_site_label
 _atom_site_symmetry_multiplicity
 _atom_site_fract_x
 _atom_site_fract_y
 _atom_site_fract_z
 _atom_site_occupancy
  C  C0  1  0.97282700  0.38247500  0.75000000  1
  C  C1  1  0.02717300  0.61752500  0.25000000  1
  C  C2  1  0.40964800  0.02717300  0.75000000  1
  C  C3  1  0.59035200  0.97282700  0.25000000  1
  C  C4  1  0.61752500  0.59035200  0.75000000  1
  C  C5  1  0.38247500  0.40964800  0.25000000  1
  C  C6  1  0.66666700  0.33333300  0.00706200  1
  C  C7  1  0.33333300  0.66666700  0.99293800  1
  C  C8  1  0.33333300  0.66666700  0.50706200  1
  C  C9  1  0.66666700  0.33333300  0.49293800  1
  C  C10  1  0.75716300  0.01400300  0.75000000  1
  C  C11  1  0.24283700  0.98599700  0.25000000  1
  C  C12  1  0.25684000  0.24283700  0.75000000  1
  C  C13  1  0.74316000  0.75716300  0.25000000  1
  C  C14  1  0.98599700  0.74316000  0.75000000  1
  C  C15  1  0.01400300  0.25684000  0.25000000  1
  Ni  Ni16  1  0.00000000  0.00000000  0.00000000  1
  Ni  Ni17  1  0.00000000  0.00000000  0.50000000  1
  Cu  Cu18  1  0.51050600  0.67483900  0.75000000  1
  Cu  Cu19  1  0.48949400  0.32516100  0.25000000  1
  Cu  Cu20  1  0.16433300  0.48949400  0.75000000  1
  Cu  Cu21  1  0.83566700  0.51050600  0.25000000  1
  Cu  Cu22  1  0.32516100  0.83566700  0.75000000  1
  Cu  Cu23  1  0.67483900  0.16433300  0.25000000  1
  Cu  Cu24  1  0.90923300  0.26834000  0.93666800  1
  Cu  Cu25  1  0.09076700  0.73166000  0.06333200  1
  Cu  Cu26  1  0.35910700  0.09076700  0.93666800  1
  Cu  Cu27  1  0.09076700  0.73166000  0.43666800  1
  Cu  Cu28  1  0.64089300  0.90923300  0.06333200  1
  Cu  Cu29  1  0.90923300  0.26834000  0.56333200  1
  Cu  Cu30  1  0.73166000  0.64089300  0.93666800  1
  Cu  Cu31  1  0.64089300  0.90923300  0.43666800  1
  Cu  Cu32  1  0.26834000  0.35910700  0.06333200  1
  Cu  Cu33  1  0.35910700  0.09076700  0.56333200  1
  Cu  Cu34  1  0.26834000  0.35910700  0.43666800  1
  Cu  Cu35  1  0.73166000  0.64089300  0.56333200  1
  Cu  Cu36  1  0.87516800  0.47897800  0.75000000  1
  Cu  Cu37  1  0.12483200  0.52102200  0.25000000  1
  Cu  Cu38  1  0.60380900  0.12483200  0.75000000  1
  Cu  Cu39  1  0.39619100  0.87516800  0.25000000  1
  Cu  Cu40  1  0.52102200  0.39619100  0.75000000  1
  Cu  Cu41  1  0.47897800  0.60380900  0.25000000  1
