# generated using pymatgen
data_Cu6NiC3
_symmetry_space_group_name_H-M   'P 1'
_cell_length_a   5.66874200
_cell_length_b   8.98513800
_cell_length_c   14.06689700
_cell_angle_alpha   90.00000000
_cell_angle_beta   90.00000000
_cell_angle_gamma   90.00000000
_symmetry_Int_Tables_number   1
_chemical_formula_structural   Cu6NiC3
_chemical_formula_sum   'Cu24 Ni4 C12'
_cell_volume   716.48936870
_cell_formula_units_Z   4
loop_
 _symmetry_equiv_pos_site_id
 _symmetry_equiv_pos_as_xyz
  1  'x, y, z'
loop_
 _atom_site_type_symbol
 _atom_site_label
 _atom_site_symmetry_multiplicity
 _atom_site_fract_x
 _atom_site_fract_y
 _atom_site_fract_z
 _atom_site_occupancy
  C  C0  1  0.75000000  0.76693700  0.16234100  1
  C  C1  1  0.25000000  0.23306300  0.83765900  1
  C  C2  1  0.25000000  0.76693700  0.33765900  1
  C  C3  1  0.75000000  0.23306300  0.66234100  1
  C  C4  1  0.75000000  0.45550400  0.33538800  1
  C  C5  1  0.25000000  0.54449600  0.66461200  1
  C  C6  1  0.25000000  0.45550400  0.16461200  1
  C  C7  1  0.75000000  0.54449600  0.83538800  1
  C  C8  1  0.25000000  0.07813500  0.16589100  1
  C  C9  1  0.75000000  0.92186500  0.83410900  1
  C  C10  1  0.75000000  0.07813500  0.33410900  1
  C  C11  1  0.25000000  0.92186500  0.66589100  1
  Ni  Ni12  1  0.75000000  0.76918400  0.51038400  1
  Ni  Ni13  1  0.25000000  0.23081600  0.48961600  1
  Ni  Ni14  1  0.25000000  0.76918400  0.98961600  1
  Ni  Ni15  1  0.75000000  0.23081600  0.01038400  1
  Cu  Cu16  1  0.50000000  0.60486500  0.25000000  1
  Cu  Cu17  1  0.00000000  0.39513500  0.75000000  1
  Cu  Cu18  1  0.50000000  0.39513500  0.75000000  1
  Cu  Cu19  1  0.00000000  0.60486500  0.25000000  1
  Cu  Cu20  1  0.50000000  0.92687500  0.25000000  1
  Cu  Cu21  1  0.00000000  0.07312500  0.75000000  1
  Cu  Cu22  1  0.50000000  0.07312500  0.75000000  1
  Cu  Cu23  1  0.00000000  0.92687500  0.25000000  1
  Cu  Cu24  1  0.50000000  0.26635800  0.25000000  1
  Cu  Cu25  1  0.00000000  0.73364200  0.75000000  1
  Cu  Cu26  1  0.50000000  0.73364200  0.75000000  1
  Cu  Cu27  1  0.00000000  0.26635800  0.25000000  1
  Cu  Cu28  1  0.75000000  0.77262600  0.41841100  1
  Cu  Cu29  1  0.25000000  0.22737400  0.58158900  1
  Cu  Cu30  1  0.25000000  0.77262600  0.08158900  1
  Cu  Cu31  1  0.75000000  0.22737400  0.91841100  1
  Cu  Cu32  1  0.75000000  0.89044700  0.55566100  1
  Cu  Cu33  1  0.25000000  0.10955300  0.44433900  1
  Cu  Cu34  1  0.25000000  0.89044700  0.94433900  1
  Cu  Cu35  1  0.75000000  0.10955300  0.05566100  1
  Cu  Cu36  1  0.75000000  0.64453000  0.55164600  1
  Cu  Cu37  1  0.25000000  0.35547000  0.44835400  1
  Cu  Cu38  1  0.25000000  0.64453000  0.94835400  1
  Cu  Cu39  1  0.75000000  0.35547000  0.05164600  1
