# generated using pymatgen
data_CuNi7C12
_symmetry_space_group_name_H-M   'P 1'
_cell_length_a   6.50132026
_cell_length_b   6.50132026
_cell_length_c   6.50132026
_cell_angle_alpha   109.47122063
_cell_angle_beta   109.47122063
_cell_angle_gamma   109.47122063
_symmetry_Int_Tables_number   1
_chemical_formula_structural   CuNi7C12
_chemical_formula_sum   'Cu1 Ni7 C12'
_cell_volume   211.53527003
_cell_formula_units_Z   1
loop_
 _symmetry_equiv_pos_site_id
 _symmetry_equiv_pos_as_xyz
  1  'x, y, z'
loop_
 _atom_site_type_symbol
 _atom_site_label
 _atom_site_symmetry_multiplicity
 _atom_site_fract_x
 _atom_site_fract_y
 _atom_site_fract_z
 _atom_site_occupancy
  Ni  Ni0  1  0.50000000  0.00000000  0.50000000  1
  Ni  Ni1  1  0.00000000  0.50000000  0.50000000  1
  Ni  Ni2  1  0.50000000  0.50000000  0.00000000  1
  Ni  Ni3  1  0.00000000  0.00000000  0.50000000  1
  Ni  Ni4  1  0.50000000  0.00000000  0.00000000  1
  Ni  Ni5  1  0.00000000  0.50000000  0.00000000  1
  Ni  Ni6  1  0.50000000  0.50000000  0.50000000  1
  Cu  Cu7  1  0.00000000  0.00000000  0.00000000  1
  C  C8  1  0.17933800  0.86996900  0.69063100  1
  C  C9  1  0.82066200  0.13003100  0.30936900  1
  C  C10  1  0.82066200  0.51129400  0.69063100  1
  C  C11  1  0.17933800  0.48870600  0.30936900  1
  C  C12  1  0.86996900  0.69063100  0.17933800  1
  C  C13  1  0.13003100  0.30936900  0.82066200  1
  C  C14  1  0.51129400  0.69063100  0.82066200  1
  C  C15  1  0.48870600  0.30936900  0.17933800  1
  C  C16  1  0.69063100  0.17933800  0.86996900  1
  C  C17  1  0.30936900  0.82066200  0.13003100  1
  C  C18  1  0.69063100  0.82066200  0.51129400  1
  C  C19  1  0.30936900  0.17933800  0.48870600  1
