# generated using pymatgen
data_Cu4Ni3C14
_symmetry_space_group_name_H-M   'P 1'
_cell_length_a   8.27320890
_cell_length_b   8.27320890
_cell_length_c   8.27320892
_cell_angle_alpha   86.15427362
_cell_angle_beta   86.15427362
_cell_angle_gamma   86.15427910
_symmetry_Int_Tables_number   1
_chemical_formula_structural   Cu4Ni3C14
_chemical_formula_sum   'Cu8 Ni6 C28'
_cell_volume   562.60598877
_cell_formula_units_Z   2
loop_
 _symmetry_equiv_pos_site_id
 _symmetry_equiv_pos_as_xyz
  1  'x, y, z'
loop_
 _atom_site_type_symbol
 _atom_site_label
 _atom_site_symmetry_multiplicity
 _atom_site_fract_x
 _atom_site_fract_y
 _atom_site_fract_z
 _atom_site_occupancy
  C  C0  1  0.00000000  0.00000000  0.00000000  1
  C  C1  1  0.00000000  0.50000000  0.50000000  1
  C  C2  1  0.50000000  0.00000000  0.50000000  1
  C  C3  1  0.50000000  0.50000000  0.00000000  1
  Ni  Ni4  1  0.07496400  0.99798500  0.65471900  1
  Ni  Ni5  1  0.65471900  0.07496400  0.99798500  1
  Ni  Ni6  1  0.99798500  0.65471900  0.07496400  1
  Ni  Ni7  1  0.92503600  0.00201500  0.34528100  1
  Ni  Ni8  1  0.34528100  0.92503600  0.00201500  1
  Ni  Ni9  1  0.00201500  0.34528100  0.92503600  1
  Cu  Cu10  1  0.33002200  0.33002200  0.33002200  1
  Cu  Cu11  1  0.66997800  0.66997800  0.66997800  1
  Cu  Cu12  1  0.84255800  0.16755100  0.62915500  1
  Cu  Cu13  1  0.62915500  0.84255800  0.16755100  1
  Cu  Cu14  1  0.16755100  0.62915500  0.84255800  1
  Cu  Cu15  1  0.15744200  0.83244900  0.37084500  1
  Cu  Cu16  1  0.37084500  0.15744200  0.83244900  1
  Cu  Cu17  1  0.83244900  0.37084500  0.15744200  1
  C  C18  1  0.23274800  0.48496800  0.43831500  1
  C  C19  1  0.43831500  0.23274800  0.48496800  1
  C  C20  1  0.48496800  0.43831500  0.23274800  1
  C  C21  1  0.76725200  0.51503200  0.56168500  1
  C  C22  1  0.56168500  0.76725200  0.51503200  1
  C  C23  1  0.51503200  0.56168500  0.76725200  1
  C  C24  1  0.77623100  0.04888900  0.49136200  1
  C  C25  1  0.49136200  0.77623100  0.04888900  1
  C  C26  1  0.04888900  0.49136200  0.77623100  1
  C  C27  1  0.22376900  0.95111100  0.50863800  1
  C  C28  1  0.50863800  0.22376900  0.95111100  1
  C  C29  1  0.95111100  0.50863800  0.22376900  1
  C  C30  1  0.98820000  0.26695400  0.50702700  1
  C  C31  1  0.50702700  0.98820000  0.26695400  1
  C  C32  1  0.26695400  0.50702700  0.98820000  1
  C  C33  1  0.01180000  0.73304600  0.49297300  1
  C  C34  1  0.49297300  0.01180000  0.73304600  1
  C  C35  1  0.73304600  0.49297300  0.01180000  1
  C  C36  1  0.98543700  0.03202600  0.73746900  1
  C  C37  1  0.73746900  0.98543700  0.03202600  1
  C  C38  1  0.03202600  0.73746900  0.98543700  1
  C  C39  1  0.01456300  0.96797400  0.26253100  1
  C  C40  1  0.26253100  0.01456300  0.96797400  1
  C  C41  1  0.96797400  0.26253100  0.01456300  1
