# generated using pymatgen
data_CuNiC9
_symmetry_space_group_name_H-M   'P 1'
_cell_length_a   14.17250700
_cell_length_b   6.59104800
_cell_length_c   11.83939754
_cell_angle_alpha   78.99053204
_cell_angle_beta   90.00000000
_cell_angle_gamma   90.00000000
_symmetry_Int_Tables_number   1
_chemical_formula_structural   CuNiC9
_chemical_formula_sum   'Cu8 Ni8 C72'
_cell_volume   1085.58386184
_cell_formula_units_Z   8
loop_
 _symmetry_equiv_pos_site_id
 _symmetry_equiv_pos_as_xyz
  1  'x, y, z'
loop_
 _atom_site_type_symbol
 _atom_site_label
 _atom_site_symmetry_multiplicity
 _atom_site_fract_x
 _atom_site_fract_y
 _atom_site_fract_z
 _atom_site_occupancy
  Ni  Ni0  1  0.50628600  0.96490100  0.73545600  1
  Ni  Ni1  1  0.87051600  0.69687200  0.92625000  1
  Ni  Ni2  1  0.37051600  0.30312800  0.57375000  1
  Ni  Ni3  1  0.12948400  0.30312800  0.07375000  1
  Ni  Ni4  1  0.62948400  0.69687200  0.42625000  1
  Ni  Ni5  1  0.99371400  0.96490100  0.23545600  1
  Ni  Ni6  1  0.49371400  0.03509900  0.26454400  1
  Ni  Ni7  1  0.00628600  0.03509900  0.76454400  1
  C  C8  1  0.89803400  0.17789600  0.98444600  1
  C  C9  1  0.01373100  0.56450400  0.68440400  1
  C  C10  1  0.48626900  0.56450400  0.18440400  1
  C  C11  1  0.98626900  0.43549600  0.31559600  1
  C  C12  1  0.70991700  0.50013900  0.78794200  1
  C  C13  1  0.20991700  0.49986100  0.71205800  1
  C  C14  1  0.29008300  0.49986100  0.21205800  1
  C  C15  1  0.79008300  0.50013900  0.28794200  1
  C  C16  1  0.51373100  0.43549600  0.81559600  1
  C  C17  1  0.13992900  0.12994100  0.49610400  1
  C  C18  1  0.63992900  0.87005900  0.00389600  1
  C  C19  1  0.86007100  0.87005900  0.50389600  1
  C  C20  1  0.39803400  0.82210400  0.51555400  1
  C  C21  1  0.60196600  0.17789600  0.48444600  1
  C  C22  1  0.10196600  0.82210400  0.01555400  1
  C  C23  1  0.36007100  0.12994100  0.99610400  1
  Cu  Cu24  1  0.69128900  0.36807800  0.05927000  1
  Cu  Cu25  1  0.19128900  0.63192200  0.44073000  1
  Cu  Cu26  1  0.30871100  0.63192200  0.94073000  1
  Cu  Cu27  1  0.80871100  0.36807800  0.55927000  1
  Cu  Cu28  1  0.76480200  0.01064200  0.22681000  1
  Cu  Cu29  1  0.26480200  0.98935800  0.27319000  1
  Cu  Cu30  1  0.23519800  0.98935800  0.77319000  1
  Cu  Cu31  1  0.73519800  0.01064200  0.72681000  1
  C  C32  1  0.00708000  0.27956200  0.98080300  1
  C  C33  1  0.50708000  0.72043800  0.51919700  1
  C  C34  1  0.99292000  0.72043800  0.01919700  1
  C  C35  1  0.49292000  0.27956200  0.48080300  1
  C  C36  1  0.88873500  0.01933900  0.87935100  1
  C  C37  1  0.38873500  0.98066100  0.62064900  1
  C  C38  1  0.11126500  0.98066100  0.12064900  1
  C  C39  1  0.61126500  0.01933900  0.37935100  1
  C  C40  1  0.88076100  0.03282700  0.12454600  1
  C  C41  1  0.38076100  0.96717300  0.37545400  1
  C  C42  1  0.11923900  0.96717300  0.87545400  1
  C  C43  1  0.61923900  0.03282700  0.62454600  1
  C  C44  1  0.26904800  0.30745500  0.97490400  1
  C  C45  1  0.76904800  0.69254500  0.52509600  1
  C  C46  1  0.73095200  0.69254500  0.02509600  1
  C  C47  1  0.23095200  0.30745500  0.47490400  1
  C  C48  1  0.37645900  0.02963400  0.14242200  1
  C  C49  1  0.87645900  0.97036600  0.35757800  1
  C  C50  1  0.62354100  0.97036600  0.85757800  1
  C  C51  1  0.12354100  0.02963400  0.64242200  1
  C  C52  1  0.33252700  0.94485200  0.91054400  1
  C  C53  1  0.45582500  0.66195500  0.81231400  1
  C  C54  1  0.83252700  0.05514800  0.58945600  1
  C  C55  1  0.16747300  0.94485200  0.41054400  1
  C  C56  1  0.47168500  0.28425500  0.72274000  1
  C  C57  1  0.97168500  0.71574500  0.77726000  1
  C  C58  1  0.52831500  0.71574500  0.27726000  1
  C  C59  1  0.02831500  0.28425500  0.22274000  1
  C  C60  1  0.46393200  0.26629400  0.94818200  1
  C  C61  1  0.96393200  0.73370600  0.55181800  1
  C  C62  1  0.53606800  0.73370600  0.05181800  1
  C  C63  1  0.03606800  0.26629400  0.44818200  1
  C  C64  1  0.88954700  0.57008100  0.20544800  1
  C  C65  1  0.38954700  0.42991900  0.29455200  1
  C  C66  1  0.11045300  0.42991900  0.79455200  1
  C  C67  1  0.61045300  0.57008100  0.70544800  1
  C  C68  1  0.73955100  0.31176400  0.22119600  1
  C  C69  1  0.23955100  0.68823600  0.27880400  1
  C  C70  1  0.26044900  0.68823600  0.77880400  1
  C  C71  1  0.76044900  0.31176400  0.72119600  1
  C  C72  1  0.68321700  0.38893600  0.45384700  1
  C  C73  1  0.18321700  0.61106400  0.04615300  1
  C  C74  1  0.31678300  0.61106400  0.54615300  1
  C  C75  1  0.81678300  0.38893600  0.95384700  1
  C  C76  1  0.72485500  0.72354100  0.28668000  1
  C  C77  1  0.22485500  0.27645900  0.21332000  1
  C  C78  1  0.27514500  0.27645900  0.71332000  1
  C  C79  1  0.77514500  0.72354100  0.78668000  1
  C  C80  1  0.87056100  0.40664400  0.40601300  1
  C  C81  1  0.37056100  0.59335600  0.09398700  1
  C  C82  1  0.12943900  0.59335600  0.59398700  1
  C  C83  1  0.62943900  0.40664400  0.90601300  1
  C  C84  1  0.04417500  0.66195500  0.31231400  1
  C  C85  1  0.54417500  0.33804500  0.18768600  1
  C  C86  1  0.95582500  0.33804500  0.68768600  1
  C  C87  1  0.66747300  0.05514800  0.08945600  1
