# generated using pymatgen
data_CuNiC14
_symmetry_space_group_name_H-M   'P 1'
_cell_length_a   8.22151600
_cell_length_b   9.35857000
_cell_length_c   20.57443800
_cell_angle_alpha   90.00000000
_cell_angle_beta   90.00000000
_cell_angle_gamma   90.00000000
_symmetry_Int_Tables_number   1
_chemical_formula_structural   CuNiC14
_chemical_formula_sum   'Cu8 Ni8 C112'
_cell_volume   1583.03085762
_cell_formula_units_Z   8
loop_
 _symmetry_equiv_pos_site_id
 _symmetry_equiv_pos_as_xyz
  1  'x, y, z'
loop_
 _atom_site_type_symbol
 _atom_site_label
 _atom_site_symmetry_multiplicity
 _atom_site_fract_x
 _atom_site_fract_y
 _atom_site_fract_z
 _atom_site_occupancy
  C  C0  1  0.23943400  0.33790800  0.23344100  1
  C  C1  1  0.73943400  0.16209200  0.76655900  1
  C  C2  1  0.76056600  0.83790800  0.26655900  1
  C  C3  1  0.26056600  0.66209200  0.73344100  1
  C  C4  1  0.76056600  0.66209200  0.76655900  1
  C  C5  1  0.26056600  0.83790800  0.23344100  1
  C  C6  1  0.23943400  0.16209200  0.73344100  1
  C  C7  1  0.73943400  0.33790800  0.26655900  1
  Ni  Ni8  1  0.09376400  0.57790100  0.32949300  1
  Ni  Ni9  1  0.59376400  0.92209900  0.67050700  1
  Ni  Ni10  1  0.90623600  0.07790100  0.17050700  1
  Ni  Ni11  1  0.40623600  0.42209900  0.82949300  1
  Ni  Ni12  1  0.90623600  0.42209900  0.67050700  1
  Ni  Ni13  1  0.40623600  0.07790100  0.32949300  1
  Ni  Ni14  1  0.09376400  0.92209900  0.82949300  1
  Ni  Ni15  1  0.59376400  0.57790100  0.17050700  1
  C  C16  1  0.54206500  0.30357700  0.40834100  1
  C  C17  1  0.04206500  0.19642300  0.59165900  1
  C  C18  1  0.45793500  0.80357700  0.09165900  1
  C  C19  1  0.95793500  0.69642300  0.90834100  1
  C  C20  1  0.45793500  0.69642300  0.59165900  1
  C  C21  1  0.95793500  0.80357700  0.40834100  1
  C  C22  1  0.54206500  0.19642300  0.90834100  1
  C  C23  1  0.04206500  0.30357700  0.09165900  1
  C  C24  1  0.95667700  0.15519500  0.48782200  1
  C  C25  1  0.45667700  0.34480500  0.51217800  1
  C  C26  1  0.04332300  0.65519500  0.01217800  1
  C  C27  1  0.54332300  0.84480500  0.98782200  1
  C  C28  1  0.04332300  0.84480500  0.51217800  1
  C  C29  1  0.54332300  0.65519500  0.48782200  1
  C  C30  1  0.95667700  0.34480500  0.98782200  1
  C  C31  1  0.45667700  0.15519500  0.01217800  1
  C  C32  1  0.89099100  0.19262300  0.41641400  1
  C  C33  1  0.39099100  0.30737700  0.58358600  1
  C  C34  1  0.10900900  0.69262300  0.08358600  1
  C  C35  1  0.60900900  0.80737700  0.91641400  1
  C  C36  1  0.10900900  0.80737700  0.58358600  1
  C  C37  1  0.60900900  0.69262300  0.41641400  1
  C  C38  1  0.89099100  0.30737700  0.91641400  1
  C  C39  1  0.39099100  0.19262300  0.08358600  1
  C  C40  1  0.59563400  0.44777400  0.44390600  1
  C  C41  1  0.09563400  0.05222600  0.55609400  1
  C  C42  1  0.40436600  0.94777400  0.05609400  1
  C  C43  1  0.90436600  0.55222600  0.94390600  1
  C  C44  1  0.40436600  0.55222600  0.55609400  1
  C  C45  1  0.90436600  0.94777400  0.44390600  1
  C  C46  1  0.59563400  0.05222600  0.94390600  1
  C  C47  1  0.09563400  0.44777400  0.05609400  1
  C  C48  1  0.22886000  0.44813300  0.41458600  1
  C  C49  1  0.72886000  0.05186700  0.58541400  1
  C  C50  1  0.77114000  0.94813300  0.08541400  1
  C  C51  1  0.27114000  0.55186700  0.91458600  1
  C  C52  1  0.77114000  0.55186700  0.58541400  1
  C  C53  1  0.27114000  0.94813300  0.41458600  1
  C  C54  1  0.22886000  0.05186700  0.91458600  1
  C  C55  1  0.72886000  0.44813300  0.08541400  1
  C  C56  1  0.22202900  0.63396900  0.43388300  1
  C  C57  1  0.72202900  0.86603100  0.56611700  1
  C  C58  1  0.77797100  0.13396900  0.06611700  1
  C  C59  1  0.27797100  0.36603100  0.93388300  1
  C  C60  1  0.77797100  0.36603100  0.56611700  1
  C  C61  1  0.27797100  0.13396900  0.43388300  1
  C  C62  1  0.22202900  0.86603100  0.93388300  1
  C  C63  1  0.72202900  0.63396900  0.06611700  1
  C  C64  1  0.04189300  0.52770800  0.44021400  1
  C  C65  1  0.54189300  0.97229200  0.55978600  1
  C  C66  1  0.95810700  0.02770800  0.05978600  1
  C  C67  1  0.45810700  0.47229200  0.94021400  1
  C  C68  1  0.95810700  0.47229200  0.55978600  1
  C  C69  1  0.45810700  0.02770800  0.44021400  1
  C  C70  1  0.04189300  0.97229200  0.94021400  1
  C  C71  1  0.54189300  0.52770800  0.05978600  1
  Cu  Cu72  1  0.15400900  0.54503900  0.41233700  1
  Cu  Cu73  1  0.65400900  0.95496100  0.58766300  1
  Cu  Cu74  1  0.84599100  0.04503900  0.08766300  1
  Cu  Cu75  1  0.34599100  0.45496100  0.91233700  1
  Cu  Cu76  1  0.84599100  0.45496100  0.58766300  1
  Cu  Cu77  1  0.34599100  0.04503900  0.41233700  1
  Cu  Cu78  1  0.15400900  0.95496100  0.91233700  1
  Cu  Cu79  1  0.65400900  0.54503900  0.08766300  1
  C  C80  1  0.35184400  0.09049900  0.18824000  1
  C  C81  1  0.85184400  0.40950100  0.81176000  1
  C  C82  1  0.64815600  0.59049900  0.31176000  1
  C  C83  1  0.14815600  0.90950100  0.68824000  1
  C  C84  1  0.64815600  0.90950100  0.81176000  1
  C  C85  1  0.14815600  0.59049900  0.18824000  1
  C  C86  1  0.35184400  0.40950100  0.68824000  1
  C  C87  1  0.85184400  0.09049900  0.31176000  1
  C  C88  1  0.00500500  0.44278400  0.30511500  1
  C  C89  1  0.50500500  0.05721600  0.69488500  1
  C  C90  1  0.99499500  0.94278400  0.19488500  1
  C  C91  1  0.49499500  0.55721600  0.80511500  1
  C  C92  1  0.99499500  0.55721600  0.69488500  1
  C  C93  1  0.49499500  0.94278400  0.30511500  1
  C  C94  1  0.00500500  0.05721600  0.80511500  1
  C  C95  1  0.50500500  0.44278400  0.19488500  1
  C  C96  1  0.99949500  0.71979900  0.32447500  1
  C  C97  1  0.49949500  0.78020100  0.67552500  1
  C  C98  1  0.00050500  0.21979900  0.17552500  1
  C  C99  1  0.50050500  0.28020100  0.82447500  1
  C  C100  1  0.00050500  0.28020100  0.67552500  1
  C  C101  1  0.50050500  0.21979900  0.32447500  1
  C  C102  1  0.99949500  0.78020100  0.82447500  1
  C  C103  1  0.49949500  0.71979900  0.17552500  1
  C  C104  1  0.25784800  0.59162100  0.28966500  1
  C  C105  1  0.75784800  0.90837900  0.71033500  1
  C  C106  1  0.74215200  0.09162100  0.21033500  1
  C  C107  1  0.24215200  0.40837900  0.78966500  1
  C  C108  1  0.74215200  0.40837900  0.71033500  1
  C  C109  1  0.24215200  0.09162100  0.28966500  1
  C  C110  1  0.25784800  0.90837900  0.78966500  1
  C  C111  1  0.75784800  0.59162100  0.21033500  1
  C  C112  1  0.58409500  0.34174700  0.44942500  1
  C  C113  1  0.08409500  0.15825300  0.55057500  1
  C  C114  1  0.41590500  0.84174700  0.05057500  1
  C  C115  1  0.91590500  0.65825300  0.94942500  1
  C  C116  1  0.41590500  0.65825300  0.55057500  1
  C  C117  1  0.91590500  0.84174700  0.44942500  1
  C  C118  1  0.58409500  0.15825300  0.94942500  1
  C  C119  1  0.08409500  0.34174700  0.05057500  1
  C  C120  1  0.88113800  0.12477900  0.45186400  1
  C  C121  1  0.38113800  0.37522100  0.54813600  1
  C  C122  1  0.11886200  0.62477900  0.04813600  1
  C  C123  1  0.61886200  0.87522100  0.95186400  1
  C  C124  1  0.11886200  0.87522100  0.54813600  1
  C  C125  1  0.61886200  0.62477900  0.45186400  1
  C  C126  1  0.88113800  0.37522100  0.95186400  1
  C  C127  1  0.38113800  0.12477900  0.04813600  1
