# generated using pymatgen
data_Cu2NiC7
_symmetry_space_group_name_H-M   'P 1'
_cell_length_a   6.23175500
_cell_length_b   7.19891500
_cell_length_c   23.05528100
_cell_angle_alpha   90.00000000
_cell_angle_beta   90.00000000
_cell_angle_gamma   90.00000000
_symmetry_Int_Tables_number   1
_chemical_formula_structural   Cu2NiC7
_chemical_formula_sum   'Cu8 Ni4 C28'
_cell_volume   1034.30312384
_cell_formula_units_Z   4
loop_
 _symmetry_equiv_pos_site_id
 _symmetry_equiv_pos_as_xyz
  1  'x, y, z'
loop_
 _atom_site_type_symbol
 _atom_site_label
 _atom_site_symmetry_multiplicity
 _atom_site_fract_x
 _atom_site_fract_y
 _atom_site_fract_z
 _atom_site_occupancy
  C  C0  1  0.48723500  0.75000000  0.17696600  1
  C  C1  1  0.01276500  0.75000000  0.67696600  1
  C  C2  1  0.51276500  0.25000000  0.82303400  1
  C  C3  1  0.98723500  0.25000000  0.32303400  1
  C  C4  1  0.61477800  0.75000000  0.37382900  1
  C  C5  1  0.88522200  0.75000000  0.87382900  1
  C  C6  1  0.38522200  0.25000000  0.62617100  1
  C  C7  1  0.11477800  0.25000000  0.12617100  1
  Ni  Ni8  1  0.37396100  0.75000000  0.41540600  1
  Ni  Ni9  1  0.12603900  0.75000000  0.91540600  1
  Ni  Ni10  1  0.62603900  0.25000000  0.58459400  1
  Ni  Ni11  1  0.87396100  0.25000000  0.08459400  1
  C  C12  1  0.49702700  0.98293700  0.30779400  1
  C  C13  1  0.00297300  0.51706300  0.80779400  1
  C  C14  1  0.50297300  0.48293700  0.69220600  1
  C  C15  1  0.99702700  0.01706300  0.19220600  1
  C  C16  1  0.50297300  0.01706300  0.69220600  1
  C  C17  1  0.99702700  0.48293700  0.19220600  1
  C  C18  1  0.49702700  0.51706300  0.30779400  1
  C  C19  1  0.00297300  0.98293700  0.80779400  1
  C  C20  1  0.75737200  0.98525400  0.43448200  1
  C  C21  1  0.74262800  0.51474600  0.93448200  1
  C  C22  1  0.24262800  0.48525400  0.56551800  1
  C  C23  1  0.25737200  0.01474600  0.06551800  1
  C  C24  1  0.24262800  0.01474600  0.56551800  1
  C  C25  1  0.25737200  0.48525400  0.06551800  1
  C  C26  1  0.75737200  0.51474600  0.43448200  1
  C  C27  1  0.74262800  0.98525400  0.93448200  1
  C  C28  1  0.93605000  0.75000000  0.32501500  1
  C  C29  1  0.56395000  0.75000000  0.82501500  1
  C  C30  1  0.06395000  0.25000000  0.67498500  1
  C  C31  1  0.43605000  0.25000000  0.17498500  1
  Cu  Cu32  1  0.22894600  0.75000000  0.44620200  1
  Cu  Cu33  1  0.27105400  0.75000000  0.94620200  1
  Cu  Cu34  1  0.77105400  0.25000000  0.55379800  1
  Cu  Cu35  1  0.72894600  0.25000000  0.05379800  1
  Cu  Cu36  1  0.75532900  0.75000000  0.07942800  1
  Cu  Cu37  1  0.74467100  0.75000000  0.57942800  1
  Cu  Cu38  1  0.24467100  0.25000000  0.92057200  1
  Cu  Cu39  1  0.25532900  0.25000000  0.42057200  1
