# generated using pymatgen
data_CuNiC2
_symmetry_space_group_name_H-M   'P 1'
_cell_length_a   12.81063084
_cell_length_b   12.55018832
_cell_length_c   12.55018804
_cell_angle_alpha   59.67360024
_cell_angle_beta   59.31112008
_cell_angle_gamma   59.31111983
_symmetry_Int_Tables_number   1
_chemical_formula_structural   CuNiC2
_chemical_formula_sum   'Cu1 Ni1 C2'
_cell_volume   1408.29812624
_cell_formula_units_Z   1
loop_
 _symmetry_equiv_pos_site_id
 _symmetry_equiv_pos_as_xyz
  1  'x, y, z'
loop_
 _atom_site_type_symbol
 _atom_site_label
 _atom_site_symmetry_multiplicity
 _atom_site_fract_x
 _atom_site_fract_y
 _atom_site_fract_z
 _atom_site_occupancy
  C  C0  1  0.73997570  0.00000000  0.00000000  1
  C  C1  1  0.26002430  1.00000000  1.00000000  1
  Ni  Ni2  1  -0.00000000  -0.00000000  -0.00000000  1
  Cu  Cu3  1  0.50000000  -0.00000000  -0.00000000  1
