# generated using pymatgen
data_Cu(Ni2C)2
_symmetry_space_group_name_H-M   'P 1'
_cell_length_a   6.70809500
_cell_length_b   7.19905200
_cell_length_c   8.82723100
_cell_angle_alpha   90.00000000
_cell_angle_beta   90.00000000
_cell_angle_gamma   90.00000000
_symmetry_Int_Tables_number   1
_chemical_formula_structural   Cu(Ni2C)2
_chemical_formula_sum   'Cu4 Ni16 C8'
_cell_volume   426.28397499
_cell_formula_units_Z   4
loop_
 _symmetry_equiv_pos_site_id
 _symmetry_equiv_pos_as_xyz
  1  'x, y, z'
loop_
 _atom_site_type_symbol
 _atom_site_label
 _atom_site_symmetry_multiplicity
 _atom_site_fract_x
 _atom_site_fract_y
 _atom_site_fract_z
 _atom_site_occupancy
  C  C0  1  0.85240500  0.25000000  0.45647700  1
  C  C1  1  0.64759500  0.25000000  0.95647700  1
  C  C2  1  0.14759500  0.75000000  0.54352300  1
  C  C3  1  0.35240500  0.75000000  0.04352300  1
  C  C4  1  0.17618700  0.25000000  0.10392700  1
  C  C5  1  0.32381300  0.25000000  0.60392700  1
  C  C6  1  0.82381300  0.75000000  0.89607300  1
  C  C7  1  0.67618700  0.75000000  0.39607300  1
  Ni  Ni8  1  0.33800000  0.06698700  0.07047100  1
  Ni  Ni9  1  0.16200000  0.43301300  0.57047100  1
  Ni  Ni10  1  0.66200000  0.56698700  0.92952900  1
  Ni  Ni11  1  0.83800000  0.93301300  0.42952900  1
  Ni  Ni12  1  0.66200000  0.93301300  0.92952900  1
  Ni  Ni13  1  0.83800000  0.56698700  0.42952900  1
  Ni  Ni14  1  0.33800000  0.43301300  0.07047100  1
  Ni  Ni15  1  0.16200000  0.06698700  0.57047100  1
  Ni  Ni16  1  0.98055200  0.25000000  0.98051400  1
  Ni  Ni17  1  0.51944800  0.25000000  0.48051400  1
  Ni  Ni18  1  0.01944800  0.75000000  0.01948600  1
  Ni  Ni19  1  0.48055200  0.75000000  0.51948600  1
  Ni  Ni20  1  0.10063000  0.25000000  0.28783100  1
  Ni  Ni21  1  0.39937000  0.25000000  0.78783100  1
  Ni  Ni22  1  0.89937000  0.75000000  0.71216900  1
  Ni  Ni23  1  0.60063000  0.75000000  0.21216900  1
  Cu  Cu24  1  0.79938900  0.25000000  0.71038200  1
  Cu  Cu25  1  0.70061100  0.25000000  0.21038200  1
  Cu  Cu26  1  0.20061100  0.75000000  0.28961800  1
  Cu  Cu27  1  0.29938900  0.75000000  0.78961800  1
