# generated using pymatgen
data_Cu19(Ni5C7)2
_symmetry_space_group_name_H-M   'P 1'
_cell_length_a   2.87906800
_cell_length_b   13.93290300
_cell_length_c   26.68494900
_cell_angle_alpha   90.00000000
_cell_angle_beta   90.00000000
_cell_angle_gamma   90.00000000
_symmetry_Int_Tables_number   1
_chemical_formula_structural   Cu19(Ni5C7)2
_chemical_formula_sum   'Cu38 Ni20 C28'
_cell_volume   1070.43404473
_cell_formula_units_Z   2
loop_
 _symmetry_equiv_pos_site_id
 _symmetry_equiv_pos_as_xyz
  1  'x, y, z'
loop_
 _atom_site_type_symbol
 _atom_site_label
 _atom_site_symmetry_multiplicity
 _atom_site_fract_x
 _atom_site_fract_y
 _atom_site_fract_z
 _atom_site_occupancy
  C  C0  1  0.00000000  0.01137700  0.04437900  1
  C  C1  1  0.00000000  0.98862300  0.95562100  1
  C  C2  1  0.00000000  0.48862300  0.54437900  1
  C  C3  1  0.00000000  0.51137700  0.45562100  1
  Ni  Ni4  1  0.00000000  0.03725600  0.22837100  1
  Ni  Ni5  1  0.00000000  0.96274400  0.77162900  1
  Ni  Ni6  1  0.00000000  0.46274400  0.72837100  1
  Ni  Ni7  1  0.00000000  0.53725600  0.27162900  1
  Ni  Ni8  1  0.00000000  0.34592100  0.03268400  1
  Ni  Ni9  1  0.00000000  0.65407900  0.96731600  1
  Ni  Ni10  1  0.00000000  0.15407900  0.53268400  1
  Ni  Ni11  1  0.00000000  0.84592100  0.46731600  1
  Ni  Ni12  1  0.00000000  0.06782200  0.32923300  1
  Ni  Ni13  1  0.00000000  0.93217800  0.67076700  1
  Ni  Ni14  1  0.00000000  0.43217800  0.82923300  1
  Ni  Ni15  1  0.00000000  0.56782200  0.17076700  1
  Ni  Ni16  1  0.00000000  0.25901200  0.35880000  1
  Ni  Ni17  1  0.00000000  0.74098800  0.64120000  1
  Ni  Ni18  1  0.00000000  0.24098800  0.85880000  1
  Ni  Ni19  1  0.00000000  0.75901200  0.14120000  1
  Ni  Ni20  1  0.00000000  0.21502600  0.18597400  1
  Ni  Ni21  1  0.00000000  0.78497400  0.81402600  1
  Ni  Ni22  1  0.00000000  0.28497400  0.68597400  1
  Ni  Ni23  1  0.00000000  0.71502600  0.31402600  1
  C  C24  1  0.00000000  0.32268300  0.26317900  1
  C  C25  1  0.00000000  0.67731700  0.73682100  1
  C  C26  1  0.00000000  0.17731700  0.76317900  1
  C  C27  1  0.00000000  0.82268300  0.23682100  1
  C  C28  1  0.00000000  0.38431200  0.14310900  1
  C  C29  1  0.00000000  0.61568800  0.85689100  1
  C  C30  1  0.00000000  0.11568800  0.64310900  1
  C  C31  1  0.00000000  0.88431200  0.35689100  1
  C  C32  1  0.00000000  0.16799900  0.08353400  1
  C  C33  1  0.00000000  0.83200100  0.91646600  1
  C  C34  1  0.00000000  0.33200100  0.58353400  1
  C  C35  1  0.00000000  0.66799900  0.41646600  1
  C  C36  1  0.00000000  0.45430100  0.36968200  1
  C  C37  1  0.00000000  0.54569900  0.63031800  1
  C  C38  1  0.00000000  0.04569900  0.86968200  1
  C  C39  1  0.00000000  0.95430100  0.13031800  1
  C  C40  1  0.00000000  0.05680700  0.44432200  1
  C  C41  1  0.00000000  0.94319300  0.55567800  1
  C  C42  1  0.00000000  0.44319300  0.94432200  1
  C  C43  1  0.00000000  0.55680700  0.05567800  1
  C  C44  1  0.00000000  0.29128500  0.46134100  1
  C  C45  1  0.00000000  0.70871500  0.53865900  1
  C  C46  1  0.00000000  0.20871500  0.96134100  1
  C  C47  1  0.00000000  0.79128500  0.03865900  1
  Cu  Cu48  1  0.50000000  0.27760300  0.11143800  1
  Cu  Cu49  1  0.50000000  0.72239700  0.88856200  1
  Cu  Cu50  1  0.50000000  0.22239700  0.61143800  1
  Cu  Cu51  1  0.50000000  0.77760300  0.38856200  1
  Cu  Cu52  1  0.50000000  0.07346300  0.12413200  1
  Cu  Cu53  1  0.50000000  0.92653700  0.87586800  1
  Cu  Cu54  1  0.50000000  0.42653700  0.62413200  1
  Cu  Cu55  1  0.50000000  0.57346300  0.37586800  1
  Cu  Cu56  1  0.50000000  0.17387800  0.43881600  1
  Cu  Cu57  1  0.50000000  0.82612200  0.56118400  1
  Cu  Cu58  1  0.50000000  0.32612200  0.93881600  1
  Cu  Cu59  1  0.50000000  0.67387800  0.06118400  1
  Cu  Cu60  1  0.50000000  0.37679200  0.41735400  1
  Cu  Cu61  1  0.50000000  0.62320800  0.58264600  1
  Cu  Cu62  1  0.50000000  0.12320800  0.91735400  1
  Cu  Cu63  1  0.50000000  0.87679200  0.08264600  1
  Cu  Cu64  1  0.50000000  0.17083000  0.02105400  1
  Cu  Cu65  1  0.50000000  0.82917000  0.97894600  1
  Cu  Cu66  1  0.50000000  0.32917000  0.52105400  1
  Cu  Cu67  1  0.50000000  0.67083000  0.47894600  1
  Cu  Cu68  1  0.50000000  0.47618200  0.10292900  1
  Cu  Cu69  1  0.50000000  0.52381800  0.89707100  1
  Cu  Cu70  1  0.50000000  0.02381800  0.60292900  1
  Cu  Cu71  1  0.50000000  0.97618200  0.39707100  1
  Cu  Cu72  1  0.50000000  0.00000000  0.50000000  1
  Cu  Cu73  1  0.50000000  0.50000000  0.00000000  1
  Cu  Cu74  1  0.50000000  0.20858700  0.27191400  1
  Cu  Cu75  1  0.50000000  0.79141300  0.72808600  1
  Cu  Cu76  1  0.50000000  0.29141300  0.77191400  1
  Cu  Cu77  1  0.50000000  0.70858700  0.22808600  1
  Cu  Cu78  1  0.50000000  0.40172100  0.31295200  1
  Cu  Cu79  1  0.50000000  0.59827900  0.68704800  1
  Cu  Cu80  1  0.50000000  0.09827900  0.81295200  1
  Cu  Cu81  1  0.50000000  0.90172100  0.18704800  1
  Cu  Cu82  1  0.50000000  0.39014800  0.20522800  1
  Cu  Cu83  1  0.50000000  0.60985200  0.79477200  1
  Cu  Cu84  1  0.50000000  0.10985200  0.70522800  1
  Cu  Cu85  1  0.50000000  0.89014800  0.29477200  1
