# generated using pymatgen
data_CuNiC5
_symmetry_space_group_name_H-M   'P 1'
_cell_length_a   3.12111900
_cell_length_b   9.45848900
_cell_length_c   11.15064700
_cell_angle_alpha   90.00000000
_cell_angle_beta   90.00000000
_cell_angle_gamma   90.00000000
_symmetry_Int_Tables_number   1
_chemical_formula_structural   CuNiC5
_chemical_formula_sum   'Cu4 Ni4 C20'
_cell_volume   329.17902761
_cell_formula_units_Z   4
loop_
 _symmetry_equiv_pos_site_id
 _symmetry_equiv_pos_as_xyz
  1  'x, y, z'
loop_
 _atom_site_type_symbol
 _atom_site_label
 _atom_site_symmetry_multiplicity
 _atom_site_fract_x
 _atom_site_fract_y
 _atom_site_fract_z
 _atom_site_occupancy
  C  C0  1  0.00000000  0.75708200  0.09908900  1
  C  C1  1  0.00000000  0.25708200  0.90091100  1
  C  C2  1  0.50000000  0.24091400  0.40391000  1
  C  C3  1  0.50000000  0.74091400  0.59609000  1
  Ni  Ni4  1  0.00000000  0.41920000  0.64451300  1
  Ni  Ni5  1  0.00000000  0.91920000  0.35548700  1
  Ni  Ni6  1  0.00000000  0.43479000  0.13599400  1
  Ni  Ni7  1  0.00000000  0.93479000  0.86400600  1
  Cu  Cu8  1  0.50000000  0.58365100  0.85299400  1
  Cu  Cu9  1  0.50000000  0.08365100  0.14700600  1
  Cu  Cu10  1  0.50000000  0.56264900  0.36244200  1
  Cu  Cu11  1  0.50000000  0.06264900  0.63755800  1
  C  C12  1  0.00000000  0.41896900  0.32250300  1
  C  C13  1  0.00000000  0.91896900  0.67749700  1
  C  C14  1  0.50000000  0.57395900  0.17499600  1
  C  C15  1  0.50000000  0.07395900  0.82500400  1
  C  C16  1  0.00000000  0.20670400  0.59540700  1
  C  C17  1  0.00000000  0.70670400  0.40459300  1
  C  C18  1  0.50000000  0.79699700  0.90460400  1
  C  C19  1  0.50000000  0.29699700  0.09539600  1
  C  C20  1  0.00000000  0.52251900  0.96705800  1
  C  C21  1  0.00000000  0.02251900  0.03294200  1
  C  C22  1  0.50000000  0.47860700  0.53609100  1
  C  C23  1  0.50000000  0.97860700  0.46390900  1
  C  C24  1  0.00000000  0.11888700  0.27094700  1
  C  C25  1  0.00000000  0.61888700  0.72905300  1
  C  C26  1  0.50000000  0.88507100  0.23527400  1
  C  C27  1  0.50000000  0.38507100  0.76472600  1
