# generated using pymatgen
data_Cu8NiC16
_symmetry_space_group_name_H-M   'P 1'
_cell_length_a   6.71532396
_cell_length_b   5.75810320
_cell_length_c   7.05613845
_cell_angle_alpha   84.81229484
_cell_angle_beta   94.04898019
_cell_angle_gamma   90.09076225
_symmetry_Int_Tables_number   1
_chemical_formula_structural   Cu8NiC16
_chemical_formula_sum   'Cu8 Ni1 C16'
_cell_volume   271.04444125
_cell_formula_units_Z   1
loop_
 _symmetry_equiv_pos_site_id
 _symmetry_equiv_pos_as_xyz
  1  'x, y, z'
loop_
 _atom_site_type_symbol
 _atom_site_label
 _atom_site_symmetry_multiplicity
 _atom_site_fract_x
 _atom_site_fract_y
 _atom_site_fract_z
 _atom_site_occupancy
  Ni  Ni0  1  0.87963100  0.90068500  0.60792600  1
  Cu  Cu1  1  0.36507300  0.34475300  0.11529300  1
  Cu  Cu2  1  0.13319600  0.66672600  0.37172100  1
  Cu  Cu3  1  0.86094600  0.16215800  0.12822700  1
  Cu  Cu4  1  0.39685200  0.13394800  0.63423000  1
  Cu  Cu5  1  0.16056600  0.87126000  0.91431200  1
  Cu  Cu6  1  0.59208500  0.82322400  0.32905900  1
  Cu  Cu7  1  0.60846000  0.61917000  0.86725800  1
  Cu  Cu8  1  0.87872200  0.38017600  0.64620800  1
  C  C9  1  0.14481800  0.12524600  0.08982300  1
  C  C10  1  0.18060600  0.61841300  0.10820400  1
  C  C11  1  0.57495300  0.57565500  0.13309800  1
  C  C12  1  0.07125400  0.62765600  0.64119700  1
  C  C13  1  0.34523600  0.87195500  0.42637600  1
  C  C14  1  0.10152400  0.11245500  0.69146100  1
  C  C15  1  0.57585700  0.10755400  0.15919700  1
  C  C16  1  0.42848900  0.87794200  0.83135700  1
  C  C17  1  0.67550000  0.14995400  0.58964700  1
  C  C18  1  0.88122200  0.88734500  0.31858300  1
  C  C19  1  0.41389700  0.38696300  0.85143400  1
  C  C20  1  0.67796400  0.63182900  0.59893700  1
  C  C21  1  0.82389800  0.39185700  0.90260200  1
  C  C22  1  0.33674500  0.36309100  0.40501000  1
  C  C23  1  0.93118300  0.39204800  0.36666900  1
  C  C24  1  0.84132500  0.85889000  0.90217200  1
