# generated using pymatgen
data_Cu5NiC5
_symmetry_space_group_name_H-M   'P 1'
_cell_length_a   8.50425374
_cell_length_b   8.50425374
_cell_length_c   7.65510297
_cell_angle_alpha   88.97972360
_cell_angle_beta   88.97972360
_cell_angle_gamma   39.59688908
_symmetry_Int_Tables_number   1
_chemical_formula_structural   Cu5NiC5
_chemical_formula_sum   'Cu10 Ni2 C10'
_cell_volume   352.81380445
_cell_formula_units_Z   2
loop_
 _symmetry_equiv_pos_site_id
 _symmetry_equiv_pos_as_xyz
  1  'x, y, z'
loop_
 _atom_site_type_symbol
 _atom_site_label
 _atom_site_symmetry_multiplicity
 _atom_site_fract_x
 _atom_site_fract_y
 _atom_site_fract_z
 _atom_site_occupancy
  C  C0  1  0.89612000  0.83638000  0.24793100  1
  C  C1  1  0.16362000  0.10388000  0.75206900  1
  C  C2  1  0.13274300  0.18208200  0.25864900  1
  C  C3  1  0.81791800  0.86725700  0.74135100  1
  C  C4  1  0.46576800  0.72385900  0.26632200  1
  C  C5  1  0.27614100  0.53423200  0.73367800  1
  C  C6  1  0.20815400  0.23502700  0.22911100  1
  C  C7  1  0.76497300  0.79184600  0.77088900  1
  C  C8  1  0.38044400  0.67732300  0.26562700  1
  C  C9  1  0.32267700  0.61955600  0.73437300  1
  Ni  Ni10  1  0.15697500  0.87090900  0.26436600  1
  Ni  Ni11  1  0.12909100  0.84302500  0.73563400  1
  Cu  Cu12  1  0.72725000  0.77470500  0.22818000  1
  Cu  Cu13  1  0.22529500  0.27275000  0.77182000  1
  Cu  Cu14  1  0.71536900  0.07848600  0.42810900  1
  Cu  Cu15  1  0.92151400  0.28463100  0.57189100  1
  Cu  Cu16  1  0.73220900  0.10119600  0.08979100  1
  Cu  Cu17  1  0.89880400  0.26779100  0.91020900  1
  Cu  Cu18  1  0.13899600  0.62264500  0.06882900  1
  Cu  Cu19  1  0.37735500  0.86100400  0.93117100  1
  Cu  Cu20  1  0.12719000  0.60608800  0.42817400  1
  Cu  Cu21  1  0.39391200  0.87281000  0.57182600  1
