# generated using pymatgen
data_CuNi6C
_symmetry_space_group_name_H-M   'P 1'
_cell_length_a   4.97253200
_cell_length_b   6.29336000
_cell_length_c   11.84422500
_cell_angle_alpha   90.00000000
_cell_angle_beta   90.00000000
_cell_angle_gamma   90.00000000
_symmetry_Int_Tables_number   1
_chemical_formula_structural   CuNi6C
_chemical_formula_sum   'Cu2 Ni12 C2'
_cell_volume   370.65239528
_cell_formula_units_Z   2
loop_
 _symmetry_equiv_pos_site_id
 _symmetry_equiv_pos_as_xyz
  1  'x, y, z'
loop_
 _atom_site_type_symbol
 _atom_site_label
 _atom_site_symmetry_multiplicity
 _atom_site_fract_x
 _atom_site_fract_y
 _atom_site_fract_z
 _atom_site_occupancy
  C  C0  1  0.00000000  0.50000000  0.31044600  1
  C  C1  1  0.00000000  0.00000000  0.81044600  1
  Ni  Ni2  1  0.00000000  0.74597900  0.07713200  1
  Ni  Ni3  1  0.00000000  0.25402100  0.07713200  1
  Ni  Ni4  1  0.00000000  0.00000000  0.34085300  1
  Ni  Ni5  1  0.50000000  0.24350200  0.43617700  1
  Ni  Ni6  1  0.50000000  0.75649800  0.43617700  1
  Ni  Ni7  1  0.50000000  0.00000000  0.18284600  1
  Ni  Ni8  1  0.00000000  0.24597900  0.57713200  1
  Ni  Ni9  1  0.00000000  0.75402100  0.57713200  1
  Ni  Ni10  1  0.00000000  0.50000000  0.84085300  1
  Ni  Ni11  1  0.50000000  0.74350200  0.93617700  1
  Ni  Ni12  1  0.50000000  0.25649800  0.93617700  1
  Ni  Ni13  1  0.50000000  0.50000000  0.68284600  1
  Cu  Cu14  1  0.50000000  0.50000000  0.13923700  1
  Cu  Cu15  1  0.50000000  0.00000000  0.63923700  1
