# generated using pymatgen
data_Cu5(NiC8)2
_symmetry_space_group_name_H-M   'P 1'
_cell_length_a   11.12821700
_cell_length_b   11.12821700
_cell_length_c   7.81931600
_cell_angle_alpha   90.00000000
_cell_angle_beta   90.00000000
_cell_angle_gamma   90.00000000
_symmetry_Int_Tables_number   1
_chemical_formula_structural   Cu5(NiC8)2
_chemical_formula_sum   'Cu20 Ni8 C64'
_cell_volume   968.32230569
_cell_formula_units_Z   4
loop_
 _symmetry_equiv_pos_site_id
 _symmetry_equiv_pos_as_xyz
  1  'x, y, z'
loop_
 _atom_site_type_symbol
 _atom_site_label
 _atom_site_symmetry_multiplicity
 _atom_site_fract_x
 _atom_site_fract_y
 _atom_site_fract_z
 _atom_site_occupancy
  C  C0  1  0.25000000  0.75000000  0.00000000  1
  C  C1  1  0.25000000  0.25000000  0.00000000  1
  C  C2  1  0.75000000  0.75000000  0.00000000  1
  C  C3  1  0.75000000  0.25000000  0.00000000  1
  C  C4  1  0.00000000  0.00000000  0.50000000  1
  C  C5  1  0.50000000  0.50000000  0.50000000  1
  C  C6  1  0.33845800  0.67436200  0.33652200  1
  C  C7  1  0.27249700  0.00000000  0.52615600  1
  C  C8  1  0.50000000  0.77249700  0.52615600  1
  C  C9  1  0.50000000  0.22750300  0.52615600  1
  C  C10  1  0.83538900  0.50000000  0.97067200  1
  C  C11  1  0.00000000  0.66461100  0.97067200  1
  C  C12  1  0.00000000  0.33538900  0.97067200  1
  C  C13  1  0.16461100  0.50000000  0.97067200  1
  C  C14  1  0.66461100  0.00000000  0.02932800  1
  C  C15  1  0.33538900  0.00000000  0.02932800  1
  C  C16  1  0.50000000  0.83538900  0.02932800  1
  C  C17  1  0.50000000  0.16461100  0.02932800  1
  C  C18  1  0.88461000  0.38461000  0.24958000  1
  C  C19  1  0.88461000  0.61539000  0.24958000  1
  C  C20  1  0.11539000  0.38461000  0.24958000  1
  C  C21  1  0.11539000  0.61539000  0.24958000  1
  C  C22  1  0.61539000  0.88461000  0.75042000  1
  C  C23  1  0.38461000  0.11539000  0.75042000  1
  C  C24  1  0.38461000  0.88461000  0.75042000  1
  C  C25  1  0.61539000  0.11539000  0.75042000  1
  C  C26  1  0.89003500  0.39003500  0.69851400  1
  C  C27  1  0.89003500  0.60996500  0.69851400  1
  C  C28  1  0.10996500  0.39003500  0.69851400  1
  C  C29  1  0.10996500  0.60996500  0.69851400  1
  C  C30  1  0.60996500  0.89003500  0.30148600  1
  C  C31  1  0.39003500  0.10996500  0.30148600  1
  C  C32  1  0.39003500  0.89003500  0.30148600  1
  C  C33  1  0.60996500  0.10996500  0.30148600  1
  C  C34  1  0.33845800  0.32563800  0.33652200  1
  C  C35  1  0.82563800  0.16154200  0.33652200  1
  C  C36  1  0.17436200  0.83845800  0.33652200  1
  C  C37  1  0.66154200  0.67436200  0.33652200  1
  C  C38  1  0.16154200  0.82563800  0.66347800  1
  C  C39  1  0.83845800  0.17436200  0.66347800  1
  C  C40  1  0.32563800  0.33845800  0.66347800  1
  C  C41  1  0.61015500  0.50000000  0.88867000  1
  C  C42  1  0.16154200  0.17436200  0.66347800  1
  C  C43  1  0.67436200  0.33845800  0.66347800  1
  C  C44  1  0.32563800  0.66154200  0.66347800  1
  C  C45  1  0.83845800  0.82563800  0.66347800  1
  C  C46  1  0.72750300  0.00000000  0.52615600  1
  C  C47  1  0.00000000  0.88984500  0.88867000  1
  C  C48  1  0.17436200  0.16154200  0.33652200  1
  C  C49  1  0.82563800  0.83845800  0.33652200  1
  C  C50  1  0.00000000  0.11015500  0.88867000  1
  C  C51  1  0.38984500  0.50000000  0.88867000  1
  C  C52  1  0.50000000  0.00000000  0.53330600  1
  C  C53  1  0.00000000  0.50000000  0.46669400  1
  C  C54  1  0.11015500  0.00000000  0.11133000  1
  C  C55  1  0.22750300  0.50000000  0.47384400  1
  C  C56  1  0.00000000  0.27249700  0.47384400  1
  C  C57  1  0.00000000  0.72750300  0.47384400  1
  C  C58  1  0.77249700  0.50000000  0.47384400  1
  C  C59  1  0.50000000  0.61015500  0.11133000  1
  C  C60  1  0.50000000  0.38984500  0.11133000  1
  C  C61  1  0.88984500  0.00000000  0.11133000  1
  C  C62  1  0.67436200  0.66154200  0.66347800  1
  C  C63  1  0.66154200  0.32563800  0.33652200  1
  Ni  Ni64  1  0.50000000  0.68221200  0.82465600  1
  Ni  Ni65  1  0.31778800  0.50000000  0.17534400  1
  Ni  Ni66  1  0.00000000  0.18221200  0.17534400  1
  Ni  Ni67  1  0.00000000  0.81778800  0.17534400  1
  Ni  Ni68  1  0.68221200  0.50000000  0.17534400  1
  Ni  Ni69  1  0.18221200  0.00000000  0.82465600  1
  Ni  Ni70  1  0.81778800  0.00000000  0.82465600  1
  Ni  Ni71  1  0.50000000  0.31778800  0.82465600  1
  Cu  Cu72  1  0.68591400  0.18591400  0.51812400  1
  Cu  Cu73  1  0.31408600  0.81408600  0.51812400  1
  Cu  Cu74  1  0.31408600  0.18591400  0.51812400  1
  Cu  Cu75  1  0.68591400  0.81408600  0.51812400  1
  Cu  Cu76  1  0.18591400  0.68591400  0.48187600  1
  Cu  Cu77  1  0.18591400  0.31408600  0.48187600  1
  Cu  Cu78  1  0.50000000  0.25609700  0.26324400  1
  Cu  Cu79  1  0.50000000  0.74390300  0.26324400  1
  Cu  Cu80  1  0.24390300  0.00000000  0.26324400  1
  Cu  Cu81  1  0.75609700  0.00000000  0.26324400  1
  Cu  Cu82  1  0.25609700  0.50000000  0.73675600  1
  Cu  Cu83  1  0.00000000  0.24390300  0.73675600  1
  Cu  Cu84  1  0.00000000  0.75609700  0.73675600  1
  Cu  Cu85  1  0.74390300  0.50000000  0.73675600  1
  Cu  Cu86  1  0.50000000  0.00000000  0.14860000  1
  Cu  Cu87  1  0.00000000  0.50000000  0.85140000  1
  Cu  Cu88  1  0.50000000  0.00000000  0.89276900  1
  Cu  Cu89  1  0.00000000  0.50000000  0.10723100  1
  Cu  Cu90  1  0.81408600  0.68591400  0.48187600  1
  Cu  Cu91  1  0.81408600  0.31408600  0.48187600  1
