# generated using pymatgen
data_Cu(NiC4)7
_symmetry_space_group_name_H-M   'P 1'
_cell_length_a   11.51886337
_cell_length_b   11.86838769
_cell_length_c   17.74980997
_cell_angle_alpha   109.49523216
_cell_angle_beta   109.00482976
_cell_angle_gamma   89.99482481
_symmetry_Int_Tables_number   1
_chemical_formula_structural   Cu(NiC4)7
_chemical_formula_sum   'Cu4 Ni28 C112'
_cell_volume   2146.66635119
_cell_formula_units_Z   4
loop_
 _symmetry_equiv_pos_site_id
 _symmetry_equiv_pos_as_xyz
  1  'x, y, z'
loop_
 _atom_site_type_symbol
 _atom_site_label
 _atom_site_symmetry_multiplicity
 _atom_site_fract_x
 _atom_site_fract_y
 _atom_site_fract_z
 _atom_site_occupancy
  Ni  Ni0  1  0.29563500  0.06436600  0.11267300  1
  Ni  Ni1  1  0.29751700  0.06399500  0.61091200  1
  Ni  Ni2  1  0.29747300  0.56470900  0.61145700  1
  Ni  Ni3  1  0.79727100  0.06481700  0.61147700  1
  Ni  Ni4  1  0.79796200  0.56477700  0.11111700  1
  Ni  Ni5  1  0.79751300  0.56448400  0.61176400  1
  Ni  Ni6  1  0.18563200  0.43397600  0.38782400  1
  Ni  Ni7  1  0.18580100  0.43592800  0.88957300  1
  Ni  Ni8  1  0.18434800  0.93494700  0.38664200  1
  Ni  Ni9  1  0.18649800  0.93666300  0.88868100  1
  Ni  Ni10  1  0.68554700  0.43552000  0.38810400  1
  Ni  Ni11  1  0.68531800  0.93501300  0.38805500  1
  Ni  Ni12  1  0.68503600  0.93619100  0.88865300  1
  Ni  Ni13  1  0.04607600  0.29699200  0.11163800  1
  Ni  Ni14  1  0.04717400  0.29752300  0.61160900  1
  Ni  Ni15  1  0.04707000  0.79664000  0.61119500  1
  Ni  Ni16  1  0.54719400  0.29591800  0.11128100  1
  Ni  Ni17  1  0.54777600  0.29839500  0.61340000  1
  Ni  Ni18  1  0.54533700  0.79761000  0.11240000  1
  Ni  Ni19  1  0.54752200  0.79604400  0.61106900  1
  Ni  Ni20  1  0.43580800  0.20313000  0.38835200  1
  Ni  Ni21  1  0.43843700  0.20421300  0.88864600  1
  Ni  Ni22  1  0.43404600  0.70217700  0.38643800  1
  Ni  Ni23  1  0.43550200  0.70206600  0.88884100  1
  Ni  Ni24  1  0.93394600  0.20160500  0.38646000  1
  Ni  Ni25  1  0.93374100  0.20353500  0.88874800  1
  Ni  Ni26  1  0.93506800  0.70298300  0.38746400  1
  Ni  Ni27  1  0.93567300  0.70197100  0.88918500  1
  Cu  Cu28  1  0.29272000  0.56611400  0.11069400  1
  Cu  Cu29  1  0.79519600  0.06510600  0.11039400  1
  Cu  Cu30  1  0.68430300  0.43479300  0.89028400  1
  Cu  Cu31  1  0.04672800  0.79624900  0.11173800  1
  C  C32  1  0.00093400  0.99904800  0.00150800  1
  C  C33  1  0.00101700  0.00014000  0.49954300  1
  C  C34  1  0.00058300  0.50086800  0.00067600  1
  C  C35  1  0.00097900  0.49962100  0.49950800  1
  C  C36  1  0.50160100  0.00007900  0.00087200  1
  C  C37  1  0.50063000  0.99979700  0.49948700  1
  C  C38  1  0.50125200  0.50144700  0.00141100  1
  C  C39  1  0.50096000  0.49979500  0.49974000  1
  C  C40  1  0.25181100  0.25177400  0.00141200  1
  C  C41  1  0.25047200  0.24935500  0.49930000  1
  C  C42  1  0.25016600  0.75069100  0.00103700  1
  C  C43  1  0.25092500  0.74974800  0.49947300  1
  C  C44  1  0.75094800  0.24972500  0.00065500  1
  C  C45  1  0.75087800  0.25004000  0.50007900  1
  C  C46  1  0.75242700  0.75089400  0.00119600  1
  C  C47  1  0.75060500  0.74977300  0.49942800  1
  C  C48  1  0.10256800  0.09723800  0.24707800  1
  C  C49  1  0.10804500  0.10091800  0.75084200  1
  C  C50  1  0.10792900  0.60015100  0.24845600  1
  C  C51  1  0.10738900  0.59938900  0.75055300  1
  C  C52  1  0.60820500  0.09888300  0.24900600  1
  C  C53  1  0.60778500  0.10103300  0.75045600  1
  C  C54  1  0.60363700  0.59900900  0.24751500  1
  C  C55  1  0.60849700  0.59946800  0.75247500  1
  C  C56  1  0.35607900  0.40106600  0.24794300  1
  C  C57  1  0.35908400  0.40055400  0.75074800  1
  C  C58  1  0.35393900  0.89777500  0.24805700  1
  C  C59  1  0.35762200  0.90076600  0.75044200  1
  C  C60  1  0.85648300  0.39907200  0.24895300  1
  C  C61  1  0.85584800  0.40034300  0.75196800  1
  C  C62  1  0.85700400  0.89957200  0.24673900  1
  C  C63  1  0.85790800  0.90067600  0.75091500  1
  C  C64  1  0.10877100  0.11608800  0.47217400  1
  C  C65  1  0.10857800  0.11750400  0.97352600  1
  C  C66  1  0.10884200  0.61678300  0.47280800  1
  C  C67  1  0.10962200  0.61786500  0.97570900  1
  C  C68  1  0.60900800  0.11605100  0.47231700  1
  C  C69  1  0.60922600  0.11632900  0.97343600  1
  C  C70  1  0.60918400  0.61715800  0.47379800  1
  C  C71  1  0.61023900  0.61491500  0.97177600  1
  C  C72  1  0.13829900  0.38677300  0.02978600  1
  C  C73  1  0.13652200  0.38354500  0.52684400  1
  C  C74  1  0.13393200  0.88129200  0.03168400  1
  C  C75  1  0.13577100  0.88315700  0.52535100  1
  C  C76  1  0.63354200  0.38154100  0.02455200  1
  C  C77  1  0.63575300  0.38312400  0.52651000  1
  C  C78  1  0.63907600  0.88602400  0.02930500  1
  C  C79  1  0.63652200  0.88394400  0.52643800  1
  C  C80  1  0.35869800  0.10595200  0.47272300  1
  C  C81  1  0.36060000  0.10840000  0.97407400  1
  C  C82  1  0.35938100  0.60660400  0.47333500  1
  C  C83  1  0.35923300  0.60741400  0.97379400  1
  C  C84  1  0.85963600  0.10725900  0.47376500  1
  C  C85  1  0.85842300  0.10504000  0.97503400  1
  C  C86  1  0.85938900  0.60677800  0.47313600  1
  C  C87  1  0.85480500  0.60207800  0.96979400  1
  C  C88  1  0.38471600  0.40032500  0.03112700  1
  C  C89  1  0.38548700  0.39164100  0.52484500  1
  C  C90  1  0.38437100  0.89430300  0.02670200  1
  C  C91  1  0.38682300  0.89285800  0.52696100  1
  C  C92  1  0.88427100  0.39293200  0.02515200  1
  C  C93  1  0.88607400  0.39320400  0.52654100  1
  C  C94  1  0.88855200  0.89723100  0.03387800  1
  C  C95  1  0.88557100  0.89219000  0.52491200  1
  C  C96  1  0.11042800  0.12553200  0.14221600  1
  C  C97  1  0.10594100  0.12260800  0.64133500  1
  C  C98  1  0.11248600  0.62581300  0.14159800  1
  C  C99  1  0.10588900  0.62258800  0.64165000  1
  C  C100  1  0.61485200  0.12288900  0.14228000  1
  C  C101  1  0.60581600  0.12321800  0.64117900  1
  C  C102  1  0.61325600  0.62446200  0.14178100  1
  C  C103  1  0.60652100  0.62111400  0.64270300  1
  C  C104  1  0.46378300  0.37806000  0.35734300  1
  C  C105  1  0.47233100  0.37796700  0.85810500  1
  C  C106  1  0.46168700  0.87721900  0.35799300  1
  C  C107  1  0.46450800  0.87723400  0.85935600  1
  C  C108  1  0.96413200  0.37683500  0.35830800  1
  C  C109  1  0.96911500  0.37670400  0.85906300  1
  C  C110  1  0.96404500  0.87764500  0.35671900  1
  C  C111  1  0.96590400  0.87774600  0.86008900  1
  C  C112  1  0.35992000  0.26676600  0.14212100  1
  C  C113  1  0.35708400  0.26894700  0.64143800  1
  C  C114  1  0.36008700  0.76544600  0.14177200  1
  C  C115  1  0.35602000  0.76914900  0.64157700  1
  C  C116  1  0.85570100  0.26640900  0.14063800  1
  C  C117  1  0.85413500  0.26993200  0.64217600  1
  C  C118  1  0.86753600  0.76625400  0.14233800  1
  C  C119  1  0.85639800  0.76921300  0.64177300  1
  C  C120  1  0.21178500  0.22800900  0.35669700  1
  C  C121  1  0.21873300  0.23224800  0.85915500  1
  C  C122  1  0.21499500  0.73148100  0.35814300  1
  C  C123  1  0.21397300  0.73174300  0.85938800  1
  C  C124  1  0.71446700  0.23117000  0.35816200  1
  C  C125  1  0.71532400  0.23342500  0.85928100  1
  C  C126  1  0.71160800  0.72986500  0.35727900  1
  C  C127  1  0.71661900  0.73370200  0.85980900  1
  C  C128  1  0.42546400  0.06518100  0.25009100  1
  C  C129  1  0.42480600  0.06782600  0.75018600  1
  C  C130  1  0.41751000  0.56825300  0.24427300  1
  C  C131  1  0.42403700  0.56805700  0.75000500  1
  C  C132  1  0.91730700  0.06814400  0.24457000  1
  C  C133  1  0.92467000  0.06806100  0.75055300  1
  C  C134  1  0.92584400  0.56620500  0.24963400  1
  C  C135  1  0.92393900  0.56650000  0.75057400  1
  C  C136  1  0.17405600  0.43277400  0.24992300  1
  C  C137  1  0.17587800  0.43267700  0.75041500  1
  C  C138  1  0.16789200  0.92780900  0.24456800  1
  C  C139  1  0.17438800  0.93293800  0.75023800  1
  C  C140  1  0.67345000  0.43319700  0.24954200  1
  C  C141  1  0.67375300  0.43221500  0.75614000  1
  C  C142  1  0.67544900  0.93198600  0.25004400  1
  C  C143  1  0.67448400  0.93332600  0.74975400  1
