# generated using pymatgen
data_CuNiC12
_symmetry_space_group_name_H-M   'P 1'
_cell_length_a   6.89304090
_cell_length_b   6.89304090
_cell_length_c   5.49907400
_cell_angle_alpha   90.00000000
_cell_angle_beta   90.00000000
_cell_angle_gamma   133.17814728
_symmetry_Int_Tables_number   1
_chemical_formula_structural   CuNiC12
_chemical_formula_sum   'Cu1 Ni1 C12'
_cell_volume   190.53536668
_cell_formula_units_Z   1
loop_
 _symmetry_equiv_pos_site_id
 _symmetry_equiv_pos_as_xyz
  1  'x, y, z'
loop_
 _atom_site_type_symbol
 _atom_site_label
 _atom_site_symmetry_multiplicity
 _atom_site_fract_x
 _atom_site_fract_y
 _atom_site_fract_z
 _atom_site_occupancy
  C  C0  1  0.85543800  0.14456200  0.50000000  1
  C  C1  1  0.64382600  0.35617400  0.00000000  1
  C  C2  1  0.36037200  0.63962800  0.00000000  1
  C  C3  1  0.13902300  0.86097700  0.50000000  1
  Ni  Ni4  1  0.50042600  0.49957400  0.50000000  1
  Cu  Cu5  1  0.99736900  0.00263100  0.00000000  1
  C  C6  1  0.75431700  0.75353000  0.24755900  1
  C  C7  1  0.24647000  0.24568300  0.75244100  1
  C  C8  1  0.75431700  0.75353000  0.75244100  1
  C  C9  1  0.24647000  0.24568300  0.24755900  1
  C  C10  1  0.17740600  0.82259400  0.00000000  1
  C  C11  1  0.66073900  0.33926100  0.50000000  1
  C  C12  1  0.32867100  0.67132900  0.50000000  1
  C  C13  1  0.83515600  0.16484400  0.00000000  1
