# generated using pymatgen
data_Cu2Ni5C4
_symmetry_space_group_name_H-M   'P 1'
_cell_length_a   14.59673900
_cell_length_b   5.67711000
_cell_length_c   7.14277300
_cell_angle_alpha   90.00000000
_cell_angle_beta   90.00000000
_cell_angle_gamma   90.00000000
_symmetry_Int_Tables_number   1
_chemical_formula_structural   Cu2Ni5C4
_chemical_formula_sum   'Cu8 Ni20 C16'
_cell_volume   591.90226263
_cell_formula_units_Z   4
loop_
 _symmetry_equiv_pos_site_id
 _symmetry_equiv_pos_as_xyz
  1  'x, y, z'
loop_
 _atom_site_type_symbol
 _atom_site_label
 _atom_site_symmetry_multiplicity
 _atom_site_fract_x
 _atom_site_fract_y
 _atom_site_fract_z
 _atom_site_occupancy
  C  C0  1  0.95393700  0.25000000  0.35190600  1
  C  C1  1  0.45393700  0.25000000  0.14809400  1
  C  C2  1  0.04606300  0.75000000  0.64809400  1
  C  C3  1  0.54606300  0.75000000  0.85190600  1
  Ni  Ni4  1  0.06862100  0.10247400  0.09811100  1
  Ni  Ni5  1  0.56862100  0.39752600  0.40188900  1
  Ni  Ni6  1  0.93137900  0.60247400  0.90188900  1
  Ni  Ni7  1  0.43137900  0.89752600  0.59811100  1
  Ni  Ni8  1  0.93137900  0.89752600  0.90188900  1
  Ni  Ni9  1  0.43137900  0.60247400  0.59811100  1
  Ni  Ni10  1  0.06862100  0.39752600  0.09811100  1
  Ni  Ni11  1  0.56862100  0.10247400  0.40188900  1
  Ni  Ni12  1  0.16894400  0.40003900  0.35012700  1
  Ni  Ni13  1  0.66894400  0.09996100  0.14987300  1
  Ni  Ni14  1  0.83105600  0.90003900  0.64987300  1
  Ni  Ni15  1  0.33105600  0.59996100  0.85012700  1
  Ni  Ni16  1  0.83105600  0.59996100  0.64987300  1
  Ni  Ni17  1  0.33105600  0.90003900  0.85012700  1
  Ni  Ni18  1  0.16894400  0.09996100  0.35012700  1
  Ni  Ni19  1  0.66894400  0.40003900  0.14987300  1
  Ni  Ni20  1  0.21441600  0.25000000  0.16418000  1
  Ni  Ni21  1  0.71441600  0.25000000  0.33582000  1
  Ni  Ni22  1  0.78558400  0.75000000  0.83582000  1
  Ni  Ni23  1  0.28558400  0.75000000  0.66418000  1
  Cu  Cu24  1  0.07166600  0.25000000  0.18284100  1
  Cu  Cu25  1  0.57166600  0.25000000  0.31715900  1
  Cu  Cu26  1  0.92833400  0.75000000  0.81715900  1
  Cu  Cu27  1  0.42833400  0.75000000  0.68284100  1
  Cu  Cu28  1  0.16200700  0.25000000  0.26641100  1
  Cu  Cu29  1  0.66200700  0.25000000  0.23358900  1
  Cu  Cu30  1  0.83799300  0.75000000  0.73358900  1
  Cu  Cu31  1  0.33799300  0.75000000  0.76641100  1
  C  C32  1  0.03918600  0.25000000  0.62238200  1
  C  C33  1  0.53918600  0.25000000  0.87761800  1
  C  C34  1  0.96081400  0.75000000  0.37761800  1
  C  C35  1  0.46081400  0.75000000  0.12238200  1
  C  C36  1  0.87843600  0.25000000  0.06795900  1
  C  C37  1  0.37843600  0.25000000  0.43204100  1
  C  C38  1  0.12156400  0.75000000  0.93204100  1
  C  C39  1  0.62156400  0.75000000  0.56795900  1
  C  C40  1  0.81963500  0.25000000  0.52859900  1
  C  C41  1  0.31963500  0.25000000  0.97140100  1
  C  C42  1  0.18036500  0.75000000  0.47140100  1
  C  C43  1  0.68036500  0.75000000  0.02859900  1
