# generated using pymatgen
data_Cu5NiC17
_symmetry_space_group_name_H-M   'P 1'
_cell_length_a   12.44442849
_cell_length_b   12.44442849
_cell_length_c   6.56402248
_cell_angle_alpha   75.06739047
_cell_angle_beta   75.06739047
_cell_angle_gamma   126.58825089
_symmetry_Int_Tables_number   1
_chemical_formula_structural   Cu5NiC17
_chemical_formula_sum   'Cu10 Ni2 C34'
_cell_volume   668.71423957
_cell_formula_units_Z   2
loop_
 _symmetry_equiv_pos_site_id
 _symmetry_equiv_pos_as_xyz
  1  'x, y, z'
loop_
 _atom_site_type_symbol
 _atom_site_label
 _atom_site_symmetry_multiplicity
 _atom_site_fract_x
 _atom_site_fract_y
 _atom_site_fract_z
 _atom_site_occupancy
  C  C0  1  0.95049400  0.04910600  0.50112200  1
  C  C1  1  0.04910600  0.95049400  0.00112200  1
  C  C2  1  0.86025600  0.13621800  0.01287400  1
  C  C3  1  0.13621800  0.86025600  0.51287400  1
  C  C4  1  0.64075500  0.32486100  0.65100700  1
  C  C5  1  0.32486100  0.64075500  0.15100700  1
  C  C6  1  0.78178000  0.51576500  0.54960600  1
  C  C7  1  0.51576500  0.78178000  0.04960600  1
  C  C8  1  0.70829900  0.21877600  0.45267100  1
  C  C9  1  0.21877600  0.70829900  0.95267100  1
  C  C10  1  0.62877700  0.07184700  0.87030100  1
  C  C11  1  0.07184700  0.62877700  0.37030100  1
  C  C12  1  0.54399700  0.99098500  0.16570400  1
  C  C13  1  0.99098500  0.54399700  0.66570400  1
  C  C14  1  0.61963000  0.48345500  0.39358300  1
  C  C15  1  0.48345500  0.61963000  0.89358300  1
  C  C16  1  0.59399400  0.53779600  0.61567100  1
  C  C17  1  0.53779600  0.59399400  0.11567100  1
  C  C18  1  0.44735600  0.33411300  0.70539700  1
  C  C19  1  0.33411300  0.44735600  0.20539700  1
  C  C20  1  0.69647900  0.36572800  0.96429200  1
  C  C21  1  0.36572800  0.69647900  0.46429200  1
  C  C22  1  0.49828000  0.27232700  0.05902100  1
  C  C23  1  0.27232700  0.49828000  0.55902100  1
  C  C24  1  0.65346600  0.48088200  0.93715500  1
  C  C25  1  0.48088200  0.65346600  0.43715500  1
  C  C26  1  0.57307700  0.44432000  0.59107500  1
  C  C27  1  0.44432000  0.57307700  0.09107500  1
  C  C28  1  0.62371800  0.38057700  0.92693800  1
  C  C29  1  0.38057700  0.62371800  0.42693800  1
  Ni  Ni30  1  0.66154300  0.41692400  0.66882000  1
  Ni  Ni31  1  0.41692400  0.66154300  0.16882000  1
  Cu  Cu32  1  0.11805300  0.20400600  0.00903500  1
  Cu  Cu33  1  0.20400600  0.11805300  0.50903500  1
  Cu  Cu34  1  0.80126600  0.88612900  0.99367300  1
  Cu  Cu35  1  0.88612900  0.80126600  0.49367300  1
  Cu  Cu36  1  0.00960900  0.28144400  0.53200600  1
  Cu  Cu37  1  0.28144400  0.00960900  0.03200600  1
  Cu  Cu38  1  0.69816600  0.94854100  0.49362800  1
  Cu  Cu39  1  0.94854100  0.69816600  0.99362800  1
  Cu  Cu40  1  0.92695300  0.37570400  0.02150100  1
  Cu  Cu41  1  0.37570400  0.92695300  0.52150100  1
  C  C42  1  0.64449600  0.18978700  0.62132500  1
  C  C43  1  0.18978700  0.64449600  0.12132500  1
  C  C44  1  0.61858600  0.01060300  0.02088600  1
  C  C45  1  0.01060300  0.61858600  0.52088600  1
