# generated using pymatgen
data_CuNi3C11
_symmetry_space_group_name_H-M   'P 1'
_cell_length_a   7.18758911
_cell_length_b   7.88945502
_cell_length_c   7.95603373
_cell_angle_alpha   98.32388383
_cell_angle_beta   116.56725508
_cell_angle_gamma   76.89299761
_symmetry_Int_Tables_number   1
_chemical_formula_structural   CuNi3C11
_chemical_formula_sum   'Cu2 Ni6 C22'
_cell_volume   392.51933995
_cell_formula_units_Z   2
loop_
 _symmetry_equiv_pos_site_id
 _symmetry_equiv_pos_as_xyz
  1  'x, y, z'
loop_
 _atom_site_type_symbol
 _atom_site_label
 _atom_site_symmetry_multiplicity
 _atom_site_fract_x
 _atom_site_fract_y
 _atom_site_fract_z
 _atom_site_occupancy
  C  C0  1  0.48635400  0.85120900  0.64538700  1
  C  C1  1  0.51364600  0.14879100  0.35461300  1
  C  C2  1  0.99161900  0.83254000  0.65167800  1
  C  C3  1  0.00838100  0.16746000  0.34832200  1
  Ni  Ni4  1  0.82113000  0.45079400  0.62975200  1
  Ni  Ni5  1  0.17887000  0.54920600  0.37024800  1
  Ni  Ni6  1  0.77827000  0.20552500  0.84069100  1
  Ni  Ni7  1  0.22173000  0.79447500  0.15930900  1
  Ni  Ni8  1  0.18577000  0.20357000  0.84275400  1
  Ni  Ni9  1  0.81423000  0.79643000  0.15724600  1
  Cu  Cu10  1  0.53168800  0.22507100  0.00268400  1
  Cu  Cu11  1  0.46831200  0.77492900  0.99731600  1
  C  C12  1  0.27521100  0.60335900  0.23731500  1
  C  C13  1  0.72478900  0.39664100  0.76268500  1
  C  C14  1  0.03815500  0.16577700  0.93163100  1
  C  C15  1  0.96184500  0.83422300  0.06836900  1
  C  C16  1  0.07815300  0.39488300  0.76563400  1
  C  C17  1  0.92184700  0.60511700  0.23436600  1
  C  C18  1  0.76605500  0.33422900  0.45568000  1
  C  C19  1  0.23394500  0.66577100  0.54432000  1
  C  C20  1  0.22668100  0.35579000  0.37396800  1
  C  C21  1  0.77331900  0.64421000  0.62603200  1
  C  C22  1  0.72655900  0.22455900  0.00704000  1
  C  C23  1  0.27344100  0.77544100  0.99296000  1
  C  C24  1  0.69603100  0.07120900  0.68604000  1
  C  C25  1  0.30396900  0.92879100  0.31396000  1
  C  C26  1  0.39225500  0.22101600  0.02026900  1
  C  C27  1  0.60774500  0.77898400  0.97973100  1
  C  C28  1  0.20020100  0.07125600  0.69281200  1
  C  C29  1  0.79979900  0.92874400  0.30718800  1
