# generated using pymatgen
data_CuNiC14
_symmetry_space_group_name_H-M   'P 1'
_cell_length_a   6.65690760
_cell_length_b   6.62594990
_cell_length_c   10.56389659
_cell_angle_alpha   90.00000000
_cell_angle_beta   90.00000000
_cell_angle_gamma   119.84628858
_symmetry_Int_Tables_number   1
_chemical_formula_structural   CuNiC14
_chemical_formula_sum   'Cu1 Ni1 C14'
_cell_volume   404.15322217
_cell_formula_units_Z   1
loop_
 _symmetry_equiv_pos_site_id
 _symmetry_equiv_pos_as_xyz
  1  'x, y, z'
loop_
 _atom_site_type_symbol
 _atom_site_label
 _atom_site_symmetry_multiplicity
 _atom_site_fract_x
 _atom_site_fract_y
 _atom_site_fract_z
 _atom_site_occupancy
  Ni  Ni0  1  0.17208865  0.33604383  0.12500000  1
  Cu  Cu1  1  0.17227875  0.83613887  0.12500000  1
  C  C2  1  0.16461842  0.33230871  0.62500000  1
  C  C3  1  0.16487404  0.83243652  0.62500000  1
  C  C4  1  0.66340384  0.33587404  0.12500000  1
  C  C5  1  0.66764769  0.33366882  0.62500000  1
  C  C6  1  0.66340384  0.82752879  0.12500000  1
  C  C7  1  0.66764769  0.83397787  0.62500000  1
  C  C8  1  0.33852264  0.16988156  0.38719393  1
  C  C9  1  0.33852264  0.16988156  0.86280607  1
  C  C10  1  0.33852264  0.66864207  0.38719393  1
  C  C11  1  0.33852264  0.66864207  0.86280607  1
  C  C12  1  0.82761920  0.16381010  0.37739809  1
  C  C13  1  0.82761920  0.16381010  0.87260191  1
  C  C14  1  0.82735406  0.66367753  0.38063388  1
  C  C15  1  0.82735406  0.66367753  0.86936612  1
