# generated using pymatgen
data_Cu3Ni5C32
_symmetry_space_group_name_H-M   'P 1'
_cell_length_a   7.84163300
_cell_length_b   7.84195500
_cell_length_c   7.84336313
_cell_angle_alpha   89.98958307
_cell_angle_beta   90.00000000
_cell_angle_gamma   90.00000000
_symmetry_Int_Tables_number   1
_chemical_formula_structural   Cu3Ni5C32
_chemical_formula_sum   'Cu3 Ni5 C32'
_cell_volume   482.31767103
_cell_formula_units_Z   1
loop_
 _symmetry_equiv_pos_site_id
 _symmetry_equiv_pos_as_xyz
  1  'x, y, z'
loop_
 _atom_site_type_symbol
 _atom_site_label
 _atom_site_symmetry_multiplicity
 _atom_site_fract_x
 _atom_site_fract_y
 _atom_site_fract_z
 _atom_site_occupancy
  C  C0  1  0.74971500  0.74971100  0.74912900  1
  C  C1  1  0.25028500  0.74971100  0.74912900  1
  C  C2  1  0.74968500  0.74971200  0.25082600  1
  C  C3  1  0.25031500  0.74971200  0.25082600  1
  C  C4  1  0.74972100  0.25030200  0.25082300  1
  C  C5  1  0.25027900  0.25030200  0.25082300  1
  C  C6  1  0.74968500  0.25032100  0.74910000  1
  C  C7  1  0.25031500  0.25032100  0.74910000  1
  Ni  Ni8  1  0.00000000  0.00046600  0.50043800  1
  Ni  Ni9  1  0.50000000  0.00045200  0.50043600  1
  Ni  Ni10  1  0.50000000  0.49959300  0.99954600  1
  Ni  Ni11  1  0.00000000  0.49954800  0.50043000  1
  Ni  Ni12  1  0.50000000  0.49952300  0.50047000  1
  Cu  Cu13  1  0.00000000  0.00063600  0.99934800  1
  Cu  Cu14  1  0.50000000  0.00065200  0.99933800  1
  Cu  Cu15  1  0.00000000  0.49937600  0.99934200  1
  C  C16  1  0.00000000  0.74969000  0.99980200  1
  C  C17  1  0.50000000  0.74946600  0.99979000  1
  C  C18  1  0.00000000  0.74991200  0.50013300  1
  C  C19  1  0.50000000  0.74977800  0.50014700  1
  C  C20  1  0.00000000  0.25029900  0.99754600  1
  C  C21  1  0.50000000  0.25055500  0.99738100  1
  C  C22  1  0.00000000  0.25007300  0.50283600  1
  C  C23  1  0.50000000  0.25019900  0.50283100  1
  C  C24  1  0.00000000  0.00261100  0.74902800  1
  C  C25  1  0.50000000  0.00263200  0.74908600  1
  C  C26  1  0.00000000  0.00017600  0.25095900  1
  C  C27  1  0.50000000  0.00019400  0.25089400  1
  C  C28  1  0.00000000  0.49738000  0.74909000  1
  C  C29  1  0.50000000  0.49717600  0.74953200  1
  C  C30  1  0.00000000  0.49984500  0.25089800  1
  C  C31  1  0.50000000  0.49985700  0.25048800  1
  C  C32  1  0.74969400  0.00132100  0.99865100  1
  C  C33  1  0.25030600  0.00132100  0.99865100  1
  C  C34  1  0.74992200  0.00151600  0.50150300  1
  C  C35  1  0.25007800  0.00151600  0.50150300  1
  C  C36  1  0.74945000  0.49859400  0.99855900  1
  C  C37  1  0.25055000  0.49859400  0.99855900  1
  C  C38  1  0.74978900  0.49847900  0.50151300  1
  C  C39  1  0.25021100  0.49847900  0.50151300  1
