# generated using pymatgen
data_Cu3NiC6
_symmetry_space_group_name_H-M   'P 1'
_cell_length_a   17.44794660
_cell_length_b   5.75787893
_cell_length_c   5.75787926
_cell_angle_alpha   59.96879094
_cell_angle_beta   60.32304060
_cell_angle_gamma   60.32304807
_symmetry_Int_Tables_number   1
_chemical_formula_structural   Cu3NiC6
_chemical_formula_sum   'Cu12 Ni4 C24'
_cell_volume   410.91717477
_cell_formula_units_Z   4
loop_
 _symmetry_equiv_pos_site_id
 _symmetry_equiv_pos_as_xyz
  1  'x, y, z'
loop_
 _atom_site_type_symbol
 _atom_site_label
 _atom_site_symmetry_multiplicity
 _atom_site_fract_x
 _atom_site_fract_y
 _atom_site_fract_z
 _atom_site_occupancy
  Ni  Ni0  1  0.20319200  0.63002500  0.63002500  1
  Ni  Ni1  1  0.88571300  0.61429800  0.61429800  1
  Ni  Ni2  1  0.46347500  0.36997500  0.36997500  1
  Ni  Ni3  1  0.78095400  0.38570200  0.38570200  1
  Cu  Cu4  1  0.99759600  0.49678800  0.00548100  1
  Cu  Cu5  1  0.33333300  0.50000000  0.00000000  1
  Cu  Cu6  1  0.66907100  0.50321200  0.99451900  1
  Cu  Cu7  1  0.99768000  0.00506000  0.00506000  1
  Cu  Cu8  1  0.33333300  0.00000000  0.00000000  1
  Cu  Cu9  1  0.66898700  0.99494000  0.99494000  1
  Cu  Cu10  1  0.16269200  0.00412400  0.00412400  1
  Cu  Cu11  1  0.50397500  0.99587600  0.99587600  1
  Cu  Cu12  1  0.83333300  0.00000000  0.00000000  1
  Cu  Cu13  1  0.99759600  0.00548100  0.49678800  1
  Cu  Cu14  1  0.33333300  0.00000000  0.50000000  1
  Cu  Cu15  1  0.66907100  0.99451900  0.50321200  1
  C  C16  1  0.08001800  0.75325700  0.75325700  1
  C  C17  1  0.39243900  0.77435000  0.77435100  1
  C  C18  1  0.76160800  0.73836200  0.73836200  1
  C  C19  1  0.07143100  0.24007200  0.80558600  1
  C  C20  1  0.41968500  0.24169700  0.75766800  1
  C  C21  1  0.74219500  0.25128500  0.77059200  1
  C  C22  1  0.07143100  0.80558600  0.24007200  1
  C  C23  1  0.41968500  0.75766800  0.24169800  1
  C  C24  1  0.74219500  0.77059200  0.25128500  1
  C  C25  1  0.07077500  0.24148200  0.24148200  1
  C  C26  1  0.41920800  0.24272100  0.24272100  1
  C  C27  1  0.74203900  0.25171400  0.25171400  1
  C  C28  1  0.24698200  0.75830200  0.24233300  1
  C  C29  1  0.59523500  0.75992700  0.19441400  1
  C  C30  1  0.92447100  0.74871400  0.22940800  1
  C  C31  1  0.27422800  0.22565000  0.22565000  1
  C  C32  1  0.58664900  0.24674200  0.24674300  1
  C  C33  1  0.90505800  0.26163800  0.26163800  1
  C  C34  1  0.24698200  0.24233300  0.75830200  1
  C  C35  1  0.59523500  0.19441400  0.75992800  1
  C  C36  1  0.92447100  0.22940800  0.74871400  1
  C  C37  1  0.24745900  0.75727900  0.75727900  1
  C  C38  1  0.59589200  0.75851800  0.75851800  1
  C  C39  1  0.92462700  0.74828600  0.74828600  1
