# generated using pymatgen
data_Cu2NiC5
_symmetry_space_group_name_H-M   'P 1'
_cell_length_a   7.43387300
_cell_length_b   8.00929900
_cell_length_c   11.78607800
_cell_angle_alpha   90.00000000
_cell_angle_beta   90.00000000
_cell_angle_gamma   90.00000000
_symmetry_Int_Tables_number   1
_chemical_formula_structural   Cu2NiC5
_chemical_formula_sum   'Cu8 Ni4 C20'
_cell_volume   701.74439927
_cell_formula_units_Z   4
loop_
 _symmetry_equiv_pos_site_id
 _symmetry_equiv_pos_as_xyz
  1  'x, y, z'
loop_
 _atom_site_type_symbol
 _atom_site_label
 _atom_site_symmetry_multiplicity
 _atom_site_fract_x
 _atom_site_fract_y
 _atom_site_fract_z
 _atom_site_occupancy
  Ni  Ni0  1  0.02400200  0.49979900  0.82241400  1
  Ni  Ni1  1  0.97599800  0.99979900  0.17758600  1
  Ni  Ni2  1  0.52400200  0.99979900  0.67758600  1
  Ni  Ni3  1  0.47599800  0.49979900  0.32241400  1
  Cu  Cu4  1  0.57491000  0.24958900  0.99215100  1
  Cu  Cu5  1  0.92509000  0.24958900  0.49215100  1
  Cu  Cu6  1  0.42509000  0.74958900  0.00784900  1
  Cu  Cu7  1  0.07491000  0.74958900  0.50784900  1
  Cu  Cu8  1  0.47993400  0.00145600  0.31998500  1
  Cu  Cu9  1  0.52006600  0.50145600  0.68001500  1
  Cu  Cu10  1  0.97993400  0.50145600  0.18001500  1
  Cu  Cu11  1  0.02006600  0.00145600  0.81998500  1
  C  C12  1  0.34294800  0.04244800  0.09930100  1
  C  C13  1  0.16998900  0.45457400  0.59478800  1
  C  C14  1  0.65705200  0.54244800  0.90069900  1
  C  C15  1  0.83001100  0.95457400  0.40521200  1
  C  C16  1  0.66998900  0.95457400  0.90521200  1
  C  C17  1  0.84294800  0.54244800  0.40069900  1
  C  C18  1  0.33001100  0.45457400  0.09478800  1
  C  C19  1  0.15705200  0.04244800  0.59930100  1
  C  C20  1  0.69968100  0.25094400  0.21590500  1
  C  C21  1  0.80031900  0.25094400  0.71590500  1
  C  C22  1  0.30031900  0.75094400  0.78409500  1
  C  C23  1  0.19968100  0.75094400  0.28409500  1
  C  C24  1  0.32966000  0.24971100  0.81279800  1
  C  C25  1  0.17034000  0.24971100  0.31279800  1
  C  C26  1  0.67034000  0.74971100  0.18720200  1
  C  C27  1  0.82966000  0.74971100  0.68720200  1
  C  C28  1  0.95943600  0.25147900  0.99894800  1
  C  C29  1  0.54056400  0.25147900  0.49894800  1
  C  C30  1  0.04056400  0.75147900  0.00105200  1
  C  C31  1  0.45943600  0.75147900  0.50105200  1
