# generated using pymatgen
data_Cu2NiC20
_symmetry_space_group_name_H-M   'P 1'
_cell_length_a   9.87889026
_cell_length_b   9.87889026
_cell_length_c   5.80234000
_cell_angle_alpha   90.00000000
_cell_angle_beta   90.00000000
_cell_angle_gamma   120.00000173
_symmetry_Int_Tables_number   1
_chemical_formula_structural   Cu2NiC20
_chemical_formula_sum   'Cu2 Ni1 C20'
_cell_volume   490.39961410
_cell_formula_units_Z   1
loop_
 _symmetry_equiv_pos_site_id
 _symmetry_equiv_pos_as_xyz
  1  'x, y, z'
loop_
 _atom_site_type_symbol
 _atom_site_label
 _atom_site_symmetry_multiplicity
 _atom_site_fract_x
 _atom_site_fract_y
 _atom_site_fract_z
 _atom_site_occupancy
  C  C0  1  0.02408000  0.46922500  0.25515300  1
  C  C1  1  0.53077500  0.55485500  0.25515300  1
  C  C2  1  0.44514500  0.97592000  0.25515300  1
  C  C3  1  0.30962500  0.19887500  0.75504200  1
  C  C4  1  0.80112500  0.11075000  0.75504200  1
  C  C5  1  0.88925000  0.69037500  0.75504200  1
  Ni  Ni6  1  0.66666700  0.33333300  0.53734500  1
  Cu  Cu7  1  0.00000000  0.00000000  0.17912700  1
  Cu  Cu8  1  0.33333300  0.66666700  0.67329100  1
  C  C9  1  0.00000000  0.00000000  0.55873000  1
  C  C10  1  0.33333300  0.66666700  0.05259500  1
  C  C11  1  0.92863400  0.43364100  0.79185100  1
  C  C12  1  0.56635900  0.49499300  0.79185100  1
  C  C13  1  0.50500700  0.07136600  0.79185100  1
  C  C14  1  0.40431100  0.23023000  0.29678200  1
  C  C15  1  0.76977000  0.17408100  0.29678200  1
  C  C16  1  0.82591900  0.59568900  0.29678200  1
  C  C17  1  0.18715000  0.75638300  0.51072700  1
  C  C18  1  0.24361700  0.43076700  0.51072700  1
  C  C19  1  0.56923300  0.81285000  0.51072700  1
  C  C20  1  0.14755700  0.91148700  0.01575600  1
  C  C21  1  0.08851300  0.23607000  0.01575600  1
  C  C22  1  0.76393000  0.85244300  0.01575600  1
