# generated using pymatgen
data_CuNiC15
_symmetry_space_group_name_H-M   'P 1'
_cell_length_a   8.63256500
_cell_length_b   8.63256500
_cell_length_c   11.80018900
_cell_angle_alpha   90.00000000
_cell_angle_beta   90.00000000
_cell_angle_gamma   90.00000000
_symmetry_Int_Tables_number   1
_chemical_formula_structural   CuNiC15
_chemical_formula_sum   'Cu4 Ni4 C60'
_cell_volume   879.36399056
_cell_formula_units_Z   4
loop_
 _symmetry_equiv_pos_site_id
 _symmetry_equiv_pos_as_xyz
  1  'x, y, z'
loop_
 _atom_site_type_symbol
 _atom_site_label
 _atom_site_symmetry_multiplicity
 _atom_site_fract_x
 _atom_site_fract_y
 _atom_site_fract_z
 _atom_site_occupancy
  Ni  Ni0  1  0.22579100  0.77420900  0.50000000  1
  Ni  Ni1  1  0.77420900  0.22579100  0.50000000  1
  Ni  Ni2  1  0.27420900  0.27420900  0.00000000  1
  Ni  Ni3  1  0.72579100  0.72579100  0.00000000  1
  Cu  Cu4  1  0.64485400  0.64485400  0.50000000  1
  Cu  Cu5  1  0.35514600  0.35514600  0.50000000  1
  Cu  Cu6  1  0.85514600  0.14485400  0.00000000  1
  Cu  Cu7  1  0.14485400  0.85514600  0.00000000  1
  C  C8  1  0.40142100  0.59857900  0.29414500  1
  C  C9  1  0.59857900  0.40142100  0.29414500  1
  C  C10  1  0.09857900  0.09857900  0.79414500  1
  C  C11  1  0.90142100  0.90142100  0.79414500  1
  C  C12  1  0.59857900  0.40142100  0.70585500  1
  C  C13  1  0.40142100  0.59857900  0.70585500  1
  C  C14  1  0.90142100  0.90142100  0.20585500  1
  C  C15  1  0.09857900  0.09857900  0.20585500  1
  C  C16  1  0.18199600  0.81800400  0.25296400  1
  C  C17  1  0.81800400  0.18199600  0.25296400  1
  C  C18  1  0.31800400  0.31800400  0.75296400  1
  C  C19  1  0.68199600  0.68199600  0.75296400  1
  C  C20  1  0.81800400  0.18199600  0.74703600  1
  C  C21  1  0.18199600  0.81800400  0.74703600  1
  C  C22  1  0.68199600  0.68199600  0.24703600  1
  C  C23  1  0.31800400  0.31800400  0.24703600  1
  C  C24  1  0.00000000  0.50000000  0.50000000  1
  C  C25  1  0.50000000  0.00000000  0.00000000  1
  C  C26  1  0.50000000  0.00000000  0.50000000  1
  C  C27  1  0.00000000  0.50000000  0.00000000  1
  C  C28  1  0.13946600  0.53625100  0.32051500  1
  C  C29  1  0.86053400  0.46374900  0.32051500  1
  C  C30  1  0.36053400  0.03625100  0.82051500  1
  C  C31  1  0.63946600  0.96374900  0.82051500  1
  C  C32  1  0.86053400  0.46374900  0.67948500  1
  C  C33  1  0.13946600  0.53625100  0.67948500  1
  C  C34  1  0.63946600  0.96374900  0.17948500  1
  C  C35  1  0.36053400  0.03625100  0.17948500  1
  C  C36  1  0.53625100  0.13946600  0.32051500  1
  C  C37  1  0.46374900  0.86053400  0.32051500  1
  C  C38  1  0.03625100  0.36053400  0.82051500  1
  C  C39  1  0.96374900  0.63946600  0.82051500  1
  C  C40  1  0.46374900  0.86053400  0.67948500  1
  C  C41  1  0.53625100  0.13946600  0.67948500  1
  C  C42  1  0.96374900  0.63946600  0.17948500  1
  C  C43  1  0.03625100  0.36053400  0.17948500  1
  C  C44  1  0.93022800  0.72407500  0.37293000  1
  C  C45  1  0.06977200  0.27592500  0.37293000  1
  C  C46  1  0.56977200  0.22407500  0.87293000  1
  C  C47  1  0.43022800  0.77592500  0.87293000  1
  C  C48  1  0.06977200  0.27592500  0.62707000  1
  C  C49  1  0.93022800  0.72407500  0.62707000  1
  C  C50  1  0.43022800  0.77592500  0.12707000  1
  C  C51  1  0.56977200  0.22407500  0.12707000  1
  C  C52  1  0.72407500  0.93022800  0.37293000  1
  C  C53  1  0.27592500  0.06977200  0.37293000  1
  C  C54  1  0.22407500  0.56977200  0.87293000  1
  C  C55  1  0.77592500  0.43022800  0.87293000  1
  C  C56  1  0.27592500  0.06977200  0.62707000  1
  C  C57  1  0.72407500  0.93022800  0.62707000  1
  C  C58  1  0.77592500  0.43022800  0.12707000  1
  C  C59  1  0.22407500  0.56977200  0.12707000  1
  C  C60  1  0.50000000  0.50000000  0.11614400  1
  C  C61  1  0.00000000  0.00000000  0.61614400  1
  C  C62  1  0.50000000  0.50000000  0.88385600  1
  C  C63  1  0.00000000  0.00000000  0.38385600  1
  C  C64  1  0.87761500  0.87761500  0.50000000  1
  C  C65  1  0.12238500  0.12238500  0.50000000  1
  C  C66  1  0.62238500  0.37761500  0.00000000  1
  C  C67  1  0.37761500  0.62238500  0.00000000  1
