# generated using pymatgen
data_Cu(NiC2)2
_symmetry_space_group_name_H-M   'P 1'
_cell_length_a   6.15986900
_cell_length_b   7.39995400
_cell_length_c   26.38757300
_cell_angle_alpha   90.00000000
_cell_angle_beta   90.00000000
_cell_angle_gamma   90.00000000
_symmetry_Int_Tables_number   1
_chemical_formula_structural   Cu(NiC2)2
_chemical_formula_sum   'Cu8 Ni16 C32'
_cell_volume   1202.81807050
_cell_formula_units_Z   8
loop_
 _symmetry_equiv_pos_site_id
 _symmetry_equiv_pos_as_xyz
  1  'x, y, z'
loop_
 _atom_site_type_symbol
 _atom_site_label
 _atom_site_symmetry_multiplicity
 _atom_site_fract_x
 _atom_site_fract_y
 _atom_site_fract_z
 _atom_site_occupancy
  Ni  Ni0  1  0.37599100  0.25139300  0.28970700  1
  Ni  Ni1  1  0.37615900  0.24933200  0.78989200  1
  Ni  Ni2  1  0.37599100  0.74860700  0.28970700  1
  Ni  Ni3  1  0.37615900  0.75066800  0.78989200  1
  Ni  Ni4  1  0.37624400  0.24870800  0.03990200  1
  Ni  Ni5  1  0.37590300  0.24912900  0.53971200  1
  Ni  Ni6  1  0.37624400  0.75129200  0.03990200  1
  Ni  Ni7  1  0.37590300  0.75087100  0.53971200  1
  Ni  Ni8  1  0.87615900  0.25066800  0.46010800  1
  Ni  Ni9  1  0.87624400  0.25129200  0.21009800  1
  Ni  Ni10  1  0.87615900  0.74933200  0.46010800  1
  Ni  Ni11  1  0.87624400  0.74870800  0.21009800  1
  Ni  Ni12  1  0.87599100  0.24860700  0.96029300  1
  Ni  Ni13  1  0.87590300  0.25087100  0.71028800  1
  Ni  Ni14  1  0.87599100  0.75139300  0.96029300  1
  Ni  Ni15  1  0.87590300  0.74912900  0.71028800  1
  Cu  Cu16  1  0.37411400  0.50000000  0.16796700  1
  Cu  Cu17  1  0.37464400  0.00000000  0.66794500  1
  Cu  Cu18  1  0.37527400  0.00000000  0.41748900  1
  Cu  Cu19  1  0.37351900  0.00000000  0.91834400  1
  Cu  Cu20  1  0.87464400  0.50000000  0.58205500  1
  Cu  Cu21  1  0.87411400  0.00000000  0.08203300  1
  Cu  Cu22  1  0.87351900  0.50000000  0.33165600  1
  Cu  Cu23  1  0.87527400  0.50000000  0.83251100  1
  C  C24  1  0.00553400  0.26008700  0.04071800  1
  C  C25  1  0.99839100  0.00000000  0.16783800  1
  C  C26  1  0.00553400  0.73991300  0.04071800  1
  C  C27  1  0.00535100  0.23969700  0.29055100  1
  C  C28  1  0.98913600  0.50000000  0.16623800  1
  C  C29  1  0.00541700  0.24163900  0.54045300  1
  C  C30  1  0.00535100  0.76030300  0.29055100  1
  C  C31  1  0.99050900  0.00000000  0.66762900  1
  C  C32  1  0.99709000  0.50000000  0.66728600  1
  C  C33  1  0.00541700  0.75836100  0.54045300  1
  C  C34  1  0.00559700  0.24201200  0.79060000  1
  C  C35  1  0.00559700  0.75798800  0.79060000  1
  C  C36  1  0.50559700  0.25798800  0.45940000  1
  C  C37  1  0.50535100  0.26030300  0.95944900  1
  C  C38  1  0.50553400  0.23991300  0.20928200  1
  C  C39  1  0.50541700  0.25836100  0.70954700  1
  C  C40  1  0.50559700  0.74201200  0.45940000  1
  C  C41  1  0.50535100  0.73969700  0.95944900  1
  C  C42  1  0.50541700  0.74163900  0.70954700  1
  C  C43  1  0.50553400  0.76008700  0.20928200  1
  C  C44  1  0.48913600  0.00000000  0.08376200  1
  C  C45  1  0.49839100  0.50000000  0.08216200  1
  C  C46  1  0.49709000  0.00000000  0.58271400  1
  C  C47  1  0.49050900  0.50000000  0.58237100  1
  C  C48  1  0.49701200  0.00000000  0.83288300  1
  C  C49  1  0.49089500  0.50000000  0.83266500  1
  C  C50  1  0.49834500  0.00000000  0.33188400  1
  C  C51  1  0.48868300  0.50000000  0.33360400  1
  C  C52  1  0.99089500  0.00000000  0.41733500  1
  C  C53  1  0.99701200  0.50000000  0.41711700  1
  C  C54  1  0.99834500  0.50000000  0.91811600  1
  C  C55  1  0.98868300  0.00000000  0.91639600  1
