# generated using pymatgen
data_Cu12Ni2C35
_symmetry_space_group_name_H-M   'P 1'
_cell_length_a   10.36584028
_cell_length_b   10.36586579
_cell_length_c   14.36311534
_cell_angle_alpha   90.00412559
_cell_angle_beta   90.00407291
_cell_angle_gamma   59.99793436
_symmetry_Int_Tables_number   1
_chemical_formula_structural   Cu12Ni2C35
_chemical_formula_sum   'Cu24 Ni4 C70'
_cell_volume   1336.53498882
_cell_formula_units_Z   2
loop_
 _symmetry_equiv_pos_site_id
 _symmetry_equiv_pos_as_xyz
  1  'x, y, z'
loop_
 _atom_site_type_symbol
 _atom_site_label
 _atom_site_symmetry_multiplicity
 _atom_site_fract_x
 _atom_site_fract_y
 _atom_site_fract_z
 _atom_site_occupancy
  C  C0  1  0.00008419  0.99992187  0.25000011  1
  C  C1  1  0.00002111  0.99997577  0.74999908  1
  C  C2  1  0.33336265  0.33328916  0.49995004  1
  C  C3  1  0.66671785  0.66666098  0.00004538  1
  C  C4  1  0.33335539  0.33373720  0.24561347  1
  C  C5  1  0.33333688  0.33332345  0.75414270  1
  C  C6  1  0.66667267  0.66668590  0.74585883  1
  C  C7  1  0.66626566  0.66666619  0.25438950  1
  C  C8  1  0.50023168  0.00002598  0.24999216  1
  C  C9  1  0.99998335  0.49976241  0.25000755  1
  Ni  Ni10  1  0.50056927  0.49944000  0.24999918  1
  Ni  Ni11  1  0.49935127  0.00000314  0.74999679  1
  Ni  Ni12  1  0.00000521  0.50063982  0.75000264  1
  Ni  Ni13  1  0.50063031  0.49937761  0.75000046  1
  Cu  Cu14  1  0.34974896  0.88776173  0.38859100  1
  Cu  Cu15  1  0.88768901  0.76252416  0.38857957  1
  Cu  Cu16  1  0.76268291  0.34889571  0.38865602  1
  Cu  Cu17  1  0.34896541  0.88857243  0.61134545  1
  Cu  Cu18  1  0.88858995  0.76245641  0.61135103  1
  Cu  Cu19  1  0.76244234  0.34897631  0.61133896  1
  Cu  Cu20  1  0.23754231  0.11141300  0.88864902  1
  Cu  Cu21  1  0.65102643  0.23756047  0.88866138  1
  Cu  Cu22  1  0.11143080  0.65103345  0.88865431  1
  Cu  Cu23  1  0.23747553  0.11231429  0.11141990  1
  Cu  Cu24  1  0.65110606  0.23731995  0.11134402  1
  Cu  Cu25  1  0.11224074  0.65025071  0.11140932  1
  Cu  Cu26  1  0.65468736  0.10967652  0.61221094  1
  Cu  Cu27  1  0.10968272  0.23562519  0.61220473  1
  Cu  Cu28  1  0.23566161  0.65466714  0.61216522  1
  Cu  Cu29  1  0.65405891  0.11036534  0.38785325  1
  Cu  Cu30  1  0.11051474  0.23542734  0.38784263  1
  Cu  Cu31  1  0.23534561  0.65476333  0.38782253  1
  Cu  Cu32  1  0.76457451  0.88948982  0.11215827  1
  Cu  Cu33  1  0.34523717  0.76465830  0.11217769  1
  Cu  Cu34  1  0.88963308  0.34594890  0.11214637  1
  Cu  Cu35  1  0.76437753  0.89032161  0.88779484  1
  Cu  Cu36  1  0.34533226  0.76434242  0.88783565  1
  Cu  Cu37  1  0.89032176  0.34531943  0.88778917  1
  C  C38  1  0.27425399  0.78539011  0.36247187  1
  C  C39  1  0.78448723  0.94029939  0.36222910  1
  C  C40  1  0.94026219  0.27537106  0.36219398  1
  C  C41  1  0.27462406  0.78530200  0.63763168  1
  C  C42  1  0.78532974  0.94006967  0.63766972  1
  C  C43  1  0.94005947  0.27462942  0.63761229  1
  C  C44  1  0.05992915  0.21467328  0.86233092  1
  C  C45  1  0.72537023  0.05994448  0.86238591  1
  C  C46  1  0.21469951  0.72537758  0.86236888  1
  C  C47  1  0.05969915  0.21551615  0.13776957  1
  C  C48  1  0.72462804  0.05974231  0.13780761  1
  C  C49  1  0.21461010  0.72574949  0.13752838  1
  C  C50  1  0.72589643  0.21546364  0.63708387  1
  C  C51  1  0.21544282  0.05864316  0.63714574  1
  C  C52  1  0.05867771  0.72587780  0.63710565  1
  C  C53  1  0.72615122  0.21540199  0.36297705  1
  C  C54  1  0.21625600  0.05847173  0.36280711  1
  C  C55  1  0.05842170  0.72521479  0.36279195  1
  C  C56  1  0.94152929  0.78374423  0.13719328  1
  C  C57  1  0.27478501  0.94158174  0.13720791  1
  C  C58  1  0.78460046  0.27385067  0.13702302  1
  C  C59  1  0.94135848  0.78455736  0.86285413  1
  C  C60  1  0.27412173  0.94132558  0.86289443  1
  C  C61  1  0.78453887  0.27410485  0.86291644  1
  C  C62  1  0.38170796  0.87672688  0.50015291  1
  C  C63  1  0.87671898  0.74166936  0.50013793  1
  C  C64  1  0.74154437  0.38170033  0.50006096  1
  C  C65  1  0.25833117  0.12328121  -0.00013804  1
  C  C66  1  0.61829854  0.25845590  -0.00006102  1
  C  C67  1  0.12327208  0.61829395  -0.00015316  1
  C  C68  1  0.61827901  0.12454751  0.50013699  1
  C  C69  1  0.12450774  0.25713100  0.50013884  1
  C  C70  1  0.25722171  0.61829931  0.50005601  1
  C  C71  1  0.74287006  0.87550245  0.99986115  1
  C  C72  1  0.38170337  0.74277969  -0.00005580  1
  C  C73  1  0.87544479  0.38173097  0.99986304  1
  C  C74  1  0.49443719  0.84671434  0.32721705  1
  C  C75  1  0.84662080  0.65887424  0.32720178  1
  C  C76  1  0.65950922  0.49513300  0.32766440  1
  C  C77  1  0.49530655  0.84534690  0.67236485  1
  C  C78  1  0.84536408  0.65934655  0.67234901  1
  C  C79  1  0.65932777  0.49531555  0.67232406  1
  C  C80  1  0.34065498  0.15463955  0.82765319  1
  C  C81  1  0.50469057  0.34067714  0.82767462  1
  C  C82  1  0.15466201  0.50469163  0.82763401  1
  C  C83  1  0.34112701  0.15338507  0.17279563  1
  C  C84  1  0.50487424  0.34049599  0.17233693  1
  C  C85  1  0.15329427  0.50556203  0.17278351  1
  C  C86  1  0.50345797  0.15621256  0.66939691  1
  C  C87  1  0.15621541  0.34033389  0.66938929  1
  C  C88  1  0.34035955  0.50343884  0.66935649  1
  C  C89  1  0.50423209  0.15473840  0.33028174  1
  C  C90  1  0.15468328  0.34108550  0.33032392  1
  C  C91  1  0.34023970  0.50353538  0.33065511  1
  C  C92  1  0.65891197  0.84532554  0.16967677  1
  C  C93  1  0.49646540  0.65977019  0.16934543  1
  C  C94  1  0.84526464  0.49577267  0.16971849  1
  C  C95  1  0.65966362  0.84379331  0.83061103  1
  C  C96  1  0.49656163  0.65965011  0.83064355  1
  C  C97  1  0.84378845  0.49654716  0.83060280  1
