# generated using pymatgen
data_CuNiC3
_symmetry_space_group_name_H-M   'P 1'
_cell_length_a   4.01954800
_cell_length_b   11.10621487
_cell_length_c   21.73417121
_cell_angle_alpha   101.41553686
_cell_angle_beta   90.00000000
_cell_angle_gamma   90.00000000
_symmetry_Int_Tables_number   1
_chemical_formula_structural   CuNiC3
_chemical_formula_sum   'Cu8 Ni8 C24'
_cell_volume   951.06203180
_cell_formula_units_Z   8
loop_
 _symmetry_equiv_pos_site_id
 _symmetry_equiv_pos_as_xyz
  1  'x, y, z'
loop_
 _atom_site_type_symbol
 _atom_site_label
 _atom_site_symmetry_multiplicity
 _atom_site_fract_x
 _atom_site_fract_y
 _atom_site_fract_z
 _atom_site_occupancy
  Ni  Ni0  1  0.25000000  0.69772500  0.76561600  1
  Ni  Ni1  1  0.75000000  0.30227500  0.23438400  1
  Ni  Ni2  1  0.25000000  0.09221600  0.86352000  1
  Ni  Ni3  1  0.75000000  0.90778400  0.13648000  1
  Ni  Ni4  1  0.25000000  0.30840800  0.73223800  1
  Ni  Ni5  1  0.75000000  0.69159200  0.26776200  1
  Ni  Ni6  1  0.25000000  0.19947800  0.53599200  1
  Ni  Ni7  1  0.75000000  0.80052200  0.46400800  1
  Cu  Cu8  1  0.25000000  0.44759300  0.41707800  1
  Cu  Cu9  1  0.75000000  0.55240700  0.58292200  1
  Cu  Cu10  1  0.25000000  0.02924500  0.35107200  1
  Cu  Cu11  1  0.75000000  0.97075500  0.64892800  1
  Cu  Cu12  1  0.25000000  0.17932600  0.04692700  1
  Cu  Cu13  1  0.75000000  0.82067400  0.95307300  1
  Cu  Cu14  1  0.25000000  0.52316100  0.08808100  1
  Cu  Cu15  1  0.75000000  0.47683900  0.91191900  1
  C  C16  1  0.25000000  0.91371700  0.03668600  1
  C  C17  1  0.75000000  0.08628300  0.96331400  1
  C  C18  1  0.25000000  0.79468600  0.36601300  1
  C  C19  1  0.75000000  0.20531400  0.63398700  1
  C  C20  1  0.25000000  0.25441000  0.32430600  1
  C  C21  1  0.75000000  0.74559000  0.67569400  1
  C  C22  1  0.25000000  0.36459000  0.96376800  1
  C  C23  1  0.75000000  0.63541000  0.03623200  1
  C  C24  1  0.25000000  0.49426800  0.22107100  1
  C  C25  1  0.75000000  0.50573200  0.77892900  1
  C  C26  1  0.25000000  0.74779300  0.17386500  1
  C  C27  1  0.75000000  0.25220700  0.82613500  1
  C  C28  1  0.25000000  0.12393900  0.16383200  1
  C  C29  1  0.75000000  0.87606100  0.83616800  1
  C  C30  1  0.25000000  0.64476000  0.51438900  1
  C  C31  1  0.75000000  0.35524000  0.48561100  1
  C  C32  1  0.25000000  0.94231300  0.55622600  1
  C  C33  1  0.75000000  0.05768700  0.44377400  1
  C  C34  1  0.25000000  0.03741800  0.72859800  1
  C  C35  1  0.75000000  0.96258200  0.27140200  1
  C  C36  1  0.25000000  0.45273500  0.63343200  1
  C  C37  1  0.75000000  0.54726500  0.36656800  1
  C  C38  1  0.25000000  0.65767400  0.90134100  1
  C  C39  1  0.75000000  0.34232600  0.09865900  1
