# generated using pymatgen
data_CuNi14C17
_symmetry_space_group_name_H-M   'P 1'
_cell_length_a   4.38115700
_cell_length_b   8.77986600
_cell_length_c   8.78427400
_cell_angle_alpha   90.00000000
_cell_angle_beta   90.00000000
_cell_angle_gamma   90.00000000
_symmetry_Int_Tables_number   1
_chemical_formula_structural   CuNi14C17
_chemical_formula_sum   'Cu1 Ni14 C17'
_cell_volume   337.89563232
_cell_formula_units_Z   1
loop_
 _symmetry_equiv_pos_site_id
 _symmetry_equiv_pos_as_xyz
  1  'x, y, z'
loop_
 _atom_site_type_symbol
 _atom_site_label
 _atom_site_symmetry_multiplicity
 _atom_site_fract_x
 _atom_site_fract_y
 _atom_site_fract_z
 _atom_site_occupancy
  C  C0  1  0.00000000  0.00000000  0.00000000  1
  Ni  Ni1  1  0.00000000  0.00000000  0.50000000  1
  Ni  Ni2  1  0.00000000  0.50000000  0.50000000  1
  Ni  Ni3  1  0.50000000  0.73820300  0.00000000  1
  Ni  Ni4  1  0.50000000  0.26179700  0.00000000  1
  Ni  Ni5  1  0.50000000  0.74709100  0.50000000  1
  Ni  Ni6  1  0.50000000  0.25290900  0.50000000  1
  Ni  Ni7  1  0.50000000  0.00000000  0.73622400  1
  Ni  Ni8  1  0.50000000  0.50000000  0.74401000  1
  Ni  Ni9  1  0.50000000  0.00000000  0.26377600  1
  Ni  Ni10  1  0.50000000  0.50000000  0.25599000  1
  Ni  Ni11  1  0.00000000  0.74288800  0.74064200  1
  Ni  Ni12  1  0.00000000  0.25711200  0.74064200  1
  Ni  Ni13  1  0.00000000  0.74288800  0.25935800  1
  Ni  Ni14  1  0.00000000  0.25711200  0.25935800  1
  Cu  Cu15  1  0.00000000  0.50000000  0.00000000  1
  C  C16  1  0.00000000  0.00000000  0.74055700  1
  C  C17  1  0.00000000  0.50000000  0.73360300  1
  C  C18  1  0.00000000  0.00000000  0.25944300  1
  C  C19  1  0.00000000  0.50000000  0.26639700  1
  C  C20  1  0.50000000  0.74907700  0.75318300  1
  C  C21  1  0.50000000  0.25092300  0.75318300  1
  C  C22  1  0.50000000  0.74907700  0.24681700  1
  C  C23  1  0.50000000  0.25092300  0.24681700  1
  C  C24  1  0.50000000  0.00000000  0.00000000  1
  C  C25  1  0.50000000  0.50000000  0.00000000  1
  C  C26  1  0.50000000  0.00000000  0.50000000  1
  C  C27  1  0.50000000  0.50000000  0.50000000  1
  C  C28  1  0.00000000  0.74832300  0.00000000  1
  C  C29  1  0.00000000  0.25167700  0.00000000  1
  C  C30  1  0.00000000  0.75146300  0.50000000  1
  C  C31  1  0.00000000  0.24853700  0.50000000  1
