# generated using pymatgen
data_Cu4NiC22
_symmetry_space_group_name_H-M   'P 1'
_cell_length_a   19.45089500
_cell_length_b   5.33276600
_cell_length_c   6.63277128
_cell_angle_alpha   73.43397603
_cell_angle_beta   90.00000000
_cell_angle_gamma   90.00000000
_symmetry_Int_Tables_number   1
_chemical_formula_structural   Cu4NiC22
_chemical_formula_sum   'Cu8 Ni2 C44'
_cell_volume   659.44039696
_cell_formula_units_Z   2
loop_
 _symmetry_equiv_pos_site_id
 _symmetry_equiv_pos_as_xyz
  1  'x, y, z'
loop_
 _atom_site_type_symbol
 _atom_site_label
 _atom_site_symmetry_multiplicity
 _atom_site_fract_x
 _atom_site_fract_y
 _atom_site_fract_z
 _atom_site_occupancy
  Ni  Ni0  1  0.25000000  0.76740300  0.77725000  1
  Ni  Ni1  1  0.75000000  0.23259700  0.22275000  1
  Cu  Cu2  1  0.03797300  0.69626100  0.11203300  1
  Cu  Cu3  1  0.53797300  0.30373900  0.88796700  1
  Cu  Cu4  1  0.96202700  0.30373900  0.88796700  1
  Cu  Cu5  1  0.46202700  0.69626100  0.11203300  1
  Cu  Cu6  1  0.15992100  0.35827000  0.46214400  1
  Cu  Cu7  1  0.65992100  0.64173000  0.53785600  1
  Cu  Cu8  1  0.84007900  0.64173000  0.53785600  1
  Cu  Cu9  1  0.34007900  0.35827000  0.46214400  1
  C  C10  1  0.25000000  0.93802600  0.25834800  1
  C  C11  1  0.75000000  0.06197400  0.74165200  1
  C  C12  1  0.13299300  0.23499100  0.98506800  1
  C  C13  1  0.63299300  0.76500900  0.01493200  1
  C  C14  1  0.86700700  0.76500900  0.01493200  1
  C  C15  1  0.36700700  0.23499100  0.98506800  1
  C  C16  1  0.06330500  0.80244500  0.59050100  1
  C  C17  1  0.56330500  0.19755500  0.40949900  1
  C  C18  1  0.93669500  0.19755500  0.40949900  1
  C  C19  1  0.43669500  0.80244500  0.59050100  1
  C  C20  1  0.25000000  0.14975000  0.39561100  1
  C  C21  1  0.75000000  0.85025000  0.60438900  1
  C  C22  1  0.25000000  0.63652300  0.40829500  1
  C  C23  1  0.75000000  0.36347700  0.59170500  1
  C  C24  1  0.18345200  0.97811500  0.09900300  1
  C  C25  1  0.68345200  0.02188500  0.90099700  1
  C  C26  1  0.81654800  0.02188500  0.90099700  1
  C  C27  1  0.31654800  0.97811500  0.09900300  1
  C  C28  1  0.17091000  0.38909500  0.76614800  1
  C  C29  1  0.67091000  0.61090500  0.23385200  1
  C  C30  1  0.82909000  0.61090500  0.23385200  1
  C  C31  1  0.32909000  0.38909500  0.76614800  1
  C  C32  1  0.05951400  0.09205700  0.96685600  1
  C  C33  1  0.55951400  0.90794300  0.03314400  1
  C  C34  1  0.94048600  0.90794300  0.03314400  1
  C  C35  1  0.44048600  0.09205700  0.96685600  1
  C  C36  1  0.12748500  0.42159700  0.14491400  1
  C  C37  1  0.62748500  0.57840300  0.85508600  1
  C  C38  1  0.87251500  0.57840300  0.85508600  1
  C  C39  1  0.37251500  0.42159700  0.14491400  1
  C  C40  1  0.13194100  0.97282000  0.60201700  1
  C  C41  1  0.63194100  0.02718000  0.39798300  1
  C  C42  1  0.86805900  0.02718000  0.39798300  1
  C  C43  1  0.36805900  0.97282000  0.60201700  1
  C  C44  1  0.03531500  0.61456100  0.81880300  1
  C  C45  1  0.53531500  0.38543900  0.18119700  1
  C  C46  1  0.96468500  0.38543900  0.18119700  1
  C  C47  1  0.46468500  0.61456100  0.81880300  1
  C  C48  1  0.00000000  0.00000000  0.50000000  1
  C  C49  1  0.50000000  0.00000000  0.50000000  1
  C  C50  1  0.07548100  0.62657100  0.42370100  1
  C  C51  1  0.57548100  0.37342900  0.57629900  1
  C  C52  1  0.92451900  0.37342900  0.57629900  1
  C  C53  1  0.42451900  0.62657100  0.42370100  1
