# generated using pymatgen
data_Cu9Ni18C5
_symmetry_space_group_name_H-M   'P 1'
_cell_length_a   9.85874519
_cell_length_b   9.85874519
_cell_length_c   9.85874577
_cell_angle_alpha   95.64789492
_cell_angle_beta   95.64789492
_cell_angle_gamma   95.64789503
_symmetry_Int_Tables_number   1
_chemical_formula_structural   Cu9Ni18C5
_chemical_formula_sum   'Cu18 Ni36 C10'
_cell_volume   943.26815933
_cell_formula_units_Z   2
loop_
 _symmetry_equiv_pos_site_id
 _symmetry_equiv_pos_as_xyz
  1  'x, y, z'
loop_
 _atom_site_type_symbol
 _atom_site_label
 _atom_site_symmetry_multiplicity
 _atom_site_fract_x
 _atom_site_fract_y
 _atom_site_fract_z
 _atom_site_occupancy
  C  C0  1  0.86399100  0.63600900  0.25000000  1
  C  C1  1  0.25000000  0.86399100  0.63600900  1
  C  C2  1  0.63600900  0.25000000  0.86399100  1
  C  C3  1  0.75000000  0.13600900  0.36399100  1
  C  C4  1  0.36399100  0.75000000  0.13600900  1
  C  C5  1  0.13600900  0.36399100  0.75000000  1
  C  C6  1  0.36194900  0.36194900  0.36194900  1
  C  C7  1  0.86194900  0.86194900  0.86194900  1
  C  C8  1  0.63805100  0.63805100  0.63805100  1
  C  C9  1  0.13805100  0.13805100  0.13805100  1
  Ni  Ni10  1  0.37549100  0.06140200  0.31717900  1
  Ni  Ni11  1  0.31717900  0.37549100  0.06140200  1
  Ni  Ni12  1  0.06140200  0.31717900  0.37549100  1
  Ni  Ni13  1  0.81717900  0.56140200  0.87549100  1
  Ni  Ni14  1  0.87549100  0.81717900  0.56140200  1
  Ni  Ni15  1  0.56140200  0.87549100  0.81717900  1
  Ni  Ni16  1  0.62450900  0.93859800  0.68282100  1
  Ni  Ni17  1  0.68282100  0.62450900  0.93859800  1
  Ni  Ni18  1  0.93859800  0.68282100  0.62450900  1
  Ni  Ni19  1  0.18282100  0.43859800  0.12450900  1
  Ni  Ni20  1  0.12450900  0.18282100  0.43859800  1
  Ni  Ni21  1  0.43859800  0.12450900  0.18282100  1
  Ni  Ni22  1  0.45024400  0.90916200  0.41007200  1
  Ni  Ni23  1  0.41007200  0.45024400  0.90916200  1
  Ni  Ni24  1  0.90916200  0.41007200  0.45024400  1
  Ni  Ni25  1  0.91007200  0.40916200  0.95024400  1
  Ni  Ni26  1  0.95024400  0.91007200  0.40916200  1
  Ni  Ni27  1  0.40916200  0.95024400  0.91007200  1
  Ni  Ni28  1  0.54975600  0.09083800  0.58992800  1
  Ni  Ni29  1  0.58992800  0.54975600  0.09083800  1
  Ni  Ni30  1  0.09083800  0.58992800  0.54975600  1
  Ni  Ni31  1  0.08992800  0.59083800  0.04975600  1
  Ni  Ni32  1  0.04975600  0.08992800  0.59083800  1
  Ni  Ni33  1  0.59083800  0.04975600  0.08992800  1
  Ni  Ni34  1  0.99377100  0.92829200  0.35227800  1
  Ni  Ni35  1  0.35227800  0.99377000  0.92829200  1
  Ni  Ni36  1  0.92829200  0.35227800  0.99377100  1
  Ni  Ni37  1  0.85227800  0.42829200  0.49377100  1
  Ni  Ni38  1  0.49377100  0.85227800  0.42829200  1
  Ni  Ni39  1  0.42829200  0.49377000  0.85227800  1
  Ni  Ni40  1  0.00623000  0.07170800  0.64772200  1
  Ni  Ni41  1  0.64772200  0.00623000  0.07170800  1
  Ni  Ni42  1  0.07170800  0.64772200  0.00623000  1
  Ni  Ni43  1  0.14772200  0.57170800  0.50623000  1
  Ni  Ni44  1  0.50623000  0.14772200  0.57170800  1
  Ni  Ni45  1  0.57170800  0.50622900  0.14772200  1
  Cu  Cu46  1  0.36581000  0.13419000  0.25000000  1
  Cu  Cu47  1  0.25000000  0.36581000  0.13419000  1
  Cu  Cu48  1  0.13419000  0.25000000  0.36581000  1
  Cu  Cu49  1  0.75000000  0.63419000  0.86581000  1
  Cu  Cu50  1  0.86581000  0.75000000  0.63419000  1
  Cu  Cu51  1  0.63419000  0.86581000  0.75000000  1
  Cu  Cu52  1  0.08589500  0.00006300  0.89361500  1
  Cu  Cu53  1  0.89361500  0.08589500  0.00006300  1
  Cu  Cu54  1  0.00006300  0.89361500  0.08589500  1
  Cu  Cu55  1  0.39361500  0.50006300  0.58589500  1
  Cu  Cu56  1  0.58589500  0.39361500  0.50006300  1
  Cu  Cu57  1  0.50006300  0.58589500  0.39361500  1
  Cu  Cu58  1  0.91410500  0.99993700  0.10638500  1
  Cu  Cu59  1  0.10638500  0.91410500  0.99993700  1
  Cu  Cu60  1  0.99993700  0.10638500  0.91410500  1
  Cu  Cu61  1  0.60638500  0.49993700  0.41410500  1
  Cu  Cu62  1  0.41410500  0.60638500  0.49993700  1
  Cu  Cu63  1  0.49993700  0.41410500  0.60638500  1
