# generated using pymatgen
data_CuNiC8
_symmetry_space_group_name_H-M   'P 1'
_cell_length_a   8.53337446
_cell_length_b   8.48637053
_cell_length_c   8.52041586
_cell_angle_alpha   90.00000000
_cell_angle_beta   90.00000000
_cell_angle_gamma   90.00000000
_symmetry_Int_Tables_number   1
_chemical_formula_structural   CuNiC8
_chemical_formula_sum   'Cu4 Ni4 C32'
_cell_volume   617.02617212
_cell_formula_units_Z   4
loop_
 _symmetry_equiv_pos_site_id
 _symmetry_equiv_pos_as_xyz
  1  'x, y, z'
loop_
 _atom_site_type_symbol
 _atom_site_label
 _atom_site_symmetry_multiplicity
 _atom_site_fract_x
 _atom_site_fract_y
 _atom_site_fract_z
 _atom_site_occupancy
  C  C0  1  0.00000000  0.00000000  -0.00000000  1
  C  C1  1  0.50000000  0.50000000  0.50000000  1
  C  C2  1  0.50000000  0.00000000  0.50000000  1
  C  C3  1  -0.00000000  0.50000000  0.00000000  1
  Ni  Ni4  1  0.25000000  0.25000000  0.25000000  1
  Ni  Ni5  1  0.75000000  0.75000000  0.25000000  1
  Ni  Ni6  1  0.75000000  0.25000000  0.75000000  1
  Ni  Ni7  1  0.25000000  0.75000000  0.75000000  1
  Cu  Cu8  1  0.00000000  0.50000000  0.50000000  1
  Cu  Cu9  1  0.50000000  0.50000000  0.00000000  1
  Cu  Cu10  1  0.50000000  0.00000000  0.00000000  1
  Cu  Cu11  1  0.00000000  0.00000000  0.50000000  1
  C  C12  1  0.75000000  0.75000000  0.75000000  1
  C  C13  1  0.25000000  0.25000000  0.75000000  1
  C  C14  1  0.25000000  0.75000000  0.25000000  1
  C  C15  1  0.75000000  0.25000000  0.25000000  1
  C  C16  1  0.99098884  0.19122187  0.28561754  1
  C  C17  1  0.00901116  0.80877813  0.28561754  1
  C  C18  1  0.00901116  0.19122187  0.71438246  1
  C  C19  1  0.99098884  0.80877813  0.71438246  1
  C  C20  1  0.30567384  0.99071905  0.20329645  1
  C  C21  1  0.30567384  0.00928095  0.79670355  1
  C  C22  1  0.69432616  0.00928095  0.20329645  1
  C  C23  1  0.69432616  0.99071905  0.79670355  1
  C  C24  1  0.22656577  0.28374286  0.99088605  1
  C  C25  1  0.77343423  0.28374286  0.00911395  1
  C  C26  1  0.22656577  0.71625714  0.00911395  1
  C  C27  1  0.77343423  0.71625714  0.99088605  1
  C  C28  1  0.50901116  0.30877813  0.21438246  1
  C  C29  1  0.49098884  0.69122187  0.21438246  1
  C  C30  1  0.49098884  0.30877813  0.78561754  1
  C  C31  1  0.50901116  0.69122187  0.78561754  1
  C  C32  1  0.19432616  0.50928095  0.29670355  1
  C  C33  1  0.19432616  0.49071905  0.70329645  1
  C  C34  1  0.80567384  0.49071905  0.29670355  1
  C  C35  1  0.80567384  0.50928095  0.70329645  1
  C  C36  1  0.27343423  0.21625714  0.50911395  1
  C  C37  1  0.72656577  0.21625714  0.49088605  1
  C  C38  1  0.27343423  0.78374286  0.49088605  1
  C  C39  1  0.72656577  0.78374286  0.50911395  1
