# generated using pymatgen
data_Cu13NiC6
_symmetry_space_group_name_H-M   'P 1'
_cell_length_a   8.04725500
_cell_length_b   8.04725500
_cell_length_c   12.73482059
_cell_angle_alpha   108.41846053
_cell_angle_beta   108.41846053
_cell_angle_gamma   90.00000000
_symmetry_Int_Tables_number   1
_chemical_formula_structural   Cu13NiC6
_chemical_formula_sum   'Cu26 Ni2 C12'
_cell_volume   737.78025722
_cell_formula_units_Z   2
loop_
 _symmetry_equiv_pos_site_id
 _symmetry_equiv_pos_as_xyz
  1  'x, y, z'
loop_
 _atom_site_type_symbol
 _atom_site_label
 _atom_site_symmetry_multiplicity
 _atom_site_fract_x
 _atom_site_fract_y
 _atom_site_fract_z
 _atom_site_occupancy
  C  C0  1  0.97516300  0.47516300  0.62376400  1
  C  C1  1  0.64860100  0.14860100  0.62376400  1
  C  C2  1  0.14860100  0.97516300  0.62376400  1
  C  C3  1  0.47516300  0.64860100  0.62376400  1
  C  C4  1  0.02483700  0.52483700  0.37623600  1
  C  C5  1  0.35139900  0.85139900  0.37623600  1
  C  C6  1  0.85139900  0.02483700  0.37623600  1
  C  C7  1  0.52483700  0.35139900  0.37623600  1
  C  C8  1  0.60776800  0.60776800  0.21553600  1
  C  C9  1  0.10776800  0.10776800  0.21553600  1
  C  C10  1  0.39223200  0.39223200  0.78446400  1
  C  C11  1  0.89223200  0.89223200  0.78446400  1
  Ni  Ni12  1  0.25000000  0.25000000  0.50000000  1
  Ni  Ni13  1  0.75000000  0.75000000  0.50000000  1
  Cu  Cu14  1  0.11812300  0.61812300  0.87988700  1
  Cu  Cu15  1  0.76176400  0.26176400  0.87988700  1
  Cu  Cu16  1  0.26176400  0.11812300  0.87988700  1
  Cu  Cu17  1  0.61812300  0.76176400  0.87988700  1
  Cu  Cu18  1  0.88187700  0.38187700  0.12011300  1
  Cu  Cu19  1  0.23823600  0.73823600  0.12011300  1
  Cu  Cu20  1  0.73823600  0.88187700  0.12011300  1
  Cu  Cu21  1  0.38187700  0.23823600  0.12011300  1
  Cu  Cu22  1  0.71006400  0.56672100  0.00000000  1
  Cu  Cu23  1  0.28993600  0.43327900  0.00000000  1
  Cu  Cu24  1  0.78993600  0.06672100  0.00000000  1
  Cu  Cu25  1  0.21006400  0.93327900  0.00000000  1
  Cu  Cu26  1  0.56672100  0.28993600  0.00000000  1
  Cu  Cu27  1  0.43327900  0.71006400  0.00000000  1
  Cu  Cu28  1  0.06672100  0.21006400  0.00000000  1
  Cu  Cu29  1  0.93327900  0.78993600  0.00000000  1
  Cu  Cu30  1  0.28991700  0.78991700  0.80736400  1
  Cu  Cu31  1  0.51744700  0.01744700  0.80736400  1
  Cu  Cu32  1  0.01744700  0.28991700  0.80736400  1
  Cu  Cu33  1  0.78991700  0.51744700  0.80736400  1
  Cu  Cu34  1  0.71008300  0.21008300  0.19263600  1
  Cu  Cu35  1  0.48255300  0.98255300  0.19263600  1
  Cu  Cu36  1  0.98255300  0.71008300  0.19263600  1
  Cu  Cu37  1  0.21008300  0.48255300  0.19263600  1
  Cu  Cu38  1  0.00000000  0.50000000  0.00000000  1
  Cu  Cu39  1  0.50000000  0.00000000  0.00000000  1
