# generated using pymatgen
data_Cu5Ni2C25
_symmetry_space_group_name_H-M   'P 1'
_cell_length_a   2.89843400
_cell_length_b   9.83908200
_cell_length_c   10.20993676
_cell_angle_alpha   80.28026642
_cell_angle_beta   90.00000000
_cell_angle_gamma   90.00000000
_symmetry_Int_Tables_number   1
_chemical_formula_structural   Cu5Ni2C25
_chemical_formula_sum   'Cu5 Ni2 C25'
_cell_volume   286.98667881
_cell_formula_units_Z   1
loop_
 _symmetry_equiv_pos_site_id
 _symmetry_equiv_pos_as_xyz
  1  'x, y, z'
loop_
 _atom_site_type_symbol
 _atom_site_label
 _atom_site_symmetry_multiplicity
 _atom_site_fract_x
 _atom_site_fract_y
 _atom_site_fract_z
 _atom_site_occupancy
  C  C0  1  0.50000000  0.26055000  0.87627500  1
  C  C1  1  0.50000000  0.74568300  0.62564800  1
  C  C2  1  0.50000000  0.26056100  0.37276600  1
  C  C3  1  0.00000000  0.24990300  0.61927100  1
  C  C4  1  0.00000000  0.74539700  0.37937700  1
  C  C5  1  0.00000000  0.27072600  0.11890900  1
  C  C6  1  0.50000000  0.73966700  0.12774800  1
  C  C7  1  0.00000000  0.73053600  0.88613000  1
  C  C8  1  0.50000000  0.49646600  0.99968100  1
  Ni  Ni9  1  0.00000000  0.00371100  0.99837600  1
  Ni  Ni10  1  0.00000000  0.49528300  0.75816500  1
  Cu  Cu11  1  0.00000000  0.99517900  0.50292600  1
  Cu  Cu12  1  0.00000000  0.50869500  0.23021500  1
  Cu  Cu13  1  0.50000000  0.49949400  0.49505300  1
  Cu  Cu14  1  0.50000000  0.00453800  0.25153800  1
  Cu  Cu15  1  0.50000000  0.99539000  0.74689400  1
  C  C16  1  0.50000000  0.11439800  0.05091400  1
  C  C17  1  0.50000000  0.61012700  0.80461600  1
  C  C18  1  0.50000000  0.11438200  0.56445700  1
  C  C19  1  0.00000000  0.10758800  0.82157700  1
  C  C20  1  0.00000000  0.60764600  0.56887500  1
  C  C21  1  0.00000000  0.11030200  0.30948500  1
  C  C22  1  0.50000000  0.61669100  0.31385400  1
  C  C23  1  0.00000000  0.62536400  0.07257800  1
  C  C24  1  0.50000000  0.38756100  0.69154600  1
  C  C25  1  0.50000000  0.88324800  0.43913000  1
  C  C26  1  0.50000000  0.38293900  0.19361500  1
  C  C27  1  0.00000000  0.38455600  0.44025500  1
  C  C28  1  0.00000000  0.90219600  0.18297000  1
  C  C29  1  0.00000000  0.38388600  0.92226700  1
  C  C30  1  0.50000000  0.88951900  0.94764800  1
  C  C31  1  0.00000000  0.87782000  0.68724100  1
