# generated using pymatgen
data_Cu3(NiC4)2
_symmetry_space_group_name_H-M   'P 1'
_cell_length_a   5.83728740
_cell_length_b   5.83728740
_cell_length_c   9.44950700
_cell_angle_alpha   90.00000000
_cell_angle_beta   90.00000000
_cell_angle_gamma   119.99999316
_symmetry_Int_Tables_number   1
_chemical_formula_structural   Cu3(NiC4)2
_chemical_formula_sum   'Cu6 Ni4 C16'
_cell_volume   278.84442436
_cell_formula_units_Z   2
loop_
 _symmetry_equiv_pos_site_id
 _symmetry_equiv_pos_as_xyz
  1  'x, y, z'
loop_
 _atom_site_type_symbol
 _atom_site_label
 _atom_site_symmetry_multiplicity
 _atom_site_fract_x
 _atom_site_fract_y
 _atom_site_fract_z
 _atom_site_occupancy
  Ni  Ni0  1  0.66666700  0.33333300  0.02146000  1
  Ni  Ni1  1  0.33333300  0.66666700  0.52146000  1
  Ni  Ni2  1  0.66666700  0.33333300  0.42306000  1
  Ni  Ni3  1  0.33333300  0.66666700  0.92306000  1
  Cu  Cu4  1  0.67280700  0.83640300  0.24451100  1
  Cu  Cu5  1  0.83640300  0.16359700  0.74451100  1
  Cu  Cu6  1  0.16359700  0.32719300  0.24451100  1
  Cu  Cu7  1  0.83640300  0.67280700  0.74451100  1
  Cu  Cu8  1  0.32719300  0.16359700  0.74451100  1
  Cu  Cu9  1  0.16359700  0.83640300  0.24451100  1
  C  C10  1  0.83994600  0.16005400  0.14630500  1
  C  C11  1  0.67989100  0.83994600  0.64630500  1
  C  C12  1  0.16005400  0.32010900  0.64630500  1
  C  C13  1  0.83994600  0.67989100  0.14630500  1
  C  C14  1  0.32010900  0.16005400  0.14630500  1
  C  C15  1  0.16005400  0.83994600  0.64630500  1
  C  C16  1  0.51858100  0.48141900  0.86246400  1
  C  C17  1  0.03716200  0.51858100  0.36246400  1
  C  C18  1  0.48141900  0.96283800  0.36246400  1
  C  C19  1  0.51858100  0.03716200  0.86246400  1
  C  C20  1  0.00000000  0.00000000  0.35718800  1
  C  C21  1  0.00000000  0.00000000  0.85718800  1
  C  C22  1  0.33333300  0.66666700  0.13195100  1
  C  C23  1  0.96283800  0.48141900  0.86246400  1
  C  C24  1  0.48141900  0.51858100  0.36246400  1
  C  C25  1  0.66666700  0.33333300  0.63195100  1
