# generated using pymatgen
data_Cu2NiC12
_symmetry_space_group_name_H-M   'P 1'
_cell_length_a   10.74006715
_cell_length_b   10.74006715
_cell_length_c   6.03262703
_cell_angle_alpha   83.19779998
_cell_angle_beta   83.19779998
_cell_angle_gamma   50.12687582
_symmetry_Int_Tables_number   1
_chemical_formula_structural   Cu2NiC12
_chemical_formula_sum   'Cu4 Ni2 C24'
_cell_volume   529.46225542
_cell_formula_units_Z   2
loop_
 _symmetry_equiv_pos_site_id
 _symmetry_equiv_pos_as_xyz
  1  'x, y, z'
loop_
 _atom_site_type_symbol
 _atom_site_label
 _atom_site_symmetry_multiplicity
 _atom_site_fract_x
 _atom_site_fract_y
 _atom_site_fract_z
 _atom_site_occupancy
  Ni  Ni0  1  0.37311900  0.62688100  0.25000000  1
  Ni  Ni1  1  0.62688100  0.37311900  0.75000000  1
  Cu  Cu2  1  0.37530000  0.88070500  0.83392900  1
  Cu  Cu3  1  0.11929500  0.62470000  0.66607100  1
  Cu  Cu4  1  0.62470000  0.11929500  0.16607100  1
  Cu  Cu5  1  0.88070500  0.37530000  0.33392900  1
  C  C6  1  0.45441800  0.67055800  0.94893300  1
  C  C7  1  0.32944200  0.54558200  0.55106700  1
  C  C8  1  0.54558200  0.32944200  0.05106700  1
  C  C9  1  0.67055800  0.45441800  0.44893300  1
  C  C10  1  0.32498900  0.84953300  0.56532000  1
  C  C11  1  0.15046700  0.67501100  0.93468000  1
  C  C12  1  0.67501100  0.15046700  0.43468000  1
  C  C13  1  0.84953300  0.32498900  0.06532000  1
  C  C14  1  0.29728900  0.08545400  0.71101500  1
  C  C15  1  0.91454600  0.70271100  0.78898500  1
  C  C16  1  0.70271100  0.91454600  0.28898500  1
  C  C17  1  0.08545400  0.29728900  0.21101500  1
  C  C18  1  0.58161800  0.79330400  0.70523000  1
  C  C19  1  0.20669600  0.41838200  0.79477000  1
  C  C20  1  0.41838200  0.20669600  0.29477000  1
  C  C21  1  0.79330400  0.58161800  0.20523000  1
  C  C22  1  0.41845800  0.92632800  0.09210400  1
  C  C23  1  0.07367200  0.58154200  0.40789600  1
  C  C24  1  0.58154200  0.07367200  0.90789600  1
  C  C25  1  0.92632800  0.41845800  0.59210400  1
  C  C26  1  0.16112000  0.97976800  0.94971300  1
  C  C27  1  0.02023200  0.83888000  0.55028700  1
  C  C28  1  0.83888000  0.02023200  0.05028700  1
  C  C29  1  0.97976800  0.16112000  0.44971300  1
