# generated using pymatgen
data_Cu2Ni6C7
_symmetry_space_group_name_H-M   'P 1'
_cell_length_a   5.53328900
_cell_length_b   9.85240518
_cell_length_c   15.32640498
_cell_angle_alpha   105.46095435
_cell_angle_beta   90.00000000
_cell_angle_gamma   90.00000000
_symmetry_Int_Tables_number   1
_chemical_formula_structural   Cu2Ni6C7
_chemical_formula_sum   'Cu12 Ni36 C42'
_cell_volume   805.30129866
_cell_formula_units_Z   6
loop_
 _symmetry_equiv_pos_site_id
 _symmetry_equiv_pos_as_xyz
  1  'x, y, z'
loop_
 _atom_site_type_symbol
 _atom_site_label
 _atom_site_symmetry_multiplicity
 _atom_site_fract_x
 _atom_site_fract_y
 _atom_site_fract_z
 _atom_site_occupancy
  C  C0  1  0.62068500  0.04104200  0.17934000  1
  C  C1  1  0.12068500  0.95895800  0.32066000  1
  C  C2  1  0.37931500  0.95895800  0.82066000  1
  C  C3  1  0.87931500  0.04104200  0.67934000  1
  C  C4  1  0.50000000  0.50000000  0.50000000  1
  C  C5  1  0.00000000  0.50000000  0.00000000  1
  Ni  Ni6  1  0.74549300  0.17496600  0.05591300  1
  Ni  Ni7  1  0.24549300  0.82503400  0.44408700  1
  Ni  Ni8  1  0.25450700  0.82503400  0.94408700  1
  Ni  Ni9  1  0.75450700  0.17496600  0.55591300  1
  Ni  Ni10  1  0.72921200  0.01397600  0.99740300  1
  Ni  Ni11  1  0.22921200  0.98602400  0.50259700  1
  Ni  Ni12  1  0.27078800  0.98602400  0.00259700  1
  Ni  Ni13  1  0.77078800  0.01397600  0.49740300  1
  Ni  Ni14  1  0.14519400  0.05285500  0.15887700  1
  Ni  Ni15  1  0.64519400  0.94714500  0.34112300  1
  Ni  Ni16  1  0.85480600  0.94714500  0.84112300  1
  Ni  Ni17  1  0.35480600  0.05285500  0.65887700  1
  Ni  Ni18  1  0.25222300  0.20382100  0.16112000  1
  Ni  Ni19  1  0.75222300  0.79617900  0.33888000  1
  Ni  Ni20  1  0.74777700  0.79617900  0.83888000  1
  Ni  Ni21  1  0.24777700  0.20382100  0.66112000  1
  Ni  Ni22  1  0.59861600  0.17864600  0.42268100  1
  Ni  Ni23  1  0.09861600  0.82135400  0.07731900  1
  Ni  Ni24  1  0.40138400  0.82135400  0.57731900  1
  Ni  Ni25  1  0.90138400  0.17864600  0.92268100  1
  Ni  Ni26  1  0.06970400  0.62635600  0.47190600  1
  Ni  Ni27  1  0.56970400  0.37364400  0.02809400  1
  Ni  Ni28  1  0.93029600  0.37364400  0.52809400  1
  Ni  Ni29  1  0.43029600  0.62635600  0.97190600  1
  Ni  Ni30  1  0.20554700  0.56134800  0.37998400  1
  Ni  Ni31  1  0.70554700  0.43865200  0.12001600  1
  Ni  Ni32  1  0.79445300  0.43865200  0.62001600  1
  Ni  Ni33  1  0.29445300  0.56134800  0.87998400  1
  Ni  Ni34  1  0.14192200  0.45693200  0.20296500  1
  Ni  Ni35  1  0.64192200  0.54306800  0.29703500  1
  Ni  Ni36  1  0.85807800  0.54306800  0.79703500  1
  Ni  Ni37  1  0.35807800  0.45693200  0.70296500  1
  Ni  Ni38  1  0.98824700  0.35863700  0.24756600  1
  Ni  Ni39  1  0.48824700  0.64136300  0.25243400  1
  Ni  Ni40  1  0.01175300  0.64136300  0.75243400  1
  Ni  Ni41  1  0.51175300  0.35863700  0.74756600  1
  Cu  Cu42  1  0.47741600  0.18467000  0.36623400  1
  Cu  Cu43  1  0.97741600  0.81533000  0.13376600  1
  Cu  Cu44  1  0.52258400  0.81533000  0.63376600  1
  Cu  Cu45  1  0.02258400  0.18467000  0.86623400  1
  Cu  Cu46  1  0.60649100  0.29230700  0.32517500  1
  Cu  Cu47  1  0.10649100  0.70769300  0.17482500  1
  Cu  Cu48  1  0.39350900  0.70769300  0.67482500  1
  Cu  Cu49  1  0.89350900  0.29230700  0.82517500  1
  Cu  Cu50  1  0.23506100  0.23877400  0.41294300  1
  Cu  Cu51  1  0.73506100  0.76122600  0.08705700  1
  Cu  Cu52  1  0.76493900  0.76122600  0.58705700  1
  Cu  Cu53  1  0.26493900  0.23877400  0.91294300  1
  C  C54  1  0.76446200  0.07633100  0.05782200  1
  C  C55  1  0.26446200  0.92366900  0.44217800  1
  C  C56  1  0.23553800  0.92366900  0.94217800  1
  C  C57  1  0.73553800  0.07633100  0.55782200  1
  C  C58  1  0.27812600  0.10204000  0.13360200  1
  C  C59  1  0.77812600  0.89796000  0.36639800  1
  C  C60  1  0.72187400  0.89796000  0.86639800  1
  C  C61  1  0.22187400  0.10204000  0.63360200  1
  C  C62  1  0.45487400  0.05164600  0.30377800  1
  C  C63  1  0.95487400  0.94835400  0.19622200  1
  C  C64  1  0.54512600  0.94835400  0.69622200  1
  C  C65  1  0.04512600  0.05164600  0.80377800  1
  C  C66  1  0.70063200  0.24814100  0.24742900  1
  C  C67  1  0.20063200  0.75185900  0.25257100  1
  C  C68  1  0.29936800  0.75185900  0.75257100  1
  C  C69  1  0.79936800  0.24814100  0.74742900  1
  C  C70  1  0.62596900  0.42032300  0.37144500  1
  C  C71  1  0.12596900  0.57967700  0.12855500  1
  C  C72  1  0.37403100  0.57967700  0.62855500  1
  C  C73  1  0.87403100  0.42032300  0.87144500  1
  C  C74  1  0.04982800  0.16292500  0.39117100  1
  C  C75  1  0.54982800  0.83707500  0.10882900  1
  C  C76  1  0.95017200  0.83707500  0.60882900  1
  C  C77  1  0.45017200  0.16292500  0.89117100  1
  C  C78  1  0.22839200  0.35503200  0.47542700  1
  C  C79  1  0.72839200  0.64496800  0.02457300  1
  C  C80  1  0.77160800  0.64496800  0.52457300  1
  C  C81  1  0.27160800  0.35503200  0.97542700  1
  C  C82  1  0.22841900  0.62580500  0.44068000  1
  C  C83  1  0.72841900  0.37419500  0.05932000  1
  C  C84  1  0.77158100  0.37419500  0.55932000  1
  C  C85  1  0.27158100  0.62580500  0.94068000  1
  C  C86  1  0.15422400  0.39222600  0.24224800  1
  C  C87  1  0.65422400  0.60777400  0.25775200  1
  C  C88  1  0.84577600  0.60777400  0.75775200  1
  C  C89  1  0.34577600  0.39222600  0.74224800  1
