# generated using pymatgen
data_Cu4NiC2
_symmetry_space_group_name_H-M   'P 1'
_cell_length_a   7.15458700
_cell_length_b   6.97772500
_cell_length_c   9.19580268
_cell_angle_alpha   72.39426632
_cell_angle_beta   90.00000000
_cell_angle_gamma   90.00000000
_symmetry_Int_Tables_number   1
_chemical_formula_structural   Cu4NiC2
_chemical_formula_sum   'Cu8 Ni2 C4'
_cell_volume   437.57656534
_cell_formula_units_Z   2
loop_
 _symmetry_equiv_pos_site_id
 _symmetry_equiv_pos_as_xyz
  1  'x, y, z'
loop_
 _atom_site_type_symbol
 _atom_site_label
 _atom_site_symmetry_multiplicity
 _atom_site_fract_x
 _atom_site_fract_y
 _atom_site_fract_z
 _atom_site_occupancy
  C  C0  1  0.49567000  0.25585600  0.93697800  1
  C  C1  1  0.99567000  0.74414400  0.06302200  1
  C  C2  1  0.50110500  0.22886100  0.44771100  1
  C  C3  1  0.00110500  0.77113900  0.55228900  1
  Ni  Ni4  1  0.96819700  0.22210700  0.67710700  1
  Ni  Ni5  1  0.46819700  0.77789300  0.32289300  1
  Cu  Cu6  1  0.24229100  0.01695400  0.71128200  1
  Cu  Cu7  1  0.72948100  0.97011500  0.72827900  1
  Cu  Cu8  1  0.46386400  0.57751600  0.15795700  1
  Cu  Cu9  1  0.96386400  0.42248400  0.84204300  1
  Cu  Cu10  1  0.90269300  0.42689800  0.42347900  1
  Cu  Cu11  1  0.40269300  0.57310200  0.57652100  1
  Cu  Cu12  1  0.22948100  0.02988500  0.27172100  1
  Cu  Cu13  1  0.74229100  0.98304600  0.28871800  1
