# generated using pymatgen
data_Cu(NiC3)2
_symmetry_space_group_name_H-M   'P 1'
_cell_length_a   8.51565600
_cell_length_b   12.07731000
_cell_length_c   12.82578769
_cell_angle_alpha   78.45859346
_cell_angle_beta   90.00000000
_cell_angle_gamma   90.00000000
_symmetry_Int_Tables_number   1
_chemical_formula_structural   Cu(NiC3)2
_chemical_formula_sum   'Cu4 Ni8 C24'
_cell_volume   1292.41236244
_cell_formula_units_Z   4
loop_
 _symmetry_equiv_pos_site_id
 _symmetry_equiv_pos_as_xyz
  1  'x, y, z'
loop_
 _atom_site_type_symbol
 _atom_site_label
 _atom_site_symmetry_multiplicity
 _atom_site_fract_x
 _atom_site_fract_y
 _atom_site_fract_z
 _atom_site_occupancy
  Ni  Ni0  1  0.55430500  0.90708300  0.27625900  1
  Ni  Ni1  1  0.44569500  0.09291700  0.72374100  1
  Ni  Ni2  1  0.05430500  0.59291700  0.72374100  1
  Ni  Ni3  1  0.94569500  0.40708300  0.27625900  1
  Ni  Ni4  1  0.47958500  0.68296200  0.21449200  1
  Ni  Ni5  1  0.52041500  0.31703800  0.78550800  1
  Ni  Ni6  1  0.97958500  0.81703800  0.78550800  1
  Ni  Ni7  1  0.02041500  0.18296200  0.21449200  1
  Cu  Cu8  1  0.81788300  0.86035900  0.68056800  1
  Cu  Cu9  1  0.18211700  0.13964100  0.31943200  1
  Cu  Cu10  1  0.31788300  0.63964100  0.31943200  1
  Cu  Cu11  1  0.68211700  0.36035900  0.68056800  1
  C  C12  1  0.83090300  0.72286900  0.42702700  1
  C  C13  1  0.16909700  0.27713100  0.57297400  1
  C  C14  1  0.33090300  0.77713100  0.57297400  1
  C  C15  1  0.66909700  0.22286900  0.42702700  1
  C  C16  1  0.93247600  0.76130400  0.37817800  1
  C  C17  1  0.06752400  0.23869600  0.62182200  1
  C  C18  1  0.43247600  0.73869600  0.62182200  1
  C  C19  1  0.56752400  0.26130400  0.37817800  1
  C  C20  1  0.57098300  0.80540300  0.21706300  1
  C  C21  1  0.42901700  0.19459700  0.78293700  1
  C  C22  1  0.07098300  0.69459700  0.78293700  1
  C  C23  1  0.92901700  0.30540300  0.21706300  1
  C  C24  1  0.31825800  0.90623100  0.97945800  1
  C  C25  1  0.68174200  0.09376900  0.02054200  1
  C  C26  1  0.81825800  0.59376900  0.02054200  1
  C  C27  1  0.18174200  0.40623100  0.97945800  1
  C  C28  1  0.83959000  0.68051500  0.03472900  1
  C  C29  1  0.16041000  0.31948500  0.96527100  1
  C  C30  1  0.33959000  0.81948500  0.96527100  1
  C  C31  1  0.66041000  0.18051500  0.03472900  1
  C  C32  1  0.56289300  0.02243500  0.30382100  1
  C  C33  1  0.43710700  0.97756500  0.69617900  1
  C  C34  1  0.06289300  0.47756500  0.69617900  1
  C  C35  1  0.93710700  0.52243500  0.30382100  1
