# generated using pymatgen
data_Cu3NiC5
_symmetry_space_group_name_H-M   'P 1'
_cell_length_a   7.02365102
_cell_length_b   9.20023600
_cell_length_c   14.98705040
_cell_angle_alpha   90.00000000
_cell_angle_beta   100.21633687
_cell_angle_gamma   90.00000000
_symmetry_Int_Tables_number   1
_chemical_formula_structural   Cu3NiC5
_chemical_formula_sum   'Cu24 Ni8 C40'
_cell_volume   953.09717848
_cell_formula_units_Z   8
loop_
 _symmetry_equiv_pos_site_id
 _symmetry_equiv_pos_as_xyz
  1  'x, y, z'
loop_
 _atom_site_type_symbol
 _atom_site_label
 _atom_site_symmetry_multiplicity
 _atom_site_fract_x
 _atom_site_fract_y
 _atom_site_fract_z
 _atom_site_occupancy
  C  C0  1  0.11309300  0.65635400  0.63040300  1
  C  C1  1  0.38690700  0.15635400  0.36959700  1
  C  C2  1  0.88690700  0.34364600  0.36959700  1
  C  C3  1  0.61309300  0.84364600  0.63040300  1
  C  C4  1  0.90766800  0.11579900  0.82294900  1
  C  C5  1  0.59233200  0.61579900  0.17705100  1
  C  C6  1  0.09233200  0.88420100  0.17705100  1
  C  C7  1  0.40766800  0.38420100  0.82294900  1
  Ni  Ni8  1  0.35464800  0.94970200  0.98613900  1
  Ni  Ni9  1  0.14535200  0.44970200  0.01386100  1
  Ni  Ni10  1  0.64535200  0.05029800  0.01386100  1
  Ni  Ni11  1  0.85464800  0.55029800  0.98613900  1
  Ni  Ni12  1  0.06679300  0.06781900  0.55859900  1
  Ni  Ni13  1  0.43320700  0.56781900  0.44140100  1
  Ni  Ni14  1  0.93320700  0.93218100  0.44140100  1
  Ni  Ni15  1  0.56679300  0.43218100  0.55859900  1
  Cu  Cu16  1  0.20006900  0.16251000  0.00573700  1
  Cu  Cu17  1  0.29993100  0.66251000  0.99426300  1
  Cu  Cu18  1  0.79993100  0.83749000  0.99426300  1
  Cu  Cu19  1  0.70006900  0.33749000  0.00573700  1
  Cu  Cu20  1  0.79451200  0.18551700  0.57440500  1
  Cu  Cu21  1  0.70548800  0.68551700  0.42559500  1
  Cu  Cu22  1  0.20548800  0.81448300  0.42559500  1
  Cu  Cu23  1  0.29451200  0.31448300  0.57440500  1
  Cu  Cu24  1  0.43778100  0.04527400  0.80860000  1
  Cu  Cu25  1  0.06221900  0.54527400  0.19140000  1
  Cu  Cu26  1  0.56221900  0.95472600  0.19140000  1
  Cu  Cu27  1  0.93778100  0.45472600  0.80860000  1
  Cu  Cu28  1  0.37457700  0.06190300  0.70510600  1
  Cu  Cu29  1  0.12542300  0.56190300  0.29489400  1
  Cu  Cu30  1  0.62542300  0.93809700  0.29489400  1
  Cu  Cu31  1  0.87457700  0.43809700  0.70510600  1
  Cu  Cu32  1  0.56873000  0.67566100  0.82534500  1
  Cu  Cu33  1  0.93127000  0.17566100  0.17465500  1
  Cu  Cu34  1  0.43127000  0.32433900  0.17465500  1
  Cu  Cu35  1  0.06873000  0.82433900  0.82534500  1
  Cu  Cu36  1  0.40101600  0.78883900  0.82457000  1
  Cu  Cu37  1  0.09898400  0.28883900  0.17543000  1
  Cu  Cu38  1  0.59898400  0.21116100  0.17543000  1
  Cu  Cu39  1  0.90101600  0.71116100  0.82457000  1
  C  C40  1  0.28728100  0.93857000  0.88338900  1
  C  C41  1  0.21271900  0.43857000  0.11661100  1
  C  C42  1  0.71271900  0.06143000  0.11661100  1
  C  C43  1  0.78728100  0.56143000  0.88338900  1
  C  C44  1  0.35935100  0.80727200  0.03868000  1
  C  C45  1  0.14064900  0.30727200  0.96132000  1
  C  C46  1  0.64064900  0.19272800  0.96132000  1
  C  C47  1  0.85935100  0.69272800  0.03868000  1
  C  C48  1  0.22637800  0.05917400  0.03280500  1
  C  C49  1  0.27362200  0.55917400  0.96719500  1
  C  C50  1  0.77362200  0.94082600  0.96719500  1
  C  C51  1  0.72637800  0.44082600  0.03280500  1
  C  C52  1  0.20604700  0.97509200  0.62378300  1
  C  C53  1  0.29395300  0.47509200  0.37621700  1
  C  C54  1  0.79395300  0.02490800  0.37621700  1
  C  C55  1  0.70604700  0.52490800  0.62378300  1
  C  C56  1  0.14929000  0.20444300  0.52096700  1
  C  C57  1  0.35071000  0.70444300  0.47903300  1
  C  C58  1  0.85071000  0.79555700  0.47903300  1
  C  C59  1  0.64929000  0.29555700  0.52096700  1
  C  C60  1  0.88683900  0.10772500  0.60748000  1
  C  C61  1  0.61316100  0.60772500  0.39252000  1
  C  C62  1  0.11316100  0.89227500  0.39252000  1
  C  C63  1  0.38683900  0.39227500  0.60748000  1
  C  C64  1  0.47680700  0.09424400  0.75623800  1
  C  C65  1  0.02319300  0.59424400  0.24376200  1
  C  C66  1  0.52319300  0.90575600  0.24376200  1
  C  C67  1  0.97680700  0.40575600  0.75623800  1
  C  C68  1  0.45027600  0.71325600  0.78729200  1
  C  C69  1  0.04972400  0.21325600  0.21270800  1
  C  C70  1  0.54972400  0.28674400  0.21270800  1
  C  C71  1  0.95027600  0.78674400  0.78729200  1
