# generated using pymatgen
data_CuNiC7
_symmetry_space_group_name_H-M   'P 1'
_cell_length_a   5.84638396
_cell_length_b   5.84610491
_cell_length_c   7.81285682
_cell_angle_alpha   68.62449491
_cell_angle_beta   68.62050026
_cell_angle_gamma   69.32945119
_symmetry_Int_Tables_number   1
_chemical_formula_structural   CuNiC7
_chemical_formula_sum   'Cu2 Ni2 C14'
_cell_volume   223.96704073
_cell_formula_units_Z   2
loop_
 _symmetry_equiv_pos_site_id
 _symmetry_equiv_pos_as_xyz
  1  'x, y, z'
loop_
 _atom_site_type_symbol
 _atom_site_label
 _atom_site_symmetry_multiplicity
 _atom_site_fract_x
 _atom_site_fract_y
 _atom_site_fract_z
 _atom_site_occupancy
  C  C0  1  0.50283800  0.49721000  0.49999400  1
  Ni  Ni1  1  0.50353000  0.99436000  0.00017200  1
  Ni  Ni2  1  0.00614500  0.49485700  0.00027600  1
  Cu  Cu3  1  0.09007500  0.08268200  0.70472600  1
  Cu  Cu4  1  0.91716600  0.90988300  0.29529900  1
  C  C5  1  0.50792700  0.49432400  0.99920300  1
  C  C6  1  0.68141600  0.66921000  0.77985900  1
  C  C7  1  0.33071800  0.31852000  0.21999000  1
  C  C8  1  0.76014800  0.75432200  0.52653200  1
  C  C9  1  0.24583700  0.23986100  0.47371000  1
  C  C10  1  0.83092700  0.82255200  0.12655200  1
  C  C11  1  0.17742300  0.16897600  0.87351300  1
  C  C12  1  0.64799600  0.63543200  0.91967700  1
  C  C13  1  0.36422700  0.35171200  0.08029300  1
  C  C14  1  0.81837300  0.24841800  0.26326300  1
  C  C15  1  0.75159700  0.18150200  0.73683100  1
  C  C16  1  0.25562500  0.80996700  0.26360000  1
  C  C17  1  0.19003300  0.74421100  0.73651100  1
