# generated using pymatgen
data_CuNi2C15
_symmetry_space_group_name_H-M   'P 1'
_cell_length_a   7.21481445
_cell_length_b   7.21481445
_cell_length_c   7.21481420
_cell_angle_alpha   58.87185224
_cell_angle_beta   58.87185224
_cell_angle_gamma   58.87185080
_symmetry_Int_Tables_number   1
_chemical_formula_structural   CuNi2C15
_chemical_formula_sum   'Cu1 Ni2 C15'
_cell_volume   258.71980312
_cell_formula_units_Z   1
loop_
 _symmetry_equiv_pos_site_id
 _symmetry_equiv_pos_as_xyz
  1  'x, y, z'
loop_
 _atom_site_type_symbol
 _atom_site_label
 _atom_site_symmetry_multiplicity
 _atom_site_fract_x
 _atom_site_fract_y
 _atom_site_fract_z
 _atom_site_occupancy
  Ni  Ni0  1  0.62733000  0.62733000  0.62733000  1
  Ni  Ni1  1  0.37267000  0.37267000  0.37267000  1
  Cu  Cu2  1  0.00000000  0.00000000  0.00000000  1
  C  C3  1  0.50000000  0.00000000  0.00000000  1
  C  C4  1  0.00000000  0.50000000  0.00000000  1
  C  C5  1  0.00000000  0.00000000  0.50000000  1
  C  C6  1  0.93018100  0.30652000  0.30652000  1
  C  C7  1  0.07165700  0.07165700  0.65054300  1
  C  C8  1  0.07165700  0.65054300  0.07165700  1
  C  C9  1  0.92834300  0.34945700  0.92834300  1
  C  C10  1  0.92834300  0.92834300  0.34945700  1
  C  C11  1  0.65054300  0.07165700  0.07165700  1
  C  C12  1  0.30652000  0.30652000  0.93018100  1
  C  C13  1  0.30652000  0.93018100  0.30652000  1
  C  C14  1  0.69348000  0.06981900  0.69348000  1
  C  C15  1  0.06981900  0.69348000  0.69348000  1
  C  C16  1  0.69348000  0.69348000  0.06981900  1
  C  C17  1  0.34945700  0.92834300  0.92834300  1
