# generated using pymatgen
data_Cu8(NiC5)5
_symmetry_space_group_name_H-M   'P 1'
_cell_length_a   10.26671010
_cell_length_b   10.26671010
_cell_length_c   10.26671010
_cell_angle_alpha   94.52908076
_cell_angle_beta   94.52908076
_cell_angle_gamma   147.35934023
_symmetry_Int_Tables_number   1
_chemical_formula_structural   Cu8(NiC5)5
_chemical_formula_sum   'Cu8 Ni5 C25'
_cell_volume   560.16699993
_cell_formula_units_Z   1
loop_
 _symmetry_equiv_pos_site_id
 _symmetry_equiv_pos_as_xyz
  1  'x, y, z'
loop_
 _atom_site_type_symbol
 _atom_site_label
 _atom_site_symmetry_multiplicity
 _atom_site_fract_x
 _atom_site_fract_y
 _atom_site_fract_z
 _atom_site_occupancy
  Ni  Ni0  1  0.13886700  0.46375900  0.60262600  1
  Ni  Ni1  1  0.86113300  0.53624100  0.39737400  1
  Ni  Ni2  1  0.53624100  0.13886700  0.67510800  1
  Ni  Ni3  1  0.46375900  0.86113300  0.32489200  1
  Ni  Ni4  1  0.00000000  0.00000000  0.00000000  1
  Cu  Cu5  1  0.41166000  0.35758400  0.76924400  1
  Cu  Cu6  1  0.58834000  0.64241600  0.23075600  1
  Cu  Cu7  1  0.64241600  0.41166000  0.05407600  1
  Cu  Cu8  1  0.35758400  0.58834000  0.94592400  1
  Cu  Cu9  1  0.24730500  0.16792900  0.41523300  1
  Cu  Cu10  1  0.75269500  0.83207100  0.58476700  1
  Cu  Cu11  1  0.83207100  0.24730500  0.07937600  1
  Cu  Cu12  1  0.16792900  0.75269500  0.92062400  1
  C  C13  1  0.04023800  0.25103800  0.29127600  1
  C  C14  1  0.95976200  0.74896200  0.70872400  1
  C  C15  1  0.74896200  0.04023800  0.78920000  1
  C  C16  1  0.25103800  0.95976200  0.21080000  1
  C  C17  1  0.42698300  0.29691100  0.22553600  1
  C  C18  1  0.57301700  0.70308900  0.77446400  1
  C  C19  1  0.07137500  0.20144700  0.77446400  1
  C  C20  1  0.20144700  0.42698300  0.13007200  1
  C  C21  1  0.92862500  0.79855300  0.22553600  1
  C  C22  1  0.79855300  0.57301700  0.86992800  1
  C  C23  1  0.29691100  0.07137500  0.86992800  1
  C  C24  1  0.70308900  0.92862500  0.13007200  1
  C  C25  1  0.39509800  0.50458400  0.40548400  1
  C  C26  1  0.60490200  0.49541600  0.59451600  1
  C  C27  1  0.09910100  0.98961500  0.59451600  1
  C  C28  1  0.98961500  0.39509800  0.89051400  1
  C  C29  1  0.90089900  0.01038500  0.40548400  1
  C  C30  1  0.01038500  0.60490200  0.10948600  1
  C  C31  1  0.50458400  0.09910100  0.10948600  1
  C  C32  1  0.49541600  0.90089900  0.89051400  1
  C  C33  1  0.50000000  0.50000000  0.00000000  1
  C  C34  1  0.37247400  0.03742400  0.40989800  1
  C  C35  1  0.62752600  0.96257600  0.59010200  1
  C  C36  1  0.96257600  0.37247400  0.33505000  1
  C  C37  1  0.03742400  0.62752600  0.66495000  1
