# generated using pymatgen
data_Cu4NiC3
_symmetry_space_group_name_H-M   'P 1'
_cell_length_a   12.75944800
_cell_length_b   12.80101800
_cell_length_c   18.02697300
_cell_angle_alpha   90.00000000
_cell_angle_beta   90.00000000
_cell_angle_gamma   90.00000000
_symmetry_Int_Tables_number   1
_chemical_formula_structural   Cu4NiC3
_chemical_formula_sum   'Cu64 Ni16 C48'
_cell_volume   2944.41622924
_cell_formula_units_Z   16
loop_
 _symmetry_equiv_pos_site_id
 _symmetry_equiv_pos_as_xyz
  1  'x, y, z'
loop_
 _atom_site_type_symbol
 _atom_site_label
 _atom_site_symmetry_multiplicity
 _atom_site_fract_x
 _atom_site_fract_y
 _atom_site_fract_z
 _atom_site_occupancy
  C  C0  1  0.53723400  0.26450900  0.24913500  1
  C  C1  1  0.03723400  0.23549100  0.75086500  1
  C  C2  1  0.46276600  0.76450900  0.25086500  1
  C  C3  1  0.96276600  0.73549100  0.74913500  1
  C  C4  1  0.46276600  0.73549100  0.75086500  1
  C  C5  1  0.96276600  0.76450900  0.24913500  1
  C  C6  1  0.53723400  0.23549100  0.74913500  1
  C  C7  1  0.03723400  0.26450900  0.25086500  1
  C  C8  1  0.50491900  0.01921800  0.37041000  1
  C  C9  1  0.00491900  0.48078200  0.62959000  1
  C  C10  1  0.49508100  0.51921800  0.12959000  1
  C  C11  1  0.99508100  0.98078200  0.87041000  1
  C  C12  1  0.49508100  0.98078200  0.62959000  1
  C  C13  1  0.99508100  0.51921800  0.37041000  1
  C  C14  1  0.50491900  0.48078200  0.87041000  1
  C  C15  1  0.00491900  0.01921800  0.12959000  1
  C  C16  1  0.75841600  0.26353400  0.11832500  1
  C  C17  1  0.25841600  0.23646600  0.88167500  1
  C  C18  1  0.24158400  0.76353400  0.38167500  1
  C  C19  1  0.74158400  0.73646600  0.61832500  1
  C  C20  1  0.24158400  0.73646600  0.88167500  1
  C  C21  1  0.74158400  0.76353400  0.11832500  1
  C  C22  1  0.75841600  0.23646600  0.61832500  1
  C  C23  1  0.25841600  0.26353400  0.38167500  1
  C  C24  1  0.75873500  0.24725100  0.38163400  1
  C  C25  1  0.25873500  0.25274900  0.61836600  1
  C  C26  1  0.24126500  0.74725100  0.11836600  1
  C  C27  1  0.74126500  0.75274900  0.88163400  1
  C  C28  1  0.24126500  0.75274900  0.61836600  1
  C  C29  1  0.74126500  0.74725100  0.38163400  1
  C  C30  1  0.75873500  0.25274900  0.88163400  1
  C  C31  1  0.25873500  0.24725100  0.11836600  1
  C  C32  1  0.80524100  0.06239800  0.03159700  1
  C  C33  1  0.30524100  0.43760200  0.96840300  1
  C  C34  1  0.19475900  0.56239800  0.46840300  1
  C  C35  1  0.69475900  0.93760200  0.53159700  1
  C  C36  1  0.19475900  0.93760200  0.96840300  1
  C  C37  1  0.69475900  0.56239800  0.03159700  1
  C  C38  1  0.80524100  0.43760200  0.53159700  1
  C  C39  1  0.30524100  0.06239800  0.46840300  1
  C  C40  1  0.98260500  0.02148300  0.38514000  1
  C  C41  1  0.48260500  0.47851700  0.61486000  1
  C  C42  1  0.01739500  0.52148300  0.11486000  1
  C  C43  1  0.51739500  0.97851700  0.88514000  1
  C  C44  1  0.01739500  0.97851700  0.61486000  1
  C  C45  1  0.51739500  0.52148300  0.38514000  1
  C  C46  1  0.98260500  0.47851700  0.88514000  1
  C  C47  1  0.48260500  0.02148300  0.11486000  1
  Ni  Ni48  1  0.51903300  0.24498800  0.49677300  1
  Ni  Ni49  1  0.01903300  0.25501200  0.50322700  1
  Ni  Ni50  1  0.48096700  0.74498800  0.00322700  1
  Ni  Ni51  1  0.98096700  0.75501200  0.99677300  1
  Ni  Ni52  1  0.48096700  0.75501200  0.50322700  1
  Ni  Ni53  1  0.98096700  0.74498800  0.49677300  1
  Ni  Ni54  1  0.51903300  0.25501200  0.99677300  1
  Ni  Ni55  1  0.01903300  0.24498800  0.00322700  1
  Ni  Ni56  1  0.75326300  0.02196900  0.24920000  1
  Ni  Ni57  1  0.25326300  0.47803100  0.75080000  1
  Ni  Ni58  1  0.24673700  0.52196900  0.25080000  1
  Ni  Ni59  1  0.74673700  0.97803100  0.74920000  1
  Ni  Ni60  1  0.24673700  0.97803100  0.75080000  1
  Ni  Ni61  1  0.74673700  0.52196900  0.24920000  1
  Ni  Ni62  1  0.75326300  0.47803100  0.74920000  1
  Ni  Ni63  1  0.25326300  0.02196900  0.25080000  1
  Cu  Cu64  1  0.60889100  0.15400100  0.06203900  1
  Cu  Cu65  1  0.10889100  0.34599900  0.93796100  1
  Cu  Cu66  1  0.39110900  0.65400100  0.43796100  1
  Cu  Cu67  1  0.89110900  0.84599900  0.56203900  1
  Cu  Cu68  1  0.39110900  0.84599900  0.93796100  1
  Cu  Cu69  1  0.89110900  0.65400100  0.06203900  1
  Cu  Cu70  1  0.60889100  0.34599900  0.56203900  1
  Cu  Cu71  1  0.10889100  0.15400100  0.43796100  1
  Cu  Cu72  1  0.62123700  0.13955700  0.44730300  1
  Cu  Cu73  1  0.12123700  0.36044300  0.55269700  1
  Cu  Cu74  1  0.37876300  0.63955700  0.05269700  1
  Cu  Cu75  1  0.87876300  0.86044300  0.94730300  1
  Cu  Cu76  1  0.37876300  0.86044300  0.55269700  1
  Cu  Cu77  1  0.87876300  0.63955700  0.44730300  1
  Cu  Cu78  1  0.62123700  0.36044300  0.94730300  1
  Cu  Cu79  1  0.12123700  0.13955700  0.05269700  1
  Cu  Cu80  1  0.68175800  0.45382400  0.15151700  1
  Cu  Cu81  1  0.18175800  0.04617600  0.84848300  1
  Cu  Cu82  1  0.31824200  0.95382400  0.34848300  1
  Cu  Cu83  1  0.81824200  0.54617600  0.65151700  1
  Cu  Cu84  1  0.31824200  0.54617600  0.84848300  1
  Cu  Cu85  1  0.81824200  0.95382400  0.15151700  1
  Cu  Cu86  1  0.68175800  0.04617600  0.65151700  1
  Cu  Cu87  1  0.18175800  0.45382400  0.34848300  1
  Cu  Cu88  1  0.69132700  0.45153400  0.34488000  1
  Cu  Cu89  1  0.19132700  0.04846600  0.65512000  1
  Cu  Cu90  1  0.30867300  0.95153400  0.15512000  1
  Cu  Cu91  1  0.80867300  0.54846600  0.84488000  1
  Cu  Cu92  1  0.30867300  0.54846600  0.65512000  1
  Cu  Cu93  1  0.80867300  0.95153400  0.34488000  1
  Cu  Cu94  1  0.69132700  0.04846600  0.84488000  1
  Cu  Cu95  1  0.19132700  0.45153400  0.15512000  1
  Cu  Cu96  1  0.79483700  0.17736300  0.24926600  1
  Cu  Cu97  1  0.29483700  0.32263700  0.75073400  1
  Cu  Cu98  1  0.20516300  0.67736300  0.25073400  1
  Cu  Cu99  1  0.70516300  0.82263700  0.74926600  1
  Cu  Cu100  1  0.20516300  0.82263700  0.75073400  1
  Cu  Cu101  1  0.70516300  0.67736300  0.24926600  1
  Cu  Cu102  1  0.79483700  0.32263700  0.74926600  1
  Cu  Cu103  1  0.29483700  0.17736300  0.25073400  1
  Cu  Cu104  1  0.90470300  0.49742500  0.24278300  1
  Cu  Cu105  1  0.40470300  0.00257500  0.75721700  1
  Cu  Cu106  1  0.09529700  0.99742500  0.25721700  1
  Cu  Cu107  1  0.59529700  0.50257500  0.74278300  1
  Cu  Cu108  1  0.09529700  0.50257500  0.75721700  1
  Cu  Cu109  1  0.59529700  0.99742500  0.24278300  1
  Cu  Cu110  1  0.90470300  0.00257500  0.74278300  1
  Cu  Cu111  1  0.40470300  0.49742500  0.25721700  1
  Cu  Cu112  1  0.91774500  0.34218000  0.43571600  1
  Cu  Cu113  1  0.41774500  0.15782000  0.56428400  1
  Cu  Cu114  1  0.08225500  0.84218000  0.06428400  1
  Cu  Cu115  1  0.58225500  0.65782000  0.93571600  1
  Cu  Cu116  1  0.08225500  0.65782000  0.56428400  1
  Cu  Cu117  1  0.58225500  0.84218000  0.43571600  1
  Cu  Cu118  1  0.91774500  0.15782000  0.93571600  1
  Cu  Cu119  1  0.41774500  0.34218000  0.06428400  1
  Cu  Cu120  1  0.93416900  0.33483900  0.07485400  1
  Cu  Cu121  1  0.43416900  0.16516100  0.92514600  1
  Cu  Cu122  1  0.06583100  0.83483900  0.42514600  1
  Cu  Cu123  1  0.56583100  0.66516100  0.57485400  1
  Cu  Cu124  1  0.06583100  0.66516100  0.92514600  1
  Cu  Cu125  1  0.56583100  0.83483900  0.07485400  1
  Cu  Cu126  1  0.93416900  0.16516100  0.57485400  1
  Cu  Cu127  1  0.43416900  0.33483900  0.42514600  1
