# generated using pymatgen
data_Cu4Ni4C5
_symmetry_space_group_name_H-M   'P 1'
_cell_length_a   8.38731700
_cell_length_b   10.65660800
_cell_length_c   15.61840214
_cell_angle_alpha   90.00000000
_cell_angle_beta   105.99026456
_cell_angle_gamma   90.00000000
_symmetry_Int_Tables_number   1
_chemical_formula_structural   Cu4Ni4C5
_chemical_formula_sum   'Cu16 Ni16 C20'
_cell_volume   1341.96577268
_cell_formula_units_Z   4
loop_
 _symmetry_equiv_pos_site_id
 _symmetry_equiv_pos_as_xyz
  1  'x, y, z'
loop_
 _atom_site_type_symbol
 _atom_site_label
 _atom_site_symmetry_multiplicity
 _atom_site_fract_x
 _atom_site_fract_y
 _atom_site_fract_z
 _atom_site_occupancy
  C  C0  1  0.23298600  0.35840900  0.74358800  1
  C  C1  1  0.76701400  0.85840900  0.75641200  1
  C  C2  1  0.76701400  0.64159100  0.25641200  1
  C  C3  1  0.23298600  0.14159100  0.24358800  1
  C  C4  1  0.63502700  0.25364800  0.60588700  1
  C  C5  1  0.36497300  0.75364800  0.89411300  1
  C  C6  1  0.36497300  0.74635200  0.39411300  1
  C  C7  1  0.63502700  0.24635200  0.10588700  1
  C  C8  1  0.85437100  0.26278800  0.39109000  1
  C  C9  1  0.14562900  0.76278800  0.10891000  1
  C  C10  1  0.14562900  0.73721200  0.60891000  1
  C  C11  1  0.85437100  0.23721200  0.89109000  1
  C  C12  1  0.74554800  0.05851600  0.49468600  1
  C  C13  1  0.25445200  0.55851600  0.00531400  1
  C  C14  1  0.25445200  0.94148400  0.50531400  1
  C  C15  1  0.74554800  0.44148400  0.99468600  1
  C  C16  1  0.74338800  0.45573100  0.50047500  1
  C  C17  1  0.25661200  0.95573100  0.99952500  1
  C  C18  1  0.25661200  0.54426900  0.49952500  1
  C  C19  1  0.74338800  0.04426900  0.00047500  1
  Ni  Ni20  1  0.86514900  0.37669400  0.45874700  1
  Ni  Ni21  1  0.13485100  0.87669400  0.04125300  1
  Ni  Ni22  1  0.13485100  0.62330600  0.54125300  1
  Ni  Ni23  1  0.86514900  0.12330600  0.95874700  1
  Ni  Ni24  1  0.65191500  0.38275800  0.56074800  1
  Ni  Ni25  1  0.34808500  0.88275800  0.93925200  1
  Ni  Ni26  1  0.34808500  0.61724200  0.43925200  1
  Ni  Ni27  1  0.65191500  0.11724200  0.06074800  1
  Ni  Ni28  1  0.79796900  0.13263100  0.42012000  1
  Ni  Ni29  1  0.20203100  0.63263100  0.07988000  1
  Ni  Ni30  1  0.20203100  0.86736900  0.57988000  1
  Ni  Ni31  1  0.79796900  0.36736900  0.92012000  1
  Ni  Ni32  1  0.72570100  0.13421200  0.57947700  1
  Ni  Ni33  1  0.27429900  0.63421200  0.92052300  1
  Ni  Ni34  1  0.27429900  0.86578800  0.42052300  1
  Ni  Ni35  1  0.72570100  0.36578800  0.07947700  1
  Cu  Cu36  1  0.31571200  0.25924400  0.87331900  1
  Cu  Cu37  1  0.68428800  0.75924400  0.62668100  1
  Cu  Cu38  1  0.68428800  0.74075600  0.12668100  1
  Cu  Cu39  1  0.31571200  0.24075600  0.37331900  1
  Cu  Cu40  1  0.19879300  0.23067200  0.62817600  1
  Cu  Cu41  1  0.80120700  0.73067200  0.87182400  1
  Cu  Cu42  1  0.80120700  0.76932800  0.37182400  1
  Cu  Cu43  1  0.19879300  0.26932800  0.12817600  1
  Cu  Cu44  1  0.99760200  0.45440700  0.73805700  1
  Cu  Cu45  1  0.00239800  0.95440700  0.76194300  1
  Cu  Cu46  1  0.00239800  0.54559300  0.26194300  1
  Cu  Cu47  1  0.99760200  0.04559300  0.23805700  1
  Cu  Cu48  1  0.42170700  0.49994400  0.73454500  1
  Cu  Cu49  1  0.57829300  0.99994400  0.76545500  1
  Cu  Cu50  1  0.57829300  0.50005600  0.26545500  1
  Cu  Cu51  1  0.42170700  0.00005600  0.23454500  1
