# generated using pymatgen
data_Cu2(Ni3C2)5
_symmetry_space_group_name_H-M   'P 1'
_cell_length_a   10.85351303
_cell_length_b   10.85351303
_cell_length_c   9.17527829
_cell_angle_alpha   89.78570742
_cell_angle_beta   89.78570742
_cell_angle_gamma   68.82408690
_symmetry_Int_Tables_number   1
_chemical_formula_structural   Cu2(Ni3C2)5
_chemical_formula_sum   'Cu4 Ni30 C20'
_cell_volume   1007.84324672
_cell_formula_units_Z   2
loop_
 _symmetry_equiv_pos_site_id
 _symmetry_equiv_pos_as_xyz
  1  'x, y, z'
loop_
 _atom_site_type_symbol
 _atom_site_label
 _atom_site_symmetry_multiplicity
 _atom_site_fract_x
 _atom_site_fract_y
 _atom_site_fract_z
 _atom_site_occupancy
  C  C0  1  0.08744100  0.77204900  0.30006600  1
  C  C1  1  0.77204900  0.08744100  0.30006600  1
  C  C2  1  0.91255900  0.22795100  0.69993400  1
  C  C3  1  0.22795100  0.91255900  0.69993400  1
  C  C4  1  0.74768800  0.74768800  0.25999000  1
  C  C5  1  0.25231200  0.25231200  0.74001000  1
  C  C6  1  0.35619000  0.35619000  0.40300400  1
  C  C7  1  0.64381000  0.64381000  0.59699600  1
  C  C8  1  0.13311100  0.13311100  0.31294000  1
  C  C9  1  0.86688900  0.86688900  0.68706000  1
  C  C10  1  0.01713200  0.44172900  0.32316100  1
  C  C11  1  0.44172900  0.01713200  0.32316100  1
  C  C12  1  0.98286800  0.55827100  0.67683900  1
  C  C13  1  0.55827100  0.98286800  0.67683900  1
  C  C14  1  0.89535400  0.40332800  0.36380600  1
  C  C15  1  0.40332800  0.89535400  0.36380600  1
  C  C16  1  0.10464600  0.59667200  0.63619400  1
  C  C17  1  0.59667200  0.10464600  0.63619400  1
  C  C18  1  0.12351300  0.12351300  0.02379200  1
  C  C19  1  0.87648700  0.87648700  0.97620800  1
  Ni  Ni20  1  0.12786000  0.34287800  0.31660200  1
  Ni  Ni21  1  0.34287800  0.12786000  0.31660200  1
  Ni  Ni22  1  0.87214000  0.65712200  0.68339800  1
  Ni  Ni23  1  0.65712200  0.87214000  0.68339800  1
  Ni  Ni24  1  0.92044000  0.27890600  0.37598800  1
  Ni  Ni25  1  0.27890600  0.92044000  0.37598800  1
  Ni  Ni26  1  0.07956000  0.72109400  0.62401200  1
  Ni  Ni27  1  0.72109400  0.07956000  0.62401200  1
  Ni  Ni28  1  0.03567200  0.21462100  0.10347300  1
  Ni  Ni29  1  0.21462100  0.03567200  0.10347300  1
  Ni  Ni30  1  0.96432800  0.78537900  0.89652700  1
  Ni  Ni31  1  0.78537900  0.96432800  0.89652700  1
  Ni  Ni32  1  0.00363600  0.55961100  0.30454900  1
  Ni  Ni33  1  0.55961100  0.00363600  0.30454900  1
  Ni  Ni34  1  0.99636400  0.44038900  0.69545100  1
  Ni  Ni35  1  0.44038900  0.99636400  0.69545100  1
  Ni  Ni36  1  0.78522700  0.49299300  0.38551000  1
  Ni  Ni37  1  0.49299300  0.78522700  0.38551000  1
  Ni  Ni38  1  0.21477300  0.50700700  0.61449000  1
  Ni  Ni39  1  0.50700700  0.21477300  0.61449000  1
  Ni  Ni40  1  0.12171900  0.12171900  0.88624700  1
  Ni  Ni41  1  0.87828100  0.87828100  0.11375300  1
  Ni  Ni42  1  0.45452600  0.55572700  0.26148800  1
  Ni  Ni43  1  0.55572700  0.45452600  0.26148800  1
  Ni  Ni44  1  0.54547400  0.44427300  0.73851200  1
  Ni  Ni45  1  0.44427300  0.54547400  0.73851200  1
  Ni  Ni46  1  0.23139000  0.69949700  0.00338600  1
  Ni  Ni47  1  0.69949700  0.23139000  0.00338600  1
  Ni  Ni48  1  0.76861000  0.30050300  0.99661400  1
  Ni  Ni49  1  0.30050300  0.76861000  0.99661400  1
  Cu  Cu50  1  0.02006700  0.02006700  0.32639600  1
  Cu  Cu51  1  0.97993300  0.97993300  0.67360400  1
  Cu  Cu52  1  0.14476000  0.14476000  0.54014700  1
  Cu  Cu53  1  0.85524000  0.85524000  0.45985300  1
