# generated using pymatgen
data_Cu3Ni2C9
_symmetry_space_group_name_H-M   'P 1'
_cell_length_a   6.10601800
_cell_length_b   11.55493500
_cell_length_c   19.59190100
_cell_angle_alpha   90.00000000
_cell_angle_beta   90.00000000
_cell_angle_gamma   90.00000000
_symmetry_Int_Tables_number   1
_chemical_formula_structural   Cu3Ni2C9
_chemical_formula_sum   'Cu24 Ni16 C72'
_cell_volume   1382.29954350
_cell_formula_units_Z   8
loop_
 _symmetry_equiv_pos_site_id
 _symmetry_equiv_pos_as_xyz
  1  'x, y, z'
loop_
 _atom_site_type_symbol
 _atom_site_label
 _atom_site_symmetry_multiplicity
 _atom_site_fract_x
 _atom_site_fract_y
 _atom_site_fract_z
 _atom_site_occupancy
  Ni  Ni0  1  0.70900800  0.84635200  0.32169100  1
  Ni  Ni1  1  0.20900800  0.65364800  0.67830900  1
  Ni  Ni2  1  0.29099200  0.34635200  0.17830900  1
  Ni  Ni3  1  0.79099200  0.15364800  0.82169100  1
  Ni  Ni4  1  0.29099200  0.15364800  0.67830900  1
  Ni  Ni5  1  0.79099200  0.34635200  0.32169100  1
  Ni  Ni6  1  0.70900800  0.65364800  0.82169100  1
  Ni  Ni7  1  0.20900800  0.84635200  0.17830900  1
  Ni  Ni8  1  0.29901200  0.09485400  0.30594100  1
  Ni  Ni9  1  0.79901200  0.40514600  0.69405900  1
  Ni  Ni10  1  0.70098800  0.59485400  0.19405900  1
  Ni  Ni11  1  0.20098800  0.90514600  0.80594100  1
  Ni  Ni12  1  0.70098800  0.90514600  0.69405900  1
  Ni  Ni13  1  0.20098800  0.59485400  0.30594100  1
  Ni  Ni14  1  0.29901200  0.40514600  0.80594100  1
  Ni  Ni15  1  0.79901200  0.09485400  0.19405900  1
  Cu  Cu16  1  0.35673300  0.84870400  0.43726200  1
  Cu  Cu17  1  0.85673300  0.65129600  0.56273800  1
  Cu  Cu18  1  0.64326700  0.34870400  0.06273800  1
  Cu  Cu19  1  0.14326700  0.15129600  0.93726200  1
  Cu  Cu20  1  0.64326700  0.15129600  0.56273800  1
  Cu  Cu21  1  0.14326700  0.34870400  0.43726200  1
  Cu  Cu22  1  0.35673300  0.65129600  0.93726200  1
  Cu  Cu23  1  0.85673300  0.84870400  0.06273800  1
  Cu  Cu24  1  0.76825400  0.07742600  0.44863800  1
  Cu  Cu25  1  0.26825400  0.42257400  0.55136200  1
  Cu  Cu26  1  0.23174600  0.57742600  0.05136200  1
  Cu  Cu27  1  0.73174600  0.92257400  0.94863800  1
  Cu  Cu28  1  0.23174600  0.92257400  0.55136200  1
  Cu  Cu29  1  0.73174600  0.57742600  0.44863800  1
  Cu  Cu30  1  0.76825400  0.42257400  0.94863800  1
  Cu  Cu31  1  0.26825400  0.07742600  0.05136200  1
  Cu  Cu32  1  0.45554700  0.20481600  0.45429100  1
  Cu  Cu33  1  0.95554700  0.29518400  0.54570900  1
  Cu  Cu34  1  0.54445300  0.70481600  0.04570900  1
  Cu  Cu35  1  0.04445300  0.79518400  0.95429100  1
  Cu  Cu36  1  0.54445300  0.79518400  0.54570900  1
  Cu  Cu37  1  0.04445300  0.70481600  0.45429100  1
  Cu  Cu38  1  0.45554700  0.29518400  0.95429100  1
  Cu  Cu39  1  0.95554700  0.20481600  0.04570900  1
  C  C40  1  0.03725600  0.98336900  0.43762000  1
  C  C41  1  0.53725600  0.51663100  0.56238000  1
  C  C42  1  0.96274400  0.48336900  0.06238000  1
  C  C43  1  0.46274400  0.01663100  0.93762000  1
  C  C44  1  0.96274400  0.01663100  0.56238000  1
  C  C45  1  0.46274400  0.48336900  0.43762000  1
  C  C46  1  0.03725600  0.51663100  0.93762000  1
  C  C47  1  0.53725600  0.98336900  0.06238000  1
  C  C48  1  0.43340600  0.90833500  0.37740100  1
  C  C49  1  0.93340600  0.59166500  0.62259900  1
  C  C50  1  0.56659400  0.40833500  0.12259900  1
  C  C51  1  0.06659400  0.09166500  0.87740100  1
  C  C52  1  0.56659400  0.09166500  0.62259900  1
  C  C53  1  0.06659400  0.40833500  0.37740100  1
  C  C54  1  0.43340600  0.59166500  0.87740100  1
  C  C55  1  0.93340600  0.90833500  0.12259900  1
  C  C56  1  0.30299400  0.25849200  0.41489100  1
  C  C57  1  0.80299400  0.24150800  0.58510900  1
  C  C58  1  0.69700600  0.75849200  0.08510900  1
  C  C59  1  0.19700600  0.74150800  0.91489100  1
  C  C60  1  0.69700600  0.74150800  0.58510900  1
  C  C61  1  0.19700600  0.75849200  0.41489100  1
  C  C62  1  0.30299400  0.24150800  0.91489100  1
  C  C63  1  0.80299400  0.25849200  0.08510900  1
  C  C64  1  0.58530700  0.98458500  0.25739300  1
  C  C65  1  0.08530700  0.51541500  0.74260700  1
  C  C66  1  0.41469300  0.48458500  0.24260700  1
  C  C67  1  0.91469300  0.01541500  0.75739300  1
  C  C68  1  0.41469300  0.01541500  0.74260700  1
  C  C69  1  0.91469300  0.48458500  0.25739300  1
  C  C70  1  0.58530700  0.51541500  0.75739300  1
  C  C71  1  0.08530700  0.98458500  0.24260700  1
  C  C72  1  0.61328500  0.14486900  0.41510600  1
  C  C73  1  0.11328500  0.35513100  0.58489400  1
  C  C74  1  0.38671500  0.64486900  0.08489400  1
  C  C75  1  0.88671500  0.85513100  0.91510600  1
  C  C76  1  0.38671500  0.85513100  0.58489400  1
  C  C77  1  0.88671500  0.64486900  0.41510600  1
  C  C78  1  0.61328500  0.35513100  0.91510600  1
  C  C79  1  0.11328500  0.14486900  0.08489400  1
  C  C80  1  0.91835300  0.01954500  0.40871600  1
  C  C81  1  0.41835300  0.48045500  0.59128400  1
  C  C82  1  0.08164700  0.51954500  0.09128400  1
  C  C83  1  0.58164700  0.98045500  0.90871600  1
  C  C84  1  0.08164700  0.98045500  0.59128400  1
  C  C85  1  0.58164700  0.51954500  0.40871600  1
  C  C86  1  0.91835300  0.48045500  0.90871600  1
  C  C87  1  0.41835300  0.01954500  0.09128400  1
  C  C88  1  0.53743900  0.79392800  0.47632700  1
  C  C89  1  0.03743900  0.70607200  0.52367300  1
  C  C90  1  0.46256100  0.29392800  0.02367300  1
  C  C91  1  0.96256100  0.20607200  0.97632700  1
  C  C92  1  0.46256100  0.20607200  0.52367300  1
  C  C93  1  0.96256100  0.29392800  0.47632700  1
  C  C94  1  0.53743900  0.70607200  0.97632700  1
  C  C95  1  0.03743900  0.79392800  0.02367300  1
  C  C96  1  0.52297200  0.71134200  0.26782500  1
  C  C97  1  0.02297200  0.78865800  0.73217500  1
  C  C98  1  0.47702800  0.21134200  0.23217500  1
  C  C99  1  0.97702800  0.28865800  0.76782500  1
  C  C100  1  0.47702800  0.28865800  0.73217500  1
  C  C101  1  0.97702800  0.21134200  0.26782500  1
  C  C102  1  0.52297200  0.78865800  0.76782500  1
  C  C103  1  0.02297200  0.71134200  0.23217500  1
  C  C104  1  0.23558700  0.93318200  0.48182400  1
  C  C105  1  0.73558700  0.56681800  0.51817600  1
  C  C106  1  0.76441300  0.43318200  0.01817600  1
  C  C107  1  0.26441300  0.06681800  0.98182400  1
  C  C108  1  0.76441300  0.06681800  0.51817600  1
  C  C109  1  0.26441300  0.43318200  0.48182400  1
  C  C110  1  0.23558700  0.56681800  0.98182400  1
  C  C111  1  0.73558700  0.93318200  0.01817600  1
