# generated using pymatgen
data_Cu3Ni9C2
_symmetry_space_group_name_H-M   'P 1'
_cell_length_a   7.56256646
_cell_length_b   7.56256646
_cell_length_c   9.48868400
_cell_angle_alpha   90.00000000
_cell_angle_beta   90.00000000
_cell_angle_gamma   119.46486560
_symmetry_Int_Tables_number   1
_chemical_formula_structural   Cu3Ni9C2
_chemical_formula_sum   'Cu6 Ni18 C4'
_cell_volume   472.48903431
_cell_formula_units_Z   2
loop_
 _symmetry_equiv_pos_site_id
 _symmetry_equiv_pos_as_xyz
  1  'x, y, z'
loop_
 _atom_site_type_symbol
 _atom_site_label
 _atom_site_symmetry_multiplicity
 _atom_site_fract_x
 _atom_site_fract_y
 _atom_site_fract_z
 _atom_site_occupancy
  C  C0  1  0.99491000  0.66961500  0.25000000  1
  C  C1  1  0.00509000  0.33038500  0.75000000  1
  C  C2  1  0.66961500  0.99491000  0.25000000  1
  C  C3  1  0.33038500  0.00509000  0.75000000  1
  Ni  Ni4  1  0.12703600  0.12703600  0.25000000  1
  Ni  Ni5  1  0.87296400  0.87296400  0.75000000  1
  Ni  Ni6  1  0.00167500  0.33482800  0.07341700  1
  Ni  Ni7  1  0.99832500  0.66517200  0.92658300  1
  Ni  Ni8  1  0.99832500  0.66517200  0.57341700  1
  Ni  Ni9  1  0.33482800  0.00167500  0.42658300  1
  Ni  Ni10  1  0.00167500  0.33482800  0.42658300  1
  Ni  Ni11  1  0.66517200  0.99832500  0.57341700  1
  Ni  Ni12  1  0.66517200  0.99832500  0.92658300  1
  Ni  Ni13  1  0.33482800  0.00167500  0.07341700  1
  Ni  Ni14  1  0.33377300  0.33377300  0.55214800  1
  Ni  Ni15  1  0.66622700  0.66622700  0.44785200  1
  Ni  Ni16  1  0.66622700  0.66622700  0.05214800  1
  Ni  Ni17  1  0.33377300  0.33377300  0.94785200  1
  Ni  Ni18  1  0.33779000  0.54752500  0.25000000  1
  Ni  Ni19  1  0.66221000  0.45247500  0.75000000  1
  Ni  Ni20  1  0.54752500  0.33779000  0.25000000  1
  Ni  Ni21  1  0.45247500  0.66221000  0.75000000  1
  Cu  Cu22  1  0.67178000  0.32822000  0.00000000  1
  Cu  Cu23  1  0.32822000  0.67178000  0.00000000  1
  Cu  Cu24  1  0.32822000  0.67178000  0.50000000  1
  Cu  Cu25  1  0.67178000  0.32822000  0.50000000  1
  Cu  Cu26  1  0.00000000  0.00000000  0.00000000  1
  Cu  Cu27  1  0.00000000  0.00000000  0.50000000  1
