# generated using pymatgen
data_CuNiC7
_symmetry_space_group_name_H-M   'P 1'
_cell_length_a   5.07802500
_cell_length_b   5.60935700
_cell_length_c   9.99914600
_cell_angle_alpha   90.00000000
_cell_angle_beta   90.00000000
_cell_angle_gamma   90.00000000
_symmetry_Int_Tables_number   1
_chemical_formula_structural   CuNiC7
_chemical_formula_sum   'Cu2 Ni2 C14'
_cell_volume   284.82022507
_cell_formula_units_Z   2
loop_
 _symmetry_equiv_pos_site_id
 _symmetry_equiv_pos_as_xyz
  1  'x, y, z'
loop_
 _atom_site_type_symbol
 _atom_site_label
 _atom_site_symmetry_multiplicity
 _atom_site_fract_x
 _atom_site_fract_y
 _atom_site_fract_z
 _atom_site_occupancy
  C  C0  1  0.00000000  0.00000000  0.32435700  1
  C  C1  1  0.50000000  0.50000000  0.82435700  1
  Ni  Ni2  1  0.00000000  0.00000000  0.99193200  1
  Ni  Ni3  1  0.50000000  0.50000000  0.49193200  1
  Cu  Cu4  1  0.50000000  0.00000000  0.00986600  1
  Cu  Cu5  1  0.00000000  0.50000000  0.50986600  1
  C  C6  1  0.75204300  0.24022600  0.48422000  1
  C  C7  1  0.74456300  0.15278400  0.88002700  1
  C  C8  1  0.25543700  0.84721600  0.88002700  1
  C  C9  1  0.24456300  0.34721600  0.38002700  1
  C  C10  1  0.74795700  0.74022600  0.98422000  1
  C  C11  1  0.76711800  0.11171900  0.13386800  1
  C  C12  1  0.24795700  0.75977400  0.48422000  1
  C  C13  1  0.75543700  0.65278400  0.38002700  1
  C  C14  1  0.25204300  0.25977400  0.98422000  1
  C  C15  1  0.26711800  0.38828100  0.63386800  1
  C  C16  1  0.23288200  0.88828100  0.13386800  1
  C  C17  1  0.73288200  0.61171900  0.63386800  1
