# generated using pymatgen
data_Cu4NiC5
_symmetry_space_group_name_H-M   'P 1'
_cell_length_a   3.28942558
_cell_length_b   3.28942558
_cell_length_c   26.33962500
_cell_angle_alpha   90.00000000
_cell_angle_beta   90.00000000
_cell_angle_gamma   119.99999164
_symmetry_Int_Tables_number   1
_chemical_formula_structural   Cu4NiC5
_chemical_formula_sum   'Cu8 Ni2 C10'
_cell_volume   246.82002260
_cell_formula_units_Z   2
loop_
 _symmetry_equiv_pos_site_id
 _symmetry_equiv_pos_as_xyz
  1  'x, y, z'
loop_
 _atom_site_type_symbol
 _atom_site_label
 _atom_site_symmetry_multiplicity
 _atom_site_fract_x
 _atom_site_fract_y
 _atom_site_fract_z
 _atom_site_occupancy
  Ni  Ni0  1  0.33333300  0.66666700  0.27672900  1
  Ni  Ni1  1  0.33333300  0.66666700  0.07676100  1
  Cu  Cu2  1  0.00000000  0.00000000  0.97585400  1
  Cu  Cu3  1  0.00000000  0.00000000  0.77599900  1
  Cu  Cu4  1  0.00000000  0.00000000  0.57600300  1
  Cu  Cu5  1  0.00000000  0.00000000  0.37546500  1
  Cu  Cu6  1  0.00000000  0.00000000  0.17531800  1
  Cu  Cu7  1  0.33333300  0.66666700  0.87600900  1
  Cu  Cu8  1  0.33333300  0.66666700  0.67600300  1
  Cu  Cu9  1  0.33333300  0.66666700  0.47600700  1
  C  C10  1  0.00000000  0.00000000  0.89975900  1
  C  C11  1  0.00000000  0.00000000  0.69978300  1
  C  C12  1  0.00000000  0.00000000  0.49977700  1
  C  C13  1  0.00000000  0.00000000  0.29905200  1
  C  C14  1  0.00000000  0.00000000  0.09903700  1
  C  C15  1  0.33333300  0.66666700  0.79979600  1
  C  C16  1  0.33333300  0.66666700  0.59979000  1
  C  C17  1  0.33333300  0.66666700  0.39970700  1
  C  C18  1  0.33333300  0.66666700  0.20046200  1
  C  C19  1  0.33333300  0.66666700  0.00054700  1
