# generated using pymatgen
data_Cu(NiC12)2
_symmetry_space_group_name_H-M   'P 1'
_cell_length_a   10.53330145
_cell_length_b   10.53330145
_cell_length_c   11.58229079
_cell_angle_alpha   58.19970115
_cell_angle_beta   58.19970115
_cell_angle_gamma   37.94349374
_symmetry_Int_Tables_number   1
_chemical_formula_structural   Cu(NiC12)2
_chemical_formula_sum   'Cu2 Ni4 C48'
_cell_volume   656.11860631
_cell_formula_units_Z   2
loop_
 _symmetry_equiv_pos_site_id
 _symmetry_equiv_pos_as_xyz
  1  'x, y, z'
loop_
 _atom_site_type_symbol
 _atom_site_label
 _atom_site_symmetry_multiplicity
 _atom_site_fract_x
 _atom_site_fract_y
 _atom_site_fract_z
 _atom_site_occupancy
  C  C0  1  0.11219900  0.11219900  0.60974700  1
  C  C1  1  0.44379100  0.44379100  0.94464500  1
  C  C2  1  0.77654800  0.77654800  0.27770900  1
  C  C3  1  0.11028400  0.11028400  0.11135200  1
  C  C4  1  0.44371000  0.44371000  0.44293000  1
  C  C5  1  0.77674300  0.77674300  0.77678800  1
  C  C6  1  0.88780100  0.88780100  0.39025300  1
  C  C7  1  0.22345200  0.22345200  0.72229100  1
  C  C8  1  0.55620900  0.55620900  0.05535500  1
  C  C9  1  0.22325700  0.22325700  0.22321200  1
  C  C10  1  0.55629000  0.55629000  0.55707000  1
  C  C11  1  0.88971600  0.88971600  0.88864800  1
  Ni  Ni12  1  0.66645200  0.66645200  0.16625700  1
  Ni  Ni13  1  0.33354800  0.33354800  0.83374300  1
  Ni  Ni14  1  0.00000000  0.00000000  0.50000000  1
  Ni  Ni15  1  0.00000000  0.00000000  0.00000000  1
  Cu  Cu16  1  0.66637700  0.66637700  0.66745300  1
  Cu  Cu17  1  0.33362300  0.33362300  0.33254700  1
  C  C18  1  0.39879200  0.81392100  0.60615600  1
  C  C19  1  0.73123600  0.14655400  0.94046700  1
  C  C20  1  0.06559900  0.48039000  0.27172700  1
  C  C21  1  0.81392100  0.39879200  0.60615600  1
  C  C22  1  0.14655400  0.73123600  0.94046700  1
  C  C23  1  0.48039000  0.06559900  0.27172700  1
  C  C24  1  0.00718200  0.00718200  0.30075200  1
  C  C25  1  0.34208200  0.34208200  0.63449900  1
  C  C26  1  0.67480300  0.67480300  0.96797800  1
  C  C27  1  0.86976800  0.86976800  0.57741400  1
  C  C28  1  0.20380300  0.20380300  0.91040200  1
  C  C29  1  0.53669600  0.53669600  0.24314200  1
  C  C30  1  0.60120800  0.18607900  0.39384400  1
  C  C31  1  0.93440100  0.51961000  0.72827300  1
  C  C32  1  0.26876400  0.85344600  0.05953300  1
  C  C33  1  0.18607900  0.60120800  0.39384400  1
  C  C34  1  0.51961000  0.93440100  0.72827300  1
  C  C35  1  0.85344600  0.26876400  0.05953300  1
  C  C36  1  0.99281800  0.99281800  0.69924800  1
  C  C37  1  0.32519700  0.32519700  0.03202200  1
  C  C38  1  0.65791800  0.65791800  0.36550100  1
  C  C39  1  0.13023200  0.13023200  0.42258600  1
  C  C40  1  0.46330400  0.46330400  0.75685800  1
  C  C41  1  0.79619700  0.79619700  0.08959800  1
  C  C42  1  0.98246300  0.34989800  0.16706100  1
  C  C43  1  0.65010200  0.01753700  0.83293900  1
  C  C44  1  0.31652400  0.68347600  0.50000000  1
  C  C45  1  0.34989800  0.98246300  0.16706100  1
  C  C46  1  0.01753700  0.65010200  0.83293900  1
  C  C47  1  0.68347600  0.31652400  0.50000000  1
  C  C48  1  0.89337200  0.89337200  0.21194500  1
  C  C49  1  0.56233200  0.56233200  0.87501500  1
  C  C50  1  0.23083800  0.23083800  0.53985100  1
  C  C51  1  0.76916200  0.76916200  0.46014900  1
  C  C52  1  0.43766800  0.43766800  0.12498500  1
  C  C53  1  0.10662800  0.10662800  0.78805500  1
