# generated using pymatgen
data_CuNiC18
_symmetry_space_group_name_H-M   'P 1'
_cell_length_a   7.69088100
_cell_length_b   5.48061100
_cell_length_c   5.49530336
_cell_angle_alpha   89.89422495
_cell_angle_beta   90.00000000
_cell_angle_gamma   90.00000000
_symmetry_Int_Tables_number   1
_chemical_formula_structural   CuNiC18
_chemical_formula_sum   'Cu1 Ni1 C18'
_cell_volume   231.63063722
_cell_formula_units_Z   1
loop_
 _symmetry_equiv_pos_site_id
 _symmetry_equiv_pos_as_xyz
  1  'x, y, z'
loop_
 _atom_site_type_symbol
 _atom_site_label
 _atom_site_symmetry_multiplicity
 _atom_site_fract_x
 _atom_site_fract_y
 _atom_site_fract_z
 _atom_site_occupancy
  C  C0  1  0.50000000  0.49410700  0.53404600  1
  C  C1  1  0.00000000  0.99436300  0.96714000  1
  Ni  Ni2  1  0.00000000  0.50668200  0.47254800  1
  Cu  Cu3  1  0.50000000  0.00723900  0.03542500  1
  C  C4  1  0.25139300  0.00008700  0.50127800  1
  C  C5  1  0.74917700  0.50043900  0.99915100  1
  C  C6  1  0.74860700  0.00008700  0.50127800  1
  C  C7  1  0.25082300  0.50043900  0.99915100  1
  C  C8  1  0.21189300  0.78606800  0.21396400  1
  C  C9  1  0.78501000  0.71701900  0.71662400  1
  C  C10  1  0.71122800  0.21594800  0.78443500  1
  C  C11  1  0.29244400  0.28300400  0.28279800  1
  C  C12  1  0.28877200  0.21594800  0.78443500  1
  C  C13  1  0.70755600  0.28300400  0.28279800  1
  C  C14  1  0.78810700  0.78606800  0.21396400  1
  C  C15  1  0.21499000  0.71701900  0.71662400  1
  C  C16  1  0.50000000  0.92391300  0.48181300  1
  C  C17  1  0.50000000  0.57576000  0.98412700  1
  C  C18  1  0.00000000  0.06799500  0.51614900  1
  C  C19  1  0.00000000  0.42480700  0.01225300  1
