# generated using pymatgen
data_Cu3NiC2
_symmetry_space_group_name_H-M   'P 1'
_cell_length_a   3.37850821
_cell_length_b   3.37850821
_cell_length_c   38.53096000
_cell_angle_alpha   90.00000000
_cell_angle_beta   90.00000000
_cell_angle_gamma   120.00000416
_symmetry_Int_Tables_number   1
_chemical_formula_structural   Cu3NiC2
_chemical_formula_sum   'Cu6 Ni2 C4'
_cell_volume   380.88195791
_cell_formula_units_Z   2
loop_
 _symmetry_equiv_pos_site_id
 _symmetry_equiv_pos_as_xyz
  1  'x, y, z'
loop_
 _atom_site_type_symbol
 _atom_site_label
 _atom_site_symmetry_multiplicity
 _atom_site_fract_x
 _atom_site_fract_y
 _atom_site_fract_z
 _atom_site_occupancy
  Ni  Ni0  1  0.33333300  0.66666700  0.33059200  1
  Ni  Ni1  1  0.33333300  0.66666700  0.23302300  1
  C  C2  1  0.66666700  0.33333300  0.28179500  1
  C  C3  1  0.33333300  0.66666700  0.09389600  1
  C  C4  1  0.33333300  0.66666700  0.46968100  1
  C  C5  1  0.66666700  0.33333300  0.65752900  1
  Cu  Cu6  1  0.33333300  0.66666700  0.70067200  1
  Cu  Cu7  1  0.66666700  0.33333300  0.05077100  1
  Cu  Cu8  1  0.66666700  0.33333300  0.42654900  1
  Cu  Cu9  1  0.66666700  0.33333300  0.13705000  1
  Cu  Cu10  1  0.66666700  0.33333300  0.51280200  1
  Cu  Cu11  1  0.33333300  0.66666700  0.61438800  1
