# generated using pymatgen
data_CuNiC5
_symmetry_space_group_name_H-M   'P 1'
_cell_length_a   6.17641100
_cell_length_b   11.65213300
_cell_length_c   16.41438300
_cell_angle_alpha   90.00000000
_cell_angle_beta   90.00000000
_cell_angle_gamma   90.00000000
_symmetry_Int_Tables_number   1
_chemical_formula_structural   CuNiC5
_chemical_formula_sum   'Cu8 Ni8 C40'
_cell_volume   1181.31626489
_cell_formula_units_Z   8
loop_
 _symmetry_equiv_pos_site_id
 _symmetry_equiv_pos_as_xyz
  1  'x, y, z'
loop_
 _atom_site_type_symbol
 _atom_site_label
 _atom_site_symmetry_multiplicity
 _atom_site_fract_x
 _atom_site_fract_y
 _atom_site_fract_z
 _atom_site_occupancy
  Ni  Ni0  1  0.92871100  0.82573600  0.21153200  1
  Ni  Ni1  1  0.07128900  0.17426400  0.78846800  1
  Ni  Ni2  1  0.57128900  0.32573600  0.78846800  1
  Ni  Ni3  1  0.07128900  0.67426400  0.71153200  1
  Ni  Ni4  1  0.42871100  0.17426400  0.28846800  1
  Ni  Ni5  1  0.42871100  0.67426400  0.21153200  1
  Ni  Ni6  1  0.57128900  0.82573600  0.71153200  1
  Ni  Ni7  1  0.92871100  0.32573600  0.28846800  1
  Cu  Cu8  1  0.97384300  0.39106400  0.60697100  1
  Cu  Cu9  1  0.52615700  0.89106400  0.39302900  1
  Cu  Cu10  1  0.02615700  0.60893600  0.39302900  1
  Cu  Cu11  1  0.47384300  0.10893600  0.60697100  1
  Cu  Cu12  1  0.02615700  0.10893600  0.10697100  1
  Cu  Cu13  1  0.97384300  0.89106400  0.89302900  1
  Cu  Cu14  1  0.52615700  0.39106400  0.10697100  1
  Cu  Cu15  1  0.47384300  0.60893600  0.89302900  1
  C  C16  1  0.88338000  0.30069600  0.70216900  1
  C  C17  1  0.27122800  0.03743800  0.07424800  1
  C  C18  1  0.22877200  0.53743800  0.92575200  1
  C  C19  1  0.22517700  0.78999100  0.15203800  1
  C  C20  1  0.27482300  0.28999100  0.84796200  1
  C  C21  1  0.88338000  0.80069600  0.79783100  1
  C  C22  1  0.27482300  0.78999100  0.65203800  1
  C  C23  1  0.61662000  0.80069600  0.29783100  1
  C  C24  1  0.27122800  0.53743800  0.42575200  1
  C  C25  1  0.11662000  0.69930400  0.29783100  1
  C  C26  1  0.61662000  0.30069600  0.20216900  1
  C  C27  1  0.66034800  0.19367500  0.54710600  1
  C  C28  1  0.77122800  0.96256200  0.42575200  1
  C  C29  1  0.77482300  0.71000900  0.65203800  1
  C  C30  1  0.15133800  0.99946300  0.83496700  1
  C  C31  1  0.77122800  0.46256200  0.07424800  1
  C  C32  1  0.11662000  0.19930400  0.20216900  1
  C  C33  1  0.72517700  0.21000900  0.34796200  1
  C  C34  1  0.16034800  0.80632500  0.95289400  1
  C  C35  1  0.22877200  0.03743800  0.57424800  1
  C  C36  1  0.33965200  0.80632500  0.45289400  1
  C  C37  1  0.84866200  0.00053700  0.16503300  1
  C  C38  1  0.77482300  0.21000900  0.84796200  1
  C  C39  1  0.65133800  0.00053700  0.66503300  1
  C  C40  1  0.33965200  0.30632500  0.04710600  1
  C  C41  1  0.16034800  0.30632500  0.54710600  1
  C  C42  1  0.72877200  0.46256200  0.57424800  1
  C  C43  1  0.72877200  0.96256200  0.92575200  1
  C  C44  1  0.65133800  0.50053700  0.83496700  1
  C  C45  1  0.83965200  0.69367500  0.45289400  1
  C  C46  1  0.83965200  0.19367500  0.04710600  1
  C  C47  1  0.66034800  0.69367500  0.95289400  1
  C  C48  1  0.84866200  0.50053700  0.33496700  1
  C  C49  1  0.72517700  0.71000900  0.15203800  1
  C  C50  1  0.22517700  0.28999100  0.34796200  1
  C  C51  1  0.15133800  0.49946300  0.66503300  1
  C  C52  1  0.34866200  0.49946300  0.16503300  1
  C  C53  1  0.38338000  0.19930400  0.70216900  1
  C  C54  1  0.34866200  0.99946300  0.33496700  1
  C  C55  1  0.38338000  0.69930400  0.79783100  1
