# generated using pymatgen
data_Cu2Ni4C3
_symmetry_space_group_name_H-M   'P 1'
_cell_length_a   6.22529105
_cell_length_b   7.39526116
_cell_length_c   7.39526116
_cell_angle_alpha   118.39716257
_cell_angle_beta   91.99307065
_cell_angle_gamma   88.00692935
_symmetry_Int_Tables_number   1
_chemical_formula_structural   Cu2Ni4C3
_chemical_formula_sum   'Cu2 Ni4 C3'
_cell_volume   299.24798406
_cell_formula_units_Z   1
loop_
 _symmetry_equiv_pos_site_id
 _symmetry_equiv_pos_as_xyz
  1  'x, y, z'
loop_
 _atom_site_type_symbol
 _atom_site_label
 _atom_site_symmetry_multiplicity
 _atom_site_fract_x
 _atom_site_fract_y
 _atom_site_fract_z
 _atom_site_occupancy
  C  C0  1  0.27565700  0.65767700  0.34232300  1
  C  C1  1  0.72434300  0.34232300  0.65767700  1
  C  C2  1  0.00000000  0.00000000  0.00000000  1
  Ni  Ni3  1  0.78478100  0.85549700  0.64180700  1
  Ni  Ni4  1  0.78478100  0.35819300  0.14450300  1
  Ni  Ni5  1  0.21521900  0.14450300  0.35819300  1
  Ni  Ni6  1  0.21521900  0.64180700  0.85549700  1
  Cu  Cu7  1  0.80816500  0.90029000  0.09971000  1
  Cu  Cu8  1  0.19183500  0.09971000  0.90029000  1
