# generated using pymatgen
data_Cu(NiC12)3
_symmetry_space_group_name_H-M   'P 1'
_cell_length_a   8.56586400
_cell_length_b   8.62341363
_cell_length_c   8.64498556
_cell_angle_alpha   61.79059738
_cell_angle_beta   61.79225038
_cell_angle_gamma   60.88688330
_symmetry_Int_Tables_number   1
_chemical_formula_structural   Cu(NiC12)3
_chemical_formula_sum   'Cu1 Ni3 C36'
_cell_volume   466.57262867
_cell_formula_units_Z   1
loop_
 _symmetry_equiv_pos_site_id
 _symmetry_equiv_pos_as_xyz
  1  'x, y, z'
loop_
 _atom_site_type_symbol
 _atom_site_label
 _atom_site_symmetry_multiplicity
 _atom_site_fract_x
 _atom_site_fract_y
 _atom_site_fract_z
 _atom_site_occupancy
  C  C0  1  0.00191600  0.96248100  0.00540200  1
  C  C1  1  0.84332300  0.23921500  0.64545400  1
  C  C2  1  0.49204000  0.51406000  0.52286900  1
  C  C3  1  0.15503500  0.74276400  0.34272000  1
  C  C4  1  0.74382400  0.34239800  0.14460900  1
  C  C5  1  0.33457700  0.16544800  0.75166800  1
  Ni  Ni6  1  0.84907100  0.85662400  0.86390200  1
  Ni  Ni7  1  0.64111500  0.64581600  0.64324300  1
  Ni  Ni8  1  0.35773500  0.35002500  0.35115300  1
  Cu  Cu9  1  0.14648400  0.14622900  0.15108300  1
  C  C10  1  0.25201800  0.95289600  0.55087700  1
  C  C11  1  0.95414900  0.54792600  0.25601500  1
  C  C12  1  0.54776800  0.24383700  0.94832700  1
  C  C13  1  0.45391100  0.74838500  0.03864400  1
  C  C14  1  0.03345100  0.46442200  0.75483500  1
  C  C15  1  0.75258100  0.05161700  0.45520200  1
  C  C16  1  0.71565700  0.87977800  0.49702000  1
  C  C17  1  0.48302800  0.70084700  0.87574100  1
  C  C18  1  0.08299300  0.95034800  0.73219700  1
  C  C19  1  0.87057500  0.47957300  0.71067400  1
  C  C20  1  0.41626700  0.76228800  0.56523000  1
  C  C21  1  0.19703500  0.98718800  0.38805300  1
  C  C22  1  0.93243400  0.73581900  0.10320600  1
  C  C23  1  0.77306400  0.54335000  0.42854600  1
  C  C24  1  0.57061400  0.38963800  0.75436800  1
  C  C25  1  0.61481200  0.79867000  0.01029800  1
  C  C26  1  0.25667100  0.90832700  0.06917300  1
  C  C27  1  0.99188700  0.63690900  0.79633700  1
  C  C28  1  0.99369700  0.38654000  0.19666100  1
  C  C29  1  0.74361900  0.07867600  0.93177600  1
  C  C30  1  0.38706300  0.18194400  0.99077100  1
  C  C31  1  0.43460900  0.58526600  0.22832700  1
  C  C32  1  0.22543100  0.44299800  0.59804800  1
  C  C33  1  0.05987400  0.27701300  0.91714700  1
  C  C34  1  0.79809600  0.04676500  0.60865700  1
  C  C35  1  0.58157300  0.24229300  0.42697800  1
  C  C36  1  0.11826300  0.51407900  0.31363900  1
  C  C37  1  0.90954400  0.07805500  0.26232400  1
  C  C38  1  0.52606800  0.30600100  0.09806500  1
  C  C39  1  0.30912700  0.11349000  0.51976500  1
