# generated using pymatgen
data_Cu12Ni19C56
_symmetry_space_group_name_H-M   'P 1'
_cell_length_a   11.36940153
_cell_length_b   11.36940153
_cell_length_c   11.36940153
_cell_angle_alpha   108.49909395
_cell_angle_beta   108.49909395
_cell_angle_gamma   111.43347435
_symmetry_Int_Tables_number   1
_chemical_formula_structural   Cu12Ni19C56
_chemical_formula_sum   'Cu12 Ni19 C56'
_cell_volume   1130.33519397
_cell_formula_units_Z   1
loop_
 _symmetry_equiv_pos_site_id
 _symmetry_equiv_pos_as_xyz
  1  'x, y, z'
loop_
 _atom_site_type_symbol
 _atom_site_label
 _atom_site_symmetry_multiplicity
 _atom_site_fract_x
 _atom_site_fract_y
 _atom_site_fract_z
 _atom_site_occupancy
  Ni  Ni0  1  0.50000000  0.50000000  0.00000000  1
  Ni  Ni1  1  0.00000000  0.00000000  0.00000000  1
  Ni  Ni2  1  0.75000000  0.25000000  0.50000000  1
  Ni  Ni3  1  0.83927300  0.09763600  0.08612000  1
  Ni  Ni4  1  0.33966900  0.25136400  0.74036900  1
  Ni  Ni5  1  0.84818300  0.09140100  0.58648900  1
  Ni  Ni6  1  0.34469100  0.76152500  0.74511200  1
  Ni  Ni7  1  0.40042100  0.65530900  0.41683400  1
  Ni  Ni8  1  0.90859900  0.49508800  0.75678200  1
  Ni  Ni9  1  0.40070000  0.66033100  0.91169500  1
  Ni  Ni10  1  0.90236400  0.98848400  0.74163600  1
  Ni  Ni11  1  0.51099500  0.59930000  0.25963100  1
  Ni  Ni12  1  0.01151600  0.75315300  0.91388000  1
  Ni  Ni13  1  0.01641300  0.59957900  0.25488800  1
  Ni  Ni14  1  0.50491200  0.26169400  0.41351100  1
  Ni  Ni15  1  0.73830600  0.15181700  0.24321800  1
  Ni  Ni16  1  0.23847500  0.98358700  0.58316600  1
  Ni  Ni17  1  0.24684700  0.16072700  0.25836400  1
  Ni  Ni18  1  0.74863600  0.48900500  0.08830500  1
  Cu  Cu19  1  0.25230200  0.25230200  0.00000000  1
  Cu  Cu20  1  0.74769800  0.74769800  0.00000000  1
  Cu  Cu21  1  0.00086000  0.50086000  0.50000000  1
  Cu  Cu22  1  0.49914000  0.99914000  0.50000000  1
  Cu  Cu23  1  0.23701700  0.62196300  0.10937300  1
  Cu  Cu24  1  0.73670900  0.62276400  0.60996800  1
  Cu  Cu25  1  0.37803700  0.48740900  0.61505300  1
  Cu  Cu26  1  0.87325900  0.26329100  0.88605500  1
  Cu  Cu27  1  0.01279600  0.12674100  0.39003200  1
  Cu  Cu28  1  0.51259100  0.12764400  0.89062700  1
  Cu  Cu29  1  0.37723600  0.98720400  0.11394500  1
  Cu  Cu30  1  0.87235600  0.76298300  0.38494700  1
  C  C31  1  0.12366200  0.37192500  0.24394200  1
  C  C32  1  0.62553600  0.37511300  0.74988200  1
  C  C33  1  0.12434600  0.37446400  0.74957800  1
  C  C34  1  0.62807500  0.87201600  0.75173700  1
  C  C35  1  0.62523200  0.87565400  0.25011800  1
  C  C36  1  0.12798400  0.87972000  0.75605800  1
  C  C37  1  0.12028000  0.87633800  0.24826300  1
  C  C38  1  0.62488700  0.37476800  0.25042200  1
  C  C39  1  0.30569600  0.47316100  0.21872000  1
  C  C40  1  0.80711800  0.58733200  0.83233900  1
  C  C41  1  0.22299900  0.55570500  0.71877200  1
  C  C42  1  0.72336000  0.00358000  0.66679600  1
  C  C43  1  0.94343600  0.27664000  0.28022000  1
  C  C44  1  0.44429500  0.16306700  0.66729400  1
  C  C45  1  0.02522100  0.19288200  0.78021400  1
  C  C46  1  0.52683900  0.74555900  0.83253500  1
  C  C47  1  0.75499300  0.97477900  0.16766100  1
  C  C48  1  0.25444100  0.08697600  0.78128000  1
  C  C49  1  0.33678300  0.05656400  0.33320400  1
  C  C50  1  0.83693300  0.50422700  0.28122800  1
  C  C51  1  0.49577300  0.77700100  0.33270600  1
  C  C52  1  0.99642000  0.66321700  0.71978000  1
  C  C53  1  0.91302400  0.69430400  0.16746500  1
  C  C54  1  0.41266800  0.24500700  0.21978600  1
  C  C55  1  0.60642800  0.05690700  0.34282300  1
  C  C56  1  0.10120700  0.76116600  0.54936500  1
  C  C57  1  0.80860700  0.85734600  0.84277900  1
  C  C58  1  0.30606400  0.46242300  0.94995100  1
  C  C59  1  0.64388700  0.69393600  0.15635900  1
  C  C60  1  0.14265400  0.98543300  0.95126100  1
  C  C61  1  0.44815800  0.89879300  0.65996000  1
  C  C62  1  0.94309300  0.28591600  0.54952200  1
  C  C63  1  0.21180200  0.55184200  0.45063500  1
  C  C64  1  0.71408400  0.26360600  0.65717700  1
  C  C65  1  0.51247200  0.35611300  0.05004900  1
  C  C66  1  0.01456700  0.96582800  0.15722100  1
  C  C67  1  0.03417200  0.19139300  0.04873900  1
  C  C68  1  0.53757700  0.48752800  0.84364100  1
  C  C69  1  0.73639400  0.39357200  0.45047800  1
  C  C70  1  0.23883400  0.78819800  0.34004000  1
  C  C71  1  0.41982500  0.78992500  0.07813500  1
  C  C72  1  0.92113400  0.84035100  0.62812800  1
  C  C73  1  0.53943600  0.66968100  0.57683700  1
  C  C74  1  0.03997700  0.46223700  0.87028400  1
  C  C75  1  0.83030700  0.96002300  0.42226000  1
  C  C76  1  0.33031900  0.90715500  0.86975500  1
  C  C77  1  0.70699400  0.07886600  0.91921700  1
  C  C78  1  0.21007500  0.28820900  0.62989900  1
  C  C79  1  0.21222300  0.29300600  0.37187200  1
  C  C80  1  0.71179100  0.34169000  0.92186500  1
  C  C81  1  0.59195300  0.16969300  0.12971600  1
  C  C82  1  0.09284500  0.96259900  0.42316300  1
  C  C83  1  0.03740100  0.46056400  0.13024500  1
  C  C84  1  0.53776300  0.40804700  0.57774000  1
  C  C85  1  0.65831000  0.58017500  0.37010100  1
  C  C86  1  0.15964900  0.78777700  0.08078300  1
