# generated using pymatgen
data_Cu10Ni3C
_symmetry_space_group_name_H-M   'P 1'
_cell_length_a   9.48883300
_cell_length_b   9.83642100
_cell_length_c   11.68458296
_cell_angle_alpha   71.11346455
_cell_angle_beta   90.00000000
_cell_angle_gamma   90.00000000
_symmetry_Int_Tables_number   1
_chemical_formula_structural   Cu10Ni3C
_chemical_formula_sum   'Cu40 Ni12 C4'
_cell_volume   1031.87806139
_cell_formula_units_Z   4
loop_
 _symmetry_equiv_pos_site_id
 _symmetry_equiv_pos_as_xyz
  1  'x, y, z'
loop_
 _atom_site_type_symbol
 _atom_site_label
 _atom_site_symmetry_multiplicity
 _atom_site_fract_x
 _atom_site_fract_y
 _atom_site_fract_z
 _atom_site_occupancy
  C  C0  1  0.57876200  0.68485200  0.14275100  1
  C  C1  1  0.07876200  0.81514800  0.85724900  1
  C  C2  1  0.42123800  0.31514800  0.85724900  1
  C  C3  1  0.92123800  0.18485200  0.14275100  1
  Ni  Ni4  1  0.39712200  0.63737500  0.48230000  1
  Ni  Ni5  1  0.89712200  0.86262500  0.51770000  1
  Ni  Ni6  1  0.60287800  0.36262500  0.51770000  1
  Ni  Ni7  1  0.10287800  0.13737500  0.48230000  1
  Ni  Ni8  1  0.42647900  0.98807600  0.03199200  1
  Ni  Ni9  1  0.92647900  0.51192400  0.96800800  1
  Ni  Ni10  1  0.57352100  0.01192400  0.96800800  1
  Ni  Ni11  1  0.07352100  0.48807600  0.03199200  1
  Ni  Ni12  1  0.41799700  0.67203200  0.86611900  1
  Ni  Ni13  1  0.91799700  0.82796800  0.13388100  1
  Ni  Ni14  1  0.58200300  0.32796800  0.13388100  1
  Ni  Ni15  1  0.08200300  0.17203200  0.86611900  1
  Cu  Cu16  1  0.42377600  0.70385900  0.38116000  1
  Cu  Cu17  1  0.92377600  0.79614100  0.61884000  1
  Cu  Cu18  1  0.57622400  0.29614100  0.61884000  1
  Cu  Cu19  1  0.07622400  0.20385900  0.38116000  1
  Cu  Cu20  1  0.19560100  0.90758000  0.37230100  1
  Cu  Cu21  1  0.69560100  0.59242000  0.62769900  1
  Cu  Cu22  1  0.80439900  0.09242000  0.62769900  1
  Cu  Cu23  1  0.30439900  0.40758000  0.37230100  1
  Cu  Cu24  1  0.37118900  0.56948300  0.58268800  1
  Cu  Cu25  1  0.87118900  0.93051700  0.41731200  1
  Cu  Cu26  1  0.62881100  0.43051700  0.41731200  1
  Cu  Cu27  1  0.12881100  0.06948300  0.58268800  1
  Cu  Cu28  1  0.40536400  0.86702800  0.11216000  1
  Cu  Cu29  1  0.90536400  0.63297200  0.88784000  1
  Cu  Cu30  1  0.59463600  0.13297200  0.88784000  1
  Cu  Cu31  1  0.09463600  0.36702800  0.11216000  1
  Cu  Cu32  1  0.66042200  0.90948700  0.00123900  1
  Cu  Cu33  1  0.16042200  0.59051300  0.99876100  1
  Cu  Cu34  1  0.33957800  0.09051300  0.99876100  1
  Cu  Cu35  1  0.83957800  0.40948700  0.00123900  1
  Cu  Cu36  1  0.49398100  0.69801600  0.94428800  1
  Cu  Cu37  1  0.99398100  0.80198400  0.05571200  1
  Cu  Cu38  1  0.50601900  0.30198400  0.05571200  1
  Cu  Cu39  1  0.00601900  0.19801600  0.94428800  1
  Cu  Cu40  1  0.58430200  0.43548100  0.16912700  1
  Cu  Cu41  1  0.08430200  0.06451900  0.83087300  1
  Cu  Cu42  1  0.41569800  0.56451900  0.83087300  1
  Cu  Cu43  1  0.91569800  0.93548100  0.16912700  1
  Cu  Cu44  1  0.29487300  0.49610900  0.27005300  1
  Cu  Cu45  1  0.79487300  0.00389100  0.72994700  1
  Cu  Cu46  1  0.70512700  0.50389100  0.72994700  1
  Cu  Cu47  1  0.20512700  0.99610900  0.27005300  1
  Cu  Cu48  1  0.72563400  0.73728000  0.27587200  1
  Cu  Cu49  1  0.22563400  0.76272000  0.72412800  1
  Cu  Cu50  1  0.27436600  0.26272000  0.72412800  1
  Cu  Cu51  1  0.77436600  0.23728000  0.27587200  1
  Cu  Cu52  1  0.82813700  0.71116700  0.18968500  1
  Cu  Cu53  1  0.32813700  0.78883300  0.81031500  1
  Cu  Cu54  1  0.17186300  0.28883300  0.81031500  1
  Cu  Cu55  1  0.67186300  0.21116700  0.18968500  1
