# generated using pymatgen
data_CuNiC5
_symmetry_space_group_name_H-M   'P 1'
_cell_length_a   2.76638300
_cell_length_b   8.77476300
_cell_length_c   10.22237500
_cell_angle_alpha   90.00000000
_cell_angle_beta   90.00000000
_cell_angle_gamma   90.00000000
_symmetry_Int_Tables_number   1
_chemical_formula_structural   CuNiC5
_chemical_formula_sum   'Cu4 Ni4 C20'
_cell_volume   248.14156166
_cell_formula_units_Z   4
loop_
 _symmetry_equiv_pos_site_id
 _symmetry_equiv_pos_as_xyz
  1  'x, y, z'
loop_
 _atom_site_type_symbol
 _atom_site_label
 _atom_site_symmetry_multiplicity
 _atom_site_fract_x
 _atom_site_fract_y
 _atom_site_fract_z
 _atom_site_occupancy
  C  C0  1  0.25000000  0.73880000  0.16220400  1
  C  C1  1  0.25000000  0.23880000  0.33779600  1
  C  C2  1  0.75000000  0.25671800  0.84639800  1
  C  C3  1  0.75000000  0.75671800  0.65360200  1
  Ni  Ni4  1  0.75000000  0.93399200  0.88869800  1
  Ni  Ni5  1  0.75000000  0.43399200  0.61130200  1
  Ni  Ni6  1  0.75000000  0.92183300  0.39743500  1
  Ni  Ni7  1  0.75000000  0.42183300  0.10256500  1
  Cu  Cu8  1  0.25000000  0.05283100  0.11120000  1
  Cu  Cu9  1  0.25000000  0.55283100  0.38880000  1
  Cu  Cu10  1  0.25000000  0.08631900  0.59989900  1
  Cu  Cu11  1  0.25000000  0.58631900  0.90010100  1
  C  C12  1  0.25000000  0.78932000  0.85108200  1
  C  C13  1  0.25000000  0.28932000  0.64891800  1
  C  C14  1  0.75000000  0.19101500  0.14277300  1
  C  C15  1  0.75000000  0.69101500  0.35722700  1
  C  C16  1  0.25000000  0.07129900  0.93606600  1
  C  C17  1  0.25000000  0.57129900  0.56393400  1
  C  C18  1  0.75000000  0.92410700  0.08029200  1
  C  C19  1  0.75000000  0.42410700  0.41970800  1
  C  C20  1  0.25000000  0.89832100  0.52023900  1
  C  C21  1  0.25000000  0.39832100  0.97976100  1
  C  C22  1  0.75000000  0.12279400  0.48860200  1
  C  C23  1  0.75000000  0.62279400  0.01139800  1
  C  C24  1  0.75000000  0.03284900  0.70904400  1
  C  C25  1  0.75000000  0.53284900  0.79095600  1
  C  C26  1  0.25000000  0.97980300  0.28099000  1
  C  C27  1  0.25000000  0.47980300  0.21901000  1
