# generated using pymatgen
data_Cu2Ni2C11
_symmetry_space_group_name_H-M   'P 1'
_cell_length_a   5.93920600
_cell_length_b   5.98868142
_cell_length_c   6.02911094
_cell_angle_alpha   119.51325183
_cell_angle_beta   89.68553790
_cell_angle_gamma   119.67186111
_symmetry_Int_Tables_number   1
_chemical_formula_structural   Cu2Ni2C11
_chemical_formula_sum   'Cu2 Ni2 C11'
_cell_volume   153.87882820
_cell_formula_units_Z   1
loop_
 _symmetry_equiv_pos_site_id
 _symmetry_equiv_pos_as_xyz
  1  'x, y, z'
loop_
 _atom_site_type_symbol
 _atom_site_label
 _atom_site_symmetry_multiplicity
 _atom_site_fract_x
 _atom_site_fract_y
 _atom_site_fract_z
 _atom_site_occupancy
  C  C0  1  0.50000000  0.50000000  0.00000000  1
  C  C1  1  0.50000000  0.00000000  0.50000000  1
  C  C2  1  0.50000000  0.50000000  0.50000000  1
  Ni  Ni3  1  0.50000000  0.00000000  0.00000000  1
  Ni  Ni4  1  0.00000000  0.00000000  0.00000000  1
  Cu  Cu5  1  0.00000000  0.50000000  0.00000000  1
  Cu  Cu6  1  0.00000000  0.00000000  0.50000000  1
  C  C7  1  0.25903700  0.76667700  0.77799700  1
  C  C8  1  0.74291800  0.77988000  0.21422100  1
  C  C9  1  0.77471500  0.75423400  0.78054400  1
  C  C10  1  0.75333400  0.22988600  0.77903800  1
  C  C11  1  0.24666600  0.77011400  0.22096200  1
  C  C12  1  0.22528500  0.24576600  0.21945600  1
  C  C13  1  0.25708200  0.22012000  0.78577900  1
  C  C14  1  0.74096300  0.23332300  0.22200300  1
