# generated using pymatgen
data_Cu4NiC6
_symmetry_space_group_name_H-M   'P 1'
_cell_length_a   9.54974131
_cell_length_b   9.54974131
_cell_length_c   7.23790647
_cell_angle_alpha   89.08154347
_cell_angle_beta   89.08154347
_cell_angle_gamma   120.11590640
_symmetry_Int_Tables_number   1
_chemical_formula_structural   Cu4NiC6
_chemical_formula_sum   'Cu8 Ni2 C12'
_cell_volume   570.68218666
_cell_formula_units_Z   2
loop_
 _symmetry_equiv_pos_site_id
 _symmetry_equiv_pos_as_xyz
  1  'x, y, z'
loop_
 _atom_site_type_symbol
 _atom_site_label
 _atom_site_symmetry_multiplicity
 _atom_site_fract_x
 _atom_site_fract_y
 _atom_site_fract_z
 _atom_site_occupancy
  C  C0  1  0.46765300  0.93066500  0.38001300  1
  C  C1  1  0.93066500  0.46765300  0.88001300  1
  C  C2  1  0.86617100  0.72376200  0.18647700  1
  C  C3  1  0.28788400  0.13562200  0.22334800  1
  C  C4  1  0.85152700  0.13645100  0.20876800  1
  C  C5  1  0.13562200  0.28788400  0.72334800  1
  C  C6  1  0.72376200  0.86617100  0.68647700  1
  C  C7  1  0.13645100  0.85152700  0.70876800  1
  C  C8  1  0.05467100  0.53073400  0.38375800  1
  C  C9  1  0.48388200  0.53393600  0.37466700  1
  C  C10  1  0.53073400  0.05467100  0.88375800  1
  C  C11  1  0.53393600  0.48388200  0.87466700  1
  Ni  Ni12  1  0.66131200  0.32427400  0.49838700  1
  Ni  Ni13  1  0.32427400  0.66131200  0.99838700  1
  Cu  Cu14  1  0.19265500  0.37303300  0.12963300  1
  Cu  Cu15  1  0.62623200  0.81193000  0.08950700  1
  Cu  Cu16  1  0.19371700  0.81785600  0.10686900  1
  Cu  Cu17  1  0.81193000  0.62623200  0.58950700  1
  Cu  Cu18  1  0.37303300  0.19265500  0.62963300  1
  Cu  Cu19  1  0.81785600  0.19371700  0.60686900  1
  Cu  Cu20  1  0.65872700  0.33494800  0.14237600  1
  Cu  Cu21  1  0.33494800  0.65872700  0.64237600  1
