# generated using pymatgen
data_Cu6Ni2C
_symmetry_space_group_name_H-M   'P 1'
_cell_length_a   5.26737000
_cell_length_b   12.97554300
_cell_length_c   12.97554300
_cell_angle_alpha   90.00000000
_cell_angle_beta   90.00000000
_cell_angle_gamma   90.00000000
_symmetry_Int_Tables_number   1
_chemical_formula_structural   Cu6Ni2C
_chemical_formula_sum   'Cu24 Ni8 C4'
_cell_volume   886.83925488
_cell_formula_units_Z   4
loop_
 _symmetry_equiv_pos_site_id
 _symmetry_equiv_pos_as_xyz
  1  'x, y, z'
loop_
 _atom_site_type_symbol
 _atom_site_label
 _atom_site_symmetry_multiplicity
 _atom_site_fract_x
 _atom_site_fract_y
 _atom_site_fract_z
 _atom_site_occupancy
  C  C0  1  0.25000000  0.25000000  0.25000000  1
  C  C1  1  0.25000000  0.75000000  0.75000000  1
  C  C2  1  0.75000000  0.25000000  0.75000000  1
  C  C3  1  0.75000000  0.75000000  0.25000000  1
  Ni  Ni4  1  0.24609500  0.02094500  0.76355200  1
  Ni  Ni5  1  0.24609500  0.97905500  0.23644800  1
  Ni  Ni6  1  0.74609500  0.73644800  0.52094500  1
  Ni  Ni7  1  0.25390500  0.47905500  0.73644800  1
  Ni  Ni8  1  0.74609500  0.26355200  0.47905500  1
  Ni  Ni9  1  0.25390500  0.52094500  0.26355200  1
  Ni  Ni10  1  0.75390500  0.76355200  0.97905500  1
  Ni  Ni11  1  0.75390500  0.23644800  0.02094500  1
  Cu  Cu12  1  0.49771400  0.61550500  0.21668000  1
  Cu  Cu13  1  0.49771400  0.38449500  0.78332000  1
  Cu  Cu14  1  0.99771400  0.28332000  0.11550500  1
  Cu  Cu15  1  0.00228600  0.88449500  0.28332000  1
  Cu  Cu16  1  0.99771400  0.71668000  0.88449500  1
  Cu  Cu17  1  0.00228600  0.11550500  0.71668000  1
  Cu  Cu18  1  0.50228600  0.21668000  0.38449500  1
  Cu  Cu19  1  0.50228600  0.78332000  0.61550500  1
  Cu  Cu20  1  0.48342900  0.17872300  0.16520800  1
  Cu  Cu21  1  0.48342900  0.82127700  0.83479200  1
  Cu  Cu22  1  0.98342900  0.33479200  0.67872300  1
  Cu  Cu23  1  0.01657100  0.32127700  0.33479200  1
  Cu  Cu24  1  0.98342900  0.66520800  0.32127700  1
  Cu  Cu25  1  0.01657100  0.67872300  0.66520800  1
  Cu  Cu26  1  0.51657100  0.16520800  0.82127700  1
  Cu  Cu27  1  0.51657100  0.83479200  0.17872300  1
  Cu  Cu28  1  0.06216500  0.10315200  0.27741500  1
  Cu  Cu29  1  0.06216500  0.89684800  0.72258500  1
  Cu  Cu30  1  0.56216500  0.22258500  0.60315200  1
  Cu  Cu31  1  0.43783500  0.39684800  0.22258500  1
  Cu  Cu32  1  0.56216500  0.77741500  0.39684800  1
  Cu  Cu33  1  0.43783500  0.60315200  0.77741500  1
  Cu  Cu34  1  0.93783500  0.27741500  0.89684800  1
  Cu  Cu35  1  0.93783500  0.72258500  0.10315200  1
