# generated using pymatgen
data_CuNi2
_symmetry_space_group_name_H-M   'P 1'
_cell_length_a   5.11543778
_cell_length_b   5.11543778
_cell_length_c   8.35932400
_cell_angle_alpha   90.00000000
_cell_angle_beta   90.00000000
_cell_angle_gamma   119.99999709
_symmetry_Int_Tables_number   1
_chemical_formula_structural   CuNi2
_chemical_formula_sum   'Cu4 Ni8'
_cell_volume   189.43813754
_cell_formula_units_Z   4
loop_
 _symmetry_equiv_pos_site_id
 _symmetry_equiv_pos_as_xyz
  1  'x, y, z'
loop_
 _atom_site_type_symbol
 _atom_site_label
 _atom_site_symmetry_multiplicity
 _atom_site_fract_x
 _atom_site_fract_y
 _atom_site_fract_z
 _atom_site_occupancy
  Ni  Ni0  1  0.00000000  0.00000000  0.00000000  1
  Ni  Ni1  1  0.00000000  0.00000000  0.50000000  1
  Ni  Ni2  1  0.17016600  0.34033200  0.75000000  1
  Ni  Ni3  1  0.82983400  0.17016600  0.25000000  1
  Ni  Ni4  1  0.34033200  0.17016600  0.25000000  1
  Ni  Ni5  1  0.65966800  0.82983400  0.75000000  1
  Ni  Ni6  1  0.17016600  0.82983400  0.75000000  1
  Ni  Ni7  1  0.82983400  0.65966800  0.25000000  1
  Cu  Cu8  1  0.33333300  0.66666700  0.06173800  1
  Cu  Cu9  1  0.66666700  0.33333300  0.56173800  1
  Cu  Cu10  1  0.66666700  0.33333300  0.93826200  1
  Cu  Cu11  1  0.33333300  0.66666700  0.43826200  1
