# generated using pymatgen
data_Cu2Ni2C3
_symmetry_space_group_name_H-M   'P 1'
_cell_length_a   7.52855400
_cell_length_b   7.52855400
_cell_length_c   16.85768000
_cell_angle_alpha   90.00000000
_cell_angle_beta   90.00000000
_cell_angle_gamma   90.00000000
_symmetry_Int_Tables_number   1
_chemical_formula_structural   Cu2Ni2C3
_chemical_formula_sum   'Cu8 Ni8 C12'
_cell_volume   955.47855751
_cell_formula_units_Z   4
loop_
 _symmetry_equiv_pos_site_id
 _symmetry_equiv_pos_as_xyz
  1  'x, y, z'
loop_
 _atom_site_type_symbol
 _atom_site_label
 _atom_site_symmetry_multiplicity
 _atom_site_fract_x
 _atom_site_fract_y
 _atom_site_fract_z
 _atom_site_occupancy
  C  C0  1  0.50000000  0.50000000  0.07358600  1
  C  C1  1  0.00000000  0.00000000  0.57358600  1
  C  C2  1  0.00000000  0.00000000  0.42641400  1
  C  C3  1  0.50000000  0.50000000  0.92641400  1
  Ni  Ni4  1  0.50000000  0.13130400  0.28499100  1
  Ni  Ni5  1  0.50000000  0.86869600  0.28499100  1
  Ni  Ni6  1  0.63130400  0.00000000  0.78499100  1
  Ni  Ni7  1  0.36869600  0.00000000  0.78499100  1
  Ni  Ni8  1  0.00000000  0.36869600  0.21500900  1
  Ni  Ni9  1  0.00000000  0.63130400  0.21500900  1
  Ni  Ni10  1  0.86869600  0.50000000  0.71500900  1
  Ni  Ni11  1  0.13130400  0.50000000  0.71500900  1
  C  C12  1  0.50000000  0.20720400  0.08280000  1
  C  C13  1  0.50000000  0.79279600  0.08280000  1
  C  C14  1  0.70720400  0.00000000  0.58280000  1
  C  C15  1  0.29279600  0.00000000  0.58280000  1
  C  C16  1  0.00000000  0.29279600  0.41720000  1
  C  C17  1  0.00000000  0.70720400  0.41720000  1
  C  C18  1  0.79279600  0.50000000  0.91720000  1
  C  C19  1  0.20720400  0.50000000  0.91720000  1
  Cu  Cu20  1  0.12646500  0.50000000  0.21504100  1
  Cu  Cu21  1  0.87353500  0.50000000  0.21504100  1
  Cu  Cu22  1  0.00000000  0.62646500  0.71504100  1
  Cu  Cu23  1  0.00000000  0.37353500  0.71504100  1
  Cu  Cu24  1  0.37353500  0.00000000  0.28495900  1
  Cu  Cu25  1  0.62646500  0.00000000  0.28495900  1
  Cu  Cu26  1  0.50000000  0.87353500  0.78495900  1
  Cu  Cu27  1  0.50000000  0.12646500  0.78495900  1
