# generated using pymatgen
data_CuNi3C11
_symmetry_space_group_name_H-M   'P 1'
_cell_length_a   5.94865718
_cell_length_b   5.94865718
_cell_length_c   14.73417400
_cell_angle_alpha   90.00000000
_cell_angle_beta   90.00000000
_cell_angle_gamma   119.99999088
_symmetry_Int_Tables_number   1
_chemical_formula_structural   CuNi3C11
_chemical_formula_sum   'Cu2 Ni6 C22'
_cell_volume   451.53804527
_cell_formula_units_Z   2
loop_
 _symmetry_equiv_pos_site_id
 _symmetry_equiv_pos_as_xyz
  1  'x, y, z'
loop_
 _atom_site_type_symbol
 _atom_site_label
 _atom_site_symmetry_multiplicity
 _atom_site_fract_x
 _atom_site_fract_y
 _atom_site_fract_z
 _atom_site_occupancy
  Ni  Ni0  1  0.00000000  0.00000000  0.74980700  1
  Ni  Ni1  1  0.00000000  0.00000000  0.24980700  1
  Ni  Ni2  1  0.66666700  0.33333300  0.40437800  1
  Ni  Ni3  1  0.33333300  0.66666700  0.59649000  1
  Ni  Ni4  1  0.33333300  0.66666700  0.90437800  1
  Ni  Ni5  1  0.66666700  0.33333300  0.09649000  1
  Cu  Cu6  1  0.00000000  0.00000000  0.50117200  1
  Cu  Cu7  1  0.00000000  0.00000000  0.00117200  1
  C  C8  1  0.66666700  0.33333300  0.66475000  1
  C  C9  1  0.33333300  0.66666700  0.16475000  1
  C  C10  1  0.33333300  0.66666700  0.33670600  1
  C  C11  1  0.66666700  0.33333300  0.83670600  1
  C  C12  1  0.50937900  0.01875800  0.75070600  1
  C  C13  1  0.50937900  0.49062100  0.75070600  1
  C  C14  1  0.98124200  0.49062100  0.75070600  1
  C  C15  1  0.49062100  0.98124200  0.25070600  1
  C  C16  1  0.49062100  0.50937900  0.25070600  1
  C  C17  1  0.01875800  0.50937900  0.25070600  1
  C  C18  1  0.82428000  0.64855900  0.91064600  1
  C  C19  1  0.82428000  0.17572000  0.91064600  1
  C  C20  1  0.35144100  0.17572000  0.91064600  1
  C  C21  1  0.17518600  0.35037300  0.08755100  1
  C  C22  1  0.17518600  0.82481400  0.08755100  1
  C  C23  1  0.64962700  0.82481400  0.08755100  1
  C  C24  1  0.17572000  0.35144100  0.41064600  1
  C  C25  1  0.17572000  0.82428000  0.41064600  1
  C  C26  1  0.64855900  0.82428000  0.41064600  1
  C  C27  1  0.82481400  0.64962700  0.58755100  1
  C  C28  1  0.82481400  0.17518600  0.58755100  1
  C  C29  1  0.35037300  0.17518600  0.58755100  1
