# generated using pymatgen
data_Cu2NiC7
_symmetry_space_group_name_H-M   'P 1'
_cell_length_a   8.14602300
_cell_length_b   9.44857600
_cell_length_c   12.97071400
_cell_angle_alpha   90.00000000
_cell_angle_beta   90.00000000
_cell_angle_gamma   90.00000000
_symmetry_Int_Tables_number   1
_chemical_formula_structural   Cu2NiC7
_chemical_formula_sum   'Cu8 Ni4 C28'
_cell_volume   998.33403223
_cell_formula_units_Z   4
loop_
 _symmetry_equiv_pos_site_id
 _symmetry_equiv_pos_as_xyz
  1  'x, y, z'
loop_
 _atom_site_type_symbol
 _atom_site_label
 _atom_site_symmetry_multiplicity
 _atom_site_fract_x
 _atom_site_fract_y
 _atom_site_fract_z
 _atom_site_occupancy
  C  C0  1  0.85706300  0.05549300  0.75000000  1
  C  C1  1  0.02405800  0.12550400  0.68290200  1
  C  C2  1  0.02405800  0.12550400  0.81709800  1
  C  C3  1  0.52405800  0.37449600  0.81709800  1
  C  C4  1  0.52405800  0.37449600  0.68290200  1
  C  C5  1  0.35706300  0.44450700  0.75000000  1
  C  C6  1  0.64293700  0.55549300  0.25000000  1
  C  C7  1  0.47594200  0.62550400  0.18290200  1
  C  C8  1  0.47594200  0.62550400  0.31709800  1
  C  C9  1  0.97594200  0.87449600  0.31709800  1
  C  C10  1  0.97594200  0.87449600  0.18290200  1
  C  C11  1  0.14293700  0.94450700  0.25000000  1
  C  C12  1  0.00000000  0.50000000  0.00000000  1
  C  C13  1  0.00000000  0.50000000  0.50000000  1
  C  C14  1  0.50000000  0.00000000  0.00000000  1
  C  C15  1  0.50000000  0.00000000  0.50000000  1
  Ni  Ni16  1  0.92867800  0.06127100  0.25000000  1
  Ni  Ni17  1  0.42867800  0.43872900  0.25000000  1
  Ni  Ni18  1  0.57132200  0.56127100  0.75000000  1
  Ni  Ni19  1  0.07132200  0.93872900  0.75000000  1
  C  C20  1  0.56505100  0.04771400  0.75000000  1
  C  C21  1  0.15616700  0.17757800  0.98942600  1
  C  C22  1  0.15616700  0.17757800  0.51057400  1
  C  C23  1  0.65616700  0.32242200  0.98942600  1
  C  C24  1  0.65616700  0.32242200  0.51057400  1
  C  C25  1  0.06505100  0.45228600  0.75000000  1
  C  C26  1  0.93494900  0.54771400  0.25000000  1
  C  C27  1  0.34383300  0.67757800  0.48942600  1
  C  C28  1  0.34383300  0.67757800  0.01057400  1
  C  C29  1  0.84383300  0.82242200  0.01057400  1
  C  C30  1  0.84383300  0.82242200  0.48942600  1
  C  C31  1  0.43494900  0.95228600  0.25000000  1
  Cu  Cu32  1  0.98939300  0.06750700  0.75000000  1
  Cu  Cu33  1  0.85243900  0.16504700  0.25000000  1
  Cu  Cu34  1  0.35243900  0.33495300  0.25000000  1
  Cu  Cu35  1  0.48939300  0.43249300  0.75000000  1
  Cu  Cu36  1  0.51060700  0.56750700  0.25000000  1
  Cu  Cu37  1  0.64756100  0.66504700  0.75000000  1
  Cu  Cu38  1  0.14756100  0.83495300  0.75000000  1
  Cu  Cu39  1  0.01060700  0.93249300  0.25000000  1
