# generated using pymatgen
data_CuNi5C2
_symmetry_space_group_name_H-M   'P 1'
_cell_length_a   4.68170750
_cell_length_b   4.68170750
_cell_length_c   8.67051100
_cell_angle_alpha   90.00000000
_cell_angle_beta   90.00000000
_cell_angle_gamma   98.01214440
_symmetry_Int_Tables_number   1
_chemical_formula_structural   CuNi5C2
_chemical_formula_sum   'Cu2 Ni10 C4'
_cell_volume   188.18849799
_cell_formula_units_Z   2
loop_
 _symmetry_equiv_pos_site_id
 _symmetry_equiv_pos_as_xyz
  1  'x, y, z'
loop_
 _atom_site_type_symbol
 _atom_site_label
 _atom_site_symmetry_multiplicity
 _atom_site_fract_x
 _atom_site_fract_y
 _atom_site_fract_z
 _atom_site_occupancy
  C  C0  1  0.14623000  0.14623000  0.52057700  1
  C  C1  1  0.85377000  0.85377000  0.02057700  1
  Ni  Ni2  1  0.79534600  0.79534600  0.54512700  1
  Ni  Ni3  1  0.20465400  0.20465400  0.04512700  1
  Ni  Ni4  1  0.98853200  0.75331700  0.38949800  1
  Ni  Ni5  1  0.75331700  0.98853200  0.38949800  1
  Ni  Ni6  1  0.01146800  0.24668300  0.88949800  1
  Ni  Ni7  1  0.24668300  0.01146800  0.88949800  1
  Ni  Ni8  1  0.03000600  0.31775700  0.59296300  1
  Ni  Ni9  1  0.31775700  0.03000600  0.59296300  1
  Ni  Ni10  1  0.96999400  0.68224300  0.09296300  1
  Ni  Ni11  1  0.68224300  0.96999400  0.09296300  1
  Cu  Cu12  1  0.90406700  0.90406700  0.45513800  1
  Cu  Cu13  1  0.09593300  0.09593300  0.95513800  1
  C  C14  1  0.33928900  0.33928900  0.34897600  1
  C  C15  1  0.66071100  0.66071100  0.84897600  1
