# generated using pymatgen
data_CuNiC3
_symmetry_space_group_name_H-M   'P 1'
_cell_length_a   10.01873053
_cell_length_b   10.01873053
_cell_length_c   7.80224477
_cell_angle_alpha   71.36062229
_cell_angle_beta   71.36062229
_cell_angle_gamma   95.32890714
_symmetry_Int_Tables_number   1
_chemical_formula_structural   CuNiC3
_chemical_formula_sum   'Cu10 Ni10 C30'
_cell_volume   686.36235291
_cell_formula_units_Z   10
loop_
 _symmetry_equiv_pos_site_id
 _symmetry_equiv_pos_as_xyz
  1  'x, y, z'
loop_
 _atom_site_type_symbol
 _atom_site_label
 _atom_site_symmetry_multiplicity
 _atom_site_fract_x
 _atom_site_fract_y
 _atom_site_fract_z
 _atom_site_occupancy
  C  C0  1  0.50000000  0.00000000  0.00000000  1
  C  C1  1  0.00000000  0.50000000  0.00000000  1
  C  C2  1  0.13040200  0.86959800  0.50000000  1
  C  C3  1  0.86959800  0.13040200  0.50000000  1
  Ni  Ni4  1  0.07793000  0.07793000  0.70529200  1
  Ni  Ni5  1  0.92207000  0.92207000  0.29470800  1
  Ni  Ni6  1  0.18773600  0.78569500  0.19227100  1
  Ni  Ni7  1  0.78569500  0.18773600  0.19227100  1
  Ni  Ni8  1  0.81226400  0.21430500  0.80772900  1
  Ni  Ni9  1  0.21430500  0.81226400  0.80772900  1
  Ni  Ni10  1  0.77234200  0.24564200  0.23389400  1
  Ni  Ni11  1  0.24564200  0.77234200  0.23389400  1
  Ni  Ni12  1  0.22765800  0.75435800  0.76610600  1
  Ni  Ni13  1  0.75435800  0.22765800  0.76610600  1
  C  C14  1  0.27046300  0.27046300  0.42126100  1
  C  C15  1  0.72953700  0.72953700  0.57873900  1
  Cu  Cu16  1  0.41993900  0.41993900  0.31059200  1
  Cu  Cu17  1  0.58006100  0.58006100  0.68940800  1
  Cu  Cu18  1  0.36113500  0.16031700  0.62540800  1
  Cu  Cu19  1  0.16031700  0.36113500  0.62540800  1
  Cu  Cu20  1  0.63886500  0.83968400  0.37459200  1
  Cu  Cu21  1  0.83968300  0.63886500  0.37459200  1
  Cu  Cu22  1  0.36195100  0.17142500  0.22531700  1
  Cu  Cu23  1  0.17142500  0.36195100  0.22531700  1
  Cu  Cu24  1  0.63804900  0.82857500  0.77468300  1
  Cu  Cu25  1  0.82857500  0.63804900  0.77468300  1
  C  C26  1  0.10296400  0.10296400  0.56520700  1
  C  C27  1  0.89703600  0.89703600  0.43479300  1
  C  C28  1  0.48391600  0.48391600  0.74192700  1
  C  C29  1  0.51608400  0.51608400  0.25807300  1
  C  C30  1  0.30435800  0.06925800  0.78858500  1
  C  C31  1  0.06925800  0.30435800  0.78858500  1
  C  C32  1  0.69564200  0.93074200  0.21141500  1
  C  C33  1  0.93074200  0.69564200  0.21141500  1
  C  C34  1  0.51369900  0.20701000  0.54841400  1
  C  C35  1  0.20701000  0.51369900  0.54841400  1
  C  C36  1  0.48630100  0.79299000  0.45158600  1
  C  C37  1  0.79299000  0.48630100  0.45158600  1
  C  C38  1  0.28340400  0.07315700  0.21275700  1
  C  C39  1  0.07315700  0.28340400  0.21275700  1
  C  C40  1  0.71659600  0.92684300  0.78724300  1
  C  C41  1  0.92684300  0.71659600  0.78724300  1
  C  C42  1  0.49183800  0.21392900  0.11902300  1
  C  C43  1  0.21392900  0.49183800  0.11902300  1
  C  C44  1  0.50816200  0.78607100  0.88097700  1
  C  C45  1  0.78607100  0.50816200  0.88097700  1
  C  C46  1  0.14098200  0.58107800  0.66521700  1
  C  C47  1  0.58107800  0.14098200  0.66521700  1
  C  C48  1  0.85901800  0.41892200  0.33478300  1
  C  C49  1  0.41892200  0.85901800  0.33478300  1
