# generated using pymatgen
data_Cu5NiC
_symmetry_space_group_name_H-M   'P 1'
_cell_length_a   3.27217200
_cell_length_b   14.57489000
_cell_length_c   17.51251685
_cell_angle_alpha   66.17115734
_cell_angle_beta   90.00000000
_cell_angle_gamma   90.00000000
_symmetry_Int_Tables_number   1
_chemical_formula_structural   Cu5NiC
_chemical_formula_sum   'Cu40 Ni8 C8'
_cell_volume   764.00365486
_cell_formula_units_Z   8
loop_
 _symmetry_equiv_pos_site_id
 _symmetry_equiv_pos_as_xyz
  1  'x, y, z'
loop_
 _atom_site_type_symbol
 _atom_site_label
 _atom_site_symmetry_multiplicity
 _atom_site_fract_x
 _atom_site_fract_y
 _atom_site_fract_z
 _atom_site_occupancy
  C  C0  1  0.21973300  0.73834500  0.08308000  1
  C  C1  1  0.71973300  0.76165500  0.91692000  1
  C  C2  1  0.78026700  0.26165500  0.91692000  1
  C  C3  1  0.28026700  0.23834500  0.08308000  1
  C  C4  1  0.09536800  0.31984800  0.41654400  1
  C  C5  1  0.59536800  0.18015200  0.58345600  1
  C  C6  1  0.90463200  0.68015200  0.58345600  1
  C  C7  1  0.40463200  0.81984800  0.41654400  1
  Ni  Ni8  1  0.34670900  0.40988200  0.14481500  1
  Ni  Ni9  1  0.84670900  0.09011800  0.85518500  1
  Ni  Ni10  1  0.65329100  0.59011800  0.85518500  1
  Ni  Ni11  1  0.15329100  0.90988200  0.14481500  1
  Ni  Ni12  1  0.03850000  0.54899500  0.36197300  1
  Ni  Ni13  1  0.53850000  0.95100500  0.63802700  1
  Ni  Ni14  1  0.96150000  0.45100500  0.63802700  1
  Ni  Ni15  1  0.46150000  0.04899500  0.36197300  1
  Cu  Cu16  1  0.70724700  0.66495000  0.13877200  1
  Cu  Cu17  1  0.20724700  0.83505000  0.86122800  1
  Cu  Cu18  1  0.29275300  0.33505000  0.86122800  1
  Cu  Cu19  1  0.79275300  0.16495000  0.13877200  1
  Cu  Cu20  1  0.33651300  0.31431000  0.17013000  1
  Cu  Cu21  1  0.83651300  0.18569000  0.82987000  1
  Cu  Cu22  1  0.66348700  0.68569000  0.82987000  1
  Cu  Cu23  1  0.16348700  0.81431000  0.17013000  1
  Cu  Cu24  1  0.21346800  0.46527600  0.07484000  1
  Cu  Cu25  1  0.71346800  0.03472400  0.92516000  1
  Cu  Cu26  1  0.78653200  0.53472400  0.92516000  1
  Cu  Cu27  1  0.28653200  0.96527600  0.07484000  1
  Cu  Cu28  1  0.49447900  0.44524500  0.19323800  1
  Cu  Cu29  1  0.99447900  0.05475500  0.80676200  1
  Cu  Cu30  1  0.50552100  0.55475500  0.80676200  1
  Cu  Cu31  1  0.00552100  0.94524500  0.19323800  1
  Cu  Cu32  1  0.73440700  0.81084200  0.01662900  1
  Cu  Cu33  1  0.23440700  0.68915800  0.98337100  1
  Cu  Cu34  1  0.26559300  0.18915800  0.98337100  1
  Cu  Cu35  1  0.76559300  0.31084200  0.01662900  1
  Cu  Cu36  1  0.58673600  0.30052800  0.36032800  1
  Cu  Cu37  1  0.08673600  0.19947200  0.63967200  1
  Cu  Cu38  1  0.41326400  0.69947200  0.63967200  1
  Cu  Cu39  1  0.91326400  0.80052800  0.36032800  1
  Cu  Cu40  1  0.00126200  0.48111000  0.33378300  1
  Cu  Cu41  1  0.50126200  0.01889000  0.66621700  1
  Cu  Cu42  1  0.99873800  0.51889000  0.66621700  1
  Cu  Cu43  1  0.49873800  0.98111000  0.33378300  1
  Cu  Cu44  1  0.22087700  0.53193400  0.42849200  1
  Cu  Cu45  1  0.72087700  0.96806600  0.57150800  1
  Cu  Cu46  1  0.77912300  0.46806600  0.57150800  1
  Cu  Cu47  1  0.27912300  0.03193400  0.42849200  1
  Cu  Cu48  1  0.88418800  0.63339600  0.31980200  1
  Cu  Cu49  1  0.38418800  0.86660400  0.68019800  1
  Cu  Cu50  1  0.11581200  0.36660400  0.68019800  1
  Cu  Cu51  1  0.61581200  0.13339600  0.31980200  1
  Cu  Cu52  1  0.60294100  0.32662200  0.48243400  1
  Cu  Cu53  1  0.10294100  0.17337800  0.51756600  1
  Cu  Cu54  1  0.39705900  0.67337800  0.51756600  1
  Cu  Cu55  1  0.89705900  0.82662200  0.48243400  1
