# generated using pymatgen
data_Cu3NiC2
_symmetry_space_group_name_H-M   'P 1'
_cell_length_a   3.27414993
_cell_length_b   3.27414993
_cell_length_c   38.98438600
_cell_angle_alpha   90.00000000
_cell_angle_beta   90.00000000
_cell_angle_gamma   119.99999867
_symmetry_Int_Tables_number   1
_chemical_formula_structural   Cu3NiC2
_chemical_formula_sum   'Cu6 Ni2 C4'
_cell_volume   361.92489968
_cell_formula_units_Z   2
loop_
 _symmetry_equiv_pos_site_id
 _symmetry_equiv_pos_as_xyz
  1  'x, y, z'
loop_
 _atom_site_type_symbol
 _atom_site_label
 _atom_site_symmetry_multiplicity
 _atom_site_fract_x
 _atom_site_fract_y
 _atom_site_fract_z
 _atom_site_occupancy
  Ni  Ni0  1  0.33333300  0.66666700  0.33134900  1
  Ni  Ni1  1  0.33333300  0.66666700  0.23182300  1
  C  C2  1  0.33333300  0.66666700  0.09272500  1
  C  C3  1  0.33333300  0.66666700  0.47083300  1
  C  C4  1  0.66666700  0.33333300  0.28161900  1
  C  C5  1  0.66666700  0.33333300  0.65777000  1
  Cu  Cu6  1  0.33333300  0.66666700  0.69736100  1
  Cu  Cu7  1  0.66666700  0.33333300  0.05331400  1
  Cu  Cu8  1  0.66666700  0.33333300  0.43122100  1
  Cu  Cu9  1  0.66666700  0.33333300  0.13214700  1
  Cu  Cu10  1  0.66666700  0.33333300  0.51042400  1
  Cu  Cu11  1  0.33333300  0.66666700  0.61816100  1
