# generated using pymatgen
data_Cu2NiC11
_symmetry_space_group_name_H-M   'P 1'
_cell_length_a   5.14559200
_cell_length_b   7.71291738
_cell_length_c   7.73776629
_cell_angle_alpha   119.35199610
_cell_angle_beta   108.87968103
_cell_angle_gamma   83.83869072
_symmetry_Int_Tables_number   1
_chemical_formula_structural   Cu2NiC11
_chemical_formula_sum   'Cu4 Ni2 C22'
_cell_volume   252.77899898
_cell_formula_units_Z   2
loop_
 _symmetry_equiv_pos_site_id
 _symmetry_equiv_pos_as_xyz
  1  'x, y, z'
loop_
 _atom_site_type_symbol
 _atom_site_label
 _atom_site_symmetry_multiplicity
 _atom_site_fract_x
 _atom_site_fract_y
 _atom_site_fract_z
 _atom_site_occupancy
  C  C0  1  0.50461800  0.42978800  0.64802100  1
  C  C1  1  0.50077100  0.70667000  0.06469400  1
  C  C2  1  0.50355600  0.85672500  0.78780300  1
  C  C3  1  0.49644400  0.14327500  0.21219700  1
  C  C4  1  0.49922900  0.29333000  0.93530600  1
  C  C5  1  0.49538200  0.57021200  0.35197900  1
  C  C6  1  0.50000000  0.00000000  0.50000000  1
  C  C7  1  0.00000000  0.50000000  0.00000000  1
  Ni  Ni8  1  0.00364600  0.21561900  0.57335600  1
  Ni  Ni9  1  0.99635400  0.78438100  0.42664400  1
  Cu  Cu10  1  0.99451000  0.07674100  0.86007600  1
  Cu  Cu11  1  0.00691600  0.35940000  0.27668600  1
  Cu  Cu12  1  0.99308400  0.64060000  0.72331400  1
  Cu  Cu13  1  0.00549000  0.92325900  0.13992400  1
  C  C14  1  0.22214500  0.17844200  0.39611100  1
  C  C15  1  0.23176700  0.44499200  0.79750500  1
  C  C16  1  0.22153100  0.61851700  0.53069000  1
  C  C17  1  0.23200400  0.89429000  0.95665200  1
  C  C18  1  0.22235300  0.03155200  0.66147200  1
  C  C19  1  0.23510600  0.31710600  0.11455900  1
  C  C20  1  0.22014000  0.76447700  0.25613000  1
  C  C21  1  0.76489400  0.68289400  0.88544100  1
  C  C22  1  0.77764700  0.96844800  0.33852800  1
  C  C23  1  0.76799600  0.10571000  0.04334800  1
  C  C24  1  0.77846900  0.38148300  0.46931000  1
  C  C25  1  0.76823300  0.55500800  0.20249500  1
  C  C26  1  0.77785500  0.82155800  0.60388900  1
  C  C27  1  0.77986000  0.23552300  0.74387000  1
