# generated using pymatgen
data_Cu6Ni2C
_symmetry_space_group_name_H-M   'P 1'
_cell_length_a   5.03664528
_cell_length_b   5.03664528
_cell_length_c   6.36287380
_cell_angle_alpha   88.47590693
_cell_angle_beta   88.47590693
_cell_angle_gamma   67.64587458
_symmetry_Int_Tables_number   1
_chemical_formula_structural   Cu6Ni2C
_chemical_formula_sum   'Cu6 Ni2 C1'
_cell_volume   149.20557482
_cell_formula_units_Z   1
loop_
 _symmetry_equiv_pos_site_id
 _symmetry_equiv_pos_as_xyz
  1  'x, y, z'
loop_
 _atom_site_type_symbol
 _atom_site_label
 _atom_site_symmetry_multiplicity
 _atom_site_fract_x
 _atom_site_fract_y
 _atom_site_fract_z
 _atom_site_occupancy
  C  C0  1  0.00000000  0.00000000  0.00000000  1
  Ni  Ni1  1  0.34816900  0.34816900  0.26827800  1
  Ni  Ni2  1  0.65183100  0.65183100  0.73172200  1
  Cu  Cu3  1  0.24128200  0.24128200  0.05047700  1
  Cu  Cu4  1  0.75871800  0.75871800  0.94952300  1
  Cu  Cu5  1  0.76792900  0.29191900  0.75483200  1
  Cu  Cu6  1  0.29191900  0.76792900  0.75483200  1
  Cu  Cu7  1  0.23207100  0.70808100  0.24516800  1
  Cu  Cu8  1  0.70808100  0.23207100  0.24516800  1
