# generated using pymatgen
data_Cu2NiC6
_symmetry_space_group_name_H-M   'P 1'
_cell_length_a   5.18373854
_cell_length_b   5.18373854
_cell_length_c   7.54893245
_cell_angle_alpha   105.35649753
_cell_angle_beta   105.35649753
_cell_angle_gamma   98.58419788
_symmetry_Int_Tables_number   1
_chemical_formula_structural   Cu2NiC6
_chemical_formula_sum   'Cu4 Ni2 C12'
_cell_volume   183.29701781
_cell_formula_units_Z   2
loop_
 _symmetry_equiv_pos_site_id
 _symmetry_equiv_pos_as_xyz
  1  'x, y, z'
loop_
 _atom_site_type_symbol
 _atom_site_label
 _atom_site_symmetry_multiplicity
 _atom_site_fract_x
 _atom_site_fract_y
 _atom_site_fract_z
 _atom_site_occupancy
  C  C0  1  0.00000000  0.50000000  0.50000000  1
  C  C1  1  0.50000000  0.00000000  0.00000000  1
  Ni  Ni2  1  0.08183000  0.91817000  0.25000000  1
  Ni  Ni3  1  0.91817000  0.08183000  0.75000000  1
  Cu  Cu4  1  0.63502400  0.55190500  0.20411800  1
  Cu  Cu5  1  0.44809500  0.36497600  0.29588200  1
  Cu  Cu6  1  0.36497600  0.44809500  0.79588200  1
  Cu  Cu7  1  0.55190500  0.63502400  0.70411800  1
  C  C8  1  0.76277800  0.82659000  0.15104100  1
  C  C9  1  0.17341000  0.23722200  0.34895900  1
  C  C10  1  0.23722200  0.17341000  0.84895900  1
  C  C11  1  0.82659000  0.76277800  0.65104100  1
  C  C12  1  0.15815900  0.77060100  0.40114800  1
  C  C13  1  0.22939900  0.84184100  0.09885200  1
  C  C14  1  0.84184100  0.22939900  0.59885200  1
  C  C15  1  0.77060100  0.15815900  0.90114800  1
  C  C16  1  0.61578500  0.38421500  0.25000000  1
  C  C17  1  0.38421500  0.61578500  0.75000000  1
