# generated using pymatgen
data_Cu15Ni3C13
_symmetry_space_group_name_H-M   'P 1'
_cell_length_a   6.98048700
_cell_length_b   9.49956909
_cell_length_c   12.06483098
_cell_angle_alpha   68.66327450
_cell_angle_beta   89.14056178
_cell_angle_gamma   68.56658393
_symmetry_Int_Tables_number   1
_chemical_formula_structural   Cu15Ni3C13
_chemical_formula_sum   'Cu30 Ni6 C26'
_cell_volume   687.21692812
_cell_formula_units_Z   2
loop_
 _symmetry_equiv_pos_site_id
 _symmetry_equiv_pos_as_xyz
  1  'x, y, z'
loop_
 _atom_site_type_symbol
 _atom_site_label
 _atom_site_symmetry_multiplicity
 _atom_site_fract_x
 _atom_site_fract_y
 _atom_site_fract_z
 _atom_site_occupancy
  C  C0  1  0.69314700  0.90192300  0.27619900  1
  C  C1  1  0.30685300  0.09807700  0.72380100  1
  C  C2  1  0.69602800  0.02652600  0.48681200  1
  C  C3  1  0.30397200  0.97347400  0.51318800  1
  C  C4  1  0.89374500  0.86062700  0.52477100  1
  C  C5  1  0.10625500  0.13937300  0.47522900  1
  C  C6  1  0.88121600  0.15598000  0.27322200  1
  C  C7  1  0.11878400  0.84402000  0.72677800  1
  C  C8  1  0.87290400  0.16560000  0.13771600  1
  C  C9  1  0.12709600  0.83440000  0.86228400  1
  C  C10  1  0.71181700  0.02273900  0.99530200  1
  C  C11  1  0.28818300  0.97726100  0.00469800  1
  C  C12  1  0.91066100  0.85752400  0.05297100  1
  C  C13  1  0.08933900  0.14247600  0.94702900  1
  C  C14  1  0.17591200  0.77155600  0.30081100  1
  C  C15  1  0.82408800  0.22844400  0.69918900  1
  C  C16  1  0.13692000  0.61329000  0.38271000  1
  C  C17  1  0.86308000  0.38671000  0.61729000  1
  C  C18  1  0.22257400  0.68008800  0.61657700  1
  C  C19  1  0.77742600  0.31991200  0.38342300  1
  C  C20  1  0.05532600  0.63917800  0.69573500  1
  C  C21  1  0.94467400  0.36082200  0.30426500  1
  C  C22  1  0.24798800  0.67251700  0.06259200  1
  C  C23  1  0.75201200  0.32748300  0.93740800  1
  C  C24  1  0.07533300  0.62491500  0.02168600  1
  C  C25  1  0.92466700  0.37508500  0.97831400  1
  Ni  Ni26  1  0.32466000  0.22332100  0.18549700  1
  Ni  Ni27  1  0.67534000  0.77667900  0.81450300  1
  Ni  Ni28  1  0.57305900  0.68077400  0.17818100  1
  Ni  Ni29  1  0.42694100  0.31922600  0.82181900  1
  Ni  Ni30  1  0.56717800  0.67329800  0.49977700  1
  Ni  Ni31  1  0.43282200  0.32670200  0.50022300  1
  Cu  Cu32  1  0.40301600  0.15030900  0.29652800  1
  Cu  Cu33  1  0.59698400  0.84969100  0.70347200  1
  Cu  Cu34  1  0.41370000  0.15409200  0.11467600  1
  Cu  Cu35  1  0.58630000  0.84590800  0.88532400  1
  Cu  Cu36  1  0.16852600  0.35375900  0.14898000  1
  Cu  Cu37  1  0.83147400  0.64624100  0.85102000  1
  Cu  Cu38  1  0.43752200  0.82081700  0.17213000  1
  Cu  Cu39  1  0.56247800  0.17918300  0.82787000  1
  Cu  Cu40  1  0.75498900  0.63637000  0.23029800  1
  Cu  Cu41  1  0.24501100  0.36363000  0.76970200  1
  Cu  Cu42  1  0.52664300  0.59503500  0.13558800  1
  Cu  Cu43  1  0.47335700  0.40496500  0.86441200  1
  Cu  Cu44  1  0.75394600  0.62097600  0.47823400  1
  Cu  Cu45  1  0.24605400  0.37902400  0.52176600  1
  Cu  Cu46  1  0.44295500  0.81643200  0.42802000  1
  Cu  Cu47  1  0.55704500  0.18356800  0.57198000  1
  Cu  Cu48  1  0.50637200  0.58869300  0.58693000  1
  Cu  Cu49  1  0.49362800  0.41130700  0.41307000  1
  Cu  Cu50  1  0.78151000  0.94356000  0.45734100  1
  Cu  Cu51  1  0.21849000  0.05644000  0.54265900  1
  Cu  Cu52  1  0.86756100  0.09812400  0.22182900  1
  Cu  Cu53  1  0.13243900  0.90187600  0.77817100  1
  Cu  Cu54  1  0.79685700  0.94251100  0.07181800  1
  Cu  Cu55  1  0.20314300  0.05748900  0.92818200  1
  Cu  Cu56  1  0.06878100  0.72843900  0.32820800  1
  Cu  Cu57  1  0.93121900  0.27156100  0.67179200  1
  Cu  Cu58  1  0.08640200  0.73069400  0.64023100  1
  Cu  Cu59  1  0.91359800  0.26930600  0.35976900  1
  Cu  Cu60  1  0.11051200  0.71841900  0.01420500  1
  Cu  Cu61  1  0.88948800  0.28158100  0.98579500  1
