# generated using pymatgen
data_Cu2Ni3C4
_symmetry_space_group_name_H-M   'P 1'
_cell_length_a   6.50093100
_cell_length_b   13.08088900
_cell_length_c   3.36453000
_cell_angle_alpha   90.00000000
_cell_angle_beta   90.00000000
_cell_angle_gamma   90.00000000
_symmetry_Int_Tables_number   1
_chemical_formula_structural   Cu2Ni3C4
_chemical_formula_sum   'Cu4 Ni6 C8'
_cell_volume   286.11275682
_cell_formula_units_Z   2
loop_
 _symmetry_equiv_pos_site_id
 _symmetry_equiv_pos_as_xyz
  1  'x, y, z'
loop_
 _atom_site_type_symbol
 _atom_site_label
 _atom_site_symmetry_multiplicity
 _atom_site_fract_x
 _atom_site_fract_y
 _atom_site_fract_z
 _atom_site_occupancy
  C  C0  1  0.68539700  0.93617700  0.50000000  1
  C  C1  1  0.31460300  0.06382300  0.50000000  1
  C  C2  1  0.18539700  0.56382300  0.00000000  1
  C  C3  1  0.81460300  0.43617700  0.00000000  1
  C  C4  1  0.79843900  0.64219500  0.50000000  1
  C  C5  1  0.20156100  0.35780500  0.50000000  1
  C  C6  1  0.29843900  0.85780500  0.00000000  1
  C  C7  1  0.70156100  0.14219500  0.00000000  1
  Ni  Ni8  1  0.50000000  0.50000000  0.50000000  1
  Ni  Ni9  1  0.00000000  0.00000000  0.00000000  1
  Ni  Ni10  1  0.84368300  0.28155400  0.50000000  1
  Ni  Ni11  1  0.15631700  0.71844600  0.50000000  1
  Ni  Ni12  1  0.34368300  0.21844600  0.00000000  1
  Ni  Ni13  1  0.65631700  0.78155400  0.00000000  1
  Cu  Cu14  1  0.61613800  0.07856100  0.50000000  1
  Cu  Cu15  1  0.38386200  0.92143900  0.50000000  1
  Cu  Cu16  1  0.11613800  0.42143900  0.00000000  1
  Cu  Cu17  1  0.88386200  0.57856100  0.00000000  1
