# generated using pymatgen
data_Cu5Ni8C11
_symmetry_space_group_name_H-M   'P 1'
_cell_length_a   4.23646600
_cell_length_b   10.37412055
_cell_length_c   10.37412055
_cell_angle_alpha   71.86825698
_cell_angle_beta   78.21824450
_cell_angle_gamma   78.21824450
_symmetry_Int_Tables_number   1
_chemical_formula_structural   Cu5Ni8C11
_chemical_formula_sum   'Cu5 Ni8 C11'
_cell_volume   419.29469957
_cell_formula_units_Z   1
loop_
 _symmetry_equiv_pos_site_id
 _symmetry_equiv_pos_as_xyz
  1  'x, y, z'
loop_
 _atom_site_type_symbol
 _atom_site_label
 _atom_site_symmetry_multiplicity
 _atom_site_fract_x
 _atom_site_fract_y
 _atom_site_fract_z
 _atom_site_occupancy
  C  C0  1  0.85151200  0.14848800  0.14848800  1
  C  C1  1  0.14848800  0.85151200  0.85151200  1
  C  C2  1  0.86902900  0.81828600  0.44365600  1
  C  C3  1  0.13097100  0.55634400  0.18171400  1
  C  C4  1  0.86902900  0.44365600  0.81828600  1
  C  C5  1  0.13097100  0.18171400  0.55634400  1
  Ni  Ni6  1  0.62087800  0.37912200  0.37912200  1
  Ni  Ni7  1  0.37912200  0.62087800  0.62087800  1
  Ni  Ni8  1  0.00000000  0.86133700  0.13866300  1
  Ni  Ni9  1  0.00000000  0.13866300  0.86133700  1
  Ni  Ni10  1  0.76709300  0.73290700  0.73290700  1
  Ni  Ni11  1  0.23290700  0.26709300  0.26709300  1
  Ni  Ni12  1  0.50000000  0.33059500  0.66940500  1
  Ni  Ni13  1  0.50000000  0.66940500  0.33059500  1
  C  C14  1  0.73809300  0.96084200  0.56297200  1
  C  C15  1  0.26190700  0.43702800  0.03915800  1
  C  C16  1  0.73809300  0.56297200  0.96084200  1
  C  C17  1  0.26190700  0.03915800  0.43702800  1
  C  C18  1  0.50000000  0.00000000  0.00000000  1
  Cu  Cu19  1  0.59716500  0.05114400  0.75452600  1
  Cu  Cu20  1  0.40283500  0.24547400  0.94885600  1
  Cu  Cu21  1  0.59716500  0.75452600  0.05114400  1
  Cu  Cu22  1  0.40283500  0.94885600  0.24547400  1
  Cu  Cu23  1  0.00000000  0.50000000  0.50000000  1
