# generated using pymatgen
data_CuNi3C11
_symmetry_space_group_name_H-M   'P 1'
_cell_length_a   5.99073963
_cell_length_b   5.99073963
_cell_length_c   15.05151623
_cell_angle_alpha   89.19672774
_cell_angle_beta   89.19672774
_cell_angle_gamma   119.85193400
_symmetry_Int_Tables_number   1
_chemical_formula_structural   CuNi3C11
_chemical_formula_sum   'Cu2 Ni6 C22'
_cell_volume   468.32548829
_cell_formula_units_Z   2
loop_
 _symmetry_equiv_pos_site_id
 _symmetry_equiv_pos_as_xyz
  1  'x, y, z'
loop_
 _atom_site_type_symbol
 _atom_site_label
 _atom_site_symmetry_multiplicity
 _atom_site_fract_x
 _atom_site_fract_y
 _atom_site_fract_z
 _atom_site_occupancy
  Ni  Ni0  1  0.99671900  0.00328100  0.75000000  1
  Ni  Ni1  1  0.00328100  0.99671900  0.25000000  1
  Ni  Ni2  1  0.32778300  0.65905400  0.59950000  1
  Ni  Ni3  1  0.67221700  0.34094600  0.40050000  1
  Ni  Ni4  1  0.34094600  0.67221700  0.90050000  1
  Ni  Ni5  1  0.65905400  0.32778300  0.09950000  1
  Cu  Cu6  1  0.00000000  0.00000000  0.50000000  1
  Cu  Cu7  1  0.00000000  0.00000000  0.00000000  1
  C  C8  1  0.65260600  0.31943000  0.66626700  1
  C  C9  1  0.34739400  0.68057000  0.33373300  1
  C  C10  1  0.68057000  0.34739400  0.83373300  1
  C  C11  1  0.31943000  0.65260600  0.16626700  1
  C  C12  1  0.79591800  0.14782100  0.59270600  1
  C  C13  1  0.20408200  0.85217900  0.40729400  1
  C  C14  1  0.85217900  0.20408200  0.90729400  1
  C  C15  1  0.14782100  0.79591800  0.09270600  1
  C  C16  1  0.32909800  0.14821800  0.59982000  1
  C  C17  1  0.67090200  0.85178200  0.40018000  1
  C  C18  1  0.85178200  0.67090200  0.90018000  1
  C  C19  1  0.14821800  0.32909800  0.09982000  1
  C  C20  1  0.50832300  0.49167700  0.75000000  1
  C  C21  1  0.49167700  0.50832300  0.25000000  1
  C  C22  1  0.39003100  0.20580800  0.92105700  1
  C  C23  1  0.60996900  0.79419200  0.07894300  1
  C  C24  1  0.79419200  0.60996900  0.57894300  1
  C  C25  1  0.20580800  0.39003100  0.42105700  1
  C  C26  1  0.50772600  0.02070000  0.75926800  1
  C  C27  1  0.49227400  0.97930000  0.24073200  1
  C  C28  1  0.97930000  0.49227400  0.74073200  1
  C  C29  1  0.02070000  0.50772600  0.25926800  1
