# generated using pymatgen
data_Cu11NiC5
_symmetry_space_group_name_H-M   'P 1'
_cell_length_a   6.83978800
_cell_length_b   17.69844000
_cell_length_c   11.68247301
_cell_angle_alpha   90.00000000
_cell_angle_beta   105.68323265
_cell_angle_gamma   90.00000000
_symmetry_Int_Tables_number   1
_chemical_formula_structural   Cu11NiC5
_chemical_formula_sum   'Cu66 Ni6 C30'
_cell_volume   1361.55556069
_cell_formula_units_Z   6
loop_
 _symmetry_equiv_pos_site_id
 _symmetry_equiv_pos_as_xyz
  1  'x, y, z'
loop_
 _atom_site_type_symbol
 _atom_site_label
 _atom_site_symmetry_multiplicity
 _atom_site_fract_x
 _atom_site_fract_y
 _atom_site_fract_z
 _atom_site_occupancy
  C  C0  1  0.16489600  0.25000000  0.33571100  1
  C  C1  1  0.83510400  0.75000000  0.66428900  1
  C  C2  1  0.33285400  0.49776100  0.66772200  1
  C  C3  1  0.66714600  0.99776100  0.33227800  1
  C  C4  1  0.66714600  0.50223900  0.33227800  1
  C  C5  1  0.33285400  0.00223900  0.66772200  1
  C  C6  1  0.00000000  0.50000000  0.00000000  1
  C  C7  1  0.00000000  0.00000000  0.00000000  1
  C  C8  1  0.15782400  0.75000000  0.30608500  1
  C  C9  1  0.84217600  0.25000000  0.69391500  1
  C  C10  1  0.50384300  0.25000000  0.01363800  1
  C  C11  1  0.49615700  0.75000000  0.98636200  1
  C  C12  1  0.17051600  0.25000000  0.10956500  1
  C  C13  1  0.82948400  0.75000000  0.89043500  1
  C  C14  1  0.96353700  0.20190500  0.12191700  1
  C  C15  1  0.03646300  0.70190500  0.87808300  1
  C  C16  1  0.03646300  0.79809500  0.87808300  1
  C  C17  1  0.96353700  0.29809500  0.12191700  1
  C  C18  1  0.52030500  0.39675300  0.82480100  1
  C  C19  1  0.47969500  0.89675300  0.17519900  1
  C  C20  1  0.47969500  0.60324700  0.17519900  1
  C  C21  1  0.52030500  0.10324700  0.82480100  1
  C  C22  1  0.27808400  0.36566900  0.75860400  1
  C  C23  1  0.72191600  0.86566900  0.24139600  1
  C  C24  1  0.72191600  0.63433100  0.24139600  1
  C  C25  1  0.27808400  0.13433100  0.75860400  1
  C  C26  1  0.31684300  0.43208000  0.86635400  1
  C  C27  1  0.68315700  0.93208000  0.13364600  1
  C  C28  1  0.68315700  0.56792000  0.13364600  1
  C  C29  1  0.31684300  0.06792000  0.86635400  1
  Ni  Ni30  1  0.05132300  0.25000000  0.14888600  1
  Ni  Ni31  1  0.94867700  0.75000000  0.85111400  1
  Ni  Ni32  1  0.36851900  0.41186900  0.79641000  1
  Ni  Ni33  1  0.63148100  0.91186900  0.20359000  1
  Ni  Ni34  1  0.63148100  0.58813100  0.20359000  1
  Ni  Ni35  1  0.36851900  0.08813100  0.79641000  1
  Cu  Cu36  1  0.26487100  0.25000000  0.49929500  1
  Cu  Cu37  1  0.73512900  0.75000000  0.50070500  1
  Cu  Cu38  1  0.34755800  0.32492000  0.31948200  1
  Cu  Cu39  1  0.65244200  0.82492000  0.68051800  1
  Cu  Cu40  1  0.65244200  0.67508000  0.68051800  1
  Cu  Cu41  1  0.34755800  0.17508000  0.31948200  1
  Cu  Cu42  1  0.97643000  0.32500100  0.34208800  1
  Cu  Cu43  1  0.02357000  0.82500100  0.65791200  1
  Cu  Cu44  1  0.02357000  0.67499900  0.65791200  1
  Cu  Cu45  1  0.97643000  0.17499900  0.34208800  1
  Cu  Cu46  1  0.36800200  0.56820400  0.79002500  1
  Cu  Cu47  1  0.63199800  0.06820400  0.20997500  1
  Cu  Cu48  1  0.63199800  0.43179600  0.20997500  1
  Cu  Cu49  1  0.36800200  0.93179600  0.79002500  1
  Cu  Cu50  1  0.29969300  0.42261000  0.55120300  1
  Cu  Cu51  1  0.70030700  0.92261000  0.44879700  1
  Cu  Cu52  1  0.70030700  0.57739000  0.44879700  1
  Cu  Cu53  1  0.29969300  0.07739000  0.55120300  1
  Cu  Cu54  1  0.05423100  0.49546600  0.65213600  1
  Cu  Cu55  1  0.94576900  0.99546600  0.34786400  1
  Cu  Cu56  1  0.94576900  0.50453400  0.34786400  1
  Cu  Cu57  1  0.05423100  0.00453400  0.65213600  1
  Cu  Cu58  1  0.61214300  0.49610100  0.68619300  1
  Cu  Cu59  1  0.38785700  0.99610100  0.31380700  1
  Cu  Cu60  1  0.38785700  0.50389900  0.31380700  1
  Cu  Cu61  1  0.61214300  0.00389900  0.68619300  1
  Cu  Cu62  1  0.29841600  0.57247300  0.55270800  1
  Cu  Cu63  1  0.70158400  0.07247300  0.44729200  1
  Cu  Cu64  1  0.70158400  0.42752700  0.44729200  1
  Cu  Cu65  1  0.29841600  0.92752700  0.55270800  1
  Cu  Cu66  1  0.99220200  0.43648400  0.88165800  1
  Cu  Cu67  1  0.00779800  0.93648400  0.11834200  1
  Cu  Cu68  1  0.00779800  0.56351600  0.11834200  1
  Cu  Cu69  1  0.99220200  0.06351600  0.88165800  1
  Cu  Cu70  1  0.26970300  0.50590000  0.02575100  1
  Cu  Cu71  1  0.73029700  0.00590000  0.97424900  1
  Cu  Cu72  1  0.73029700  0.49410000  0.97424900  1
  Cu  Cu73  1  0.26970300  0.99410000  0.02575100  1
  Cu  Cu74  1  0.03037200  0.42304100  0.10106500  1
  Cu  Cu75  1  0.96962800  0.92304100  0.89893500  1
  Cu  Cu76  1  0.96962800  0.57695900  0.89893500  1
  Cu  Cu77  1  0.03037200  0.07695900  0.10106500  1
  Cu  Cu78  1  0.06198000  0.75000000  0.15022800  1
  Cu  Cu79  1  0.93802000  0.25000000  0.84977200  1
  Cu  Cu80  1  0.97532800  0.67878100  0.31694400  1
  Cu  Cu81  1  0.02467200  0.17878100  0.68305600  1
  Cu  Cu82  1  0.02467200  0.32121900  0.68305600  1
  Cu  Cu83  1  0.97532800  0.82121900  0.31694400  1
  Cu  Cu84  1  0.33568300  0.67828100  0.29707900  1
  Cu  Cu85  1  0.66431700  0.17828100  0.70292100  1
  Cu  Cu86  1  0.66431700  0.32171900  0.70292100  1
  Cu  Cu87  1  0.33568300  0.82171900  0.29707900  1
  Cu  Cu88  1  0.24978900  0.75000000  0.46222300  1
  Cu  Cu89  1  0.75021100  0.25000000  0.53777700  1
  Cu  Cu90  1  0.61875200  0.25000000  0.16887100  1
  Cu  Cu91  1  0.38124800  0.75000000  0.83112900  1
  Cu  Cu92  1  0.32801100  0.32004700  0.03180300  1
  Cu  Cu93  1  0.67198900  0.82004700  0.96819700  1
  Cu  Cu94  1  0.67198900  0.67995300  0.96819700  1
  Cu  Cu95  1  0.32801100  0.17995300  0.03180300  1
  Cu  Cu96  1  0.67522400  0.32198200  0.99680900  1
  Cu  Cu97  1  0.32477600  0.82198200  0.00319100  1
  Cu  Cu98  1  0.32477600  0.67801800  0.00319100  1
  Cu  Cu99  1  0.67522400  0.17801800  0.99680900  1
  Cu  Cu100  1  0.39388700  0.25000000  0.85782700  1
  Cu  Cu101  1  0.60611300  0.75000000  0.14217300  1
