# generated using pymatgen
data_Cu7(Ni9C2)2
_symmetry_space_group_name_H-M   'P 1'
_cell_length_a   13.91786900
_cell_length_b   7.84237200
_cell_length_c   15.55121800
_cell_angle_alpha   90.00000000
_cell_angle_beta   90.00000000
_cell_angle_gamma   90.00000000
_symmetry_Int_Tables_number   1
_chemical_formula_structural   Cu7(Ni9C2)2
_chemical_formula_sum   'Cu28 Ni72 C16'
_cell_volume   1697.40154417
_cell_formula_units_Z   4
loop_
 _symmetry_equiv_pos_site_id
 _symmetry_equiv_pos_as_xyz
  1  'x, y, z'
loop_
 _atom_site_type_symbol
 _atom_site_label
 _atom_site_symmetry_multiplicity
 _atom_site_fract_x
 _atom_site_fract_y
 _atom_site_fract_z
 _atom_site_occupancy
  C  C0  1  0.22457100  0.25000000  0.90194200  1
  C  C1  1  0.72457100  0.25000000  0.59805800  1
  C  C2  1  0.77542900  0.75000000  0.09805800  1
  C  C3  1  0.27542900  0.75000000  0.40194200  1
  Ni  Ni4  1  0.37264200  0.25000000  0.79396800  1
  Ni  Ni5  1  0.87264200  0.25000000  0.70603200  1
  Ni  Ni6  1  0.62735800  0.75000000  0.20603200  1
  Ni  Ni7  1  0.12735800  0.75000000  0.29396800  1
  Ni  Ni8  1  0.28366900  0.14461600  0.74816600  1
  Ni  Ni9  1  0.78366900  0.35538400  0.75183400  1
  Ni  Ni10  1  0.71633100  0.64461600  0.25183400  1
  Ni  Ni11  1  0.21633100  0.85538400  0.24816600  1
  Ni  Ni12  1  0.71633100  0.85538400  0.25183400  1
  Ni  Ni13  1  0.21633100  0.64461600  0.24816600  1
  Ni  Ni14  1  0.28366900  0.35538400  0.74816600  1
  Ni  Ni15  1  0.78366900  0.14461600  0.75183400  1
  Ni  Ni16  1  0.29681400  0.94167200  0.93609000  1
  Ni  Ni17  1  0.79681400  0.55832800  0.56391000  1
  Ni  Ni18  1  0.70318600  0.44167200  0.06391000  1
  Ni  Ni19  1  0.20318600  0.05832800  0.43609000  1
  Ni  Ni20  1  0.70318600  0.05832800  0.06391000  1
  Ni  Ni21  1  0.20318600  0.44167200  0.43609000  1
  Ni  Ni22  1  0.29681400  0.55832800  0.93609000  1
  Ni  Ni23  1  0.79681400  0.94167200  0.56391000  1
  Ni  Ni24  1  0.38733200  0.07609500  0.92487500  1
  Ni  Ni25  1  0.88733200  0.42390500  0.57512500  1
  Ni  Ni26  1  0.61266800  0.57609500  0.07512500  1
  Ni  Ni27  1  0.11266800  0.92390500  0.42487500  1
  Ni  Ni28  1  0.61266800  0.92390500  0.07512500  1
  Ni  Ni29  1  0.11266800  0.57609500  0.42487500  1
  Ni  Ni30  1  0.38733200  0.42390500  0.92487500  1
  Ni  Ni31  1  0.88733200  0.07609500  0.57512500  1
  Ni  Ni32  1  0.32803200  0.06769700  0.01624900  1
  Ni  Ni33  1  0.82803200  0.43230300  0.48375100  1
  Ni  Ni34  1  0.67196800  0.56769700  0.98375100  1
  Ni  Ni35  1  0.17196800  0.93230300  0.51624900  1
  Ni  Ni36  1  0.67196800  0.93230300  0.98375100  1
  Ni  Ni37  1  0.17196800  0.56769700  0.51624900  1
  Ni  Ni38  1  0.32803200  0.43230300  0.01624900  1
  Ni  Ni39  1  0.82803200  0.06769700  0.48375100  1
  Ni  Ni40  1  0.07602400  0.10342800  0.82112100  1
  Ni  Ni41  1  0.57602400  0.39657200  0.67887900  1
  Ni  Ni42  1  0.92397600  0.60342800  0.17887900  1
  Ni  Ni43  1  0.42397600  0.89657200  0.32112100  1
  Ni  Ni44  1  0.92397600  0.89657200  0.17887900  1
  Ni  Ni45  1  0.42397600  0.60342800  0.32112100  1
  Ni  Ni46  1  0.07602400  0.39657200  0.82112100  1
  Ni  Ni47  1  0.57602400  0.10342800  0.67887900  1
  Ni  Ni48  1  0.17039200  0.97605200  0.81445700  1
  Ni  Ni49  1  0.67039200  0.52394800  0.68554300  1
  Ni  Ni50  1  0.82960800  0.47605200  0.18554300  1
  Ni  Ni51  1  0.32960800  0.02394800  0.31445700  1
  Ni  Ni52  1  0.82960800  0.02394800  0.18554300  1
  Ni  Ni53  1  0.32960800  0.47605200  0.31445700  1
  Ni  Ni54  1  0.17039200  0.52394800  0.81445700  1
  Ni  Ni55  1  0.67039200  0.97605200  0.68554300  1
  Ni  Ni56  1  0.10763100  0.98080600  0.90418800  1
  Ni  Ni57  1  0.60763100  0.51919400  0.59581200  1
  Ni  Ni58  1  0.89236900  0.48080600  0.09581200  1
  Ni  Ni59  1  0.39236900  0.01919400  0.40418800  1
  Ni  Ni60  1  0.89236900  0.01919400  0.09581200  1
  Ni  Ni61  1  0.39236900  0.48080600  0.40418800  1
  Ni  Ni62  1  0.10763100  0.51919400  0.90418800  1
  Ni  Ni63  1  0.60763100  0.98080600  0.59581200  1
  Ni  Ni64  1  0.07451100  0.25000000  0.00631100  1
  Ni  Ni65  1  0.57451100  0.25000000  0.49368900  1
  Ni  Ni66  1  0.92548900  0.75000000  0.99368900  1
  Ni  Ni67  1  0.42548900  0.75000000  0.50631100  1
  Ni  Ni68  1  0.16088800  0.14485900  0.05570300  1
  Ni  Ni69  1  0.66088800  0.35514100  0.44429700  1
  Ni  Ni70  1  0.83911200  0.64485900  0.94429700  1
  Ni  Ni71  1  0.33911200  0.85514100  0.55570300  1
  Ni  Ni72  1  0.83911200  0.85514100  0.94429700  1
  Ni  Ni73  1  0.33911200  0.64485900  0.55570300  1
  Ni  Ni74  1  0.16088800  0.35514100  0.05570300  1
  Ni  Ni75  1  0.66088800  0.14485900  0.44429700  1
  C  C76  1  0.39004100  0.25000000  0.53918900  1
  C  C77  1  0.89004100  0.25000000  0.96081100  1
  C  C78  1  0.60995900  0.75000000  0.46081100  1
  C  C79  1  0.10995900  0.75000000  0.03918900  1
  C  C80  1  0.05175800  0.25000000  0.64036600  1
  C  C81  1  0.55175800  0.25000000  0.85963400  1
  C  C82  1  0.94824200  0.75000000  0.35963400  1
  C  C83  1  0.44824200  0.75000000  0.14036600  1
  C  C84  1  0.31667300  0.75000000  0.76482500  1
  C  C85  1  0.81667300  0.75000000  0.73517500  1
  C  C86  1  0.68332700  0.25000000  0.23517500  1
  C  C87  1  0.18332700  0.25000000  0.26482500  1
  Cu  Cu88  1  0.29888900  0.25000000  0.78482400  1
  Cu  Cu89  1  0.79888900  0.25000000  0.71517600  1
  Cu  Cu90  1  0.70111100  0.75000000  0.21517600  1
  Cu  Cu91  1  0.20111100  0.75000000  0.28482400  1
  Cu  Cu92  1  0.31934800  0.06271300  0.95069700  1
  Cu  Cu93  1  0.81934800  0.43728700  0.54930300  1
  Cu  Cu94  1  0.68065200  0.56271300  0.04930300  1
  Cu  Cu95  1  0.18065200  0.93728700  0.45069700  1
  Cu  Cu96  1  0.68065200  0.93728700  0.04930300  1
  Cu  Cu97  1  0.18065200  0.56271300  0.45069700  1
  Cu  Cu98  1  0.31934800  0.43728700  0.95069700  1
  Cu  Cu99  1  0.81934800  0.06271300  0.54930300  1
  Cu  Cu100  1  0.13355900  0.05685300  0.85522900  1
  Cu  Cu101  1  0.63355900  0.44314700  0.64477100  1
  Cu  Cu102  1  0.86644100  0.55685300  0.14477100  1
  Cu  Cu103  1  0.36644100  0.94314700  0.35522900  1
  Cu  Cu104  1  0.86644100  0.94314700  0.14477100  1
  Cu  Cu105  1  0.36644100  0.55685300  0.35522900  1
  Cu  Cu106  1  0.13355900  0.44314700  0.85522900  1
  Cu  Cu107  1  0.63355900  0.05685300  0.64477100  1
  Cu  Cu108  1  0.14775100  0.25000000  0.01811500  1
  Cu  Cu109  1  0.64775100  0.25000000  0.48188500  1
  Cu  Cu110  1  0.85224900  0.75000000  0.98188500  1
  Cu  Cu111  1  0.35224900  0.75000000  0.51811500  1
  Cu  Cu112  1  0.10041500  0.75000000  0.62442400  1
  Cu  Cu113  1  0.60041500  0.75000000  0.87557600  1
  Cu  Cu114  1  0.89958500  0.25000000  0.37557600  1
  Cu  Cu115  1  0.39958500  0.25000000  0.12442400  1
