# generated using pymatgen
data_Cu2Ni2C3
_symmetry_space_group_name_H-M   'P 1'
_cell_length_a   7.41806058
_cell_length_b   7.41806058
_cell_length_c   9.57923100
_cell_angle_alpha   90.00000000
_cell_angle_beta   90.00000000
_cell_angle_gamma   134.17459390
_symmetry_Int_Tables_number   1
_chemical_formula_structural   Cu2Ni2C3
_chemical_formula_sum   'Cu8 Ni8 C12'
_cell_volume   378.06249138
_cell_formula_units_Z   4
loop_
 _symmetry_equiv_pos_site_id
 _symmetry_equiv_pos_as_xyz
  1  'x, y, z'
loop_
 _atom_site_type_symbol
 _atom_site_label
 _atom_site_symmetry_multiplicity
 _atom_site_fract_x
 _atom_site_fract_y
 _atom_site_fract_z
 _atom_site_occupancy
  C  C0  1  0.98329000  0.01671000  0.00099700  1
  C  C1  1  0.01671000  0.98329000  0.50099700  1
  C  C2  1  0.47345400  0.52654600  0.75493400  1
  C  C3  1  0.52654600  0.47345400  0.25493400  1
  C  C4  1  0.28718700  0.71281300  0.53903400  1
  C  C5  1  0.71281300  0.28718700  0.03903400  1
  C  C6  1  0.29761800  0.70238200  0.98617600  1
  C  C7  1  0.70238200  0.29761800  0.48617600  1
  C  C8  1  0.42911100  0.08259100  0.76146000  1
  C  C9  1  0.91740900  0.57088900  0.76146000  1
  C  C10  1  0.57088900  0.91740900  0.26146000  1
  C  C11  1  0.08259100  0.42911100  0.26146000  1
  Ni  Ni12  1  0.20758100  0.79241900  0.85108700  1
  Ni  Ni13  1  0.79241900  0.20758100  0.35108700  1
  Ni  Ni14  1  0.71194600  0.28805400  0.84586800  1
  Ni  Ni15  1  0.28805400  0.71194600  0.34586800  1
  Ni  Ni16  1  0.46507500  0.04318100  0.58915300  1
  Ni  Ni17  1  0.95681900  0.53492500  0.58915300  1
  Ni  Ni18  1  0.53492500  0.95681900  0.08915300  1
  Ni  Ni19  1  0.04318100  0.46507500  0.08915300  1
  Cu  Cu20  1  0.29897000  0.19898400  0.75948500  1
  Cu  Cu21  1  0.80101600  0.70103000  0.75948500  1
  Cu  Cu22  1  0.70103000  0.80101600  0.25948500  1
  Cu  Cu23  1  0.19898400  0.29897000  0.25948500  1
  Cu  Cu24  1  0.40647200  0.59352800  0.91120900  1
  Cu  Cu25  1  0.59352800  0.40647200  0.41120900  1
  Cu  Cu26  1  0.40631500  0.59368500  0.60279800  1
  Cu  Cu27  1  0.59368500  0.40631500  0.10279800  1
