# generated using pymatgen
data_Cu12Ni14C13
_symmetry_space_group_name_H-M   'P 1'
_cell_length_a   26.48489176
_cell_length_b   26.48489176
_cell_length_c   5.51435900
_cell_angle_alpha   90.00000000
_cell_angle_beta   90.00000000
_cell_angle_gamma   168.04824623
_symmetry_Int_Tables_number   1
_chemical_formula_structural   Cu12Ni14C13
_chemical_formula_sum   'Cu12 Ni14 C13'
_cell_volume   801.02541641
_cell_formula_units_Z   1
loop_
 _symmetry_equiv_pos_site_id
 _symmetry_equiv_pos_as_xyz
  1  'x, y, z'
loop_
 _atom_site_type_symbol
 _atom_site_label
 _atom_site_symmetry_multiplicity
 _atom_site_fract_x
 _atom_site_fract_y
 _atom_site_fract_z
 _atom_site_occupancy
  C  C0  1  0.00000000  0.00000000  0.50000000  1
  C  C1  1  0.77426400  0.22573600  0.00000000  1
  C  C2  1  0.27427300  0.72572700  0.50000000  1
  C  C3  1  0.72572700  0.27427300  0.50000000  1
  C  C4  1  0.22573600  0.77426400  0.00000000  1
  C  C5  1  0.92058900  0.07941100  0.00000000  1
  C  C6  1  0.42058900  0.57941100  0.50000000  1
  C  C7  1  0.57941100  0.42058900  0.50000000  1
  C  C8  1  0.07941100  0.92058900  0.00000000  1
  C  C9  1  0.62777900  0.37222100  0.00000000  1
  C  C10  1  0.12843200  0.87156800  0.50000000  1
  C  C11  1  0.87156800  0.12843200  0.50000000  1
  C  C12  1  0.37222100  0.62777900  0.00000000  1
  Ni  Ni13  1  0.69950000  0.30050000  0.00000000  1
  Ni  Ni14  1  0.19948000  0.80052000  0.50000000  1
  Ni  Ni15  1  0.80052000  0.19948000  0.50000000  1
  Ni  Ni16  1  0.30050000  0.69950000  0.00000000  1
  Ni  Ni17  1  0.55516500  0.44483500  0.00000000  1
  Ni  Ni18  1  0.05201100  0.94798900  0.50000000  1
  Ni  Ni19  1  0.94798900  0.05201100  0.50000000  1
  Ni  Ni20  1  0.44483500  0.55516500  0.00000000  1
  Ni  Ni21  1  0.84596200  0.15403800  0.00000000  1
  Ni  Ni22  1  0.34596300  0.65403700  0.50000000  1
  Ni  Ni23  1  0.65403700  0.34596300  0.50000000  1
  Ni  Ni24  1  0.15403800  0.84596200  0.00000000  1
  Ni  Ni25  1  0.50000000  0.50000000  0.50000000  1
  Ni  Ni26  1  0.00000000  0.00000000  0.00000000  1
  Cu  Cu27  1  0.64802000  0.85567700  0.74815800  1
  Cu  Cu28  1  0.14432300  0.35198000  0.25184200  1
  Cu  Cu29  1  0.14432300  0.35198000  0.74815800  1
  Cu  Cu30  1  0.64802000  0.85567700  0.25184200  1
  Cu  Cu31  1  0.85567700  0.64802000  0.74815800  1
  Cu  Cu32  1  0.35198000  0.14432300  0.25184200  1
  Cu  Cu33  1  0.35198000  0.14432300  0.74815800  1
  Cu  Cu34  1  0.85567700  0.64802000  0.25184200  1
  Cu  Cu35  1  0.50000000  0.00000000  0.74997000  1
  Cu  Cu36  1  0.00000000  0.50000000  0.25003000  1
  Cu  Cu37  1  0.00000000  0.50000000  0.74997000  1
  Cu  Cu38  1  0.50000000  0.00000000  0.25003000  1
