# generated using pymatgen
data_CuNiC3
_symmetry_space_group_name_H-M   'P 1'
_cell_length_a   6.36500200
_cell_length_b   7.00207800
_cell_length_c   9.55935500
_cell_angle_alpha   90.00000000
_cell_angle_beta   90.00000000
_cell_angle_gamma   90.00000000
_symmetry_Int_Tables_number   1
_chemical_formula_structural   CuNiC3
_chemical_formula_sum   'Cu4 Ni4 C12'
_cell_volume   426.04363242
_cell_formula_units_Z   4
loop_
 _symmetry_equiv_pos_site_id
 _symmetry_equiv_pos_as_xyz
  1  'x, y, z'
loop_
 _atom_site_type_symbol
 _atom_site_label
 _atom_site_symmetry_multiplicity
 _atom_site_fract_x
 _atom_site_fract_y
 _atom_site_fract_z
 _atom_site_occupancy
  Ni  Ni0  1  0.04194400  0.60417100  0.25000000  1
  Ni  Ni1  1  0.45805600  0.10417100  0.25000000  1
  Ni  Ni2  1  0.95805600  0.39582900  0.75000000  1
  Ni  Ni3  1  0.54194400  0.89582900  0.75000000  1
  Cu  Cu4  1  0.50000000  0.50000000  0.50000000  1
  Cu  Cu5  1  0.50000000  0.50000000  0.00000000  1
  Cu  Cu6  1  0.00000000  0.00000000  0.50000000  1
  Cu  Cu7  1  0.00000000  0.00000000  0.00000000  1
  C  C8  1  0.17344500  0.31737900  0.07081400  1
  C  C9  1  0.32655500  0.81737900  0.07081400  1
  C  C10  1  0.67344500  0.18262100  0.57081400  1
  C  C11  1  0.82655500  0.68262100  0.92918600  1
  C  C12  1  0.64462800  0.45349200  0.25000000  1
  C  C13  1  0.35537200  0.54650800  0.75000000  1
  C  C14  1  0.82655500  0.68262100  0.57081400  1
  C  C15  1  0.17344500  0.31737900  0.42918600  1
  C  C16  1  0.32655500  0.81737900  0.42918600  1
  C  C17  1  0.67344500  0.18262100  0.92918600  1
  C  C18  1  0.14462800  0.04650800  0.75000000  1
  C  C19  1  0.85537200  0.95349200  0.25000000  1
