# generated using pymatgen
data_CuNiC14
_symmetry_space_group_name_H-M   'P 1'
_cell_length_a   7.05779033
_cell_length_b   7.05778965
_cell_length_c   10.53247329
_cell_angle_alpha   90.00000000
_cell_angle_beta   90.00000000
_cell_angle_gamma   120.00000324
_symmetry_Int_Tables_number   1
_chemical_formula_structural   CuNiC14
_chemical_formula_sum   'Cu1 Ni1 C14'
_cell_volume   454.35827989
_cell_formula_units_Z   1
loop_
 _symmetry_equiv_pos_site_id
 _symmetry_equiv_pos_as_xyz
  1  'x, y, z'
loop_
 _atom_site_type_symbol
 _atom_site_label
 _atom_site_symmetry_multiplicity
 _atom_site_fract_x
 _atom_site_fract_y
 _atom_site_fract_z
 _atom_site_occupancy
  Ni  Ni0  1  0.16666700  0.33333300  0.12500000  1
  Cu  Cu1  1  0.16666700  0.33333300  0.62500000  1
  C  C2  1  0.17323639  0.83661770  0.12500000  1
  C  C3  1  0.17797377  0.83898638  0.62500000  1
  C  C4  1  0.66338230  0.32676361  0.12500000  1
  C  C5  1  0.66101362  0.32202623  0.62500000  1
  C  C6  1  0.66338230  0.83661770  0.12500000  1
  C  C7  1  0.66101362  0.83898638  0.62500000  1
  C  C8  1  0.35284650  0.14715350  0.37853096  1
  C  C9  1  0.35284650  0.14715350  0.87146904  1
  C  C10  1  0.35284650  0.70569399  0.37853096  1
  C  C11  1  0.35284650  0.70569399  0.87146904  1
  C  C12  1  0.79430601  0.14715350  0.37853096  1
  C  C13  1  0.79430601  0.14715350  0.87146904  1
  C  C14  1  0.83333300  0.66666700  0.37564847  1
  C  C15  1  0.83333300  0.66666700  0.87435153  1
