# generated using pymatgen
data_Cu11NiC8
_symmetry_space_group_name_H-M   'P 1'
_cell_length_a   5.08568700
_cell_length_b   5.52872410
_cell_length_c   8.76583334
_cell_angle_alpha   107.53196705
_cell_angle_beta   89.99606517
_cell_angle_gamma   117.06514993
_symmetry_Int_Tables_number   1
_chemical_formula_structural   Cu11NiC8
_chemical_formula_sum   'Cu11 Ni1 C8'
_cell_volume   206.54398580
_cell_formula_units_Z   1
loop_
 _symmetry_equiv_pos_site_id
 _symmetry_equiv_pos_as_xyz
  1  'x, y, z'
loop_
 _atom_site_type_symbol
 _atom_site_label
 _atom_site_symmetry_multiplicity
 _atom_site_fract_x
 _atom_site_fract_y
 _atom_site_fract_z
 _atom_site_occupancy
  C  C0  1  0.20533100  0.34427700  0.06472800  1
  C  C1  1  0.05239600  0.40410300  0.69374600  1
  C  C2  1  0.97114600  0.60487900  0.32824500  1
  C  C3  1  0.26554000  0.14441900  0.40292500  1
  C  C4  1  0.75577100  0.61078200  0.93886400  1
  C  C5  1  0.46013400  0.12785200  0.83002100  1
  C  C6  1  0.73569100  0.90061500  0.56776200  1
  C  C7  1  0.51793700  0.85851700  0.18001800  1
  Ni  Ni8  1  0.78746200  0.87030800  0.37884800  1
  Cu  Cu9  1  0.28492500  0.02137400  0.22329500  1
  Cu  Cu10  1  0.77866100  0.57116700  0.69211300  1
  Cu  Cu11  1  0.68787300  0.63482600  0.13665600  1
  Cu  Cu12  1  0.71242400  0.25072000  0.47330300  1
  Cu  Cu13  1  0.24235700  0.78899200  0.98290000  1
  Cu  Cu14  1  0.31872300  0.72568200  0.53444900  1
  Cu  Cu15  1  0.77729200  0.21504400  0.02855000  1
  Cu  Cu16  1  0.33029600  0.37777300  0.87357900  1
  Cu  Cu17  1  0.15192400  0.10163300  0.61401400  1
  Cu  Cu18  1  0.21448300  0.47046700  0.28126500  1
  Cu  Cu19  1  0.72270200  0.97099500  0.76546000  1
