# generated using pymatgen
data_Cu2NiC3
_symmetry_space_group_name_H-M   'P 1'
_cell_length_a   5.53391940
_cell_length_b   5.53391940
_cell_length_c   5.24222000
_cell_angle_alpha   90.00000000
_cell_angle_beta   90.00000000
_cell_angle_gamma   119.85087856
_symmetry_Int_Tables_number   1
_chemical_formula_structural   Cu2NiC3
_chemical_formula_sum   'Cu4 Ni2 C6'
_cell_volume   139.23940725
_cell_formula_units_Z   2
loop_
 _symmetry_equiv_pos_site_id
 _symmetry_equiv_pos_as_xyz
  1  'x, y, z'
loop_
 _atom_site_type_symbol
 _atom_site_label
 _atom_site_symmetry_multiplicity
 _atom_site_fract_x
 _atom_site_fract_y
 _atom_site_fract_z
 _atom_site_occupancy
  Ni  Ni0  1  0.83552200  0.83552200  0.96122100  1
  Ni  Ni1  1  0.16447800  0.16447800  0.46122100  1
  Cu  Cu2  1  0.83182300  0.50233400  0.47327200  1
  Cu  Cu3  1  0.50233400  0.83182300  0.47327200  1
  Cu  Cu4  1  0.16817700  0.49766600  0.97327200  1
  Cu  Cu5  1  0.49766600  0.16817700  0.97327200  1
  C  C6  1  0.83480700  0.53094500  0.86130000  1
  C  C7  1  0.53094500  0.83480700  0.86130000  1
  C  C8  1  0.16519300  0.46905500  0.36130000  1
  C  C9  1  0.46905500  0.16519300  0.36130000  1
  C  C10  1  0.86166200  0.86166200  0.31401400  1
  C  C11  1  0.13833800  0.13833800  0.81401400  1
