# generated using pymatgen
data_Cu3(NiC4)2
_symmetry_space_group_name_H-M   'P 1'
_cell_length_a   4.41722000
_cell_length_b   7.72051800
_cell_length_c   17.69876500
_cell_angle_alpha   90.00000000
_cell_angle_beta   90.00000000
_cell_angle_gamma   90.00000000
_symmetry_Int_Tables_number   1
_chemical_formula_structural   Cu3(NiC4)2
_chemical_formula_sum   'Cu12 Ni8 C32'
_cell_volume   603.58499192
_cell_formula_units_Z   4
loop_
 _symmetry_equiv_pos_site_id
 _symmetry_equiv_pos_as_xyz
  1  'x, y, z'
loop_
 _atom_site_type_symbol
 _atom_site_label
 _atom_site_symmetry_multiplicity
 _atom_site_fract_x
 _atom_site_fract_y
 _atom_site_fract_z
 _atom_site_occupancy
  C  C0  1  0.10582100  0.00000000  0.36271100  1
  C  C1  1  0.60582100  0.50000000  0.63728900  1
  C  C2  1  0.17724400  0.50000000  0.14710600  1
  C  C3  1  0.67724400  0.00000000  0.85289400  1
  Ni  Ni4  1  0.62605900  0.31189600  0.45848700  1
  Ni  Ni5  1  0.62605900  0.68810400  0.45848700  1
  Ni  Ni6  1  0.12605900  0.18810400  0.54151300  1
  Ni  Ni7  1  0.12605900  0.81189600  0.54151300  1
  Ni  Ni8  1  0.77094300  0.17593400  0.03735900  1
  Ni  Ni9  1  0.77094300  0.82406600  0.03735900  1
  Ni  Ni10  1  0.27094300  0.32406600  0.96264100  1
  Ni  Ni11  1  0.27094300  0.67593400  0.96264100  1
  Cu  Cu12  1  0.12428800  0.50000000  0.48023800  1
  Cu  Cu13  1  0.62428800  0.00000000  0.51976200  1
  Cu  Cu14  1  0.26559900  0.00000000  0.00903400  1
  Cu  Cu15  1  0.76559900  0.50000000  0.99096600  1
  Cu  Cu16  1  0.54538400  0.33999100  0.31543300  1
  Cu  Cu17  1  0.54538400  0.66000900  0.31543300  1
  Cu  Cu18  1  0.04538400  0.16000900  0.68456700  1
  Cu  Cu19  1  0.04538400  0.83999100  0.68456700  1
  Cu  Cu20  1  0.67126700  0.16491800  0.19270400  1
  Cu  Cu21  1  0.67126700  0.83508200  0.19270400  1
  Cu  Cu22  1  0.17126700  0.33508200  0.80729600  1
  Cu  Cu23  1  0.17126700  0.66491800  0.80729600  1
  C  C24  1  0.81191400  0.50000000  0.47275000  1
  C  C25  1  0.31191400  0.00000000  0.52725000  1
  C  C26  1  0.27527700  0.34306600  0.48713700  1
  C  C27  1  0.27527700  0.65693400  0.48713700  1
  C  C28  1  0.77527700  0.15693400  0.51286300  1
  C  C29  1  0.77527700  0.84306600  0.51286300  1
  C  C30  1  0.95387200  0.00000000  0.00972600  1
  C  C31  1  0.45387200  0.50000000  0.99027400  1
  C  C32  1  0.42009000  0.15527100  0.00706100  1
  C  C33  1  0.42009000  0.84472900  0.00706100  1
  C  C34  1  0.92009000  0.34472900  0.99293900  1
  C  C35  1  0.92009000  0.65527100  0.99293900  1
  C  C36  1  0.63738500  0.23872200  0.37273900  1
  C  C37  1  0.63738500  0.76127800  0.37273900  1
  C  C38  1  0.13738500  0.26127800  0.62726100  1
  C  C39  1  0.13738500  0.73872200  0.62726100  1
  C  C40  1  0.40796500  0.50000000  0.33072900  1
  C  C41  1  0.90796500  0.00000000  0.66927100  1
  C  C42  1  0.57326500  0.30202700  0.23886900  1
  C  C43  1  0.57326500  0.69797300  0.23886900  1
  C  C44  1  0.07326500  0.19797300  0.76113100  1
  C  C45  1  0.07326500  0.80202700  0.76113100  1
  C  C46  1  0.63168700  0.00000000  0.22411500  1
  C  C47  1  0.13168700  0.50000000  0.77588500  1
  C  C48  1  0.78388100  0.20641600  0.12546600  1
  C  C49  1  0.78388100  0.79358400  0.12546600  1
  C  C50  1  0.28388100  0.29358400  0.87453400  1
  C  C51  1  0.28388100  0.70641600  0.87453400  1
