# generated using pymatgen
data_CuNiC12
_symmetry_space_group_name_H-M   'P 1'
_cell_length_a   10.65123900
_cell_length_b   10.89581898
_cell_length_c   11.01753782
_cell_angle_alpha   89.90340937
_cell_angle_beta   89.89876865
_cell_angle_gamma   89.95104326
_symmetry_Int_Tables_number   1
_chemical_formula_structural   CuNiC12
_chemical_formula_sum   'Cu4 Ni4 C48'
_cell_volume   1278.62475035
_cell_formula_units_Z   4
loop_
 _symmetry_equiv_pos_site_id
 _symmetry_equiv_pos_as_xyz
  1  'x, y, z'
loop_
 _atom_site_type_symbol
 _atom_site_label
 _atom_site_symmetry_multiplicity
 _atom_site_fract_x
 _atom_site_fract_y
 _atom_site_fract_z
 _atom_site_occupancy
  Ni  Ni0  1  0.04303700  0.47990400  0.47009400  1
  Ni  Ni1  1  0.52875400  0.46435300  0.05356000  1
  Ni  Ni2  1  0.49525000  0.00179400  0.52893700  1
  Ni  Ni3  1  0.99557200  0.94594400  0.02926500  1
  Cu  Cu4  1  0.50897800  0.00379300  0.01305000  1
  Cu  Cu5  1  0.98757100  0.00030800  0.50114200  1
  Cu  Cu6  1  0.01463700  0.51281900  0.99937900  1
  Cu  Cu7  1  0.51386200  0.51145300  0.49921800  1
  C  C8  1  0.64385000  0.45157300  0.58016200  1
  C  C9  1  0.84461200  0.53997400  0.06925600  1
  C  C10  1  0.15612200  0.04988400  0.42643500  1
  C  C11  1  0.35076100  0.95458700  0.91898200  1
  C  C12  1  0.55496500  0.66394400  0.44805400  1
  C  C13  1  0.08165200  0.85354400  0.53903700  1
  C  C14  1  0.43155600  0.15583800  0.04559400  1
  C  C15  1  0.91174600  0.35952400  0.94460000  1
  C  C16  1  0.44900800  0.58910300  0.65632400  1
  C  C17  1  0.53492900  0.07864100  0.84897600  1
  C  C18  1  0.04311300  0.43007900  0.14565500  1
  C  C19  1  0.96397100  0.92690900  0.34729500  1
  C  C20  1  0.34223500  0.54267400  0.42910100  1
  C  C21  1  0.14405300  0.44798900  0.91929000  1
  C  C22  1  0.84335000  0.96448200  0.56600500  1
  C  C23  1  0.66450900  0.04829000  0.05286200  1
  C  C24  1  0.41009800  0.36346600  0.54833900  1
  C  C25  1  0.93149200  0.16397300  0.44913200  1
  C  C26  1  0.58299100  0.84415000  0.95143900  1
  C  C27  1  0.05421100  0.66477200  0.04662700  1
  C  C28  1  0.54493300  0.43536000  0.34935000  1
  C  C29  1  0.44168600  0.92218300  0.13898200  1
  C  C30  1  0.95099200  0.58721700  0.84037500  1
  C  C31  1  0.05324000  0.08255000  0.64899700  1
  C  C32  1  0.32395900  0.54893900  0.73254100  1
  C  C33  1  0.18245000  0.44653500  0.21787000  1
  C  C34  1  0.82254100  0.93845200  0.27818000  1
  C  C35  1  0.66812100  0.05426200  0.77077500  1
  C  C36  1  0.72768600  0.32707400  0.55027000  1
  C  C37  1  0.22357000  0.18573900  0.45214900  1
  C  C38  1  0.26564600  0.82936200  0.95152200  1
  C  C39  1  0.76871700  0.67315800  0.04679400  1
  C  C40  1  0.55216500  0.71620800  0.30690300  1
  C  C41  1  0.44746300  0.22023500  0.18462200  1
  C  C42  1  0.95242300  0.26299400  0.83535800  1
  C  C43  1  0.04485700  0.76768800  0.66016400  1
  C  C44  1  0.69081800  0.44455600  0.28744200  1
  C  C45  1  0.82304100  0.54911600  0.76848500  1
  C  C46  1  0.17720500  0.04275500  0.72727000  1
  C  C47  1  0.32009800  0.95856300  0.22538600  1
  C  C48  1  0.26925600  0.67741900  0.45115100  1
  C  C49  1  0.77052000  0.82812200  0.55541900  1
  C  C50  1  0.72230800  0.18992000  0.05263800  1
  C  C51  1  0.22722100  0.32412700  0.95162100  1
  C  C52  1  0.45012500  0.26691700  0.66045600  1
  C  C53  1  0.54966100  0.77211600  0.82533600  1
  C  C54  1  0.05785900  0.71448100  0.19122500  1
  C  C55  1  0.94455800  0.22019500  0.31090800  1
