# generated using pymatgen
data_CuNiC4
_symmetry_space_group_name_H-M   'P 1'
_cell_length_a   3.41168262
_cell_length_b   3.41168262
_cell_length_c   13.36442300
_cell_angle_alpha   90.00000000
_cell_angle_beta   90.00000000
_cell_angle_gamma   120.00001206
_symmetry_Int_Tables_number   1
_chemical_formula_structural   CuNiC4
_chemical_formula_sum   'Cu1 Ni1 C4'
_cell_volume   134.71564622
_cell_formula_units_Z   1
loop_
 _symmetry_equiv_pos_site_id
 _symmetry_equiv_pos_as_xyz
  1  'x, y, z'
loop_
 _atom_site_type_symbol
 _atom_site_label
 _atom_site_symmetry_multiplicity
 _atom_site_fract_x
 _atom_site_fract_y
 _atom_site_fract_z
 _atom_site_occupancy
  Ni  Ni0  1  0.66666700  0.33333300  0.00000000  1
  Cu  Cu1  1  0.66666700  0.33333300  0.50000000  1
  C  C2  1  0.33333300  0.66666700  0.62284900  1
  C  C3  1  0.00000000  0.00000000  0.87204500  1
  C  C4  1  0.00000000  0.00000000  0.12795500  1
  C  C5  1  0.33333300  0.66666700  0.37715100  1
