# generated using pymatgen
data_Cu6NiC5
_symmetry_space_group_name_H-M   'P 1'
_cell_length_a   5.55984700
_cell_length_b   9.76487400
_cell_length_c   18.36930800
_cell_angle_alpha   90.00000000
_cell_angle_beta   90.00000000
_cell_angle_gamma   90.00000000
_symmetry_Int_Tables_number   1
_chemical_formula_structural   Cu6NiC5
_chemical_formula_sum   'Cu48 Ni8 C40'
_cell_volume   997.29187395
_cell_formula_units_Z   8
loop_
 _symmetry_equiv_pos_site_id
 _symmetry_equiv_pos_as_xyz
  1  'x, y, z'
loop_
 _atom_site_type_symbol
 _atom_site_label
 _atom_site_symmetry_multiplicity
 _atom_site_fract_x
 _atom_site_fract_y
 _atom_site_fract_z
 _atom_site_occupancy
  C  C0  1  0.50000000  0.50000000  0.00000000  1
  C  C1  1  0.00000000  0.00000000  0.50000000  1
  C  C2  1  0.50000000  0.50000000  0.50000000  1
  C  C3  1  0.00000000  0.00000000  0.00000000  1
  C  C4  1  0.93585100  0.99467100  0.25000000  1
  C  C5  1  0.56414900  0.49467100  0.25000000  1
  C  C6  1  0.06414900  0.00532900  0.75000000  1
  C  C7  1  0.43585100  0.50532900  0.75000000  1
  C  C8  1  0.66393400  0.91310800  0.09730000  1
  C  C9  1  0.83606600  0.41310800  0.40270000  1
  C  C10  1  0.33606600  0.08689200  0.59730000  1
  C  C11  1  0.16393400  0.58689200  0.90270000  1
  C  C12  1  0.33606600  0.08689200  0.90270000  1
  C  C13  1  0.16393400  0.58689200  0.59730000  1
  C  C14  1  0.66393400  0.91310800  0.40270000  1
  C  C15  1  0.83606600  0.41310800  0.09730000  1
  C  C16  1  0.94696600  0.83098100  0.20499500  1
  C  C17  1  0.55303400  0.33098100  0.29500500  1
  C  C18  1  0.05303400  0.16901900  0.70499500  1
  C  C19  1  0.44696600  0.66901900  0.79500500  1
  C  C20  1  0.05303400  0.16901900  0.79500500  1
  C  C21  1  0.44696600  0.66901900  0.70499500  1
  C  C22  1  0.94696600  0.83098100  0.29500500  1
  C  C23  1  0.55303400  0.33098100  0.20499500  1
  C  C24  1  0.68460600  0.07474500  0.10264200  1
  C  C25  1  0.81539400  0.57474500  0.39735800  1
  C  C26  1  0.31539400  0.92525500  0.60264200  1
  C  C27  1  0.18460600  0.42525500  0.89735800  1
  C  C28  1  0.31539400  0.92525500  0.89735800  1
  C  C29  1  0.18460600  0.42525500  0.60264200  1
  C  C30  1  0.68460600  0.07474500  0.39735800  1
  C  C31  1  0.81539400  0.57474500  0.10264200  1
  C  C32  1  0.99749200  0.18676500  0.20631000  1
  C  C33  1  0.50250800  0.68676500  0.29369000  1
  C  C34  1  0.00250800  0.81323500  0.70631000  1
  C  C35  1  0.49749200  0.31323500  0.79369000  1
  C  C36  1  0.00250800  0.81323500  0.79369000  1
  C  C37  1  0.49749200  0.31323500  0.70631000  1
  C  C38  1  0.99749200  0.18676500  0.29369000  1
  C  C39  1  0.50250800  0.68676500  0.20631000  1
  Ni  Ni40  1  0.21198000  0.73615700  0.08870300  1
  Ni  Ni41  1  0.28802000  0.23615700  0.41129700  1
  Ni  Ni42  1  0.78802000  0.26384300  0.58870300  1
  Ni  Ni43  1  0.71198000  0.76384300  0.91129700  1
  Ni  Ni44  1  0.78802000  0.26384300  0.91129700  1
  Ni  Ni45  1  0.71198000  0.76384300  0.58870300  1
  Ni  Ni46  1  0.21198000  0.73615700  0.41129700  1
  Ni  Ni47  1  0.28802000  0.23615700  0.08870300  1
  Cu  Cu48  1  0.95084600  0.13359200  0.25000000  1
  Cu  Cu49  1  0.54915400  0.63359200  0.25000000  1
  Cu  Cu50  1  0.04915400  0.86640800  0.75000000  1
  Cu  Cu51  1  0.45084600  0.36640800  0.75000000  1
  Cu  Cu52  1  0.16419400  0.82368600  0.02298400  1
  Cu  Cu53  1  0.33580600  0.32368600  0.47701600  1
  Cu  Cu54  1  0.83580600  0.17631400  0.52298400  1
  Cu  Cu55  1  0.66419400  0.67631400  0.97701600  1
  Cu  Cu56  1  0.83580600  0.17631400  0.97701600  1
  Cu  Cu57  1  0.66419400  0.67631400  0.52298400  1
  Cu  Cu58  1  0.16419400  0.82368600  0.47701600  1
  Cu  Cu59  1  0.33580600  0.32368600  0.02298400  1
  Cu  Cu60  1  0.77771500  0.99040000  0.09196000  1
  Cu  Cu61  1  0.72228500  0.49040000  0.40804000  1
  Cu  Cu62  1  0.22228500  0.00960000  0.59196000  1
  Cu  Cu63  1  0.27771500  0.50960000  0.90804000  1
  Cu  Cu64  1  0.22228500  0.00960000  0.90804000  1
  Cu  Cu65  1  0.27771500  0.50960000  0.59196000  1
  Cu  Cu66  1  0.77771500  0.99040000  0.40804000  1
  Cu  Cu67  1  0.72228500  0.49040000  0.09196000  1
  Cu  Cu68  1  0.42390600  0.78746600  0.12842000  1
  Cu  Cu69  1  0.07609400  0.28746600  0.37158000  1
  Cu  Cu70  1  0.57609400  0.21253400  0.62842000  1
  Cu  Cu71  1  0.92390600  0.71253400  0.87158000  1
  Cu  Cu72  1  0.57609400  0.21253400  0.87158000  1
  Cu  Cu73  1  0.92390600  0.71253400  0.62842000  1
  Cu  Cu74  1  0.42390600  0.78746600  0.37158000  1
  Cu  Cu75  1  0.07609400  0.28746600  0.12842000  1
  Cu  Cu76  1  0.25322100  0.59349200  0.06081800  1
  Cu  Cu77  1  0.24677900  0.09349200  0.43918200  1
  Cu  Cu78  1  0.74677900  0.40650800  0.56081800  1
  Cu  Cu79  1  0.75322100  0.90650800  0.93918200  1
  Cu  Cu80  1  0.74677900  0.40650800  0.93918200  1
  Cu  Cu81  1  0.75322100  0.90650800  0.56081800  1
  Cu  Cu82  1  0.25322100  0.59349200  0.43918200  1
  Cu  Cu83  1  0.24677900  0.09349200  0.06081800  1
  Cu  Cu84  1  0.99548900  0.72807600  0.13558800  1
  Cu  Cu85  1  0.50451100  0.22807600  0.36441200  1
  Cu  Cu86  1  0.00451100  0.27192400  0.63558800  1
  Cu  Cu87  1  0.49548900  0.77192400  0.86441200  1
  Cu  Cu88  1  0.00451100  0.27192400  0.86441200  1
  Cu  Cu89  1  0.49548900  0.77192400  0.63558800  1
  Cu  Cu90  1  0.99548900  0.72807600  0.36441200  1
  Cu  Cu91  1  0.50451100  0.22807600  0.13558800  1
  Cu  Cu92  1  0.90084200  0.88385300  0.25000000  1
  Cu  Cu93  1  0.59915800  0.38385300  0.25000000  1
  Cu  Cu94  1  0.09915800  0.11614700  0.75000000  1
  Cu  Cu95  1  0.40084200  0.61614700  0.75000000  1
