# generated using pymatgen
data_CuNiC8
_symmetry_space_group_name_H-M   'P 1'
_cell_length_a   8.47287097
_cell_length_b   8.47042839
_cell_length_c   8.46644050
_cell_angle_alpha   90.00000000
_cell_angle_beta   90.00000000
_cell_angle_gamma   90.00000000
_symmetry_Int_Tables_number   1
_chemical_formula_structural   CuNiC8
_chemical_formula_sum   'Cu4 Ni4 C32'
_cell_volume   607.62667126
_cell_formula_units_Z   4
loop_
 _symmetry_equiv_pos_site_id
 _symmetry_equiv_pos_as_xyz
  1  'x, y, z'
loop_
 _atom_site_type_symbol
 _atom_site_label
 _atom_site_symmetry_multiplicity
 _atom_site_fract_x
 _atom_site_fract_y
 _atom_site_fract_z
 _atom_site_occupancy
  C  C0  1  0.00000000  0.50000000  0.50000000  1
  C  C1  1  0.50000000  -0.00000000  0.50000000  1
  C  C2  1  0.50000000  0.50000000  -0.00000000  1
  C  C3  1  -0.00000000  0.50000000  -0.00000000  1
  Ni  Ni4  1  0.50000000  -0.00000000  -0.00000000  1
  Ni  Ni5  1  -0.00000000  -0.00000000  0.50000000  1
  Ni  Ni6  1  -0.00000000  -0.00000000  -0.00000000  1
  Ni  Ni7  1  0.50000000  0.50000000  0.50000000  1
  Cu  Cu8  1  0.24990252  0.24766990  0.24961261  1
  Cu  Cu9  1  0.75009748  0.75233010  0.24961261  1
  Cu  Cu10  1  0.75009748  0.24766990  0.75038739  1
  Cu  Cu11  1  0.24990252  0.75233010  0.75038739  1
  C  C12  1  0.74985587  0.75263471  0.75037787  1
  C  C13  1  0.25014413  0.24736529  0.75037787  1
  C  C14  1  0.25014413  0.75263471  0.24962213  1
  C  C15  1  0.74985587  0.24736529  0.24962213  1
  C  C16  1  0.99281579  0.19275704  0.29294916  1
  C  C17  1  0.00718421  0.80724296  0.29294916  1
  C  C18  1  0.00718421  0.19275704  0.70705084  1
  C  C19  1  0.99281579  0.80724296  0.70705084  1
  C  C20  1  0.29580938  0.99375456  0.19485377  1
  C  C21  1  0.29580938  0.00624544  0.80514623  1
  C  C22  1  0.70419062  0.00624544  0.19485377  1
  C  C23  1  0.70419062  0.99375456  0.80514623  1
  C  C24  1  0.20062056  0.28406739  0.99346188  1
  C  C25  1  0.79937944  0.28406739  0.00653812  1
  C  C26  1  0.20062056  0.71593261  0.00653812  1
  C  C27  1  0.79937944  0.71593261  0.99346188  1
  C  C28  1  0.50598311  0.29653427  0.21666448  1
  C  C29  1  0.49401689  0.70346573  0.21666448  1
  C  C30  1  0.49401689  0.29653427  0.78333552  1
  C  C31  1  0.50598311  0.70346573  0.78333552  1
  C  C32  1  0.21370351  0.50683288  0.29307551  1
  C  C33  1  0.21370351  0.49316712  0.70692449  1
  C  C34  1  0.78629649  0.49316712  0.29307551  1
  C  C35  1  0.78629649  0.50683288  0.70692449  1
  C  C36  1  0.29555543  0.21377835  0.50614339  1
  C  C37  1  0.70444457  0.21377835  0.49385661  1
  C  C38  1  0.29555543  0.78622165  0.49385661  1
  C  C39  1  0.70444457  0.78622165  0.50614339  1
