# generated using pymatgen
data_CuNiC7
_symmetry_space_group_name_H-M   'P 1'
_cell_length_a   10.21904000
_cell_length_b   7.29889600
_cell_length_c   8.10996031
_cell_angle_alpha   77.05531033
_cell_angle_beta   90.00000000
_cell_angle_gamma   90.00000000
_symmetry_Int_Tables_number   1
_chemical_formula_structural   CuNiC7
_chemical_formula_sum   'Cu4 Ni4 C28'
_cell_volume   589.53081898
_cell_formula_units_Z   4
loop_
 _symmetry_equiv_pos_site_id
 _symmetry_equiv_pos_as_xyz
  1  'x, y, z'
loop_
 _atom_site_type_symbol
 _atom_site_label
 _atom_site_symmetry_multiplicity
 _atom_site_fract_x
 _atom_site_fract_y
 _atom_site_fract_z
 _atom_site_occupancy
  Ni  Ni0  1  0.24813600  0.27636100  0.91011300  1
  Ni  Ni1  1  0.74813600  0.72363900  0.58988700  1
  Ni  Ni2  1  0.75186400  0.72363900  0.08988700  1
  Ni  Ni3  1  0.25186400  0.27636100  0.41011300  1
  Cu  Cu4  1  0.56464200  0.19421200  0.20284200  1
  Cu  Cu5  1  0.06464200  0.80578800  0.29715800  1
  Cu  Cu6  1  0.43535800  0.80578800  0.79715800  1
  Cu  Cu7  1  0.93535800  0.19421200  0.70284200  1
  C  C8  1  0.70153600  0.34446600  0.14866500  1
  C  C9  1  0.20153600  0.65553400  0.35133500  1
  C  C10  1  0.29846400  0.65553400  0.85133500  1
  C  C11  1  0.79846400  0.34446600  0.64866500  1
  C  C12  1  0.64002400  0.07717100  0.39233200  1
  C  C13  1  0.14002400  0.92282900  0.10766800  1
  C  C14  1  0.35997600  0.92282900  0.60766800  1
  C  C15  1  0.85997600  0.07717100  0.89233200  1
  C  C16  1  0.48791600  0.30808100  0.00922100  1
  C  C17  1  0.98791600  0.69191900  0.49077900  1
  C  C18  1  0.51208400  0.69191900  0.99077900  1
  C  C19  1  0.01208400  0.30808100  0.50922100  1
  C  C20  1  0.42194800  0.05358200  0.25494800  1
  C  C21  1  0.92194800  0.94641800  0.24505200  1
  C  C22  1  0.57805200  0.94641800  0.74505200  1
  C  C23  1  0.07805200  0.05358200  0.75494800  1
  C  C24  1  0.63327300  0.02973300  0.09513800  1
  C  C25  1  0.13327300  0.97026700  0.40486200  1
  C  C26  1  0.36672700  0.97026700  0.90486200  1
  C  C27  1  0.86672700  0.02973300  0.59513800  1
  C  C28  1  0.49162500  0.36110100  0.30713500  1
  C  C29  1  0.99162500  0.63889900  0.19286500  1
  C  C30  1  0.50837500  0.63889900  0.69286500  1
  C  C31  1  0.00837500  0.36110100  0.80713500  1
  C  C32  1  0.19152300  0.32081500  0.15071700  1
  C  C33  1  0.69152300  0.67918500  0.34928300  1
  C  C34  1  0.80847700  0.67918500  0.84928300  1
  C  C35  1  0.30847700  0.32081500  0.65071700  1
