# generated using pymatgen
data_Cu6Ni2C3
_symmetry_space_group_name_H-M   'P 1'
_cell_length_a   6.06699344
_cell_length_b   6.06699344
_cell_length_c   11.86968800
_cell_angle_alpha   90.00000000
_cell_angle_beta   90.00000000
_cell_angle_gamma   96.26681637
_symmetry_Int_Tables_number   1
_chemical_formula_structural   Cu6Ni2C3
_chemical_formula_sum   'Cu24 Ni8 C12'
_cell_volume   434.29354527
_cell_formula_units_Z   4
loop_
 _symmetry_equiv_pos_site_id
 _symmetry_equiv_pos_as_xyz
  1  'x, y, z'
loop_
 _atom_site_type_symbol
 _atom_site_label
 _atom_site_symmetry_multiplicity
 _atom_site_fract_x
 _atom_site_fract_y
 _atom_site_fract_z
 _atom_site_occupancy
  C  C0  1  0.92278400  0.92278400  0.53943800  1
  C  C1  1  0.07721600  0.07721600  0.03943800  1
  C  C2  1  0.99135300  0.45190900  0.76906600  1
  C  C3  1  0.45190900  0.99135300  0.76906600  1
  C  C4  1  0.00864700  0.54809100  0.26906600  1
  C  C5  1  0.54809100  0.00864700  0.26906600  1
  Ni  Ni6  1  0.00134300  0.00134300  0.26431500  1
  Ni  Ni7  1  0.99865700  0.99865700  0.76431500  1
  Ni  Ni8  1  0.49462000  0.49462000  0.27996400  1
  Ni  Ni9  1  0.50538000  0.50538000  0.77996400  1
  Ni  Ni10  1  0.55534100  0.00637300  0.01613000  1
  Ni  Ni11  1  0.00637300  0.55534100  0.01613000  1
  Ni  Ni12  1  0.44465900  0.99362700  0.51613000  1
  Ni  Ni13  1  0.99362700  0.44465900  0.51613000  1
  Cu  Cu14  1  0.40123200  0.61745300  0.34116500  1
  Cu  Cu15  1  0.61745300  0.40123200  0.34116500  1
  Cu  Cu16  1  0.59876800  0.38254700  0.84116500  1
  Cu  Cu17  1  0.38254700  0.59876800  0.84116500  1
  Cu  Cu18  1  0.35740700  0.35740700  0.23556900  1
  Cu  Cu19  1  0.64259300  0.64259300  0.73556900  1
  Cu  Cu20  1  0.59732000  0.59732000  0.20433800  1
  Cu  Cu21  1  0.40268000  0.40268000  0.70433800  1
  Cu  Cu22  1  0.64292600  0.88997500  0.08308600  1
  Cu  Cu23  1  0.88997500  0.64292600  0.08308600  1
  Cu  Cu24  1  0.35707400  0.11002500  0.58308600  1
  Cu  Cu25  1  0.11002500  0.35707400  0.58308600  1
  Cu  Cu26  1  0.69129400  0.07173900  0.94377800  1
  Cu  Cu27  1  0.07173900  0.69129400  0.94377800  1
  Cu  Cu28  1  0.30870600  0.92826100  0.44377800  1
  Cu  Cu29  1  0.92826100  0.30870600  0.44377800  1
  Cu  Cu30  1  0.40286900  0.88637100  0.97362200  1
  Cu  Cu31  1  0.88637100  0.40286900  0.97362200  1
  Cu  Cu32  1  0.59713100  0.11362900  0.47362200  1
  Cu  Cu33  1  0.11362900  0.59713100  0.47362200  1
  Cu  Cu34  1  0.49164300  0.16991800  0.06152500  1
  Cu  Cu35  1  0.16991800  0.49164300  0.06152500  1
  Cu  Cu36  1  0.50835700  0.83008200  0.56152500  1
  Cu  Cu37  1  0.83008200  0.50835700  0.56152500  1
  C  C38  1  0.87940700  0.87940700  0.34692200  1
  C  C39  1  0.12059300  0.12059300  0.84692200  1
  C  C40  1  0.18261500  0.91763300  0.21595400  1
  C  C41  1  0.91763300  0.18261500  0.21595400  1
  C  C42  1  0.81738500  0.08236700  0.71595400  1
  C  C43  1  0.08236700  0.81738500  0.71595400  1
