# generated using pymatgen
data_CuNiC
_symmetry_space_group_name_H-M   'P 1'
_cell_length_a   3.79004500
_cell_length_b   6.42717700
_cell_length_c   7.22327400
_cell_angle_alpha   90.00000000
_cell_angle_beta   90.00000000
_cell_angle_gamma   90.00000000
_symmetry_Int_Tables_number   1
_chemical_formula_structural   CuNiC
_chemical_formula_sum   'Cu4 Ni4 C4'
_cell_volume   175.95382650
_cell_formula_units_Z   4
loop_
 _symmetry_equiv_pos_site_id
 _symmetry_equiv_pos_as_xyz
  1  'x, y, z'
loop_
 _atom_site_type_symbol
 _atom_site_label
 _atom_site_symmetry_multiplicity
 _atom_site_fract_x
 _atom_site_fract_y
 _atom_site_fract_z
 _atom_site_occupancy
  C  C0  1  0.25000000  0.01688800  0.31492200  1
  C  C1  1  0.25000000  0.51688800  0.18507800  1
  C  C2  1  0.75000000  0.98311200  0.68507800  1
  C  C3  1  0.75000000  0.48311200  0.81492200  1
  Ni  Ni4  1  0.25000000  0.27215000  0.61487800  1
  Ni  Ni5  1  0.25000000  0.77215000  0.88512200  1
  Ni  Ni6  1  0.75000000  0.72785000  0.38512200  1
  Ni  Ni7  1  0.75000000  0.22785000  0.11487800  1
  Cu  Cu8  1  0.25000000  0.14002900  0.93856700  1
  Cu  Cu9  1  0.25000000  0.64002900  0.56143300  1
  Cu  Cu10  1  0.75000000  0.85997100  0.06143300  1
  Cu  Cu11  1  0.75000000  0.35997100  0.43856700  1
