# generated using pymatgen
data_Cu(Ni3C)2
_symmetry_space_group_name_H-M   'P 1'
_cell_length_a   8.07893700
_cell_length_b   9.46354200
_cell_length_c   11.18090500
_cell_angle_alpha   90.00000000
_cell_angle_beta   90.00000000
_cell_angle_gamma   90.00000000
_symmetry_Int_Tables_number   1
_chemical_formula_structural   Cu(Ni3C)2
_chemical_formula_sum   'Cu4 Ni24 C8'
_cell_volume   854.84011259
_cell_formula_units_Z   4
loop_
 _symmetry_equiv_pos_site_id
 _symmetry_equiv_pos_as_xyz
  1  'x, y, z'
loop_
 _atom_site_type_symbol
 _atom_site_label
 _atom_site_symmetry_multiplicity
 _atom_site_fract_x
 _atom_site_fract_y
 _atom_site_fract_z
 _atom_site_occupancy
  C  C0  1  0.50000000  0.50000000  0.25004300  1
  C  C1  1  0.00000000  0.50000000  0.74995700  1
  C  C2  1  0.50000000  0.00000000  0.68033000  1
  C  C3  1  0.00000000  0.00000000  0.31967000  1
  C  C4  1  0.75000000  0.74090600  0.00000000  1
  C  C5  1  0.25000000  0.25909400  0.00000000  1
  C  C6  1  0.25000000  0.77179300  0.50000000  1
  C  C7  1  0.75000000  0.22820700  0.50000000  1
  Ni  Ni8  1  0.36540000  0.67824400  0.22517500  1
  Ni  Ni9  1  0.63460000  0.32175600  0.22517500  1
  Ni  Ni10  1  0.86540000  0.32175600  0.77482500  1
  Ni  Ni11  1  0.13460000  0.67824400  0.77482500  1
  Ni  Ni12  1  0.51246900  0.71016600  0.27083700  1
  Ni  Ni13  1  0.48753100  0.28983400  0.27083700  1
  Ni  Ni14  1  0.01246900  0.28983400  0.72916300  1
  Ni  Ni15  1  0.98753100  0.71016600  0.72916300  1
  Ni  Ni16  1  0.04761700  0.83390800  0.23258300  1
  Ni  Ni17  1  0.95238300  0.16609200  0.23258300  1
  Ni  Ni18  1  0.54761700  0.16609200  0.76741700  1
  Ni  Ni19  1  0.45238300  0.83390800  0.76741700  1
  Ni  Ni20  1  0.50000000  0.00000000  0.26722300  1
  Ni  Ni21  1  0.00000000  0.00000000  0.73277700  1
  Ni  Ni22  1  0.87670400  0.86287900  0.23542600  1
  Ni  Ni23  1  0.12329600  0.13712100  0.23542600  1
  Ni  Ni24  1  0.37670400  0.13712100  0.76457400  1
  Ni  Ni25  1  0.62329600  0.86287900  0.76457400  1
  Ni  Ni26  1  0.58185700  0.49663500  0.42161300  1
  Ni  Ni27  1  0.41814300  0.50336500  0.42161300  1
  Ni  Ni28  1  0.08185700  0.50336500  0.57838700  1
  Ni  Ni29  1  0.91814300  0.49663500  0.57838700  1
  Ni  Ni30  1  0.00000000  0.50000000  0.18943000  1
  Ni  Ni31  1  0.50000000  0.50000000  0.81057000  1
  Cu  Cu32  1  0.50000000  0.50000000  0.08923300  1
  Cu  Cu33  1  0.00000000  0.50000000  0.91076700  1
  Cu  Cu34  1  0.50000000  0.00000000  0.52134200  1
  Cu  Cu35  1  0.00000000  0.00000000  0.47865800  1
