# generated using pymatgen
data_Cu3NiC16
_symmetry_space_group_name_H-M   'P 1'
_cell_length_a   7.66691348
_cell_length_b   7.66691348
_cell_length_c   7.66350100
_cell_angle_alpha   90.00000000
_cell_angle_beta   90.00000000
_cell_angle_gamma   90.15579164
_symmetry_Int_Tables_number   1
_chemical_formula_structural   Cu3NiC16
_chemical_formula_sum   'Cu6 Ni2 C32'
_cell_volume   450.47089591
_cell_formula_units_Z   2
loop_
 _symmetry_equiv_pos_site_id
 _symmetry_equiv_pos_as_xyz
  1  'x, y, z'
loop_
 _atom_site_type_symbol
 _atom_site_label
 _atom_site_symmetry_multiplicity
 _atom_site_fract_x
 _atom_site_fract_y
 _atom_site_fract_z
 _atom_site_occupancy
  Ni  Ni0  1  0.75096300  0.75096300  0.25118100  1
  Ni  Ni1  1  0.75096300  0.75096300  0.74881900  1
  Cu  Cu2  1  0.75308400  0.24731600  0.25029300  1
  Cu  Cu3  1  0.24725000  0.24725000  0.24974300  1
  Cu  Cu4  1  0.24731600  0.75308400  0.25029300  1
  Cu  Cu5  1  0.75308400  0.24731600  0.74970700  1
  Cu  Cu6  1  0.24725000  0.24725000  0.75025700  1
  Cu  Cu7  1  0.24731600  0.75308400  0.74970700  1
  C  C8  1  0.00128300  0.00128300  0.00000000  1
  C  C9  1  0.00157600  0.49901700  0.00000000  1
  C  C10  1  0.49901700  0.00157600  0.00000000  1
  C  C11  1  0.49901000  0.49901000  0.00000000  1
  C  C12  1  0.00133700  0.00133700  0.50000000  1
  C  C13  1  0.00179600  0.49801600  0.50000000  1
  C  C14  1  0.49801600  0.00179600  0.50000000  1
  C  C15  1  0.49800100  0.49800100  0.50000000  1
  C  C16  1  0.00435300  0.00435300  0.25109800  1
  C  C17  1  0.00383900  0.49580000  0.25248400  1
  C  C18  1  0.49580000  0.00383900  0.25248400  1
  C  C19  1  0.49653300  0.49653300  0.26049600  1
  C  C20  1  0.00435300  0.00435300  0.74890200  1
  C  C21  1  0.00383900  0.49580000  0.74751600  1
  C  C22  1  0.49580000  0.00383900  0.74751600  1
  C  C23  1  0.49653300  0.49653300  0.73950400  1
  C  C24  1  0.75172600  0.00572400  0.00000000  1
  C  C25  1  0.74513700  0.49328800  0.00000000  1
  C  C26  1  0.24844100  0.00220900  0.00000000  1
  C  C27  1  0.25561200  0.49830600  0.00000000  1
  C  C28  1  0.75375700  0.00684800  0.50000000  1
  C  C29  1  0.76189400  0.49389900  0.50000000  1
  C  C30  1  0.24619500  0.00187300  0.50000000  1
  C  C31  1  0.23888200  0.49789900  0.50000000  1
  C  C32  1  0.00220900  0.24844100  0.00000000  1
  C  C33  1  0.00572400  0.75172600  0.00000000  1
  C  C34  1  0.49830600  0.25561200  0.00000000  1
  C  C35  1  0.49328800  0.74513700  0.00000000  1
  C  C36  1  0.00187300  0.24619500  0.50000000  1
  C  C37  1  0.00684800  0.75375700  0.50000000  1
  C  C38  1  0.49789900  0.23888200  0.50000000  1
  C  C39  1  0.49389900  0.76189400  0.50000000  1
