# generated using pymatgen
data_Cu4Ni3C16
_symmetry_space_group_name_H-M   'P 1'
_cell_length_a   9.19717701
_cell_length_b   9.19717701
_cell_length_c   9.80499802
_cell_angle_alpha   61.30346067
_cell_angle_beta   61.30346067
_cell_angle_gamma   49.57344249
_symmetry_Int_Tables_number   1
_chemical_formula_structural   Cu4Ni3C16
_chemical_formula_sum   'Cu8 Ni6 C32'
_cell_volume   535.82699315
_cell_formula_units_Z   2
loop_
 _symmetry_equiv_pos_site_id
 _symmetry_equiv_pos_as_xyz
  1  'x, y, z'
loop_
 _atom_site_type_symbol
 _atom_site_label
 _atom_site_symmetry_multiplicity
 _atom_site_fract_x
 _atom_site_fract_y
 _atom_site_fract_z
 _atom_site_occupancy
  C  C0  1  0.81412100  0.18587900  0.75000000  1
  C  C1  1  0.18587900  0.81412100  0.25000000  1
  C  C2  1  0.00000000  0.00000000  0.00000000  1
  C  C3  1  0.00000000  0.00000000  0.50000000  1
  Ni  Ni4  1  0.07251100  0.28386600  0.08881700  1
  Ni  Ni5  1  0.71613400  0.92748900  0.41118300  1
  Ni  Ni6  1  0.28386600  0.07251100  0.58881700  1
  Ni  Ni7  1  0.39388100  0.60611900  0.75000000  1
  Ni  Ni8  1  0.92748900  0.71613400  0.91118300  1
  Ni  Ni9  1  0.60611900  0.39388100  0.25000000  1
  Cu  Cu10  1  0.52396300  0.10715500  0.71145700  1
  Cu  Cu11  1  0.10715500  0.52396300  0.21145700  1
  Cu  Cu12  1  0.52466100  0.23404600  0.09938100  1
  Cu  Cu13  1  0.23404600  0.52466100  0.59938100  1
  Cu  Cu14  1  0.89284500  0.47603700  0.78854300  1
  Cu  Cu15  1  0.47533900  0.76595400  0.90061900  1
  Cu  Cu16  1  0.76595400  0.47533900  0.40061900  1
  Cu  Cu17  1  0.47603700  0.89284500  0.28854300  1
  C  C18  1  0.84217000  0.28922200  0.33933900  1
  C  C19  1  0.94397600  0.89007300  0.41379200  1
  C  C20  1  0.45874600  0.64654200  0.08928200  1
  C  C21  1  0.89007300  0.94397600  0.91379200  1
  C  C22  1  0.25868100  0.93989000  0.32400300  1
  C  C23  1  0.05158700  0.51206800  0.62386900  1
  C  C24  1  0.64654200  0.45874600  0.58928200  1
  C  C25  1  0.06011000  0.74131900  0.17599700  1
  C  C26  1  0.94841300  0.48793200  0.37613100  1
  C  C27  1  0.64314000  0.66648400  0.26566900  1
  C  C28  1  0.05602400  0.10992700  0.58620800  1
  C  C29  1  0.74131900  0.06011000  0.67599700  1
  C  C30  1  0.48793200  0.94841300  0.87613100  1
  C  C31  1  0.28922200  0.84217000  0.83933900  1
  C  C32  1  0.66648400  0.64314000  0.76566900  1
  C  C33  1  0.93989000  0.25868100  0.82400300  1
  C  C34  1  0.89687000  0.51228200  0.93399600  1
  C  C35  1  0.35686000  0.33351600  0.73433100  1
  C  C36  1  0.48771800  0.10313000  0.56600400  1
  C  C37  1  0.33351600  0.35686000  0.23433100  1
  C  C38  1  0.51206800  0.05158700  0.12386900  1
  C  C39  1  0.10992700  0.05602400  0.08620800  1
  C  C40  1  0.51228200  0.89687000  0.43399600  1
  C  C41  1  0.54125400  0.35345800  0.91071800  1
  C  C42  1  0.10313000  0.48771800  0.06600400  1
  C  C43  1  0.35345800  0.54125400  0.41071800  1
  C  C44  1  0.71077800  0.15783000  0.16066100  1
  C  C45  1  0.15783000  0.71077800  0.66066100  1
