# generated using pymatgen
data_CuNiC8
_symmetry_space_group_name_H-M   'P 1'
_cell_length_a   7.98667700
_cell_length_b   7.98667700
_cell_length_c   8.01211200
_cell_angle_alpha   90.00000000
_cell_angle_beta   90.00000000
_cell_angle_gamma   90.00000000
_symmetry_Int_Tables_number   1
_chemical_formula_structural   CuNiC8
_chemical_formula_sum   'Cu4 Ni4 C32'
_cell_volume   511.06866428
_cell_formula_units_Z   4
loop_
 _symmetry_equiv_pos_site_id
 _symmetry_equiv_pos_as_xyz
  1  'x, y, z'
loop_
 _atom_site_type_symbol
 _atom_site_label
 _atom_site_symmetry_multiplicity
 _atom_site_fract_x
 _atom_site_fract_y
 _atom_site_fract_z
 _atom_site_occupancy
  Ni  Ni0  1  0.24890700  0.24890700  0.25070400  1
  Ni  Ni1  1  0.24890700  0.75109300  0.25070400  1
  Ni  Ni2  1  0.75109300  0.24890700  0.25070400  1
  Ni  Ni3  1  0.75109300  0.75109300  0.25070400  1
  Cu  Cu4  1  0.24796900  0.24796900  0.74951300  1
  Cu  Cu5  1  0.24796900  0.75203100  0.74951300  1
  Cu  Cu6  1  0.75203100  0.24796900  0.74951300  1
  Cu  Cu7  1  0.75203100  0.75203100  0.74951300  1
  C  C8  1  0.00000000  0.00000000  0.50141300  1
  C  C9  1  0.00000000  0.50000000  0.99722900  1
  C  C10  1  0.00000000  0.50000000  0.50255600  1
  C  C11  1  0.50000000  0.00000000  0.99722900  1
  C  C12  1  0.50000000  0.00000000  0.50255600  1
  C  C13  1  0.50000000  0.50000000  0.99795200  1
  C  C14  1  0.50000000  0.50000000  0.50209300  1
  C  C15  1  0.00000000  0.00000000  0.99686800  1
  C  C16  1  0.24419400  0.00000000  0.99471700  1
  C  C17  1  0.25422800  0.00000000  0.50495800  1
  C  C18  1  0.23849300  0.50000000  0.99514500  1
  C  C19  1  0.24343500  0.50000000  0.50486500  1
  C  C20  1  0.75580600  0.00000000  0.99471700  1
  C  C21  1  0.74577200  0.00000000  0.50495800  1
  C  C22  1  0.76150700  0.50000000  0.99514500  1
  C  C23  1  0.75656500  0.50000000  0.50486500  1
  C  C24  1  0.00000000  0.24419400  0.99471700  1
  C  C25  1  0.00000000  0.25422800  0.50495800  1
  C  C26  1  0.00000000  0.75580600  0.99471700  1
  C  C27  1  0.00000000  0.74577200  0.50495800  1
  C  C28  1  0.50000000  0.23849300  0.99514500  1
  C  C29  1  0.50000000  0.24343500  0.50486500  1
  C  C30  1  0.50000000  0.76150700  0.99514500  1
  C  C31  1  0.50000000  0.75656500  0.50486500  1
  C  C32  1  0.00000000  0.00000000  0.23786400  1
  C  C33  1  0.00000000  0.00000000  0.75800200  1
  C  C34  1  0.00000000  0.50000000  0.25872700  1
  C  C35  1  0.00000000  0.50000000  0.74352200  1
  C  C36  1  0.50000000  0.00000000  0.25872700  1
  C  C37  1  0.50000000  0.00000000  0.74352200  1
  C  C38  1  0.50000000  0.50000000  0.26276000  1
  C  C39  1  0.50000000  0.50000000  0.73937600  1
