# generated using pymatgen
data_Cu8Ni16C25
_symmetry_space_group_name_H-M   'P 1'
_cell_length_a   8.18876900
_cell_length_b   9.37416132
_cell_length_c   13.31053477
_cell_angle_alpha   105.76339500
_cell_angle_beta   90.00000000
_cell_angle_gamma   90.00000000
_symmetry_Int_Tables_number   1
_chemical_formula_structural   Cu8Ni16C25
_chemical_formula_sum   'Cu16 Ni32 C50'
_cell_volume   983.32807613
_cell_formula_units_Z   2
loop_
 _symmetry_equiv_pos_site_id
 _symmetry_equiv_pos_as_xyz
  1  'x, y, z'
loop_
 _atom_site_type_symbol
 _atom_site_label
 _atom_site_symmetry_multiplicity
 _atom_site_fract_x
 _atom_site_fract_y
 _atom_site_fract_z
 _atom_site_occupancy
  C  C0  1  0.80815100  0.65602900  0.51351500  1
  C  C1  1  0.19184900  0.34397100  0.48648500  1
  C  C2  1  0.30815100  0.34397100  0.98648500  1
  C  C3  1  0.69184900  0.65602900  0.01351500  1
  C  C4  1  0.00000000  0.00000000  0.00000000  1
  C  C5  1  0.50000000  0.00000000  0.50000000  1
  Ni  Ni6  1  0.40387400  0.97180800  0.27646300  1
  Ni  Ni7  1  0.59612600  0.02819200  0.72353700  1
  Ni  Ni8  1  0.90387400  0.02819200  0.22353700  1
  Ni  Ni9  1  0.09612600  0.97180800  0.77646300  1
  Ni  Ni10  1  0.34920000  0.96196100  0.89798800  1
  Ni  Ni11  1  0.65080000  0.03803900  0.10201200  1
  Ni  Ni12  1  0.84920000  0.03803900  0.60201200  1
  Ni  Ni13  1  0.15080000  0.96196100  0.39798800  1
  Ni  Ni14  1  0.97744700  0.40322400  0.86477700  1
  Ni  Ni15  1  0.02255300  0.59677700  0.13522300  1
  Ni  Ni16  1  0.47744700  0.59677700  0.63522300  1
  Ni  Ni17  1  0.52255300  0.40322400  0.36477700  1
  Ni  Ni18  1  0.69244400  0.43559300  0.66778000  1
  Ni  Ni19  1  0.30755600  0.56440700  0.33222000  1
  Ni  Ni20  1  0.19244400  0.56440700  0.83222000  1
  Ni  Ni21  1  0.80755600  0.43559300  0.16778000  1
  Ni  Ni22  1  0.52159300  0.84337800  0.87456300  1
  Ni  Ni23  1  0.47840700  0.15662200  0.12543700  1
  Ni  Ni24  1  0.02159300  0.15662200  0.62543700  1
  Ni  Ni25  1  0.97840700  0.84337800  0.37456300  1
  Ni  Ni26  1  0.54595200  0.75988300  0.61465800  1
  Ni  Ni27  1  0.45404800  0.24011700  0.38534200  1
  Ni  Ni28  1  0.04595200  0.24011700  0.88534200  1
  Ni  Ni29  1  0.95404800  0.75988300  0.11465800  1
  Ni  Ni30  1  0.62175900  0.47159200  0.79109600  1
  Ni  Ni31  1  0.37824100  0.52840800  0.20890400  1
  Ni  Ni32  1  0.12175900  0.52840800  0.70890400  1
  Ni  Ni33  1  0.87824100  0.47159200  0.29109600  1
  Ni  Ni34  1  0.56547400  0.13407900  0.84977600  1
  Ni  Ni35  1  0.43452600  0.86592100  0.15022400  1
  Ni  Ni36  1  0.06547400  0.86592100  0.65022400  1
  Ni  Ni37  1  0.93452600  0.13407900  0.34977600  1
  Cu  Cu38  1  0.34182200  0.78397600  0.96114200  1
  Cu  Cu39  1  0.65817800  0.21602400  0.03885800  1
  Cu  Cu40  1  0.84182200  0.21602400  0.53885800  1
  Cu  Cu41  1  0.15817800  0.78397600  0.46114200  1
  Cu  Cu42  1  0.76234300  0.63340000  0.76279600  1
  Cu  Cu43  1  0.23765700  0.36660000  0.23720400  1
  Cu  Cu44  1  0.26234300  0.36660000  0.73720400  1
  Cu  Cu45  1  0.73765700  0.63340000  0.26279600  1
  Cu  Cu46  1  0.92323900  0.81031600  0.75801700  1
  Cu  Cu47  1  0.07676100  0.18968400  0.24198300  1
  Cu  Cu48  1  0.42323900  0.18968400  0.74198300  1
  Cu  Cu49  1  0.57676100  0.81031600  0.25801700  1
  Cu  Cu50  1  0.83364100  0.31200000  0.95766500  1
  Cu  Cu51  1  0.16635900  0.68800000  0.04233500  1
  Cu  Cu52  1  0.33364100  0.68800000  0.54233500  1
  Cu  Cu53  1  0.66635900  0.31200000  0.45766500  1
  C  C54  1  0.41439300  0.66282500  0.97716400  1
  C  C55  1  0.58560700  0.33717500  0.02283600  1
  C  C56  1  0.91439300  0.33717500  0.52283600  1
  C  C57  1  0.08560700  0.66282500  0.47716400  1
  C  C58  1  0.84646200  0.68956100  0.69405600  1
  C  C59  1  0.15353800  0.31043900  0.30594400  1
  C  C60  1  0.34646200  0.31043900  0.80594400  1
  C  C61  1  0.65353800  0.68956100  0.19405600  1
  C  C62  1  0.97869400  0.33534800  0.91319400  1
  C  C63  1  0.02130600  0.66465200  0.08680600  1
  C  C64  1  0.47869400  0.66465200  0.58680600  1
  C  C65  1  0.52130600  0.33534800  0.41319400  1
  C  C66  1  0.81172300  0.19413700  0.99754100  1
  C  C67  1  0.18827700  0.80586300  0.00245900  1
  C  C68  1  0.31172300  0.80586300  0.50245900  1
  C  C69  1  0.68827700  0.19413700  0.49754100  1
  C  C70  1  0.88955400  0.82732500  0.85855100  1
  C  C71  1  0.11044600  0.17267500  0.14144900  1
  C  C72  1  0.38955400  0.17267500  0.64144900  1
  C  C73  1  0.61044600  0.82732500  0.35855100  1
  C  C74  1  0.41137300  0.87190600  0.90834500  1
  C  C75  1  0.58862700  0.12809400  0.09165500  1
  C  C76  1  0.91137300  0.12809400  0.59165500  1
  C  C77  1  0.08862700  0.87190600  0.40834500  1
  C  C78  1  0.70296700  0.40115200  0.96983600  1
  C  C79  1  0.29703300  0.59884800  0.03016400  1
  C  C80  1  0.20296700  0.59884800  0.53016400  1
  C  C81  1  0.79703300  0.40115200  0.46983600  1
  C  C82  1  0.48211900  0.90694600  0.22267200  1
  C  C83  1  0.51788100  0.09305400  0.77732800  1
  C  C84  1  0.98211900  0.09305400  0.27732800  1
  C  C85  1  0.01788100  0.90694600  0.72267200  1
  C  C86  1  0.65506600  0.51546200  0.73196600  1
  C  C87  1  0.34493400  0.48453800  0.26803400  1
  C  C88  1  0.15506600  0.48453800  0.76803400  1
  C  C89  1  0.84493400  0.51546200  0.23196600  1
  C  C90  1  0.78442100  0.71083100  0.86224400  1
  C  C91  1  0.21557900  0.28916900  0.13775600  1
  C  C92  1  0.28442100  0.28916900  0.63775600  1
  C  C93  1  0.71557900  0.71083100  0.36224400  1
  C  C94  1  0.69013000  0.90157600  0.59907400  1
  C  C95  1  0.30987000  0.09842400  0.40092600  1
  C  C96  1  0.19013000  0.09842400  0.90092600  1
  C  C97  1  0.80987000  0.90157600  0.09907400  1
