# generated using pymatgen
data_Cu2Ni3C2
_symmetry_space_group_name_H-M   'P 1'
_cell_length_a   4.20982100
_cell_length_b   8.33295800
_cell_length_c   19.57743900
_cell_angle_alpha   90.00000000
_cell_angle_beta   90.00000000
_cell_angle_gamma   90.00000000
_symmetry_Int_Tables_number   1
_chemical_formula_structural   Cu2Ni3C2
_chemical_formula_sum   'Cu8 Ni12 C8'
_cell_volume   686.78168120
_cell_formula_units_Z   4
loop_
 _symmetry_equiv_pos_site_id
 _symmetry_equiv_pos_as_xyz
  1  'x, y, z'
loop_
 _atom_site_type_symbol
 _atom_site_label
 _atom_site_symmetry_multiplicity
 _atom_site_fract_x
 _atom_site_fract_y
 _atom_site_fract_z
 _atom_site_occupancy
  C  C0  1  0.25000000  0.58395500  0.14030900  1
  C  C1  1  0.25000000  0.08395500  0.35969100  1
  C  C2  1  0.75000000  0.41604500  0.85969100  1
  C  C3  1  0.75000000  0.91604500  0.64030900  1
  C  C4  1  0.25000000  0.56179400  0.41201800  1
  C  C5  1  0.25000000  0.06179400  0.08798200  1
  C  C6  1  0.75000000  0.43820600  0.58798200  1
  C  C7  1  0.75000000  0.93820600  0.91201800  1
  Ni  Ni8  1  0.25000000  0.41168700  0.31030800  1
  Ni  Ni9  1  0.25000000  0.91168700  0.18969200  1
  Ni  Ni10  1  0.75000000  0.58831300  0.68969200  1
  Ni  Ni11  1  0.75000000  0.08831300  0.81030800  1
  Ni  Ni12  1  0.25000000  0.21679600  0.67163700  1
  Ni  Ni13  1  0.25000000  0.71679600  0.82836300  1
  Ni  Ni14  1  0.75000000  0.78320400  0.32836300  1
  Ni  Ni15  1  0.75000000  0.28320400  0.17163700  1
  Ni  Ni16  1  0.25000000  0.68169700  0.52179300  1
  Ni  Ni17  1  0.25000000  0.18169700  0.97820700  1
  Ni  Ni18  1  0.75000000  0.31830300  0.47820700  1
  Ni  Ni19  1  0.75000000  0.81830300  0.02179300  1
  Cu  Cu20  1  0.25000000  0.52120900  0.83718500  1
  Cu  Cu21  1  0.25000000  0.02120900  0.66281500  1
  Cu  Cu22  1  0.75000000  0.47879100  0.16281500  1
  Cu  Cu23  1  0.75000000  0.97879100  0.33718500  1
  Cu  Cu24  1  0.25000000  0.53106100  0.02213800  1
  Cu  Cu25  1  0.25000000  0.03106100  0.47786200  1
  Cu  Cu26  1  0.75000000  0.46893900  0.97786200  1
  Cu  Cu27  1  0.75000000  0.96893900  0.52213800  1
