# generated using pymatgen
data_Cu5NiC4
_symmetry_space_group_name_H-M   'P 1'
_cell_length_a   9.44962300
_cell_length_b   9.44962300
_cell_length_c   3.02599100
_cell_angle_alpha   90.00000000
_cell_angle_beta   90.00000000
_cell_angle_gamma   90.00000000
_symmetry_Int_Tables_number   1
_chemical_formula_structural   Cu5NiC4
_chemical_formula_sum   'Cu10 Ni2 C8'
_cell_volume   270.20700061
_cell_formula_units_Z   2
loop_
 _symmetry_equiv_pos_site_id
 _symmetry_equiv_pos_as_xyz
  1  'x, y, z'
loop_
 _atom_site_type_symbol
 _atom_site_label
 _atom_site_symmetry_multiplicity
 _atom_site_fract_x
 _atom_site_fract_y
 _atom_site_fract_z
 _atom_site_occupancy
  C  C0  1  0.67563000  0.17563000  0.00000000  1
  C  C1  1  0.32437000  0.82437000  0.00000000  1
  C  C2  1  0.17563000  0.32437000  0.00000000  1
  C  C3  1  0.82437000  0.67563000  0.00000000  1
  Ni  Ni4  1  0.00000000  0.00000000  0.00000000  1
  Ni  Ni5  1  0.50000000  0.50000000  0.00000000  1
  C  C6  1  0.12495800  0.62495800  0.00000000  1
  C  C7  1  0.87504200  0.37504200  0.00000000  1
  C  C8  1  0.62495800  0.87504200  0.00000000  1
  C  C9  1  0.37504200  0.12495800  0.00000000  1
  Cu  Cu10  1  0.21546100  0.07039400  0.50000000  1
  Cu  Cu11  1  0.78453900  0.92960600  0.50000000  1
  Cu  Cu12  1  0.07039400  0.78453900  0.50000000  1
  Cu  Cu13  1  0.71546100  0.42960600  0.50000000  1
  Cu  Cu14  1  0.92960600  0.21546100  0.50000000  1
  Cu  Cu15  1  0.28453900  0.57039400  0.50000000  1
  Cu  Cu16  1  0.57039400  0.71546100  0.50000000  1
  Cu  Cu17  1  0.42960600  0.28453900  0.50000000  1
  Cu  Cu18  1  0.50000000  0.00000000  0.50000000  1
  Cu  Cu19  1  0.00000000  0.50000000  0.50000000  1
