# generated using pymatgen
data_Cu28NiC21
_symmetry_space_group_name_H-M   'P 1'
_cell_length_a   9.97571043
_cell_length_b   9.97571043
_cell_length_c   9.97571043
_cell_angle_alpha   115.93856357
_cell_angle_beta   115.93856357
_cell_angle_gamma   97.19148020
_symmetry_Int_Tables_number   1
_chemical_formula_structural   Cu28NiC21
_chemical_formula_sum   'Cu28 Ni1 C21'
_cell_volume   738.75195978
_cell_formula_units_Z   1
loop_
 _symmetry_equiv_pos_site_id
 _symmetry_equiv_pos_as_xyz
  1  'x, y, z'
loop_
 _atom_site_type_symbol
 _atom_site_label
 _atom_site_symmetry_multiplicity
 _atom_site_fract_x
 _atom_site_fract_y
 _atom_site_fract_z
 _atom_site_occupancy
  C  C0  1  0.04056400  0.04056400  0.00000000  1
  C  C1  1  0.49951400  0.18254900  0.68303500  1
  C  C2  1  0.49951400  0.81647900  0.31696500  1
  C  C3  1  0.81647900  0.49951400  0.31696500  1
  C  C4  1  0.18254900  0.49951400  0.68303500  1
  C  C5  1  0.28132300  0.05225700  0.77093400  1
  C  C6  1  0.28132300  0.51038900  0.22906600  1
  C  C7  1  0.51038900  0.28132300  0.22906600  1
  C  C8  1  0.05225700  0.28132300  0.77093400  1
  C  C9  1  0.72024500  0.95034900  0.23010400  1
  C  C10  1  0.72024500  0.49014100  0.76989600  1
  C  C11  1  0.49014100  0.72024500  0.76989600  1
  C  C12  1  0.95034900  0.72024500  0.23010400  1
  C  C13  1  0.88970000  0.88970000  0.55470900  1
  C  C14  1  0.33499100  0.33499100  0.44529100  1
  C  C15  1  0.33499100  0.88970000  0.00000000  1
  C  C16  1  0.88970000  0.33499100  0.00000000  1
  C  C17  1  0.10927200  0.10927200  0.44299200  1
  C  C18  1  0.66628000  0.66628000  0.55700800  1
  C  C19  1  0.66628000  0.10927200  0.00000000  1
  C  C20  1  0.10927200  0.66628000  0.00000000  1
  Ni  Ni21  1  0.47377800  0.47377800  0.00000000  1
  Cu  Cu22  1  0.82806300  0.82806300  0.65552200  1
  Cu  Cu23  1  0.17254100  0.17254100  0.34447800  1
  Cu  Cu24  1  0.17254100  0.82806300  0.00000000  1
  Cu  Cu25  1  0.82806300  0.17254100  0.00000000  1
  Cu  Cu26  1  0.05510400  0.05510400  0.71187800  1
  Cu  Cu27  1  0.34322600  0.34322600  0.28812200  1
  Cu  Cu28  1  0.34322600  0.05510400  0.00000000  1
  Cu  Cu29  1  0.05510400  0.34322600  0.00000000  1
  Cu  Cu30  1  0.94402700  0.94402700  0.28933900  1
  Cu  Cu31  1  0.65468800  0.65468800  0.71066100  1
  Cu  Cu32  1  0.65468800  0.94402700  0.00000000  1
  Cu  Cu33  1  0.94402700  0.65468800  0.00000000  1
  Cu  Cu34  1  0.25451700  0.07090700  0.56365900  1
  Cu  Cu35  1  0.50724800  0.69085800  0.43634100  1
  Cu  Cu36  1  0.50724800  0.07090700  0.81639000  1
  Cu  Cu37  1  0.25451700  0.69085800  0.18361000  1
  Cu  Cu38  1  0.69085800  0.25451700  0.18361000  1
  Cu  Cu39  1  0.07090700  0.50724800  0.81639000  1
  Cu  Cu40  1  0.07090700  0.25451700  0.56365900  1
  Cu  Cu41  1  0.69085800  0.50724800  0.43634100  1
  Cu  Cu42  1  0.74440300  0.92777200  0.43412800  1
  Cu  Cu43  1  0.49364400  0.31027500  0.56587200  1
  Cu  Cu44  1  0.49364400  0.92777200  0.18336900  1
  Cu  Cu45  1  0.74440300  0.31027500  0.81663100  1
  Cu  Cu46  1  0.31027500  0.74440300  0.81663100  1
  Cu  Cu47  1  0.92777200  0.49364400  0.18336900  1
  Cu  Cu48  1  0.92777200  0.74440300  0.43412800  1
  Cu  Cu49  1  0.31027500  0.49364400  0.56587200  1
