# generated using pymatgen
data_Cu2NiC11
_symmetry_space_group_name_H-M   'P 1'
_cell_length_a   6.49516087
_cell_length_b   6.49516087
_cell_length_c   14.46322459
_cell_angle_alpha   71.15186749
_cell_angle_beta   71.15186749
_cell_angle_gamma   26.60554654
_symmetry_Int_Tables_number   1
_chemical_formula_structural   Cu2NiC11
_chemical_formula_sum   'Cu4 Ni2 C22'
_cell_volume   257.76193897
_cell_formula_units_Z   2
loop_
 _symmetry_equiv_pos_site_id
 _symmetry_equiv_pos_as_xyz
  1  'x, y, z'
loop_
 _atom_site_type_symbol
 _atom_site_label
 _atom_site_symmetry_multiplicity
 _atom_site_fract_x
 _atom_site_fract_y
 _atom_site_fract_z
 _atom_site_occupancy
  C  C0  1  0.50000000  0.50000000  0.00000000  1
  C  C1  1  0.06466700  0.06466700  0.15290800  1
  C  C2  1  0.63684700  0.63684700  0.29926100  1
  C  C3  1  0.93533300  0.93533300  0.84709200  1
  C  C4  1  0.36315300  0.36315300  0.70073900  1
  C  C5  1  0.21035300  0.21035300  0.43176700  1
  C  C6  1  0.78964700  0.78964700  0.56823300  1
  C  C7  1  0.50000000  0.50000000  0.50000000  1
  Ni  Ni8  1  0.21195900  0.21195900  0.92731900  1
  Ni  Ni9  1  0.78804100  0.78804100  0.07268100  1
  Cu  Cu10  1  0.36146200  0.36146200  0.22315200  1
  Cu  Cu11  1  0.93111400  0.93111400  0.37011300  1
  Cu  Cu12  1  0.06888600  0.06888600  0.62988700  1
  Cu  Cu13  1  0.63853800  0.63853800  0.77684800  1
  C  C14  1  0.65607300  0.65607300  0.02689600  1
  C  C15  1  0.22753900  0.22753900  0.16376700  1
  C  C16  1  0.79293600  0.79293600  0.31349500  1
  C  C17  1  0.08171900  0.08171900  0.89278400  1
  C  C18  1  0.50528300  0.50528300  0.75288400  1
  C  C19  1  0.36043400  0.36043400  0.45626900  1
  C  C20  1  0.93503800  0.93503800  0.61243900  1
  C  C21  1  0.34392700  0.34392700  0.97310400  1
  C  C22  1  0.91828100  0.91828100  0.10721600  1
  C  C23  1  0.49471700  0.49471700  0.24711600  1
  C  C24  1  0.77246100  0.77246100  0.83623300  1
  C  C25  1  0.20706400  0.20706400  0.68650500  1
  C  C26  1  0.06496200  0.06496200  0.38756100  1
  C  C27  1  0.63956600  0.63956600  0.54373100  1
