# generated using pymatgen
data_Cu3NiC10
_symmetry_space_group_name_H-M   'P 1'
_cell_length_a   7.00774900
_cell_length_b   7.14351700
_cell_length_c   9.90916400
_cell_angle_alpha   90.00000000
_cell_angle_beta   90.00000000
_cell_angle_gamma   90.00000000
_symmetry_Int_Tables_number   1
_chemical_formula_structural   Cu3NiC10
_chemical_formula_sum   'Cu6 Ni2 C20'
_cell_volume   496.05249332
_cell_formula_units_Z   2
loop_
 _symmetry_equiv_pos_site_id
 _symmetry_equiv_pos_as_xyz
  1  'x, y, z'
loop_
 _atom_site_type_symbol
 _atom_site_label
 _atom_site_symmetry_multiplicity
 _atom_site_fract_x
 _atom_site_fract_y
 _atom_site_fract_z
 _atom_site_occupancy
  Ni  Ni0  1  0.50000000  0.73340300  0.25000000  1
  Ni  Ni1  1  0.50000000  0.26659700  0.75000000  1
  Cu  Cu2  1  0.00000000  0.75222500  0.25000000  1
  Cu  Cu3  1  0.74017500  0.50000000  0.50000000  1
  Cu  Cu4  1  0.25982500  0.50000000  0.00000000  1
  Cu  Cu5  1  0.74261600  0.00000000  0.50000000  1
  Cu  Cu6  1  0.00000000  0.24777500  0.75000000  1
  Cu  Cu7  1  0.25738400  0.00000000  0.00000000  1
  C  C8  1  0.76890600  0.75685400  0.87808500  1
  C  C9  1  0.23109400  0.24314600  0.37808500  1
  C  C10  1  0.76890600  0.24314600  0.12191500  1
  C  C11  1  0.23109400  0.75685400  0.62191500  1
  C  C12  1  0.96939800  0.74961300  0.48991200  1
  C  C13  1  0.75883300  0.50515400  0.25539800  1
  C  C14  1  0.50684300  0.75188000  0.49933900  1
  C  C15  1  0.24116700  0.49484600  0.75539800  1
  C  C16  1  0.50684300  0.24812000  0.50066100  1
  C  C17  1  0.75295100  0.01464700  0.74386400  1
  C  C18  1  0.96939800  0.25038700  0.51008800  1
  C  C19  1  0.75883300  0.49484600  0.74460200  1
  C  C20  1  0.49315700  0.24812000  0.99933900  1
  C  C21  1  0.24704900  0.01464700  0.75613600  1
  C  C22  1  0.03060200  0.25038700  0.98991200  1
  C  C23  1  0.75295100  0.98535300  0.25613600  1
  C  C24  1  0.03060200  0.74961300  0.01008800  1
  C  C25  1  0.24116700  0.50515400  0.24460200  1
  C  C26  1  0.49315700  0.75188000  0.00066100  1
  C  C27  1  0.24704900  0.98535300  0.24386400  1
