# generated using pymatgen
data_Cu10Ni21C4
_symmetry_space_group_name_H-M   'P 1'
_cell_length_a   10.68444855
_cell_length_b   10.68444855
_cell_length_c   15.53075274
_cell_angle_alpha   55.70475274
_cell_angle_beta   55.70475274
_cell_angle_gamma   22.01793071
_symmetry_Int_Tables_number   1
_chemical_formula_structural   Cu10Ni21C4
_chemical_formula_sum   'Cu10 Ni21 C4'
_cell_volume   544.26164168
_cell_formula_units_Z   1
loop_
 _symmetry_equiv_pos_site_id
 _symmetry_equiv_pos_as_xyz
  1  'x, y, z'
loop_
 _atom_site_type_symbol
 _atom_site_label
 _atom_site_symmetry_multiplicity
 _atom_site_fract_x
 _atom_site_fract_y
 _atom_site_fract_z
 _atom_site_occupancy
  C  C0  1  0.77059000  0.77059000  0.32362200  1
  C  C1  1  0.22941000  0.22941000  0.67637800  1
  C  C2  1  0.12052000  0.12052000  0.16628100  1
  C  C3  1  0.87948000  0.87948000  0.83371900  1
  Ni  Ni4  1  0.39868100  0.39868100  0.49717100  1
  Ni  Ni5  1  0.60131900  0.60131900  0.50282900  1
  Ni  Ni6  1  0.38598900  0.38598900  0.20468300  1
  Ni  Ni7  1  0.61401100  0.61401100  0.79531700  1
  Ni  Ni8  1  0.24810700  0.24810700  0.20587600  1
  Ni  Ni9  1  0.75189300  0.75189300  0.79412400  1
  Ni  Ni10  1  0.00659900  0.00659900  0.40913900  1
  Ni  Ni11  1  0.99340100  0.99340100  0.59086100  1
  Ni  Ni12  1  0.62708100  0.62708100  0.30563700  1
  Ni  Ni13  1  0.37291900  0.37291900  0.69436300  1
  Ni  Ni14  1  0.93555500  0.93555500  0.29485100  1
  Ni  Ni15  1  0.06444500  0.06444500  0.70514900  1
  Ni  Ni16  1  0.53996600  0.53996600  0.13154200  1
  Ni  Ni17  1  0.46003400  0.46003400  0.86845800  1
  Ni  Ni18  1  0.88191600  0.88191600  0.05510200  1
  Ni  Ni19  1  0.11808400  0.11808400  0.94489800  1
  Ni  Ni20  1  0.50000000  0.50000000  0.00000000  1
  Ni  Ni21  1  0.29753200  0.29753200  0.00317600  1
  Ni  Ni22  1  0.70246800  0.70246800  0.99682400  1
  Ni  Ni23  1  0.79991600  0.79991600  0.50164600  1
  Ni  Ni24  1  0.20008400  0.20008400  0.49835400  1
  Cu  Cu25  1  0.97573400  0.97573400  0.10594600  1
  Cu  Cu26  1  0.02426600  0.02426600  0.89405400  1
  Cu  Cu27  1  0.34713400  0.34713400  0.38926300  1
  Cu  Cu28  1  0.65286600  0.65286600  0.61073700  1
  Cu  Cu29  1  0.74940600  0.74940600  0.11538800  1
  Cu  Cu30  1  0.25059400  0.25059400  0.88461200  1
  Cu  Cu31  1  0.13220700  0.13220700  0.39742100  1
  Cu  Cu32  1  0.86779300  0.86779300  0.60257900  1
  Cu  Cu33  1  0.50271800  0.50271800  0.31442900  1
  Cu  Cu34  1  0.49728200  0.49728200  0.68557100  1
