# generated using pymatgen
data_Cu2NiC3
_symmetry_space_group_name_H-M   'P 1'
_cell_length_a   3.30904162
_cell_length_b   3.30904162
_cell_length_c   39.43947400
_cell_angle_alpha   90.00000000
_cell_angle_beta   90.00000000
_cell_angle_gamma   119.99999248
_symmetry_Int_Tables_number   1
_chemical_formula_structural   Cu2NiC3
_chemical_formula_sum   'Cu4 Ni2 C6'
_cell_volume   373.99538143
_cell_formula_units_Z   2
loop_
 _symmetry_equiv_pos_site_id
 _symmetry_equiv_pos_as_xyz
  1  'x, y, z'
loop_
 _atom_site_type_symbol
 _atom_site_label
 _atom_site_symmetry_multiplicity
 _atom_site_fract_x
 _atom_site_fract_y
 _atom_site_fract_z
 _atom_site_occupancy
  C  C0  1  0.33333300  0.66666700  0.42000400  1
  C  C1  1  0.33333300  0.66666700  0.51706500  1
  C  C2  1  0.00000000  0.00000000  0.09390600  1
  C  C3  1  0.00000000  0.00000000  0.46851600  1
  C  C4  1  0.33333300  0.66666700  0.28137700  1
  C  C5  1  0.33333300  0.66666700  0.65908000  1
  Ni  Ni6  1  0.00000000  0.00000000  0.70183900  1
  Ni  Ni7  1  0.00000000  0.00000000  0.61626800  1
  Cu  Cu8  1  0.00000000  0.00000000  0.32015100  1
  Cu  Cu9  1  0.33333300  0.66666700  0.05516900  1
  Cu  Cu10  1  0.33333300  0.66666700  0.13266900  1
  Cu  Cu11  1  0.00000000  0.00000000  0.24270400  1
