# generated using pymatgen
data_Cu6Ni7
_symmetry_space_group_name_H-M   'P 1'
_cell_length_a   4.58499016
_cell_length_b   4.58499100
_cell_length_c   17.18873949
_cell_angle_alpha   82.33551419
_cell_angle_beta   82.33551313
_cell_angle_gamma   60.00000115
_symmetry_Int_Tables_number   1
_chemical_formula_structural   Cu6Ni7
_chemical_formula_sum   'Cu6 Ni7'
_cell_volume   309.19988986
_cell_formula_units_Z   1
loop_
 _symmetry_equiv_pos_site_id
 _symmetry_equiv_pos_as_xyz
  1  'x, y, z'
loop_
 _atom_site_type_symbol
 _atom_site_label
 _atom_site_symmetry_multiplicity
 _atom_site_fract_x
 _atom_site_fract_y
 _atom_site_fract_z
 _atom_site_occupancy
  Ni  Ni0  1  0.00000000  0.00000000  0.00000000  1
  Ni  Ni1  1  0.45398100  0.95321100  0.63959700  1
  Ni  Ni2  1  0.95321100  0.45398100  0.63959700  1
  Ni  Ni3  1  0.95321100  0.95321100  0.63959700  1
  Ni  Ni4  1  0.54601900  0.04678900  0.36040300  1
  Ni  Ni5  1  0.04678900  0.54601900  0.36040300  1
  Ni  Ni6  1  0.04678900  0.04678900  0.36040300  1
  Cu  Cu7  1  0.82751300  0.82751300  0.51746100  1
  Cu  Cu8  1  0.17248700  0.17248700  0.48253900  1
  Cu  Cu9  1  0.66665000  0.66665000  0.00005000  1
  Cu  Cu10  1  0.33335000  0.33335000  0.99995000  1
  Cu  Cu11  1  0.52784600  0.52784600  0.41646300  1
  Cu  Cu12  1  0.47215400  0.47215400  0.58353700  1
