# generated using pymatgen
data_Cu3(NiC2)2
_symmetry_space_group_name_H-M   'P 1'
_cell_length_a   8.27275609
_cell_length_b   8.83661571
_cell_length_c   5.69705493
_cell_angle_alpha   89.99999496
_cell_angle_beta   77.59253492
_cell_angle_gamma   122.28150048
_symmetry_Int_Tables_number   1
_chemical_formula_structural   Cu3(NiC2)2
_chemical_formula_sum   'Cu6 Ni4 C8'
_cell_volume   340.53957267
_cell_formula_units_Z   2
loop_
 _symmetry_equiv_pos_site_id
 _symmetry_equiv_pos_as_xyz
  1  'x, y, z'
loop_
 _atom_site_type_symbol
 _atom_site_label
 _atom_site_symmetry_multiplicity
 _atom_site_fract_x
 _atom_site_fract_y
 _atom_site_fract_z
 _atom_site_occupancy
  Ni  Ni0  1  0.47996900  0.13636800  0.57800600  1
  Ni  Ni1  1  0.52003100  0.65639800  0.92199400  1
  Ni  Ni2  1  0.52003100  0.86363200  0.42199400  1
  Ni  Ni3  1  0.47996900  0.34360200  0.07800600  1
  Cu  Cu4  1  0.25536500  0.87695300  0.13039700  1
  Cu  Cu5  1  0.74463500  0.62158900  0.36960300  1
  Cu  Cu6  1  0.74463500  0.12304700  0.86960300  1
  Cu  Cu7  1  0.25536500  0.37841100  0.63039700  1
  Cu  Cu8  1  0.00000000  0.63154200  0.75000000  1
  Cu  Cu9  1  0.00000000  0.36845800  0.25000000  1
  C  C10  1  0.29725300  0.89525700  0.52490800  1
  C  C11  1  0.70274700  0.59800500  0.97509200  1
  C  C12  1  0.70274700  0.10474300  0.47509200  1
  C  C13  1  0.29725300  0.40199500  0.02490800  1
  C  C14  1  0.48124000  0.16422300  0.90855500  1
  C  C15  1  0.51876000  0.68298200  0.59144500  1
  C  C16  1  0.51876000  0.83577700  0.09144500  1
  C  C17  1  0.48124000  0.31701800  0.40855500  1
