# generated using pymatgen
data_CuNi2C
_symmetry_space_group_name_H-M   'P 1'
_cell_length_a   8.35533500
_cell_length_b   9.63303000
_cell_length_c   10.55251900
_cell_angle_alpha   90.00000000
_cell_angle_beta   90.00000000
_cell_angle_gamma   90.00000000
_symmetry_Int_Tables_number   1
_chemical_formula_structural   CuNi2C
_chemical_formula_sum   'Cu12 Ni24 C12'
_cell_volume   849.34263038
_cell_formula_units_Z   12
loop_
 _symmetry_equiv_pos_site_id
 _symmetry_equiv_pos_as_xyz
  1  'x, y, z'
loop_
 _atom_site_type_symbol
 _atom_site_label
 _atom_site_symmetry_multiplicity
 _atom_site_fract_x
 _atom_site_fract_y
 _atom_site_fract_z
 _atom_site_occupancy
  C  C0  1  0.24559800  0.82256100  0.44965300  1
  C  C1  1  0.24559800  0.17743900  0.55034700  1
  C  C2  1  0.75440200  0.32256100  0.05034700  1
  C  C3  1  0.75440200  0.67743900  0.94965300  1
  C  C4  1  0.75440200  0.17743900  0.55034700  1
  C  C5  1  0.75440200  0.82256100  0.44965300  1
  C  C6  1  0.24559800  0.67743900  0.94965300  1
  C  C7  1  0.24559800  0.32256100  0.05034700  1
  C  C8  1  0.00000000  0.83549800  0.17710900  1
  C  C9  1  0.00000000  0.16450200  0.82289100  1
  C  C10  1  0.00000000  0.33549800  0.32289100  1
  C  C11  1  0.00000000  0.66450200  0.67710900  1
  Ni  Ni12  1  0.34747700  0.84276600  0.18003900  1
  Ni  Ni13  1  0.34747700  0.15723400  0.81996100  1
  Ni  Ni14  1  0.65252300  0.34276600  0.31996100  1
  Ni  Ni15  1  0.65252300  0.65723400  0.68003900  1
  Ni  Ni16  1  0.65252300  0.15723400  0.81996100  1
  Ni  Ni17  1  0.65252300  0.84276600  0.18003900  1
  Ni  Ni18  1  0.34747700  0.65723400  0.68003900  1
  Ni  Ni19  1  0.34747700  0.34276600  0.31996100  1
  Ni  Ni20  1  0.50000000  0.54760000  0.11694100  1
  Ni  Ni21  1  0.50000000  0.45240000  0.88305900  1
  Ni  Ni22  1  0.50000000  0.04760000  0.38305900  1
  Ni  Ni23  1  0.50000000  0.95240000  0.61694100  1
  Ni  Ni24  1  0.00000000  0.53599900  0.11785100  1
  Ni  Ni25  1  0.00000000  0.46400100  0.88214900  1
  Ni  Ni26  1  0.00000000  0.03599900  0.38214900  1
  Ni  Ni27  1  0.00000000  0.96400100  0.61785100  1
  Ni  Ni28  1  0.50000000  0.62754200  0.40469600  1
  Ni  Ni29  1  0.50000000  0.37245800  0.59530400  1
  Ni  Ni30  1  0.50000000  0.12754200  0.09530400  1
  Ni  Ni31  1  0.50000000  0.87245800  0.90469600  1
  Ni  Ni32  1  0.00000000  0.63089900  0.39992300  1
  Ni  Ni33  1  0.00000000  0.36910100  0.60007700  1
  Ni  Ni34  1  0.00000000  0.13089900  0.10007700  1
  Ni  Ni35  1  0.00000000  0.86910100  0.89992300  1
  Cu  Cu36  1  0.24986000  0.58950300  0.23641300  1
  Cu  Cu37  1  0.24986000  0.41049700  0.76358700  1
  Cu  Cu38  1  0.75014000  0.08950300  0.26358700  1
  Cu  Cu39  1  0.75014000  0.91049700  0.73641300  1
  Cu  Cu40  1  0.75014000  0.41049700  0.76358700  1
  Cu  Cu41  1  0.75014000  0.58950300  0.23641300  1
  Cu  Cu42  1  0.24986000  0.91049700  0.73641300  1
  Cu  Cu43  1  0.24986000  0.08950300  0.26358700  1
  Cu  Cu44  1  0.24831300  0.50000000  0.50000000  1
  Cu  Cu45  1  0.75168700  0.00000000  0.00000000  1
  Cu  Cu46  1  0.75168700  0.50000000  0.50000000  1
  Cu  Cu47  1  0.24831300  0.00000000  0.00000000  1
