# generated using pymatgen
data_Cu3Ni9C2
_symmetry_space_group_name_H-M   'P 1'
_cell_length_a   7.55676171
_cell_length_b   7.55676171
_cell_length_c   9.51082700
_cell_angle_alpha   90.00000000
_cell_angle_beta   90.00000000
_cell_angle_gamma   119.92793066
_symmetry_Int_Tables_number   1
_chemical_formula_structural   Cu3Ni9C2
_chemical_formula_sum   'Cu6 Ni18 C4'
_cell_volume   470.69035948
_cell_formula_units_Z   2
loop_
 _symmetry_equiv_pos_site_id
 _symmetry_equiv_pos_as_xyz
  1  'x, y, z'
loop_
 _atom_site_type_symbol
 _atom_site_label
 _atom_site_symmetry_multiplicity
 _atom_site_fract_x
 _atom_site_fract_y
 _atom_site_fract_z
 _atom_site_occupancy
  C  C0  1  0.99679700  0.66762700  0.25000000  1
  C  C1  1  0.00320300  0.33237300  0.75000000  1
  C  C2  1  0.66762700  0.99679700  0.25000000  1
  C  C3  1  0.33237300  0.00320300  0.75000000  1
  Ni  Ni4  1  0.12426600  0.12426600  0.25000000  1
  Ni  Ni5  1  0.87573400  0.87573400  0.75000000  1
  Ni  Ni6  1  0.99967200  0.33398900  0.07878300  1
  Ni  Ni7  1  0.00032800  0.66601100  0.92121700  1
  Ni  Ni8  1  0.00032800  0.66601100  0.57878300  1
  Ni  Ni9  1  0.33398900  0.99967200  0.42121700  1
  Ni  Ni10  1  0.99967200  0.33398900  0.42121700  1
  Ni  Ni11  1  0.66601100  0.00032800  0.57878300  1
  Ni  Ni12  1  0.66601100  0.00032800  0.92121700  1
  Ni  Ni13  1  0.33398900  0.99967200  0.07878300  1
  Ni  Ni14  1  0.33303500  0.33303500  0.56357400  1
  Ni  Ni15  1  0.66696500  0.66696500  0.43642600  1
  Ni  Ni16  1  0.66696500  0.66696500  0.06357400  1
  Ni  Ni17  1  0.33303500  0.33303500  0.93642600  1
  Ni  Ni18  1  0.33781300  0.54780400  0.25000000  1
  Ni  Ni19  1  0.66218700  0.45219600  0.75000000  1
  Ni  Ni20  1  0.54780400  0.33781300  0.25000000  1
  Ni  Ni21  1  0.45219600  0.66218700  0.75000000  1
  Cu  Cu22  1  0.67171100  0.32828900  0.00000000  1
  Cu  Cu23  1  0.32828900  0.67171100  0.00000000  1
  Cu  Cu24  1  0.32828900  0.67171100  0.50000000  1
  Cu  Cu25  1  0.67171100  0.32828900  0.50000000  1
  Cu  Cu26  1  0.00000000  0.00000000  0.00000000  1
  Cu  Cu27  1  0.00000000  0.00000000  0.50000000  1
