# generated using pymatgen
data_CuNiC16
_symmetry_space_group_name_H-M   'P 1'
_cell_length_a   7.26896000
_cell_length_b   7.26896000
_cell_length_c   10.48570500
_cell_angle_alpha   90.00000000
_cell_angle_beta   90.00000000
_cell_angle_gamma   90.00000000
_symmetry_Int_Tables_number   1
_chemical_formula_structural   CuNiC16
_chemical_formula_sum   'Cu1 Ni1 C16'
_cell_volume   554.04136850
_cell_formula_units_Z   1
loop_
 _symmetry_equiv_pos_site_id
 _symmetry_equiv_pos_as_xyz
  1  'x, y, z'
loop_
 _atom_site_type_symbol
 _atom_site_label
 _atom_site_symmetry_multiplicity
 _atom_site_fract_x
 _atom_site_fract_y
 _atom_site_fract_z
 _atom_site_occupancy
  C  C0  1  0.50000000  0.00000000  0.78991900  1
  C  C1  1  0.00000000  0.50000000  0.21008100  1
  C  C2  1  0.50000000  0.00000000  0.21008100  1
  C  C3  1  0.00000000  0.50000000  0.78991900  1
  Ni  Ni4  1  0.50000000  0.50000000  0.50000000  1
  Cu  Cu5  1  0.00000000  0.00000000  0.00000000  1
  C  C6  1  0.00000000  0.00000000  0.77309400  1
  C  C7  1  0.50000000  0.50000000  0.26712300  1
  C  C8  1  0.73532700  0.73532700  0.50000000  1
  C  C9  1  0.23103600  0.23103600  0.00000000  1
  C  C10  1  0.73532700  0.26467300  0.50000000  1
  C  C11  1  0.23103600  0.76896400  0.00000000  1
  C  C12  1  0.00000000  0.00000000  0.22690600  1
  C  C13  1  0.50000000  0.50000000  0.73287700  1
  C  C14  1  0.26467300  0.26467300  0.50000000  1
  C  C15  1  0.76896400  0.76896400  0.00000000  1
  C  C16  1  0.26467300  0.73532700  0.50000000  1
  C  C17  1  0.76896400  0.23103600  0.00000000  1
