# generated using pymatgen
data_Cu18NiC23
_symmetry_space_group_name_H-M   'P 1'
_cell_length_a   11.66434002
_cell_length_b   16.83012780
_cell_length_c   18.00578680
_cell_angle_alpha   73.39827948
_cell_angle_beta   89.62144425
_cell_angle_gamma   80.29934446
_symmetry_Int_Tables_number   1
_chemical_formula_structural   Cu18NiC23
_chemical_formula_sum   'Cu72 Ni4 C92'
_cell_volume   3335.74377880
_cell_formula_units_Z   4
loop_
 _symmetry_equiv_pos_site_id
 _symmetry_equiv_pos_as_xyz
  1  'x, y, z'
loop_
 _atom_site_type_symbol
 _atom_site_label
 _atom_site_symmetry_multiplicity
 _atom_site_fract_x
 _atom_site_fract_y
 _atom_site_fract_z
 _atom_site_occupancy
  Ni  Ni0  1  0.61293051  0.78726625  0.24319728  1
  Ni  Ni1  1  0.38706949  0.21273375  0.75680272  1
  Ni  Ni2  1  0.99711084  0.76559971  0.75251680  1
  Ni  Ni3  1  0.00288916  0.23440029  0.24748320  1
  C  C4  1  0.75687094  0.88661232  0.14362571  1
  C  C5  1  0.24312906  0.11338768  0.85637429  1
  C  C6  1  0.83282920  0.69929207  0.21927947  1
  C  C7  1  0.16717080  0.30070793  0.78072053  1
  C  C8  1  0.50141957  0.81944355  0.37114698  1
  C  C9  1  0.49858043  0.18055645  0.62885302  1
  C  C10  1  0.37561581  0.79790572  0.22834428  1
  C  C11  1  0.62438419  0.20209428  0.77165572  1
  C  C12  1  0.39616411  0.66862264  0.37866655  1
  C  C13  1  0.60383589  0.33137736  0.62133345  1
  C  C14  1  0.80770238  0.87330512  0.65684361  1
  C  C15  1  0.19229762  0.12669488  0.34315639  1
  C  C16  1  0.81988234  0.68342109  0.71791028  1
  C  C17  1  0.18011766  0.31657891  0.28208972  1
  C  C18  1  0.09253738  0.78798074  0.88413673  1
  C  C19  1  0.90746262  0.21201926  0.11586327  1
  C  C20  1  0.22861871  0.78143646  0.73633924  1
  C  C21  1  0.77138129  0.21856354  0.26366076  1
  C  C22  1  0.28032902  0.64590364  0.88481714  1
  C  C23  1  0.71967098  0.35409636  0.11518286  1
  Cu  Cu24  1  0.65256262  0.99140258  0.12264119  1
  Cu  Cu25  1  0.34743738  0.00859742  0.87735881  1
  Cu  Cu26  1  0.89635113  0.90431359  0.08667892  1
  Cu  Cu27  1  0.10364887  0.09568641  0.91332108  1
  Cu  Cu28  1  0.68472509  0.85913771  0.05869701  1
  Cu  Cu29  1  0.31527491  0.14086229  0.94130299  1
  Cu  Cu30  1  0.81971469  0.90938996  0.23395983  1
  Cu  Cu31  1  0.18028531  0.09061004  0.76604017  1
  Cu  Cu32  1  0.84981677  0.58414198  0.27915122  1
  Cu  Cu33  1  0.15018323  0.41585802  0.72084878  1
  Cu  Cu34  1  0.97849688  0.70600167  0.16808172  1
  Cu  Cu35  1  0.02150312  0.29399833  0.83191828  1
  Cu  Cu36  1  0.88953185  0.72530485  0.30981769  1
  Cu  Cu37  1  0.11046815  0.27469515  0.69018231  1
  Cu  Cu38  1  0.75584485  0.67049582  0.13678136  1
  Cu  Cu39  1  0.24415515  0.32950418  0.86321864  1
  Cu  Cu40  1  0.39788956  0.84365033  0.44795694  1
  Cu  Cu41  1  0.60211044  0.15634967  0.55204306  1
  Cu  Cu42  1  0.55487104  0.92430587  0.34562119  1
  Cu  Cu43  1  0.44512896  0.07569413  0.65437881  1
  Cu  Cu44  1  0.62391758  0.75333416  0.43835680  1
  Cu  Cu45  1  0.37608242  0.24666584  0.56164320  1
  Cu  Cu46  1  0.21249129  0.81475940  0.24435090  1
  Cu  Cu47  1  0.78750871  0.18524060  0.75564910  1
  Cu  Cu48  1  0.36857689  0.89444363  0.14080402  1
  Cu  Cu49  1  0.63142311  0.10555637  0.85919598  1
  Cu  Cu50  1  0.37863836  0.71855533  0.17369701  1
  Cu  Cu51  1  0.62136164  0.28144467  0.82630299  1
  Cu  Cu52  1  0.25963884  0.73127467  0.41196493  1
  Cu  Cu53  1  0.74036116  0.26872533  0.58803507  1
  Cu  Cu54  1  0.52437913  0.61105278  0.33376696  1
  Cu  Cu55  1  0.47562087  0.38894722  0.66623304  1
  Cu  Cu56  1  0.30406019  0.59296026  0.35755954  1
  Cu  Cu57  1  0.69593981  0.40703974  0.64244046  1
  Cu  Cu58  1  0.45475810  0.61452972  0.48342173  1
  Cu  Cu59  1  0.54524190  0.38547028  0.51657827  1
  Cu  Cu60  1  0.85898855  0.97756694  0.64625243  1
  Cu  Cu61  1  0.14101145  0.02243306  0.35374757  1
  Cu  Cu62  1  0.66343656  0.89753361  0.59564685  1
  Cu  Cu63  1  0.33656344  0.10246639  0.40435315  1
  Cu  Cu64  1  0.72895109  0.88416684  0.75022740  1
  Cu  Cu65  1  0.27104891  0.11583316  0.24977260  1
  Cu  Cu66  1  0.89757602  0.85975262  0.56811266  1
  Cu  Cu67  1  0.10242398  0.14024738  0.43188734  1
  Cu  Cu68  1  0.86316593  0.56493200  0.76488131  1
  Cu  Cu69  1  0.13683407  0.43506800  0.23511869  1
  Cu  Cu70  1  0.66945456  0.69238485  0.66921127  1
  Cu  Cu71  1  0.33054544  0.30761515  0.33078873  1
  Cu  Cu72  1  0.90546349  0.67231688  0.62672319  1
  Cu  Cu73  1  0.09453651  0.32768312  0.37327681  1
  Cu  Cu74  1  0.75310207  0.69467624  0.81492265  1
  Cu  Cu75  1  0.24689793  0.30532376  0.18507735  1
  Cu  Cu76  1  0.18565553  0.81334927  0.95876607  1
  Cu  Cu77  1  0.81434447  0.18665073  0.04123393  1
  Cu  Cu78  1  0.98664107  0.89122146  0.86472791  1
  Cu  Cu79  1  0.01335893  0.10877854  0.13527209  1
  Cu  Cu80  1  0.00574276  0.71637053  0.95059533  1
  Cu  Cu81  1  0.99425724  0.28362947  0.04940467  1
  Cu  Cu82  1  0.38427378  0.79672025  0.75155683  1
  Cu  Cu83  1  0.61572622  0.20327975  0.24844317  1
  Cu  Cu84  1  0.18652190  0.88093502  0.65189996  1
  Cu  Cu85  1  0.81347810  0.11906498  0.34810004  1
  Cu  Cu86  1  0.25829034  0.70791593  0.67537721  1
  Cu  Cu87  1  0.74170966  0.29208407  0.32462279  1
  Cu  Cu88  1  0.38471306  0.70926316  0.91841791  1
  Cu  Cu89  1  0.61528694  0.29073684  0.08158209  1
  Cu  Cu90  1  0.16592828  0.58986066  0.85325439  1
  Cu  Cu91  1  0.83407172  0.41013934  0.14674561  1
  Cu  Cu92  1  0.27500954  0.57570553  0.98895410  1
  Cu  Cu93  1  0.72499046  0.42429447  0.01104590  1
  Cu  Cu94  1  0.40571753  0.58339061  0.84408798  1
  Cu  Cu95  1  0.59428247  0.41660939  0.15591202  1
  C  C96  1  0.59049545  0.05547399  0.11079197  1
  C  C97  1  0.40950455  0.94452601  0.88920803  1
  C  C98  1  0.97918623  0.91544282  0.05232873  1
  C  C99  1  0.02081377  0.08455718  0.94767127  1
  C  C100  1  0.64166353  0.84583584  0.00698656  1
  C  C101  1  0.35833647  0.15416416  0.99301344  1
  C  C102  1  0.85457305  0.92755190  0.28567038  1
  C  C103  1  0.14542695  0.07244810  0.71432962  1
  C  C104  1  0.86523016  0.51378567  0.31444531  1
  C  C105  1  0.13476984  0.48621433  0.68555469  1
  C  C106  1  0.06737654  0.70818349  0.13943906  1
  C  C107  1  0.93262346  0.29181651  0.86056094  1
  C  C108  1  0.92382836  0.73524423  0.36596066  1
  C  C109  1  0.07617164  0.26475577  0.63403934  1
  C  C110  1  0.71091547  0.64804329  0.09141849  1
  C  C111  1  0.28908453  0.35195671  0.90858151  1
  C  C112  1  0.34440635  0.86098601  0.49759089  1
  C  C113  1  0.65559365  0.13901399  0.50240911  1
  C  C114  1  0.58612168  0.98898093  0.33138316  1
  C  C115  1  0.41387832  0.01101907  0.66861684  1
  C  C116  1  0.69996117  0.71420743  0.48233678  1
  C  C117  1  0.30003883  0.28579257  0.51766322  1
  C  C118  1  0.11126523  0.82593330  0.24537360  1
  C  C119  1  0.88873477  0.17406670  0.75462640  1
  C  C120  1  0.36038756  0.95309935  0.08668860  1
  C  C121  1  0.63961244  0.04690065  0.91331140  1
  C  C122  1  0.37918884  0.66922395  0.13965796  1
  C  C123  1  0.62081116  0.33077605  0.86034204  1
  C  C124  1  0.17506057  0.75996687  0.43560803  1
  C  C125  1  0.82493943  0.24003313  0.56439197  1
  C  C126  1  0.59316814  0.56680763  0.31046617  1
  C  C127  1  0.40683186  0.43319237  0.68953383  1
  C  C128  1  0.24921369  0.54581888  0.34600115  1
  C  C129  1  0.75078631  0.45418112  0.65399885  1
  C  C130  1  0.49215329  0.58002453  0.54603147  1
  C  C131  1  0.50784671  0.41997547  0.45396853  1
  C  C132  1  0.88765638  0.04173990  0.63961588  1
  C  C133  1  0.11234362  0.95826010  0.36038412  1
  C  C134  1  0.57897437  0.91419358  0.55691665  1
  C  C135  1  0.42102563  0.08580642  0.44308335  1
  C  C136  1  0.68202488  0.89599135  0.80380208  1
  C  C137  1  0.31797512  0.10400865  0.19619792  1
  C  C138  1  0.94945639  0.85688979  0.51383326  1
  C  C139  1  0.05054361  0.14311021  0.48616674  1
  C  C140  1  0.88569685  0.49278449  0.79161891  1
  C  C141  1  0.11430315  0.50721551  0.20838109  1
  C  C142  1  0.57874744  0.69505729  0.64211423  1
  C  C143  1  0.42125256  0.30494271  0.35788577  1
  C  C144  1  0.95763132  0.66179734  0.57465523  1
  C  C145  1  0.04236868  0.33820266  0.42534477  1
  C  C146  1  0.71499200  0.69686526  0.87376735  1
  C  C147  1  0.28500800  0.30313474  0.12623265  1
  C  C148  1  0.23015169  0.83362208  0.00638407  1
  C  C149  1  0.76984831  0.16637792  0.99361593  1
  C  C150  1  0.92421176  0.95550902  0.85473855  1
  C  C151  1  0.07578824  0.04449098  0.14526145  1
  C  C152  1  0.95204384  0.67234325  0.99350056  1
  C  C153  1  0.04795616  0.32765675  0.00649944  1
  C  C154  1  0.48040615  0.80713510  0.75271753  1
  C  C155  1  0.51959385  0.19286490  0.24728247  1
  C  C156  1  0.16430111  0.94113962  0.59956009  1
  C  C157  1  0.83569889  0.05886038  0.40043991  1
  C  C158  1  0.27753450  0.66306017  0.63644313  1
  C  C159  1  0.72246550  0.33693983  0.36355687  1
  C  C160  1  0.45346275  0.73871710  0.94253059  1
  C  C161  1  0.54653725  0.26128290  0.05746941  1
  C  C162  1  0.10617806  0.54573008  0.84143543  1
  C  C163  1  0.89382194  0.45426992  0.15856457  1
  C  C164  1  0.27184646  0.52993792  0.05055263  1
  C  C165  1  0.72815354  0.47006208  0.94944737  1
  C  C166  1  0.48167634  0.54506563  0.82017922  1
  C  C167  1  0.51832366  0.45493437  0.17982078  1
