# generated using pymatgen
data_Cu2Ni2C35
_symmetry_space_group_name_H-M   'P 1'
_cell_length_a   9.47386269
_cell_length_b   12.86431500
_cell_length_c   6.08328795
_cell_angle_alpha   90.00000000
_cell_angle_beta   103.01901622
_cell_angle_gamma   90.00000000
_symmetry_Int_Tables_number   1
_chemical_formula_structural   Cu2Ni2C35
_chemical_formula_sum   'Cu4 Ni4 C70'
_cell_volume   722.34181478
_cell_formula_units_Z   2
loop_
 _symmetry_equiv_pos_site_id
 _symmetry_equiv_pos_as_xyz
  1  'x, y, z'
loop_
 _atom_site_type_symbol
 _atom_site_label
 _atom_site_symmetry_multiplicity
 _atom_site_fract_x
 _atom_site_fract_y
 _atom_site_fract_z
 _atom_site_occupancy
  C  C0  1  0.50000000  0.50000000  0.00000000  1
  C  C1  1  0.00000000  0.00000000  0.00000000  1
  C  C2  1  0.56876100  0.16670500  0.18252400  1
  C  C3  1  0.93123900  0.66670500  0.81747600  1
  C  C4  1  0.43123900  0.83329500  0.81747600  1
  C  C5  1  0.06876100  0.33329500  0.18252400  1
  C  C6  1  0.72376900  0.20290500  0.37432600  1
  C  C7  1  0.77623100  0.70290500  0.62567400  1
  C  C8  1  0.27623100  0.79709500  0.62567400  1
  C  C9  1  0.22376900  0.29709500  0.37432600  1
  C  C10  1  0.56664600  0.17902300  0.45491000  1
  C  C11  1  0.93335400  0.67902300  0.54509000  1
  C  C12  1  0.43335400  0.82097700  0.54509000  1
  C  C13  1  0.06664600  0.32097700  0.45491000  1
  C  C14  1  0.65959600  0.08071100  0.36979900  1
  C  C15  1  0.84040400  0.58071100  0.63020100  1
  C  C16  1  0.34040400  0.91928900  0.63020100  1
  C  C17  1  0.15959600  0.41928900  0.36979900  1
  C  C18  1  0.72026600  0.42684500  0.32949900  1
  C  C19  1  0.77973400  0.92684500  0.67050100  1
  C  C20  1  0.27973400  0.57315500  0.67050100  1
  C  C21  1  0.22026600  0.07315500  0.32949900  1
  C  C22  1  0.76686600  0.41090400  0.08284800  1
  C  C23  1  0.73313400  0.91090400  0.91715200  1
  C  C24  1  0.23313400  0.58909600  0.91715200  1
  C  C25  1  0.26686600  0.08909600  0.08284800  1
  C  C26  1  0.19627700  0.34428500  0.86904500  1
  C  C27  1  0.30372300  0.84428500  0.13095500  1
  C  C28  1  0.80372300  0.65571500  0.13095500  1
  C  C29  1  0.69627700  0.15571500  0.86904500  1
  C  C30  1  0.26533700  0.31837900  0.93680000  1
  C  C31  1  0.23466300  0.81837900  0.06320000  1
  C  C32  1  0.73466300  0.68162100  0.06320000  1
  C  C33  1  0.76533700  0.18162100  0.93680000  1
  C  C34  1  0.40972900  0.58228700  0.33052600  1
  C  C35  1  0.09027100  0.08228700  0.66947400  1
  C  C36  1  0.59027100  0.41771300  0.66947400  1
  C  C37  1  0.90972900  0.91771300  0.33052600  1
  C  C38  1  0.53602600  0.66539800  0.29724100  1
  C  C39  1  0.96397400  0.16539800  0.70275900  1
  C  C40  1  0.46397400  0.33460200  0.70275900  1
  C  C41  1  0.03602600  0.83460200  0.29724100  1
  Ni  Ni42  1  0.89413400  0.37270700  0.72656100  1
  Ni  Ni43  1  0.60586600  0.87270700  0.27343900  1
  Ni  Ni44  1  0.10586600  0.62729300  0.27343900  1
  Ni  Ni45  1  0.39413400  0.12729300  0.72656100  1
  Cu  Cu46  1  0.63115500  0.15807100  0.34490900  1
  Cu  Cu47  1  0.86884500  0.65807100  0.65509100  1
  Cu  Cu48  1  0.36884500  0.84192900  0.65509100  1
  Cu  Cu49  1  0.13115500  0.34192900  0.34490900  1
  C  C50  1  0.90935600  0.27489200  0.59554500  1
  C  C51  1  0.59064400  0.77489200  0.40445500  1
  C  C52  1  0.09064400  0.72510800  0.40445500  1
  C  C53  1  0.40935600  0.22510800  0.59554500  1
  C  C54  1  0.01864100  0.44072100  0.73164400  1
  C  C55  1  0.48135900  0.94072100  0.26835600  1
  C  C56  1  0.98135900  0.55927900  0.26835600  1
  C  C57  1  0.51864100  0.05927900  0.73164400  1
  C  C58  1  0.75705200  0.42735900  0.60285500  1
  C  C59  1  0.74294800  0.92735900  0.39714500  1
  C  C60  1  0.24294800  0.57264100  0.39714500  1
  C  C61  1  0.25705200  0.07264100  0.60285500  1
  C  C62  1  0.87951700  0.34501300  0.95756000  1
  C  C63  1  0.62048300  0.84501300  0.04244000  1
  C  C64  1  0.12048300  0.65498700  0.04244000  1
  C  C65  1  0.37951700  0.15498700  0.95756000  1
  C  C66  1  0.68671700  0.42919700  0.15971300  1
  C  C67  1  0.81328300  0.92919700  0.84028700  1
  C  C68  1  0.31328300  0.57080300  0.84028700  1
  C  C69  1  0.18671700  0.07080300  0.15971300  1
  C  C70  1  0.40533400  0.41109500  0.12850600  1
  C  C71  1  0.09466600  0.91109500  0.87149400  1
  C  C72  1  0.59466600  0.58890500  0.87149400  1
  C  C73  1  0.90533400  0.08890500  0.12850600  1
  C  C74  1  0.49861000  0.59109900  0.26838500  1
  C  C75  1  0.00139000  0.09109900  0.73161500  1
  C  C76  1  0.50139000  0.40890100  0.73161500  1
  C  C77  1  0.99861000  0.90890100  0.26838500  1
