# generated using pymatgen
data_Cu2NiC4
_symmetry_space_group_name_H-M   'P 1'
_cell_length_a   3.69234100
_cell_length_b   6.02516076
_cell_length_c   6.51526792
_cell_angle_alpha   112.54607799
_cell_angle_beta   98.02540756
_cell_angle_gamma   106.69544969
_symmetry_Int_Tables_number   1
_chemical_formula_structural   Cu2NiC4
_chemical_formula_sum   'Cu2 Ni1 C4'
_cell_volume   123.00710961
_cell_formula_units_Z   1
loop_
 _symmetry_equiv_pos_site_id
 _symmetry_equiv_pos_as_xyz
  1  'x, y, z'
loop_
 _atom_site_type_symbol
 _atom_site_label
 _atom_site_symmetry_multiplicity
 _atom_site_fract_x
 _atom_site_fract_y
 _atom_site_fract_z
 _atom_site_occupancy
  Ni  Ni0  1  0.77846100  0.53170700  0.66460100  1
  Cu  Cu1  1  0.93177600  0.48012800  0.16383500  1
  Cu  Cu2  1  0.40696600  0.96031300  0.17355600  1
  C  C3  1  0.29205500  0.17873900  0.40236800  1
  C  C4  1  0.79684500  0.66775200  0.41312500  1
  C  C5  1  0.56510800  0.43335000  0.92710600  1
  C  C6  1  0.06173800  0.91436000  0.92141000  1
