# generated using pymatgen
data_Cu2Ni19C12
_symmetry_space_group_name_H-M   'P 1'
_cell_length_a   10.06570081
_cell_length_b   10.06570081
_cell_length_c   10.06570088
_cell_angle_alpha   87.60476166
_cell_angle_beta   87.60476166
_cell_angle_gamma   87.60476184
_symmetry_Int_Tables_number   1
_chemical_formula_structural   Cu2Ni19C12
_chemical_formula_sum   'Cu2 Ni19 C12'
_cell_volume   1017.23924585
_cell_formula_units_Z   1
loop_
 _symmetry_equiv_pos_site_id
 _symmetry_equiv_pos_as_xyz
  1  'x, y, z'
loop_
 _atom_site_type_symbol
 _atom_site_label
 _atom_site_symmetry_multiplicity
 _atom_site_fract_x
 _atom_site_fract_y
 _atom_site_fract_z
 _atom_site_occupancy
  C  C0  1  0.72323900  0.20117600  0.62804800  1
  C  C1  1  0.20117600  0.62804800  0.72323900  1
  C  C2  1  0.62804800  0.72323900  0.20117600  1
  C  C3  1  0.27676100  0.79882400  0.37195200  1
  C  C4  1  0.79882400  0.37195200  0.27676100  1
  C  C5  1  0.37195200  0.27676100  0.79882400  1
  C  C6  1  0.66002300  0.08581200  0.03202900  1
  C  C7  1  0.08581200  0.03202900  0.66002300  1
  C  C8  1  0.03202900  0.66002300  0.08581200  1
  C  C9  1  0.33997700  0.91418800  0.96797100  1
  C  C10  1  0.91418800  0.96797100  0.33997700  1
  C  C11  1  0.96797100  0.33997700  0.91418800  1
  Ni  Ni12  1  0.84621600  0.95993200  0.61885600  1
  Ni  Ni13  1  0.95993200  0.61885600  0.84621600  1
  Ni  Ni14  1  0.61885600  0.84621600  0.95993200  1
  Ni  Ni15  1  0.15378400  0.04006800  0.38114400  1
  Ni  Ni16  1  0.04006800  0.38114400  0.15378400  1
  Ni  Ni17  1  0.38114400  0.15378400  0.04006800  1
  Ni  Ni18  1  0.00000000  0.00000000  0.00000000  1
  Ni  Ni19  1  0.71610700  0.29348200  0.87687200  1
  Ni  Ni20  1  0.29348200  0.87687200  0.71610700  1
  Ni  Ni21  1  0.87687200  0.71610700  0.29348200  1
  Ni  Ni22  1  0.28389300  0.70651800  0.12312800  1
  Ni  Ni23  1  0.70651800  0.12312800  0.28389300  1
  Ni  Ni24  1  0.12312800  0.28389300  0.70651800  1
  Ni  Ni25  1  0.47596900  0.16061500  0.59441200  1
  Ni  Ni26  1  0.16061500  0.59441200  0.47596900  1
  Ni  Ni27  1  0.59441200  0.47596900  0.16061500  1
  Ni  Ni28  1  0.52403100  0.83938500  0.40558800  1
  Ni  Ni29  1  0.83938500  0.40558800  0.52403100  1
  Ni  Ni30  1  0.40558800  0.52403100  0.83938500  1
  Cu  Cu31  1  0.34256600  0.34256600  0.34256600  1
  Cu  Cu32  1  0.65743400  0.65743400  0.65743400  1
