# generated using pymatgen
data_Cu2NiC7
_symmetry_space_group_name_H-M   'P 1'
_cell_length_a   5.93776600
_cell_length_b   8.45691100
_cell_length_c   13.61080800
_cell_angle_alpha   90.00000000
_cell_angle_beta   90.00000000
_cell_angle_gamma   90.00000000
_symmetry_Int_Tables_number   1
_chemical_formula_structural   Cu2NiC7
_chemical_formula_sum   'Cu8 Ni4 C28'
_cell_volume   683.46888241
_cell_formula_units_Z   4
loop_
 _symmetry_equiv_pos_site_id
 _symmetry_equiv_pos_as_xyz
  1  'x, y, z'
loop_
 _atom_site_type_symbol
 _atom_site_label
 _atom_site_symmetry_multiplicity
 _atom_site_fract_x
 _atom_site_fract_y
 _atom_site_fract_z
 _atom_site_occupancy
  C  C0  1  0.25000000  0.00422500  0.62984100  1
  C  C1  1  0.25000000  0.49577500  0.12984100  1
  C  C2  1  0.75000000  0.99577500  0.37015900  1
  C  C3  1  0.75000000  0.50422500  0.87015900  1
  Ni  Ni4  1  0.25000000  0.78900500  0.90645800  1
  Ni  Ni5  1  0.25000000  0.71099500  0.40645800  1
  Ni  Ni6  1  0.75000000  0.21099500  0.09354200  1
  Ni  Ni7  1  0.75000000  0.28900500  0.59354200  1
  Cu  Cu8  1  0.75000000  0.01028600  0.80286100  1
  Cu  Cu9  1  0.75000000  0.48971400  0.30286100  1
  Cu  Cu10  1  0.25000000  0.98971400  0.19713900  1
  Cu  Cu11  1  0.25000000  0.51028600  0.69713900  1
  Cu  Cu12  1  0.75000000  0.71292700  0.57384100  1
  Cu  Cu13  1  0.75000000  0.78707300  0.07384100  1
  Cu  Cu14  1  0.25000000  0.28707300  0.42615900  1
  Cu  Cu15  1  0.25000000  0.21292700  0.92615900  1
  C  C16  1  0.99468500  0.86635200  0.79783700  1
  C  C17  1  0.50531500  0.63364800  0.29783700  1
  C  C18  1  0.49468500  0.13364800  0.20216300  1
  C  C19  1  0.00531500  0.36635200  0.70216300  1
  C  C20  1  0.00531500  0.13364800  0.20216300  1
  C  C21  1  0.49468500  0.36635200  0.70216300  1
  C  C22  1  0.50531500  0.86635200  0.79783700  1
  C  C23  1  0.99468500  0.63364800  0.29783700  1
  C  C24  1  0.75000000  0.05299100  0.66473300  1
  C  C25  1  0.75000000  0.44700900  0.16473300  1
  C  C26  1  0.25000000  0.94700900  0.33526700  1
  C  C27  1  0.25000000  0.55299100  0.83526700  1
  C  C28  1  0.99300100  0.80607100  0.50561600  1
  C  C29  1  0.50699900  0.69392900  0.00561600  1
  C  C30  1  0.49300100  0.19392900  0.49438400  1
  C  C31  1  0.00699900  0.30607100  0.99438400  1
  C  C32  1  0.00699900  0.19392900  0.49438400  1
  C  C33  1  0.49300100  0.30607100  0.99438400  1
  C  C34  1  0.50699900  0.80607100  0.50561600  1
  C  C35  1  0.99300100  0.69392900  0.00561600  1
  C  C36  1  0.75000000  0.51135100  0.51255500  1
  C  C37  1  0.75000000  0.98864900  0.01255500  1
  C  C38  1  0.25000000  0.48864900  0.48744500  1
  C  C39  1  0.25000000  0.01135100  0.98744500  1
