# generated using pymatgen
data_Cu6Ni3C2
_symmetry_space_group_name_H-M   'P 1'
_cell_length_a   5.50033653
_cell_length_b   5.50033653
_cell_length_c   5.50033679
_cell_angle_alpha   90.55586864
_cell_angle_beta   90.55586864
_cell_angle_gamma   90.55586766
_symmetry_Int_Tables_number   1
_chemical_formula_structural   Cu6Ni3C2
_chemical_formula_sum   'Cu6 Ni3 C2'
_cell_volume   166.38190300
_cell_formula_units_Z   1
loop_
 _symmetry_equiv_pos_site_id
 _symmetry_equiv_pos_as_xyz
  1  'x, y, z'
loop_
 _atom_site_type_symbol
 _atom_site_label
 _atom_site_symmetry_multiplicity
 _atom_site_fract_x
 _atom_site_fract_y
 _atom_site_fract_z
 _atom_site_occupancy
  C  C0  1  0.45517000  0.45517000  0.45517000  1
  C  C1  1  0.98688500  0.98688500  0.98688500  1
  Ni  Ni2  1  0.93174100  0.53256700  0.97083300  1
  Ni  Ni3  1  0.53256700  0.97083300  0.93174100  1
  Ni  Ni4  1  0.97083300  0.93174100  0.53256700  1
  Cu  Cu5  1  0.41989600  0.77151300  0.93193400  1
  Cu  Cu6  1  0.93193400  0.41989600  0.77151300  1
  Cu  Cu7  1  0.16090000  0.93965200  0.40347700  1
  Cu  Cu8  1  0.40347700  0.16090000  0.93965200  1
  Cu  Cu9  1  0.93965200  0.40347700  0.16090000  1
  Cu  Cu10  1  0.77151300  0.93193400  0.41989600  1
