# generated using pymatgen
data_Cu7(NiC5)3
_symmetry_space_group_name_H-M   'P 1'
_cell_length_a   7.36115382
_cell_length_b   8.96202908
_cell_length_c   9.53148905
_cell_angle_alpha   64.73643086
_cell_angle_beta   70.84762719
_cell_angle_gamma   68.68094966
_symmetry_Int_Tables_number   1
_chemical_formula_structural   Cu7(NiC5)3
_chemical_formula_sum   'Cu14 Ni6 C30'
_cell_volume   518.46648683
_cell_formula_units_Z   2
loop_
 _symmetry_equiv_pos_site_id
 _symmetry_equiv_pos_as_xyz
  1  'x, y, z'
loop_
 _atom_site_type_symbol
 _atom_site_label
 _atom_site_symmetry_multiplicity
 _atom_site_fract_x
 _atom_site_fract_y
 _atom_site_fract_z
 _atom_site_occupancy
  C  C0  1  0.00000000  0.50000000  0.50000000  1
  C  C1  1  0.80051200  0.28214900  0.05220400  1
  C  C2  1  0.19948800  0.71785100  0.94779600  1
  Ni  Ni3  1  0.54990100  0.44882200  0.77819300  1
  Ni  Ni4  1  0.45009900  0.55117800  0.22180700  1
  Ni  Ni5  1  0.08026500  0.12213800  0.76605500  1
  Ni  Ni6  1  0.91973500  0.87786200  0.23394500  1
  Ni  Ni7  1  0.91022200  0.65554900  0.78068500  1
  Ni  Ni8  1  0.08977800  0.34445100  0.21931500  1
  Cu  Cu9  1  0.28233900  0.45065100  0.71401000  1
  Cu  Cu10  1  0.71766100  0.54934900  0.28599000  1
  Cu  Cu11  1  0.91569600  0.96532500  0.76881200  1
  Cu  Cu12  1  0.08430400  0.03467500  0.23118800  1
  Cu  Cu13  1  0.60371700  0.74817000  0.75141000  1
  Cu  Cu14  1  0.39628300  0.25183000  0.24859000  1
  Cu  Cu15  1  0.69651100  0.21666600  0.56439600  1
  Cu  Cu16  1  0.30348900  0.78333400  0.43560400  1
  Cu  Cu17  1  0.64671600  0.19482000  0.41433600  1
  Cu  Cu18  1  0.35328400  0.80518000  0.58566400  1
  Cu  Cu19  1  0.63780200  0.03874900  0.59874100  1
  Cu  Cu20  1  0.36219800  0.96125100  0.40125900  1
  Cu  Cu21  1  0.46147200  0.22795100  0.56604200  1
  Cu  Cu22  1  0.53852800  0.77204900  0.43395800  1
  C  C23  1  0.50000000  0.00000000  0.00000000  1
  C  C24  1  0.61111000  0.16879300  0.53541000  1
  C  C25  1  0.38889000  0.83120700  0.46459000  1
  C  C26  1  0.60581700  0.31896200  0.93616900  1
  C  C27  1  0.39418300  0.68103800  0.06383100  1
  C  C28  1  0.41212100  0.37402000  0.74216700  1
  C  C29  1  0.58787900  0.62598000  0.25783300  1
  C  C30  1  0.42829600  0.62916700  0.78942900  1
  C  C31  1  0.57170400  0.37083300  0.21057100  1
  C  C32  1  0.72812700  0.46954700  0.64048900  1
  C  C33  1  0.27187300  0.53045300  0.35951100  1
  C  C34  1  0.00946100  0.18351500  0.90887100  1
  C  C35  1  0.99053900  0.81648500  0.09113000  1
  C  C36  1  0.15583700  0.26092100  0.61585000  1
  C  C37  1  0.84416300  0.73907900  0.38415000  1
  C  C38  1  0.24297000  0.95209100  0.79903400  1
  C  C39  1  0.75703000  0.04790900  0.20096600  1
  C  C40  1  0.89895200  0.09190200  0.73457500  1
  C  C41  1  0.10104800  0.90809800  0.26542500  1
  C  C42  1  0.05446000  0.58394300  0.64976900  1
  C  C43  1  0.94554000  0.41605700  0.35023100  1
  C  C44  1  0.01239300  0.76045400  0.80924400  1
  C  C45  1  0.98760700  0.23954600  0.19075600  1
  C  C46  1  0.83780900  0.51861500  0.92950700  1
  C  C47  1  0.16219100  0.48138500  0.07049300  1
  C  C48  1  0.72036000  0.79718900  0.71354300  1
  C  C49  1  0.27964000  0.20281100  0.28645700  1
