# generated using pymatgen
data_Cu6NiC9
_symmetry_space_group_name_H-M   'P 1'
_cell_length_a   7.52001279
_cell_length_b   9.50049388
_cell_length_c   11.65998500
_cell_angle_alpha   90.00000000
_cell_angle_beta   90.00000000
_cell_angle_gamma   104.11446095
_symmetry_Int_Tables_number   1
_chemical_formula_structural   Cu6NiC9
_chemical_formula_sum   'Cu24 Ni4 C36'
_cell_volume   807.88516669
_cell_formula_units_Z   4
loop_
 _symmetry_equiv_pos_site_id
 _symmetry_equiv_pos_as_xyz
  1  'x, y, z'
loop_
 _atom_site_type_symbol
 _atom_site_label
 _atom_site_symmetry_multiplicity
 _atom_site_fract_x
 _atom_site_fract_y
 _atom_site_fract_z
 _atom_site_occupancy
  C  C0  1  0.87380800  0.06083200  0.65533400  1
  C  C1  1  0.12619200  0.43916800  0.15533400  1
  C  C2  1  0.12619200  0.93916800  0.34466600  1
  C  C3  1  0.87380800  0.56083200  0.84466600  1
  C  C4  1  0.61718600  0.13734900  0.91627500  1
  C  C5  1  0.38281400  0.36265100  0.41627500  1
  C  C6  1  0.38281400  0.86265100  0.08372500  1
  C  C7  1  0.61718600  0.63734900  0.58372500  1
  C  C8  1  0.70173600  0.98037900  0.94478300  1
  C  C9  1  0.29826400  0.51962100  0.44478300  1
  C  C10  1  0.29826400  0.01962100  0.05521700  1
  C  C11  1  0.70173600  0.48037900  0.55521700  1
  C  C12  1  0.69562500  0.10834000  0.05764300  1
  C  C13  1  0.30437500  0.39166000  0.55764300  1
  C  C14  1  0.30437500  0.89166000  0.94235700  1
  C  C15  1  0.69562500  0.60834000  0.44235700  1
  C  C16  1  0.49048000  0.17171500  0.03827600  1
  C  C17  1  0.50952000  0.32828500  0.53827600  1
  C  C18  1  0.50952000  0.82828500  0.96172400  1
  C  C19  1  0.49048000  0.67171500  0.46172400  1
  C  C20  1  0.36968500  0.08390600  0.91411700  1
  C  C21  1  0.63031500  0.41609400  0.41411700  1
  C  C22  1  0.63031500  0.91609400  0.08588300  1
  C  C23  1  0.36968500  0.58390600  0.58588300  1
  C  C24  1  0.50174700  0.96610000  0.85711300  1
  C  C25  1  0.49825300  0.53390000  0.35711300  1
  C  C26  1  0.49825300  0.03390000  0.14288700  1
  C  C27  1  0.50174700  0.46610000  0.64288700  1
  C  C28  1  0.28365700  0.00607900  0.60749400  1
  C  C29  1  0.71634300  0.49392100  0.10749400  1
  C  C30  1  0.71634300  0.99392100  0.39250600  1
  C  C31  1  0.28365700  0.50607900  0.89250600  1
  C  C32  1  0.17645600  0.84588800  0.61624800  1
  C  C33  1  0.82354400  0.65411200  0.11624800  1
  C  C34  1  0.82354400  0.15411200  0.38375200  1
  C  C35  1  0.17645600  0.34588800  0.88375200  1
  Ni  Ni36  1  0.16616500  0.93986800  0.58731100  1
  Ni  Ni37  1  0.83383500  0.56013200  0.08731100  1
  Ni  Ni38  1  0.83383500  0.06013200  0.41268900  1
  Ni  Ni39  1  0.16616500  0.43986800  0.91268900  1
  Cu  Cu40  1  0.72222600  0.24504400  0.84509600  1
  Cu  Cu41  1  0.27777400  0.25495600  0.34509600  1
  Cu  Cu42  1  0.27777400  0.75495600  0.15490400  1
  Cu  Cu43  1  0.72222600  0.74504400  0.65490400  1
  Cu  Cu44  1  0.86272200  0.96650900  0.89147600  1
  Cu  Cu45  1  0.13727800  0.53349100  0.39147600  1
  Cu  Cu46  1  0.13727800  0.03349100  0.10852400  1
  Cu  Cu47  1  0.86272200  0.46650900  0.60852400  1
  Cu  Cu48  1  0.85298600  0.20045100  0.10356900  1
  Cu  Cu49  1  0.14701400  0.29954900  0.60356900  1
  Cu  Cu50  1  0.14701400  0.79954900  0.89643100  1
  Cu  Cu51  1  0.85298600  0.70045100  0.39643100  1
  Cu  Cu52  1  0.48221400  0.31181700  0.07030800  1
  Cu  Cu53  1  0.51778600  0.18818300  0.57030800  1
  Cu  Cu54  1  0.51778600  0.68818300  0.92969200  1
  Cu  Cu55  1  0.48221400  0.81181700  0.42969200  1
  Cu  Cu56  1  0.26474900  0.15186400  0.84440700  1
  Cu  Cu57  1  0.73525100  0.34813600  0.34440700  1
  Cu  Cu58  1  0.73525100  0.84813600  0.15559300  1
  Cu  Cu59  1  0.26474900  0.65186400  0.65559300  1
  Cu  Cu60  1  0.51310600  0.94332700  0.73923400  1
  Cu  Cu61  1  0.48689400  0.55667300  0.23923400  1
  Cu  Cu62  1  0.48689400  0.05667300  0.26076600  1
  Cu  Cu63  1  0.51310600  0.44332700  0.76076600  1
