# generated using pymatgen
data_Cu22Ni5C11
_symmetry_space_group_name_H-M   'P 1'
_cell_length_a   14.30260000
_cell_length_b   8.47160600
_cell_length_c   19.19115113
_cell_angle_alpha   90.00000000
_cell_angle_beta   107.37234740
_cell_angle_gamma   90.00000000
_symmetry_Int_Tables_number   1
_chemical_formula_structural   Cu22Ni5C11
_chemical_formula_sum   'Cu88 Ni20 C44'
_cell_volume   2219.24456354
_cell_formula_units_Z   4
loop_
 _symmetry_equiv_pos_site_id
 _symmetry_equiv_pos_as_xyz
  1  'x, y, z'
loop_
 _atom_site_type_symbol
 _atom_site_label
 _atom_site_symmetry_multiplicity
 _atom_site_fract_x
 _atom_site_fract_y
 _atom_site_fract_z
 _atom_site_occupancy
  C  C0  1  0.00000000  0.00000000  0.00000000  1
  C  C1  1  0.00000000  0.50000000  0.50000000  1
  C  C2  1  0.32193800  0.87003600  0.13654400  1
  C  C3  1  0.67806200  0.37003600  0.36345600  1
  C  C4  1  0.67806200  0.12996400  0.86345600  1
  C  C5  1  0.32193800  0.62996400  0.63654400  1
  C  C6  1  0.38513200  0.38615200  0.85398300  1
  C  C7  1  0.61486800  0.88615200  0.64601700  1
  C  C8  1  0.61486800  0.61384800  0.14601700  1
  C  C9  1  0.38513200  0.11384800  0.35398300  1
  C  C10  1  0.09394500  0.64185600  0.92779700  1
  C  C11  1  0.90605500  0.14185600  0.57220300  1
  C  C12  1  0.90605500  0.35814400  0.07220300  1
  C  C13  1  0.09394500  0.85814400  0.42779700  1
  C  C14  1  0.33924500  0.91380700  0.81774500  1
  C  C15  1  0.66075500  0.41380700  0.68225500  1
  C  C16  1  0.66075500  0.08619300  0.18225500  1
  C  C17  1  0.33924500  0.58619300  0.31774500  1
  C  C18  1  0.93974800  0.89418600  0.20568100  1
  C  C19  1  0.06025200  0.39418600  0.29431900  1
  C  C20  1  0.06025200  0.10581400  0.79431900  1
  C  C21  1  0.93974800  0.60581400  0.70568100  1
  C  C22  1  0.26418400  0.36387500  0.09961300  1
  C  C23  1  0.73581600  0.86387500  0.40038700  1
  C  C24  1  0.73581600  0.63612500  0.90038700  1
  C  C25  1  0.26418400  0.13612500  0.59961300  1
  C  C26  1  0.50000000  0.00000000  0.00000000  1
  C  C27  1  0.50000000  0.50000000  0.50000000  1
  C  C28  1  0.57062900  0.87337200  0.95923200  1
  C  C29  1  0.42937100  0.37337200  0.54076800  1
  C  C30  1  0.42937100  0.12662800  0.04076800  1
  C  C31  1  0.57062900  0.62662800  0.45923200  1
  C  C32  1  0.47819600  0.79969600  0.98271200  1
  C  C33  1  0.52180400  0.29969600  0.51728800  1
  C  C34  1  0.52180400  0.20030400  0.01728800  1
  C  C35  1  0.47819600  0.70030400  0.48271200  1
  C  C36  1  0.18188000  0.63992600  0.79278000  1
  C  C37  1  0.81812000  0.13992600  0.70722000  1
  C  C38  1  0.81812000  0.36007400  0.20722000  1
  C  C39  1  0.18188000  0.86007400  0.29278000  1
  C  C40  1  0.12331900  0.78637600  0.75604400  1
  C  C41  1  0.87668100  0.28637600  0.74395600  1
  C  C42  1  0.87668100  0.21362400  0.24395600  1
  C  C43  1  0.12331900  0.71362400  0.25604400  1
  Ni  Ni44  1  0.22899600  0.14049100  0.96177400  1
  Ni  Ni45  1  0.77100400  0.64049100  0.53822600  1
  Ni  Ni46  1  0.77100400  0.85950900  0.03822600  1
  Ni  Ni47  1  0.22899600  0.35950900  0.46177400  1
  Ni  Ni48  1  0.16544000  0.14510600  0.19007300  1
  Ni  Ni49  1  0.83456000  0.64510600  0.30992700  1
  Ni  Ni50  1  0.83456000  0.85489400  0.80992700  1
  Ni  Ni51  1  0.16544000  0.35489400  0.69007300  1
  Ni  Ni52  1  0.35415000  0.58659700  0.00643100  1
  Ni  Ni53  1  0.64585000  0.08659700  0.49356900  1
  Ni  Ni54  1  0.64585000  0.41340300  0.99356900  1
  Ni  Ni55  1  0.35415000  0.91340300  0.50643100  1
  Ni  Ni56  1  0.10985500  0.60999800  0.12054900  1
  Ni  Ni57  1  0.89014500  0.10999800  0.37945100  1
  Ni  Ni58  1  0.89014500  0.39000200  0.87945100  1
  Ni  Ni59  1  0.10985500  0.89000200  0.62054900  1
  Ni  Ni60  1  0.46030200  0.34749600  0.21895200  1
  Ni  Ni61  1  0.53969800  0.84749600  0.28104800  1
  Ni  Ni62  1  0.53969800  0.65250400  0.78104800  1
  Ni  Ni63  1  0.46030200  0.15250400  0.71895200  1
  Cu  Cu64  1  0.30977200  0.11677700  0.03350500  1
  Cu  Cu65  1  0.69022800  0.61677700  0.46649500  1
  Cu  Cu66  1  0.69022800  0.88322300  0.96649500  1
  Cu  Cu67  1  0.30977200  0.38322300  0.53350500  1
  Cu  Cu68  1  0.18017500  0.29222100  0.97559500  1
  Cu  Cu69  1  0.81982500  0.79222100  0.52440500  1
  Cu  Cu70  1  0.81982500  0.70777900  0.02440500  1
  Cu  Cu71  1  0.18017500  0.20777900  0.47559500  1
  Cu  Cu72  1  0.26945500  0.15917500  0.90004100  1
  Cu  Cu73  1  0.73054500  0.65917500  0.59995900  1
  Cu  Cu74  1  0.73054500  0.84082500  0.09995900  1
  Cu  Cu75  1  0.26945500  0.34082500  0.40004100  1
  Cu  Cu76  1  0.15757100  0.01038700  0.94783700  1
  Cu  Cu77  1  0.84242900  0.51038700  0.55216300  1
  Cu  Cu78  1  0.84242900  0.98961300  0.05216300  1
  Cu  Cu79  1  0.15757100  0.48961300  0.44783700  1
  Cu  Cu80  1  0.17279100  0.12922400  0.11276000  1
  Cu  Cu81  1  0.82720900  0.62922400  0.38724000  1
  Cu  Cu82  1  0.82720900  0.87077600  0.88724000  1
  Cu  Cu83  1  0.17279100  0.37077600  0.61276000  1
  Cu  Cu84  1  0.21601600  0.30009800  0.21532500  1
  Cu  Cu85  1  0.78398400  0.80009800  0.28467500  1
  Cu  Cu86  1  0.78398400  0.69990200  0.78467500  1
  Cu  Cu87  1  0.21601600  0.19990200  0.71532500  1
  Cu  Cu88  1  0.06164300  0.15088400  0.18855200  1
  Cu  Cu89  1  0.93835700  0.65088400  0.31144800  1
  Cu  Cu90  1  0.93835700  0.84911600  0.81144800  1
  Cu  Cu91  1  0.06164300  0.34911600  0.68855200  1
  Cu  Cu92  1  0.21861700  0.01354800  0.23548200  1
  Cu  Cu93  1  0.78138300  0.51354800  0.26451800  1
  Cu  Cu94  1  0.78138300  0.98645200  0.76451800  1
  Cu  Cu95  1  0.21861700  0.48645200  0.73548200  1
  Cu  Cu96  1  0.26907300  0.61346400  0.03774700  1
  Cu  Cu97  1  0.73092700  0.11346400  0.46225300  1
  Cu  Cu98  1  0.73092700  0.38653600  0.96225300  1
  Cu  Cu99  1  0.26907300  0.88653600  0.53774700  1
  Cu  Cu100  1  0.38510800  0.42072600  0.03037600  1
  Cu  Cu101  1  0.61489200  0.92072600  0.46962400  1
  Cu  Cu102  1  0.61489200  0.57927400  0.96962400  1
  Cu  Cu103  1  0.38510800  0.07927400  0.53037600  1
  Cu  Cu104  1  0.43368400  0.70041800  0.04039700  1
  Cu  Cu105  1  0.56631600  0.20041800  0.45960300  1
  Cu  Cu106  1  0.56631600  0.29958200  0.95960300  1
  Cu  Cu107  1  0.43368400  0.79958200  0.54039700  1
  Cu  Cu108  1  0.32042000  0.60496800  0.92693300  1
  Cu  Cu109  1  0.67958000  0.10496800  0.57306700  1
  Cu  Cu110  1  0.67958000  0.39503200  0.07306700  1
  Cu  Cu111  1  0.32042000  0.89503200  0.42693300  1
  Cu  Cu112  1  0.09744300  0.46625500  0.07093100  1
  Cu  Cu113  1  0.90255700  0.96625500  0.42906900  1
  Cu  Cu114  1  0.90255700  0.53374500  0.92906900  1
  Cu  Cu115  1  0.09744300  0.03374500  0.57093100  1
  Cu  Cu116  1  0.21651100  0.60497600  0.16454300  1
  Cu  Cu117  1  0.78348900  0.10497600  0.33545700  1
  Cu  Cu118  1  0.78348900  0.39502400  0.83545700  1
  Cu  Cu119  1  0.21651100  0.89502400  0.66454300  1
  Cu  Cu120  1  0.04687200  0.59458100  0.16944200  1
  Cu  Cu121  1  0.95312800  0.09458100  0.33055800  1
  Cu  Cu122  1  0.95312800  0.40541900  0.83055800  1
  Cu  Cu123  1  0.04687200  0.90541900  0.66944200  1
  Cu  Cu124  1  0.08674900  0.75379000  0.07610700  1
  Cu  Cu125  1  0.91325100  0.25379000  0.42389300  1
  Cu  Cu126  1  0.91325100  0.24621000  0.92389300  1
  Cu  Cu127  1  0.08674900  0.74621000  0.57610700  1
  Cu  Cu128  1  0.39981500  0.49115000  0.18473000  1
  Cu  Cu129  1  0.60018500  0.99115000  0.31527000  1
  Cu  Cu130  1  0.60018500  0.50885000  0.81527000  1
  Cu  Cu131  1  0.39981500  0.00885000  0.68473000  1
  Cu  Cu132  1  0.39880500  0.21299600  0.17632100  1
  Cu  Cu133  1  0.60119500  0.71299600  0.32367900  1
  Cu  Cu134  1  0.60119500  0.78700400  0.82367900  1
  Cu  Cu135  1  0.39880500  0.28700400  0.67632100  1
  Cu  Cu136  1  0.55764000  0.34988900  0.20799500  1
  Cu  Cu137  1  0.44236000  0.84988900  0.29200500  1
  Cu  Cu138  1  0.44236000  0.65011100  0.79200500  1
  Cu  Cu139  1  0.55764000  0.15011100  0.70799500  1
  Cu  Cu140  1  0.46706800  0.34171000  0.29681400  1
  Cu  Cu141  1  0.53293200  0.84171000  0.20318600  1
  Cu  Cu142  1  0.53293200  0.65829000  0.70318600  1
  Cu  Cu143  1  0.46706800  0.15829000  0.79681400  1
  Cu  Cu144  1  0.50039400  0.89182500  0.95811400  1
  Cu  Cu145  1  0.49960600  0.39182500  0.54188600  1
  Cu  Cu146  1  0.49960600  0.10817500  0.04188600  1
  Cu  Cu147  1  0.50039400  0.60817500  0.45811400  1
  Cu  Cu148  1  0.15075400  0.73671700  0.80404900  1
  Cu  Cu149  1  0.84924600  0.23671700  0.69595100  1
  Cu  Cu150  1  0.84924600  0.26328300  0.19595100  1
  Cu  Cu151  1  0.15075400  0.76328300  0.30404900  1
