# generated using pymatgen
data_Cu15NiC12
_symmetry_space_group_name_H-M   'P 1'
_cell_length_a   5.77536628
_cell_length_b   5.77536628
_cell_length_c   29.75666600
_cell_angle_alpha   90.00000000
_cell_angle_beta   90.00000000
_cell_angle_gamma   120.00000325
_symmetry_Int_Tables_number   1
_chemical_formula_structural   Cu15NiC12
_chemical_formula_sum   'Cu30 Ni2 C24'
_cell_volume   859.55556045
_cell_formula_units_Z   2
loop_
 _symmetry_equiv_pos_site_id
 _symmetry_equiv_pos_as_xyz
  1  'x, y, z'
loop_
 _atom_site_type_symbol
 _atom_site_label
 _atom_site_symmetry_multiplicity
 _atom_site_fract_x
 _atom_site_fract_y
 _atom_site_fract_z
 _atom_site_occupancy
  C  C0  1  0.00000000  0.00000000  0.00000000  1
  C  C1  1  0.00000000  0.00000000  0.50000000  1
  C  C2  1  0.00000000  0.00000000  0.85265500  1
  C  C3  1  0.00000000  0.00000000  0.64734500  1
  C  C4  1  0.00000000  0.00000000  0.35265500  1
  C  C5  1  0.00000000  0.00000000  0.14734500  1
  C  C6  1  0.66666700  0.33333300  0.91549200  1
  C  C7  1  0.66666700  0.33333300  0.58450800  1
  C  C8  1  0.33333300  0.66666700  0.41549200  1
  C  C9  1  0.33333300  0.66666700  0.08450800  1
  C  C10  1  0.33333300  0.66666700  0.75000000  1
  C  C11  1  0.66666700  0.33333300  0.25000000  1
  C  C12  1  0.33333300  0.66666700  0.85413200  1
  C  C13  1  0.33333300  0.66666700  0.64586800  1
  C  C14  1  0.66666700  0.33333300  0.35413200  1
  C  C15  1  0.66666700  0.33333300  0.14586800  1
  C  C16  1  0.33333300  0.66666700  0.94396800  1
  C  C17  1  0.33333300  0.66666700  0.55603200  1
  C  C18  1  0.66666700  0.33333300  0.44396800  1
  C  C19  1  0.66666700  0.33333300  0.05603200  1
  C  C20  1  0.66666700  0.33333300  0.80636200  1
  C  C21  1  0.66666700  0.33333300  0.69363800  1
  C  C22  1  0.33333300  0.66666700  0.30636200  1
  C  C23  1  0.33333300  0.66666700  0.19363800  1
  Ni  Ni24  1  0.00000000  0.00000000  0.75000000  1
  Ni  Ni25  1  0.00000000  0.00000000  0.25000000  1
  Cu  Cu26  1  0.51259400  0.02518700  0.82581500  1
  Cu  Cu27  1  0.97481300  0.48740600  0.82581500  1
  Cu  Cu28  1  0.51259400  0.48740600  0.82581500  1
  Cu  Cu29  1  0.51259400  0.02518700  0.67418500  1
  Cu  Cu30  1  0.97481300  0.48740600  0.67418500  1
  Cu  Cu31  1  0.51259400  0.48740600  0.67418500  1
  Cu  Cu32  1  0.02518700  0.51259400  0.32581500  1
  Cu  Cu33  1  0.48740600  0.97481300  0.32581500  1
  Cu  Cu34  1  0.48740600  0.51259400  0.32581500  1
  Cu  Cu35  1  0.02518700  0.51259400  0.17418500  1
  Cu  Cu36  1  0.48740600  0.97481300  0.17418500  1
  Cu  Cu37  1  0.48740600  0.51259400  0.17418500  1
  Cu  Cu38  1  0.64179900  0.82090000  0.92390300  1
  Cu  Cu39  1  0.17910000  0.82090000  0.92390300  1
  Cu  Cu40  1  0.17910000  0.35820100  0.92390300  1
  Cu  Cu41  1  0.64179900  0.82090000  0.57609700  1
  Cu  Cu42  1  0.17910000  0.82090000  0.57609700  1
  Cu  Cu43  1  0.17910000  0.35820100  0.57609700  1
  Cu  Cu44  1  0.82090000  0.64179900  0.42390300  1
  Cu  Cu45  1  0.82090000  0.17910000  0.42390300  1
  Cu  Cu46  1  0.35820100  0.17910000  0.42390300  1
  Cu  Cu47  1  0.82090000  0.64179900  0.07609700  1
  Cu  Cu48  1  0.82090000  0.17910000  0.07609700  1
  Cu  Cu49  1  0.35820100  0.17910000  0.07609700  1
  Cu  Cu50  1  0.66666700  0.33333300  0.75000000  1
  Cu  Cu51  1  0.33333300  0.66666700  0.25000000  1
  Cu  Cu52  1  0.33333300  0.66666700  0.99890600  1
  Cu  Cu53  1  0.33333300  0.66666700  0.50109400  1
  Cu  Cu54  1  0.66666700  0.33333300  0.49890600  1
  Cu  Cu55  1  0.66666700  0.33333300  0.00109400  1
