# generated using pymatgen
data_Cu12Ni2C9
_symmetry_space_group_name_H-M   'P 1'
_cell_length_a   7.30602300
_cell_length_b   7.51083529
_cell_length_c   10.34683531
_cell_angle_alpha   86.71089168
_cell_angle_beta   86.10032753
_cell_angle_gamma   71.98653020
_symmetry_Int_Tables_number   1
_chemical_formula_structural   Cu12Ni2C9
_chemical_formula_sum   'Cu24 Ni4 C18'
_cell_volume   538.30002571
_cell_formula_units_Z   2
loop_
 _symmetry_equiv_pos_site_id
 _symmetry_equiv_pos_as_xyz
  1  'x, y, z'
loop_
 _atom_site_type_symbol
 _atom_site_label
 _atom_site_symmetry_multiplicity
 _atom_site_fract_x
 _atom_site_fract_y
 _atom_site_fract_z
 _atom_site_occupancy
  C  C0  1  0.46236400  0.07153300  0.27776400  1
  C  C1  1  0.53763600  0.92846700  0.72223600  1
  C  C2  1  0.71461800  0.17324000  0.03846300  1
  C  C3  1  0.28538200  0.82676000  0.96153700  1
  C  C4  1  0.72806000  0.96205600  0.01645000  1
  C  C5  1  0.27194000  0.03794400  0.98355000  1
  C  C6  1  0.34836400  0.78223600  0.47545700  1
  C  C7  1  0.65163600  0.21776400  0.52454300  1
  C  C8  1  0.57500700  0.72355600  0.46803300  1
  C  C9  1  0.42499300  0.27644400  0.53196700  1
  C  C10  1  0.07028600  0.30009200  0.43383000  1
  C  C11  1  0.92971400  0.69990800  0.56617000  1
  C  C12  1  0.16146000  0.45339900  0.37683200  1
  C  C13  1  0.83854000  0.54660100  0.62316800  1
  C  C14  1  0.25048700  0.34060200  0.03402700  1
  C  C15  1  0.74951300  0.65939800  0.96597300  1
  C  C16  1  0.08685100  0.29217100  0.11845600  1
  C  C17  1  0.91314900  0.70782900  0.88154400  1
  Ni  Ni18  1  0.02916000  0.84567600  0.29729400  1
  Ni  Ni19  1  0.97084000  0.15432400  0.70270600  1
  Ni  Ni20  1  0.64234100  0.51493500  0.22023400  1
  Ni  Ni21  1  0.35765900  0.48506500  0.77976600  1
  Cu  Cu22  1  0.66592100  0.07107800  0.07032800  1
  Cu  Cu23  1  0.33407900  0.92892200  0.92967200  1
  Cu  Cu24  1  0.22286700  0.24104000  0.08975800  1
  Cu  Cu25  1  0.77713300  0.75896000  0.91024200  1
  Cu  Cu26  1  0.45807500  0.83034700  0.48114900  1
  Cu  Cu27  1  0.54192500  0.16965300  0.51885100  1
  Cu  Cu28  1  0.18804500  0.31801300  0.39270100  1
  Cu  Cu29  1  0.81195500  0.68198700  0.60729900  1
  Cu  Cu30  1  0.12464600  0.71775200  0.40480200  1
  Cu  Cu31  1  0.87535400  0.28224800  0.59519800  1
  Cu  Cu32  1  0.78463100  0.43737800  0.11463200  1
  Cu  Cu33  1  0.21536900  0.56262200  0.88536800  1
  Cu  Cu34  1  0.54682500  0.71298900  0.18898400  1
  Cu  Cu35  1  0.45317500  0.28701100  0.81101600  1
  Cu  Cu36  1  0.49762300  0.41603800  0.23054400  1
  Cu  Cu37  1  0.50237700  0.58396200  0.76945600  1
  Cu  Cu38  1  0.82952100  0.93733600  0.34196300  1
  Cu  Cu39  1  0.17047900  0.06266400  0.65803700  1
  Cu  Cu40  1  0.12608400  0.98869300  0.27192900  1
  Cu  Cu41  1  0.87391600  0.01130700  0.72807100  1
  Cu  Cu42  1  0.03910700  0.74105400  0.18345800  1
  Cu  Cu43  1  0.96089300  0.25894600  0.81654200  1
  Cu  Cu44  1  0.73578900  0.49402000  0.34264700  1
  Cu  Cu45  1  0.26421100  0.50598000  0.65735300  1
