# generated using pymatgen
data_Cu13(NiC)6
_symmetry_space_group_name_H-M   'P 1'
_cell_length_a   9.39368400
_cell_length_b   12.67784700
_cell_length_c   27.45461100
_cell_angle_alpha   90.00000000
_cell_angle_beta   90.00000000
_cell_angle_gamma   90.00000000
_symmetry_Int_Tables_number   1
_chemical_formula_structural   Cu13(NiC)6
_chemical_formula_sum   'Cu52 Ni24 C24'
_cell_volume   3269.61598160
_cell_formula_units_Z   4
loop_
 _symmetry_equiv_pos_site_id
 _symmetry_equiv_pos_as_xyz
  1  'x, y, z'
loop_
 _atom_site_type_symbol
 _atom_site_label
 _atom_site_symmetry_multiplicity
 _atom_site_fract_x
 _atom_site_fract_y
 _atom_site_fract_z
 _atom_site_occupancy
  C  C0  1  0.50758400  0.40354800  0.29370800  1
  C  C1  1  0.99241600  0.59645200  0.79370800  1
  C  C2  1  0.00758400  0.09645200  0.70629200  1
  C  C3  1  0.49241600  0.90354800  0.20629200  1
  C  C4  1  0.00161900  0.41581300  0.29391400  1
  C  C5  1  0.49838100  0.58418700  0.79391400  1
  C  C6  1  0.50161900  0.08418700  0.70608600  1
  C  C7  1  0.99838100  0.91581300  0.20608600  1
  C  C8  1  0.49054600  0.92104900  0.37285400  1
  C  C9  1  0.00945400  0.07895100  0.87285400  1
  C  C10  1  0.99054600  0.57895100  0.62714600  1
  C  C11  1  0.50945400  0.42104900  0.12714600  1
  C  C12  1  0.99933700  0.90645800  0.37210100  1
  C  C13  1  0.50066300  0.09354200  0.87210100  1
  C  C14  1  0.49933700  0.59354200  0.62789900  1
  C  C15  1  0.00066300  0.40645800  0.12789900  1
  C  C16  1  0.00216900  0.43325100  0.46426500  1
  C  C17  1  0.49783100  0.56674900  0.96426500  1
  C  C18  1  0.50216900  0.06674900  0.53573500  1
  C  C19  1  0.99783100  0.93325100  0.03573500  1
  C  C20  1  0.50145500  0.42962600  0.46303300  1
  C  C21  1  0.99854500  0.57037400  0.96303300  1
  C  C22  1  0.00145500  0.07037400  0.53696700  1
  C  C23  1  0.49854500  0.92962600  0.03696700  1
  Ni  Ni24  1  0.24554200  0.16674100  0.27992100  1
  Ni  Ni25  1  0.25445800  0.83325900  0.77992100  1
  Ni  Ni26  1  0.74554200  0.33325900  0.72007900  1
  Ni  Ni27  1  0.75445800  0.66674100  0.22007900  1
  Ni  Ni28  1  0.25423100  0.65723300  0.36722300  1
  Ni  Ni29  1  0.24576900  0.34276700  0.86722300  1
  Ni  Ni30  1  0.75423100  0.84276700  0.63277700  1
  Ni  Ni31  1  0.74576900  0.15723300  0.13277700  1
  Ni  Ni32  1  0.77404500  0.16858800  0.28417700  1
  Ni  Ni33  1  0.72595500  0.83141200  0.78417700  1
  Ni  Ni34  1  0.27404500  0.33141200  0.71582300  1
  Ni  Ni35  1  0.22595500  0.66858800  0.21582300  1
  Ni  Ni36  1  0.72453300  0.67437900  0.36624800  1
  Ni  Ni37  1  0.77546700  0.32562100  0.86624800  1
  Ni  Ni38  1  0.22453300  0.82562100  0.63375200  1
  Ni  Ni39  1  0.27546700  0.17437900  0.13375200  1
  Ni  Ni40  1  0.24121700  0.77136900  0.49731700  1
  Ni  Ni41  1  0.25878300  0.22863100  0.99731700  1
  Ni  Ni42  1  0.74121700  0.72863100  0.50268300  1
  Ni  Ni43  1  0.75878300  0.27136900  0.00268300  1
  Ni  Ni44  1  0.74325900  0.16083500  0.41990900  1
  Ni  Ni45  1  0.75674100  0.83916500  0.91990900  1
  Ni  Ni46  1  0.24325900  0.33916500  0.58009100  1
  Ni  Ni47  1  0.25674100  0.66083500  0.08009100  1
  Cu  Cu48  1  0.01173800  0.18423800  0.21698100  1
  Cu  Cu49  1  0.48826200  0.81576200  0.71698100  1
  Cu  Cu50  1  0.51173800  0.31576200  0.78301900  1
  Cu  Cu51  1  0.98826200  0.68423800  0.28301900  1
  Cu  Cu52  1  0.25198800  0.46117900  0.21094600  1
  Cu  Cu53  1  0.24801200  0.53882100  0.71094600  1
  Cu  Cu54  1  0.75198800  0.03882100  0.78905400  1
  Cu  Cu55  1  0.74801200  0.96117900  0.28905400  1
  Cu  Cu56  1  0.75403200  0.45801200  0.21111700  1
  Cu  Cu57  1  0.74596800  0.54198800  0.71111700  1
  Cu  Cu58  1  0.25403200  0.04198800  0.78888300  1
  Cu  Cu59  1  0.24596800  0.95801200  0.28888300  1
  Cu  Cu60  1  0.48494800  0.68858000  0.43379000  1
  Cu  Cu61  1  0.01505200  0.31142000  0.93379000  1
  Cu  Cu62  1  0.98494800  0.81142000  0.56621000  1
  Cu  Cu63  1  0.51505200  0.18858000  0.06621000  1
  Cu  Cu64  1  0.25336500  0.44897800  0.37529900  1
  Cu  Cu65  1  0.24663500  0.55102200  0.87529900  1
  Cu  Cu66  1  0.75336500  0.05102200  0.62470100  1
  Cu  Cu67  1  0.74663500  0.94897800  0.12470100  1
  Cu  Cu68  1  0.75147500  0.46767500  0.37682700  1
  Cu  Cu69  1  0.74852500  0.53232500  0.87682700  1
  Cu  Cu70  1  0.25147500  0.03232500  0.62317300  1
  Cu  Cu71  1  0.24852500  0.96767500  0.12317300  1
  Cu  Cu72  1  0.51085400  0.19291600  0.37408200  1
  Cu  Cu73  1  0.98914600  0.80708400  0.87408200  1
  Cu  Cu74  1  0.01085400  0.30708400  0.62591800  1
  Cu  Cu75  1  0.48914600  0.69291600  0.12591800  1
  Cu  Cu76  1  0.53531300  0.68009800  0.28761800  1
  Cu  Cu77  1  0.96468700  0.31990200  0.78761800  1
  Cu  Cu78  1  0.03531300  0.81990200  0.71238200  1
  Cu  Cu79  1  0.46468700  0.18009800  0.21238200  1
  Cu  Cu80  1  0.75008400  0.96784100  0.45308900  1
  Cu  Cu81  1  0.74991600  0.03215900  0.95308900  1
  Cu  Cu82  1  0.25008400  0.53215900  0.54691100  1
  Cu  Cu83  1  0.24991600  0.46784100  0.04691100  1
  Cu  Cu84  1  0.04073700  0.68622900  0.43497100  1
  Cu  Cu85  1  0.45926300  0.31377100  0.93497100  1
  Cu  Cu86  1  0.54073700  0.81377100  0.56502900  1
  Cu  Cu87  1  0.95926300  0.18622900  0.06502900  1
  Cu  Cu88  1  0.96804800  0.18685400  0.36589600  1
  Cu  Cu89  1  0.53195200  0.81314600  0.86589600  1
  Cu  Cu90  1  0.46804800  0.31314600  0.63410400  1
  Cu  Cu91  1  0.03195200  0.68685400  0.13410400  1
  Cu  Cu92  1  0.24555400  0.96621100  0.45750100  1
  Cu  Cu93  1  0.25444600  0.03378900  0.95750100  1
  Cu  Cu94  1  0.74555400  0.53378900  0.54249900  1
  Cu  Cu95  1  0.75444600  0.46621100  0.04249900  1
  Cu  Cu96  1  0.75422600  0.25913200  0.50121700  1
  Cu  Cu97  1  0.74577400  0.74086800  0.00121700  1
  Cu  Cu98  1  0.25422600  0.24086800  0.49878300  1
  Cu  Cu99  1  0.24577400  0.75913200  0.99878300  1
