# generated using pymatgen
data_CuNi3C7
_symmetry_space_group_name_H-M   'P 1'
_cell_length_a   6.88334672
_cell_length_b   6.88334672
_cell_length_c   6.88334698
_cell_angle_alpha   91.94852878
_cell_angle_beta   91.94852878
_cell_angle_gamma   91.94852852
_symmetry_Int_Tables_number   1
_chemical_formula_structural   CuNi3C7
_chemical_formula_sum   'Cu2 Ni6 C14'
_cell_volume   325.55725025
_cell_formula_units_Z   2
loop_
 _symmetry_equiv_pos_site_id
 _symmetry_equiv_pos_as_xyz
  1  'x, y, z'
loop_
 _atom_site_type_symbol
 _atom_site_label
 _atom_site_symmetry_multiplicity
 _atom_site_fract_x
 _atom_site_fract_y
 _atom_site_fract_z
 _atom_site_occupancy
  Ni  Ni0  1  0.38109900  0.11890100  0.75000000  1
  Ni  Ni1  1  0.11890100  0.75000000  0.38109900  1
  Ni  Ni2  1  0.75000000  0.38109900  0.11890100  1
  Ni  Ni3  1  0.61890100  0.88109900  0.25000000  1
  Ni  Ni4  1  0.25000000  0.61890100  0.88109900  1
  Ni  Ni5  1  0.88109900  0.25000000  0.61890100  1
  Cu  Cu6  1  0.25000000  0.25000000  0.25000000  1
  Cu  Cu7  1  0.75000000  0.75000000  0.75000000  1
  C  C8  1  0.00000000  0.00000000  0.00000000  1
  C  C9  1  0.50000000  0.50000000  0.50000000  1
  C  C10  1  0.08779200  0.29176300  0.95368600  1
  C  C11  1  0.95368600  0.08779200  0.29176300  1
  C  C12  1  0.29176300  0.95368600  0.08779200  1
  C  C13  1  0.41220800  0.54631400  0.20823700  1
  C  C14  1  0.20823700  0.41220800  0.54631400  1
  C  C15  1  0.54631400  0.20823700  0.41220800  1
  C  C16  1  0.91220800  0.70823700  0.04631400  1
  C  C17  1  0.04631400  0.91220800  0.70823700  1
  C  C18  1  0.70823700  0.04631400  0.91220800  1
  C  C19  1  0.58779200  0.45368600  0.79176300  1
  C  C20  1  0.45368600  0.79176300  0.58779200  1
  C  C21  1  0.79176300  0.58779200  0.45368600  1
