# generated using pymatgen
data_Cu3NiC
_symmetry_space_group_name_H-M   'P 1'
_cell_length_a   4.04602300
_cell_length_b   10.92831000
_cell_length_c   11.04244500
_cell_angle_alpha   90.00000000
_cell_angle_beta   90.00000000
_cell_angle_gamma   90.00000000
_symmetry_Int_Tables_number   1
_chemical_formula_structural   Cu3NiC
_chemical_formula_sum   'Cu12 Ni4 C4'
_cell_volume   488.25488606
_cell_formula_units_Z   4
loop_
 _symmetry_equiv_pos_site_id
 _symmetry_equiv_pos_as_xyz
  1  'x, y, z'
loop_
 _atom_site_type_symbol
 _atom_site_label
 _atom_site_symmetry_multiplicity
 _atom_site_fract_x
 _atom_site_fract_y
 _atom_site_fract_z
 _atom_site_occupancy
  C  C0  1  0.25000000  0.17311600  0.49156200  1
  C  C1  1  0.25000000  0.32688400  0.99156200  1
  C  C2  1  0.75000000  0.82688400  0.50843800  1
  C  C3  1  0.75000000  0.67311600  0.00843800  1
  Ni  Ni4  1  0.75000000  0.46932400  0.67474900  1
  Ni  Ni5  1  0.75000000  0.03067600  0.17474900  1
  Ni  Ni6  1  0.25000000  0.53067600  0.32525100  1
  Ni  Ni7  1  0.25000000  0.96932400  0.82525100  1
  Cu  Cu8  1  0.25000000  0.63518400  0.54431100  1
  Cu  Cu9  1  0.25000000  0.86481600  0.04431100  1
  Cu  Cu10  1  0.75000000  0.36481600  0.45568900  1
  Cu  Cu11  1  0.75000000  0.13518400  0.95568900  1
  Cu  Cu12  1  0.75000000  0.06033200  0.61552500  1
  Cu  Cu13  1  0.75000000  0.43966800  0.11552500  1
  Cu  Cu14  1  0.25000000  0.93966800  0.38447500  1
  Cu  Cu15  1  0.25000000  0.56033200  0.88447500  1
  Cu  Cu16  1  0.25000000  0.30620400  0.72616800  1
  Cu  Cu17  1  0.25000000  0.19379600  0.22616800  1
  Cu  Cu18  1  0.75000000  0.69379600  0.27383200  1
  Cu  Cu19  1  0.75000000  0.80620400  0.77383200  1
