# generated using pymatgen
data_CuNi5C6
_symmetry_space_group_name_H-M   'P 1'
_cell_length_a   9.28628800
_cell_length_b   9.32296000
_cell_length_c   18.32274400
_cell_angle_alpha   90.00000000
_cell_angle_beta   90.00000000
_cell_angle_gamma   90.00000000
_symmetry_Int_Tables_number   1
_chemical_formula_structural   CuNi5C6
_chemical_formula_sum   'Cu4 Ni20 C24'
_cell_volume   1586.30423331
_cell_formula_units_Z   4
loop_
 _symmetry_equiv_pos_site_id
 _symmetry_equiv_pos_as_xyz
  1  'x, y, z'
loop_
 _atom_site_type_symbol
 _atom_site_label
 _atom_site_symmetry_multiplicity
 _atom_site_fract_x
 _atom_site_fract_y
 _atom_site_fract_z
 _atom_site_occupancy
  C  C0  1  0.68225800  0.75000000  0.69951800  1
  C  C1  1  0.31774200  0.25000000  0.30048200  1
  C  C2  1  0.18225800  0.25000000  0.80048200  1
  C  C3  1  0.81774200  0.75000000  0.19951800  1
  C  C4  1  0.05256300  0.75000000  0.70636800  1
  C  C5  1  0.94743700  0.25000000  0.29363200  1
  C  C6  1  0.55256300  0.25000000  0.79363200  1
  C  C7  1  0.44743700  0.75000000  0.20636800  1
  C  C8  1  0.18491000  0.75000000  0.56628600  1
  C  C9  1  0.81509000  0.25000000  0.43371400  1
  C  C10  1  0.68491000  0.25000000  0.93371400  1
  C  C11  1  0.31509000  0.75000000  0.06628600  1
  C  C12  1  0.58306400  0.52036900  0.80295700  1
  C  C13  1  0.41693600  0.47963100  0.19704300  1
  C  C14  1  0.08306400  0.47963100  0.69704300  1
  C  C15  1  0.41693600  0.02036900  0.19704300  1
  C  C16  1  0.91693600  0.52036900  0.30295700  1
  C  C17  1  0.58306400  0.97963100  0.80295700  1
  C  C18  1  0.91693600  0.97963100  0.30295700  1
  C  C19  1  0.08306400  0.02036900  0.69704300  1
  C  C20  1  0.25791300  0.75000000  0.78816700  1
  C  C21  1  0.74208700  0.25000000  0.21183300  1
  C  C22  1  0.75791300  0.25000000  0.71183300  1
  C  C23  1  0.24208700  0.75000000  0.28816700  1
  Ni  Ni24  1  0.58737700  0.59166800  0.70594300  1
  Ni  Ni25  1  0.41262300  0.40833200  0.29405700  1
  Ni  Ni26  1  0.08737700  0.40833200  0.79405700  1
  Ni  Ni27  1  0.41262300  0.09166800  0.29405700  1
  Ni  Ni28  1  0.91262300  0.59166800  0.20594300  1
  Ni  Ni29  1  0.58737700  0.90833200  0.70594300  1
  Ni  Ni30  1  0.91262300  0.90833200  0.20594300  1
  Ni  Ni31  1  0.08737700  0.09166800  0.79405700  1
  Ni  Ni32  1  0.75532500  0.69024800  0.50284800  1
  Ni  Ni33  1  0.24467500  0.30975200  0.49715200  1
  Ni  Ni34  1  0.25532500  0.30975200  0.99715200  1
  Ni  Ni35  1  0.24467500  0.19024800  0.49715200  1
  Ni  Ni36  1  0.74467500  0.69024800  0.00284800  1
  Ni  Ni37  1  0.75532500  0.80975200  0.50284800  1
  Ni  Ni38  1  0.74467500  0.80975200  0.00284800  1
  Ni  Ni39  1  0.25532500  0.19024800  0.99715200  1
  Ni  Ni40  1  0.85628000  0.75000000  0.68653700  1
  Ni  Ni41  1  0.14372000  0.25000000  0.31346300  1
  Ni  Ni42  1  0.35628000  0.25000000  0.81346300  1
  Ni  Ni43  1  0.64372000  0.75000000  0.18653700  1
  Cu  Cu44  1  0.15459600  0.75000000  0.97444700  1
  Cu  Cu45  1  0.84540400  0.25000000  0.02555300  1
  Cu  Cu46  1  0.65459600  0.25000000  0.52555300  1
  Cu  Cu47  1  0.34540400  0.75000000  0.47444700  1
