# generated using pymatgen
data_Cu3Ni2C15
_symmetry_space_group_name_H-M   'P 1'
_cell_length_a   9.05353741
_cell_length_b   9.05353741
_cell_length_c   6.70580566
_cell_angle_alpha   73.28573592
_cell_angle_beta   73.28573592
_cell_angle_gamma   91.58217302
_symmetry_Int_Tables_number   1
_chemical_formula_structural   Cu3Ni2C15
_chemical_formula_sum   'Cu6 Ni4 C30'
_cell_volume   500.52834925
_cell_formula_units_Z   2
loop_
 _symmetry_equiv_pos_site_id
 _symmetry_equiv_pos_as_xyz
  1  'x, y, z'
loop_
 _atom_site_type_symbol
 _atom_site_label
 _atom_site_symmetry_multiplicity
 _atom_site_fract_x
 _atom_site_fract_y
 _atom_site_fract_z
 _atom_site_occupancy
  C  C0  1  0.72475300  0.27524700  0.25000000  1
  C  C1  1  0.01678000  0.98322000  0.25000000  1
  C  C2  1  0.50000000  0.50000000  0.50000000  1
  C  C3  1  0.98322000  0.01678000  0.75000000  1
  C  C4  1  0.27524700  0.72475300  0.75000000  1
  C  C5  1  0.50000000  0.50000000  0.00000000  1
  Ni  Ni6  1  0.61614000  0.92891800  0.15420300  1
  Ni  Ni7  1  0.38386000  0.07108200  0.84579700  1
  Ni  Ni8  1  0.92891800  0.61614000  0.65420300  1
  Ni  Ni9  1  0.07108200  0.38386000  0.34579700  1
  Cu  Cu10  1  0.34112000  0.13791400  0.36664600  1
  Cu  Cu11  1  0.13791400  0.34112000  0.86664600  1
  Cu  Cu12  1  0.27453400  0.72546600  0.25000000  1
  Cu  Cu13  1  0.72546600  0.27453400  0.75000000  1
  Cu  Cu14  1  0.86208600  0.65888000  0.13335400  1
  Cu  Cu15  1  0.65888000  0.86208600  0.63335400  1
  C  C16  1  0.26005300  0.56238500  0.21837000  1
  C  C17  1  0.43761500  0.73994700  0.28163000  1
  C  C18  1  0.73994700  0.43761500  0.78163000  1
  C  C19  1  0.56238500  0.26005300  0.71837000  1
  C  C20  1  0.15343700  0.74491700  0.45569200  1
  C  C21  1  0.25508300  0.84656300  0.04430800  1
  C  C22  1  0.84656300  0.25508300  0.54430800  1
  C  C23  1  0.74491700  0.15343700  0.95569200  1
  C  C24  1  0.66618900  0.98986200  0.41577300  1
  C  C25  1  0.01013800  0.33381100  0.08422700  1
  C  C26  1  0.33381100  0.01013800  0.58422700  1
  C  C27  1  0.98986200  0.66618900  0.91577300  1
  C  C28  1  0.83241800  0.83585000  0.62018300  1
  C  C29  1  0.16415000  0.16758200  0.87981700  1
  C  C30  1  0.16758200  0.16415000  0.37981700  1
  C  C31  1  0.83585000  0.83241800  0.12018300  1
  C  C32  1  0.71308800  0.55806500  0.17235600  1
  C  C33  1  0.44193500  0.28691200  0.32764400  1
  C  C34  1  0.28691200  0.44193500  0.82764400  1
  C  C35  1  0.55806500  0.71308800  0.67235600  1
  C  C36  1  0.93515400  0.59372100  0.32445700  1
  C  C37  1  0.40627900  0.06484600  0.17554300  1
  C  C38  1  0.06484600  0.40627900  0.67554300  1
  C  C39  1  0.59372100  0.93515400  0.82445700  1
