# generated using pymatgen
data_CuNi3C8
_symmetry_space_group_name_H-M   'P 1'
_cell_length_a   3.27623188
_cell_length_b   3.27623188
_cell_length_c   38.06898700
_cell_angle_alpha   90.00000000
_cell_angle_beta   90.00000000
_cell_angle_gamma   119.99999754
_symmetry_Int_Tables_number   1
_chemical_formula_structural   CuNi3C8
_chemical_formula_sum   'Cu1 Ni3 C8'
_cell_volume   353.87609525
_cell_formula_units_Z   1
loop_
 _symmetry_equiv_pos_site_id
 _symmetry_equiv_pos_as_xyz
  1  'x, y, z'
loop_
 _atom_site_type_symbol
 _atom_site_label
 _atom_site_symmetry_multiplicity
 _atom_site_fract_x
 _atom_site_fract_y
 _atom_site_fract_z
 _atom_site_occupancy
  C  C0  1  0.66666700  0.33333300  0.41886900  1
  C  C1  1  0.66666700  0.33333300  0.52060000  1
  Ni  Ni2  1  0.33333300  0.66666700  0.09384300  1
  Ni  Ni3  1  0.66666700  0.33333300  0.28136900  1
  Ni  Ni4  1  0.66666700  0.33333300  0.65799900  1
  Cu  Cu5  1  0.33333300  0.66666700  0.46973600  1
  C  C6  1  0.33333300  0.66666700  0.32172300  1
  C  C7  1  0.33333300  0.66666700  0.69841600  1
  C  C8  1  0.66666700  0.33333300  0.05339800  1
  C  C9  1  0.66666700  0.33333300  0.13425400  1
  C  C10  1  0.33333300  0.66666700  0.24098300  1
  C  C11  1  0.33333300  0.66666700  0.61755700  1
