# generated using pymatgen
data_CuNiC3
_symmetry_space_group_name_H-M   'P 1'
_cell_length_a   5.51732349
_cell_length_b   5.51732349
_cell_length_c   5.51732338
_cell_angle_alpha   55.54717601
_cell_angle_beta   55.54717601
_cell_angle_gamma   55.54717864
_symmetry_Int_Tables_number   1
_chemical_formula_structural   CuNiC3
_chemical_formula_sum   'Cu2 Ni2 C6'
_cell_volume   106.48434782
_cell_formula_units_Z   2
loop_
 _symmetry_equiv_pos_site_id
 _symmetry_equiv_pos_as_xyz
  1  'x, y, z'
loop_
 _atom_site_type_symbol
 _atom_site_label
 _atom_site_symmetry_multiplicity
 _atom_site_fract_x
 _atom_site_fract_y
 _atom_site_fract_z
 _atom_site_occupancy
  Ni  Ni0  1  0.49898600  0.49898600  0.49898600  1
  Ni  Ni1  1  0.99898600  0.99898600  0.99898600  1
  Cu  Cu2  1  0.22030300  0.22030300  0.22030300  1
  Cu  Cu3  1  0.72030300  0.72030300  0.72030300  1
  C  C4  1  0.77861800  0.13769600  0.39392800  1
  C  C5  1  0.13769600  0.39392800  0.77861800  1
  C  C6  1  0.39392800  0.77861800  0.13769600  1
  C  C7  1  0.89392800  0.63769600  0.27861800  1
  C  C8  1  0.63769600  0.27861800  0.89392800  1
  C  C9  1  0.27861800  0.89392800  0.63769600  1
