# generated using pymatgen
data_Cu2Ni4C39
_symmetry_space_group_name_H-M   'P 1'
_cell_length_a   5.62754300
_cell_length_b   6.21215961
_cell_length_c   12.53102599
_cell_angle_alpha   92.23176455
_cell_angle_beta   92.57213637
_cell_angle_gamma   94.05933776
_symmetry_Int_Tables_number   1
_chemical_formula_structural   Cu2Ni4C39
_chemical_formula_sum   'Cu2 Ni4 C39'
_cell_volume   436.14521626
_cell_formula_units_Z   1
loop_
 _symmetry_equiv_pos_site_id
 _symmetry_equiv_pos_as_xyz
  1  'x, y, z'
loop_
 _atom_site_type_symbol
 _atom_site_label
 _atom_site_symmetry_multiplicity
 _atom_site_fract_x
 _atom_site_fract_y
 _atom_site_fract_z
 _atom_site_occupancy
  C  C0  1  0.48222200  0.90765800  0.68631900  1
  C  C1  1  0.51777800  0.09234200  0.31368100  1
  C  C2  1  0.88779400  0.90353000  0.88359100  1
  C  C3  1  0.11220600  0.09647000  0.11640900  1
  C  C4  1  0.50000000  0.50000000  0.50000000  1
  Ni  Ni5  1  0.63791300  0.39598700  0.75059800  1
  Ni  Ni6  1  0.36208700  0.60401300  0.24940200  1
  Ni  Ni7  1  0.98950500  0.69843700  0.63537800  1
  Ni  Ni8  1  0.01049500  0.30156300  0.36462200  1
  C  C9  1  0.00005600  0.11053600  0.67643300  1
  C  C10  1  0.99994400  0.88946400  0.32356700  1
  C  C11  1  0.19041100  0.28502800  0.62187900  1
  C  C12  1  0.80958900  0.71497200  0.37812100  1
  C  C13  1  0.90941900  0.25203500  0.56641400  1
  C  C14  1  0.09058100  0.74796500  0.43358600  1
  C  C15  1  0.35146800  0.64686700  0.90099500  1
  C  C16  1  0.64853200  0.35313300  0.09900500  1
  C  C17  1  0.28032300  0.68834200  0.02114800  1
  C  C18  1  0.71967700  0.31165800  0.97885200  1
  C  C19  1  0.19156100  0.33563600  0.94829000  1
  C  C20  1  0.80843900  0.66436400  0.05171000  1
  C  C21  1  0.35112600  0.16436100  0.90088300  1
  C  C22  1  0.64887400  0.83563900  0.09911700  1
  C  C23  1  0.07170400  0.46095400  0.77799600  1
  C  C24  1  0.92829600  0.53904600  0.22200400  1
  Cu  Cu25  1  0.94675500  0.44560400  0.70779000  1
  Cu  Cu26  1  0.05324500  0.55439600  0.29221000  1
  C  C27  1  0.01089300  0.26091200  0.63881000  1
  C  C28  1  0.98910700  0.73908800  0.36119000  1
  C  C29  1  0.50098700  0.32130800  0.64253800  1
  C  C30  1  0.49901300  0.67869200  0.35746200  1
  C  C31  1  0.56661200  0.60831600  0.80155900  1
  C  C32  1  0.43338800  0.39168400  0.19844100  1
  C  C33  1  0.63148900  0.20421700  0.82602100  1
  C  C34  1  0.36851100  0.79578300  0.17397900  1
  C  C35  1  0.75329300  0.73334000  0.57260100  1
  C  C36  1  0.24670700  0.26666000  0.42739900  1
  C  C37  1  0.04929900  0.87754800  0.72271300  1
  C  C38  1  0.95070100  0.12245200  0.27728700  1
  C  C39  1  0.20228200  0.68089800  0.56275700  1
  C  C40  1  0.79771800  0.31910200  0.43724300  1
  C  C41  1  0.21496000  0.64177600  0.94885900  1
  C  C42  1  0.78504000  0.35822400  0.05114100  1
  C  C43  1  0.20716800  0.17762400  0.94257300  1
  C  C44  1  0.79283200  0.82237600  0.05742700  1
