# generated using pymatgen
data_Cu6NiC6
_symmetry_space_group_name_H-M   'P 1'
_cell_length_a   8.10778100
_cell_length_b   10.82845600
_cell_length_c   13.04836700
_cell_angle_alpha   90.00000000
_cell_angle_beta   90.00000000
_cell_angle_gamma   90.00000000
_symmetry_Int_Tables_number   1
_chemical_formula_structural   Cu6NiC6
_chemical_formula_sum   'Cu48 Ni8 C48'
_cell_volume   1145.57811627
_cell_formula_units_Z   8
loop_
 _symmetry_equiv_pos_site_id
 _symmetry_equiv_pos_as_xyz
  1  'x, y, z'
loop_
 _atom_site_type_symbol
 _atom_site_label
 _atom_site_symmetry_multiplicity
 _atom_site_fract_x
 _atom_site_fract_y
 _atom_site_fract_z
 _atom_site_occupancy
  C  C0  1  0.72048900  0.32096000  0.62054800  1
  C  C1  1  0.27951100  0.67904000  0.62054800  1
  C  C2  1  0.22048900  0.67904000  0.12054800  1
  C  C3  1  0.77951100  0.32096000  0.12054800  1
  C  C4  1  0.75626500  0.81430600  0.87957400  1
  C  C5  1  0.24373500  0.18569400  0.87957400  1
  C  C6  1  0.25626500  0.18569400  0.37957400  1
  C  C7  1  0.74373500  0.81430600  0.37957400  1
  C  C8  1  0.24483500  0.32201700  0.59801600  1
  C  C9  1  0.75516500  0.67798300  0.59801600  1
  C  C10  1  0.74483500  0.67798300  0.09801600  1
  C  C11  1  0.25516500  0.32201700  0.09801600  1
  C  C12  1  0.25403600  0.83171900  0.88795600  1
  C  C13  1  0.74596400  0.16828100  0.88795600  1
  C  C14  1  0.75403600  0.16828100  0.38795600  1
  C  C15  1  0.24596400  0.83171900  0.38795600  1
  C  C16  1  0.40249700  0.64240300  0.98383700  1
  C  C17  1  0.59750300  0.35759700  0.98383700  1
  C  C18  1  0.90249700  0.35759700  0.48383700  1
  C  C19  1  0.09750300  0.64240300  0.48383700  1
  C  C20  1  0.56892800  0.55455300  0.83373300  1
  C  C21  1  0.43107200  0.44544700  0.83373300  1
  C  C22  1  0.06892800  0.44544700  0.33373300  1
  C  C23  1  0.93107200  0.55455300  0.33373300  1
  C  C24  1  0.40877500  0.53726200  0.36994700  1
  C  C25  1  0.59122500  0.46273800  0.36994700  1
  C  C26  1  0.90877500  0.46273800  0.86994700  1
  C  C27  1  0.09122500  0.53726200  0.86994700  1
  C  C28  1  0.44743000  0.43194200  0.27941000  1
  C  C29  1  0.55257000  0.56805800  0.27941000  1
  C  C30  1  0.94743000  0.56805800  0.77941000  1
  C  C31  1  0.05257000  0.43194200  0.77941000  1
  C  C32  1  0.41909700  0.05113100  0.58512100  1
  C  C33  1  0.58090300  0.94886900  0.58512100  1
  C  C34  1  0.91909700  0.94886900  0.08512100  1
  C  C35  1  0.08090300  0.05113100  0.08512100  1
  C  C36  1  0.43420800  0.94095400  0.67587600  1
  C  C37  1  0.56579200  0.05904600  0.67587600  1
  C  C38  1  0.93420800  0.05904600  0.17587600  1
  C  C39  1  0.06579200  0.94095400  0.17587600  1
  C  C40  1  0.41832100  0.04951200  0.11169400  1
  C  C41  1  0.58167900  0.95048800  0.11169400  1
  C  C42  1  0.91832100  0.95048800  0.61169400  1
  C  C43  1  0.08167900  0.04951200  0.61169400  1
  C  C44  1  0.43545500  0.93885900  0.20304400  1
  C  C45  1  0.56454500  0.06114100  0.20304400  1
  C  C46  1  0.93545500  0.06114100  0.70304400  1
  C  C47  1  0.06454500  0.93885900  0.70304400  1
  Ni  Ni48  1  0.50000000  0.50000000  0.78466700  1
  Ni  Ni49  1  0.00000000  0.50000000  0.28466700  1
  Ni  Ni50  1  0.50000000  0.50000000  0.32427300  1
  Ni  Ni51  1  0.00000000  0.50000000  0.82427300  1
  Ni  Ni52  1  0.50000000  0.00000000  0.62991900  1
  Ni  Ni53  1  0.00000000  0.00000000  0.12991900  1
  Ni  Ni54  1  0.50000000  0.00000000  0.15787400  1
  Ni  Ni55  1  0.00000000  0.00000000  0.65787400  1
  Cu  Cu56  1  0.22849000  0.49622600  0.64343800  1
  Cu  Cu57  1  0.77151000  0.50377400  0.64343800  1
  Cu  Cu58  1  0.72849000  0.50377400  0.14343800  1
  Cu  Cu59  1  0.27151000  0.49622600  0.14343800  1
  Cu  Cu60  1  0.22008000  0.36137800  0.95190900  1
  Cu  Cu61  1  0.77992000  0.63862200  0.95190900  1
  Cu  Cu62  1  0.72008000  0.63862200  0.45190900  1
  Cu  Cu63  1  0.27992000  0.36137800  0.45190900  1
  Cu  Cu64  1  0.27219500  0.85369700  0.03545000  1
  Cu  Cu65  1  0.72780500  0.14630300  0.03545000  1
  Cu  Cu66  1  0.77219500  0.14630300  0.53545000  1
  Cu  Cu67  1  0.22780500  0.85369700  0.53545000  1
  Cu  Cu68  1  0.20398600  0.77840300  0.74689000  1
  Cu  Cu69  1  0.79601400  0.22159700  0.74689000  1
  Cu  Cu70  1  0.70398600  0.22159700  0.24689000  1
  Cu  Cu71  1  0.29601400  0.77840300  0.24689000  1
  Cu  Cu72  1  0.47833000  0.28172600  0.62416400  1
  Cu  Cu73  1  0.52167000  0.71827400  0.62416400  1
  Cu  Cu74  1  0.97833000  0.71827400  0.12416400  1
  Cu  Cu75  1  0.02167000  0.28172600  0.12416400  1
  Cu  Cu76  1  0.48852300  0.80528300  0.86437200  1
  Cu  Cu77  1  0.51147700  0.19471700  0.86437200  1
  Cu  Cu78  1  0.98852300  0.19471700  0.36437200  1
  Cu  Cu79  1  0.01147700  0.80528300  0.36437200  1
  Cu  Cu80  1  0.27312400  0.99856600  0.83544900  1
  Cu  Cu81  1  0.72687600  0.00143400  0.83544900  1
  Cu  Cu82  1  0.77312400  0.00143400  0.33544900  1
  Cu  Cu83  1  0.22687600  0.99856600  0.33544900  1
  Cu  Cu84  1  0.74065600  0.35322000  0.93354200  1
  Cu  Cu85  1  0.25934400  0.64678000  0.93354200  1
  Cu  Cu86  1  0.24065600  0.64678000  0.43354200  1
  Cu  Cu87  1  0.75934400  0.35322000  0.43354200  1
  Cu  Cu88  1  0.72402800  0.85760700  0.04499500  1
  Cu  Cu89  1  0.27597200  0.14239300  0.04499500  1
  Cu  Cu90  1  0.22402800  0.14239300  0.54499500  1
  Cu  Cu91  1  0.77597200  0.85760700  0.54499500  1
  Cu  Cu92  1  0.82713000  0.72853700  0.73662100  1
  Cu  Cu93  1  0.17287000  0.27146300  0.73662100  1
  Cu  Cu94  1  0.32713000  0.27146300  0.23662100  1
  Cu  Cu95  1  0.67287000  0.72853700  0.23662100  1
  Cu  Cu96  1  0.98072200  0.35068500  0.54737400  1
  Cu  Cu97  1  0.01927800  0.64931500  0.54737400  1
  Cu  Cu98  1  0.48072200  0.64931500  0.04737400  1
  Cu  Cu99  1  0.51927800  0.35068500  0.04737400  1
  Cu  Cu100  1  0.01744600  0.84739400  0.90417400  1
  Cu  Cu101  1  0.98255400  0.15260600  0.90417400  1
  Cu  Cu102  1  0.51744600  0.15260600  0.40417400  1
  Cu  Cu103  1  0.48255400  0.84739400  0.40417400  1
