# generated using pymatgen
data_CuNiC5
_symmetry_space_group_name_H-M   'P 1'
_cell_length_a   6.83347794
_cell_length_b   6.83347794
_cell_length_c   5.88053300
_cell_angle_alpha   90.00000000
_cell_angle_beta   90.00000000
_cell_angle_gamma   130.53857254
_symmetry_Int_Tables_number   1
_chemical_formula_structural   CuNiC5
_chemical_formula_sum   'Cu2 Ni2 C10'
_cell_volume   208.68725122
_cell_formula_units_Z   2
loop_
 _symmetry_equiv_pos_site_id
 _symmetry_equiv_pos_as_xyz
  1  'x, y, z'
loop_
 _atom_site_type_symbol
 _atom_site_label
 _atom_site_symmetry_multiplicity
 _atom_site_fract_x
 _atom_site_fract_y
 _atom_site_fract_z
 _atom_site_occupancy
  Ni  Ni0  1  0.89564800  0.10435200  0.48520100  1
  Ni  Ni1  1  0.10435200  0.89564800  0.98520100  1
  C  C2  1  0.60743900  0.39256100  0.51638400  1
  C  C3  1  0.39256100  0.60743900  0.01638400  1
  Cu  Cu4  1  0.24493100  0.75506900  0.50497300  1
  Cu  Cu5  1  0.75506900  0.24493100  0.00497300  1
  C  C6  1  0.97199100  0.51736600  0.25811700  1
  C  C7  1  0.02800900  0.48263400  0.75811700  1
  C  C8  1  0.51736600  0.97199100  0.75811700  1
  C  C9  1  0.48263400  0.02800900  0.25811700  1
  C  C10  1  0.91640800  0.08359200  0.06531000  1
  C  C11  1  0.56603400  0.43396600  0.91189800  1
  C  C12  1  0.08359200  0.91640800  0.56531000  1
  C  C13  1  0.43396600  0.56603400  0.41189800  1
