# generated using pymatgen
data_Cu9NiC4
_symmetry_space_group_name_H-M   'P 1'
_cell_length_a   6.65854155
_cell_length_b   6.65854155
_cell_length_c   9.87653100
_cell_angle_alpha   90.00000000
_cell_angle_beta   90.00000000
_cell_angle_gamma   119.99999549
_symmetry_Int_Tables_number   1
_chemical_formula_structural   Cu9NiC4
_chemical_formula_sum   'Cu18 Ni2 C8'
_cell_volume   379.22181319
_cell_formula_units_Z   2
loop_
 _symmetry_equiv_pos_site_id
 _symmetry_equiv_pos_as_xyz
  1  'x, y, z'
loop_
 _atom_site_type_symbol
 _atom_site_label
 _atom_site_symmetry_multiplicity
 _atom_site_fract_x
 _atom_site_fract_y
 _atom_site_fract_z
 _atom_site_occupancy
  C  C0  1  0.00000000  0.00000000  0.00000000  1
  C  C1  1  0.00000000  0.00000000  0.50000000  1
  C  C2  1  0.72496200  0.10823600  0.25000000  1
  C  C3  1  0.89176400  0.61672500  0.25000000  1
  C  C4  1  0.72496200  0.61672500  0.75000000  1
  C  C5  1  0.38327500  0.27503800  0.25000000  1
  C  C6  1  0.89176400  0.27503800  0.75000000  1
  C  C7  1  0.38327500  0.10823600  0.75000000  1
  Ni  Ni8  1  0.33333300  0.66666700  0.00000000  1
  Ni  Ni9  1  0.33333300  0.66666700  0.50000000  1
  Cu  Cu10  1  0.25676100  0.25343200  0.11997800  1
  Cu  Cu11  1  0.74656800  0.00332900  0.11997800  1
  Cu  Cu12  1  0.25676100  0.25343200  0.38002200  1
  Cu  Cu13  1  0.25676100  0.00332900  0.61997800  1
  Cu  Cu14  1  0.99667100  0.74323900  0.11997800  1
  Cu  Cu15  1  0.74656800  0.00332900  0.38002200  1
  Cu  Cu16  1  0.74656800  0.74323900  0.61997800  1
  Cu  Cu17  1  0.25676100  0.00332900  0.88002200  1
  Cu  Cu18  1  0.99667100  0.74323900  0.38002200  1
  Cu  Cu19  1  0.74656800  0.74323900  0.88002200  1
  Cu  Cu20  1  0.99667100  0.25343200  0.61997800  1
  Cu  Cu21  1  0.99667100  0.25343200  0.88002200  1
  Cu  Cu22  1  0.47733100  0.09368800  0.25000000  1
  Cu  Cu23  1  0.90631200  0.38364300  0.25000000  1
  Cu  Cu24  1  0.47733100  0.38364300  0.75000000  1
  Cu  Cu25  1  0.61635700  0.52266900  0.25000000  1
  Cu  Cu26  1  0.90631200  0.52266900  0.75000000  1
  Cu  Cu27  1  0.61635700  0.09368800  0.75000000  1
