# generated using pymatgen
data_CuNiC8
_symmetry_space_group_name_H-M   'P 1'
_cell_length_a   8.41336510
_cell_length_b   8.46307184
_cell_length_c   8.48349910
_cell_angle_alpha   90.00000000
_cell_angle_beta   90.00000000
_cell_angle_gamma   90.00000000
_symmetry_Int_Tables_number   1
_chemical_formula_structural   CuNiC8
_chemical_formula_sum   'Cu4 Ni4 C32'
_cell_volume   604.04985054
_cell_formula_units_Z   4
loop_
 _symmetry_equiv_pos_site_id
 _symmetry_equiv_pos_as_xyz
  1  'x, y, z'
loop_
 _atom_site_type_symbol
 _atom_site_label
 _atom_site_symmetry_multiplicity
 _atom_site_fract_x
 _atom_site_fract_y
 _atom_site_fract_z
 _atom_site_occupancy
  C  C0  1  -0.00000000  0.00000000  0.00000000  1
  C  C1  1  0.50000000  0.50000000  0.50000000  1
  C  C2  1  0.50000000  0.50000000  0.00000000  1
  C  C3  1  -0.00000000  0.00000000  0.50000000  1
  Ni  Ni4  1  -0.00000000  0.50000000  0.50000000  1
  Ni  Ni5  1  0.50000000  0.00000000  0.50000000  1
  Ni  Ni6  1  0.50000000  0.00000000  -0.00000000  1
  Ni  Ni7  1  -0.00000000  0.50000000  -0.00000000  1
  Cu  Cu8  1  0.75000000  0.75000000  0.75000000  1
  Cu  Cu9  1  0.25000000  0.25000000  0.75000000  1
  Cu  Cu10  1  0.25000000  0.75000000  0.25000000  1
  Cu  Cu11  1  0.75000000  0.25000000  0.25000000  1
  C  C12  1  0.25000000  0.25000000  0.25000000  1
  C  C13  1  0.75000000  0.75000000  0.25000000  1
  C  C14  1  0.75000000  0.25000000  0.75000000  1
  C  C15  1  0.25000000  0.75000000  0.75000000  1
  C  C16  1  0.02062910  0.21830716  0.27147420  1
  C  C17  1  0.97937090  0.78169284  0.27147420  1
  C  C18  1  0.97937090  0.21830716  0.72852580  1
  C  C19  1  0.02062910  0.78169284  0.72852580  1
  C  C20  1  0.27088456  0.02216308  0.21617937  1
  C  C21  1  0.27088456  0.97783692  0.78382063  1
  C  C22  1  0.72911544  0.97783692  0.21617937  1
  C  C23  1  0.72911544  0.02216308  0.78382063  1
  C  C24  1  0.22072941  0.28028357  0.02210050  1
  C  C25  1  0.77927059  0.28028357  0.97789950  1
  C  C26  1  0.22072941  0.71971643  0.97789950  1
  C  C27  1  0.77927059  0.71971643  0.02210050  1
  C  C28  1  0.47937090  0.28169284  0.22852580  1
  C  C29  1  0.52062910  0.71830716  0.22852580  1
  C  C30  1  0.52062910  0.28169284  0.77147420  1
  C  C31  1  0.47937090  0.71830716  0.77147420  1
  C  C32  1  0.22911544  0.47783692  0.28382063  1
  C  C33  1  0.22911544  0.52216308  0.71617937  1
  C  C34  1  0.77088456  0.52216308  0.28382063  1
  C  C35  1  0.77088456  0.47783692  0.71617937  1
  C  C36  1  0.27927059  0.21971643  0.47789950  1
  C  C37  1  0.72072941  0.21971643  0.52210050  1
  C  C38  1  0.27927059  0.78028357  0.52210050  1
  C  C39  1  0.72072941  0.78028357  0.47789950  1
