# generated using pymatgen
data_Cu3NiC16
_symmetry_space_group_name_H-M   'P 1'
_cell_length_a   6.28561000
_cell_length_b   7.52057300
_cell_length_c   10.04732530
_cell_angle_alpha   79.61009721
_cell_angle_beta   90.00000000
_cell_angle_gamma   90.00000000
_symmetry_Int_Tables_number   1
_chemical_formula_structural   Cu3NiC16
_chemical_formula_sum   'Cu6 Ni2 C32'
_cell_volume   467.16337661
_cell_formula_units_Z   2
loop_
 _symmetry_equiv_pos_site_id
 _symmetry_equiv_pos_as_xyz
  1  'x, y, z'
loop_
 _atom_site_type_symbol
 _atom_site_label
 _atom_site_symmetry_multiplicity
 _atom_site_fract_x
 _atom_site_fract_y
 _atom_site_fract_z
 _atom_site_occupancy
  Ni  Ni0  1  0.75000000  0.36909300  0.17870800  1
  Ni  Ni1  1  0.25000000  0.63090700  0.82129200  1
  Cu  Cu2  1  0.25000000  0.64919800  0.20203300  1
  Cu  Cu3  1  0.75000000  0.35080200  0.79796700  1
  Cu  Cu4  1  0.25000000  0.20994100  0.43220800  1
  Cu  Cu5  1  0.50000000  0.00000000  0.00000000  1
  Cu  Cu6  1  0.75000000  0.79005900  0.56779200  1
  Cu  Cu7  1  0.00000000  0.00000000  0.00000000  1
  C  C8  1  0.25000000  0.77903400  0.49613200  1
  C  C9  1  0.75000000  0.22096600  0.50386800  1
  C  C10  1  0.25000000  0.26669200  0.76157500  1
  C  C11  1  0.75000000  0.73330800  0.23842500  1
  C  C12  1  0.75000000  0.68211600  0.88845400  1
  C  C13  1  0.25000000  0.31788400  0.11154600  1
  C  C14  1  0.75000000  0.62986300  0.74562500  1
  C  C15  1  0.55938800  0.25329600  0.40513900  1
  C  C16  1  0.25000000  0.21794700  0.62121900  1
  C  C17  1  0.54102400  0.78895900  0.90104200  1
  C  C18  1  0.75000000  0.34724500  0.60697600  1
  C  C19  1  0.75000000  0.12434800  0.90720500  1
  C  C20  1  0.25000000  0.65275500  0.39302400  1
  C  C21  1  0.04102400  0.21104100  0.09895800  1
  C  C22  1  0.25000000  0.97594000  0.41236700  1
  C  C23  1  0.75000000  0.02406000  0.58763300  1
  C  C24  1  0.06179500  0.38896000  0.78871700  1
  C  C25  1  0.25000000  0.87565200  0.09279500  1
  C  C26  1  0.56179500  0.61104000  0.21128300  1
  C  C27  1  0.75000000  0.49132400  0.97777700  1
  C  C28  1  0.75000000  0.78205300  0.37878100  1
  C  C29  1  0.45897600  0.21104100  0.09895800  1
  C  C30  1  0.94061200  0.25329600  0.40513900  1
  C  C31  1  0.44061200  0.74670400  0.59486100  1
  C  C32  1  0.43820500  0.38896000  0.78871700  1
  C  C33  1  0.25000000  0.37013700  0.25437500  1
  C  C34  1  0.75000000  0.91119500  0.13039700  1
  C  C35  1  0.25000000  0.08880500  0.86960300  1
  C  C36  1  0.93820500  0.61104000  0.21128300  1
  C  C37  1  0.95897600  0.78895900  0.90104200  1
  C  C38  1  0.05938800  0.74670400  0.59486100  1
  C  C39  1  0.25000000  0.50867600  0.02222300  1
