# generated using pymatgen
data_Cu2Ni4C7
_symmetry_space_group_name_H-M   'P 1'
_cell_length_a   10.01484900
_cell_length_b   7.89095700
_cell_length_c   9.64856537
_cell_angle_alpha   73.33485659
_cell_angle_beta   90.00000000
_cell_angle_gamma   90.00000000
_symmetry_Int_Tables_number   1
_chemical_formula_structural   Cu2Ni4C7
_chemical_formula_sum   'Cu4 Ni8 C14'
_cell_volume   730.46773386
_cell_formula_units_Z   2
loop_
 _symmetry_equiv_pos_site_id
 _symmetry_equiv_pos_as_xyz
  1  'x, y, z'
loop_
 _atom_site_type_symbol
 _atom_site_label
 _atom_site_symmetry_multiplicity
 _atom_site_fract_x
 _atom_site_fract_y
 _atom_site_fract_z
 _atom_site_occupancy
  C  C0  1  0.78195300  0.52258600  0.61619100  1
  C  C1  1  0.28195300  0.47741400  0.88380900  1
  C  C2  1  0.21804700  0.47741400  0.38380900  1
  C  C3  1  0.71804700  0.52258600  0.11619100  1
  C  C4  1  0.00000000  0.00000000  0.00000000  1
  C  C5  1  0.50000000  0.00000000  0.50000000  1
  Ni  Ni6  1  0.02569100  0.18951100  0.10049600  1
  Ni  Ni7  1  0.52569100  0.81048900  0.39950400  1
  Ni  Ni8  1  0.97430900  0.81048900  0.89950400  1
  Ni  Ni9  1  0.47430900  0.18951100  0.60049600  1
  Ni  Ni10  1  0.96245500  0.82031600  0.19130500  1
  Ni  Ni11  1  0.46245500  0.17968400  0.30869500  1
  Ni  Ni12  1  0.03754500  0.17968400  0.80869500  1
  Ni  Ni13  1  0.53754500  0.82031600  0.69130500  1
  Cu  Cu14  1  0.26578900  0.92185200  0.02989100  1
  Cu  Cu15  1  0.76578900  0.07814800  0.47010900  1
  Cu  Cu16  1  0.73421100  0.07814800  0.97010900  1
  Cu  Cu17  1  0.23421100  0.92185200  0.52989100  1
  C  C18  1  0.04199000  0.30245000  0.15551400  1
  C  C19  1  0.54199000  0.69755000  0.34448600  1
  C  C20  1  0.95801000  0.69755000  0.84448600  1
  C  C21  1  0.45801000  0.30245000  0.65551400  1
  C  C22  1  0.93963600  0.71136800  0.29997600  1
  C  C23  1  0.43963600  0.28863200  0.20002400  1
  C  C24  1  0.06036400  0.28863200  0.70002400  1
  C  C25  1  0.56036400  0.71136800  0.79997600  1
