# generated using pymatgen
data_Cu6Ni3C17
_symmetry_space_group_name_H-M   'P 1'
_cell_length_a   7.23210400
_cell_length_b   8.89743000
_cell_length_c   16.47626200
_cell_angle_alpha   90.00000000
_cell_angle_beta   90.00000000
_cell_angle_gamma   90.00000000
_symmetry_Int_Tables_number   1
_chemical_formula_structural   Cu6Ni3C17
_chemical_formula_sum   'Cu24 Ni12 C68'
_cell_volume   1060.20032264
_cell_formula_units_Z   4
loop_
 _symmetry_equiv_pos_site_id
 _symmetry_equiv_pos_as_xyz
  1  'x, y, z'
loop_
 _atom_site_type_symbol
 _atom_site_label
 _atom_site_symmetry_multiplicity
 _atom_site_fract_x
 _atom_site_fract_y
 _atom_site_fract_z
 _atom_site_occupancy
  C  C0  1  0.17507600  0.16714700  0.69494000  1
  C  C1  1  0.32492400  0.83285300  0.19494000  1
  C  C2  1  0.82492400  0.66714700  0.80506000  1
  C  C3  1  0.67507600  0.33285300  0.30506000  1
  C  C4  1  0.31726100  0.19578500  0.20767200  1
  C  C5  1  0.18273900  0.80421500  0.70767200  1
  C  C6  1  0.68273900  0.69578500  0.29232800  1
  C  C7  1  0.81726100  0.30421500  0.79232800  1
  C  C8  1  0.15320100  0.41615800  0.08341000  1
  C  C9  1  0.34679900  0.58384200  0.58341000  1
  C  C10  1  0.84679900  0.91615800  0.41659000  1
  C  C11  1  0.65320100  0.08384200  0.91659000  1
  Ni  Ni12  1  0.49305300  0.00664000  0.35945300  1
  Ni  Ni13  1  0.00694700  0.99336000  0.85945300  1
  Ni  Ni14  1  0.50694700  0.50664000  0.14054700  1
  Ni  Ni15  1  0.99305300  0.49336000  0.64054700  1
  Ni  Ni16  1  0.63111700  0.03054900  0.08297200  1
  Ni  Ni17  1  0.86888300  0.96945100  0.58297200  1
  Ni  Ni18  1  0.36888300  0.53054900  0.41702800  1
  Ni  Ni19  1  0.13111700  0.46945100  0.91702800  1
  Ni  Ni20  1  0.04671000  0.49500400  0.23608100  1
  Ni  Ni21  1  0.45329000  0.50499600  0.73608100  1
  Ni  Ni22  1  0.95329000  0.99500400  0.26391900  1
  Ni  Ni23  1  0.54671000  0.00499600  0.76391900  1
  Cu  Cu24  1  0.29612300  0.12533900  0.53946400  1
  Cu  Cu25  1  0.20387700  0.87466100  0.03946400  1
  Cu  Cu26  1  0.70387700  0.62533900  0.96053600  1
  Cu  Cu27  1  0.79612300  0.37466100  0.46053600  1
  Cu  Cu28  1  0.13720800  0.18834400  0.06497700  1
  Cu  Cu29  1  0.36279200  0.81165600  0.56497700  1
  Cu  Cu30  1  0.86279200  0.68834400  0.43502300  1
  Cu  Cu31  1  0.63720800  0.31165600  0.93502300  1
  Cu  Cu32  1  0.21357700  0.34550000  0.37089500  1
  Cu  Cu33  1  0.28642300  0.65450000  0.87089500  1
  Cu  Cu34  1  0.78642300  0.84550000  0.12910500  1
  Cu  Cu35  1  0.71357700  0.15450000  0.62910500  1
  Cu  Cu36  1  0.78659700  0.47922000  0.09348200  1
  Cu  Cu37  1  0.71340300  0.52078000  0.59348200  1
  Cu  Cu38  1  0.21340300  0.97922000  0.40651800  1
  Cu  Cu39  1  0.28659700  0.02078000  0.90651800  1
  Cu  Cu40  1  0.29261800  0.29630600  0.56182400  1
  Cu  Cu41  1  0.20738200  0.70369400  0.06182400  1
  Cu  Cu42  1  0.70738200  0.79630600  0.93817600  1
  Cu  Cu43  1  0.79261800  0.20369400  0.43817600  1
  Cu  Cu44  1  0.19269000  0.65303600  0.32475400  1
  Cu  Cu45  1  0.30731000  0.34696400  0.82475400  1
  Cu  Cu46  1  0.80731000  0.15303600  0.17524600  1
  Cu  Cu47  1  0.69269000  0.84696400  0.67524600  1
  C  C48  1  0.30738500  0.19559500  0.58468600  1
  C  C49  1  0.19261500  0.80440500  0.08468600  1
  C  C50  1  0.69261500  0.69559500  0.91531400  1
  C  C51  1  0.80738500  0.30440500  0.41531400  1
  C  C52  1  0.47489300  0.15603400  0.31354500  1
  C  C53  1  0.02510700  0.84396600  0.81354500  1
  C  C54  1  0.52510700  0.65603400  0.18645500  1
  C  C55  1  0.97489300  0.34396600  0.68645500  1
  C  C56  1  0.32457100  0.50956000  0.08989900  1
  C  C57  1  0.17542900  0.49043900  0.58989900  1
  C  C58  1  0.67542900  0.00956000  0.41010100  1
  C  C59  1  0.82457100  0.99044000  0.91010100  1
  C  C60  1  0.27413200  0.37058200  0.42415500  1
  C  C61  1  0.22586800  0.62941800  0.92415500  1
  C  C62  1  0.72586800  0.87058200  0.07584500  1
  C  C63  1  0.77413200  0.12941800  0.57584500  1
  C  C64  1  0.01304900  0.47518300  0.14141200  1
  C  C65  1  0.48695100  0.52481700  0.64141200  1
  C  C66  1  0.98695100  0.97518300  0.35858800  1
  C  C67  1  0.51304900  0.02481700  0.85858800  1
  C  C68  1  0.52155400  0.36871700  0.19579900  1
  C  C69  1  0.97844600  0.63128300  0.69579900  1
  C  C70  1  0.47844600  0.86871700  0.30420100  1
  C  C71  1  0.02155400  0.13128300  0.80420100  1
  C  C72  1  0.06273800  0.43638900  0.00475000  1
  C  C73  1  0.43726200  0.56361100  0.50475000  1
  C  C74  1  0.93726200  0.93638900  0.49525000  1
  C  C75  1  0.56273800  0.06361100  0.99525000  1
  C  C76  1  0.20208200  0.26010700  0.09905400  1
  C  C77  1  0.29791800  0.73989300  0.59905400  1
  C  C78  1  0.79791800  0.76010700  0.40094600  1
  C  C79  1  0.70208200  0.23989300  0.90094600  1
  C  C80  1  0.15184600  0.64583900  0.24904900  1
  C  C81  1  0.34815400  0.35416100  0.74904900  1
  C  C82  1  0.84815400  0.14583900  0.25095100  1
  C  C83  1  0.65184600  0.85416100  0.75095100  1
  C  C84  1  0.46468600  0.02269300  0.14028500  1
  C  C85  1  0.03531400  0.97730700  0.64028500  1
  C  C86  1  0.53531400  0.52269300  0.35971500  1
  C  C87  1  0.96468600  0.47730700  0.85971500  1
  C  C88  1  0.15501000  0.36102100  0.26930100  1
  C  C89  1  0.34499000  0.63897900  0.76930100  1
  C  C90  1  0.84499000  0.86102100  0.23069900  1
  C  C91  1  0.65501000  0.13897900  0.73069900  1
  C  C92  1  0.14936600  0.00707100  0.22657200  1
  C  C93  1  0.35063400  0.99292900  0.72657200  1
  C  C94  1  0.85063400  0.50707100  0.27342800  1
  C  C95  1  0.64936600  0.49292900  0.77342800  1
  C  C96  1  0.22594500  0.65050100  0.39251500  1
  C  C97  1  0.27405500  0.34949900  0.89251500  1
  C  C98  1  0.77405500  0.15050100  0.10748500  1
  C  C99  1  0.72594500  0.84949900  0.60748500  1
  C  C100  1  0.66048100  0.49786500  0.07100300  1
  C  C101  1  0.83951900  0.50213500  0.57100300  1
  C  C102  1  0.33951900  0.99786500  0.42899700  1
  C  C103  1  0.16048100  0.00213500  0.92899700  1
