# generated using pymatgen
data_CuNiC5
_symmetry_space_group_name_H-M   'P 1'
_cell_length_a   3.47493700
_cell_length_b   11.26612500
_cell_length_c   12.87459200
_cell_angle_alpha   90.00000000
_cell_angle_beta   90.00000000
_cell_angle_gamma   90.00000000
_symmetry_Int_Tables_number   1
_chemical_formula_structural   CuNiC5
_chemical_formula_sum   'Cu4 Ni4 C20'
_cell_volume   504.02836277
_cell_formula_units_Z   4
loop_
 _symmetry_equiv_pos_site_id
 _symmetry_equiv_pos_as_xyz
  1  'x, y, z'
loop_
 _atom_site_type_symbol
 _atom_site_label
 _atom_site_symmetry_multiplicity
 _atom_site_fract_x
 _atom_site_fract_y
 _atom_site_fract_z
 _atom_site_occupancy
  Ni  Ni0  1  0.00000000  0.80034900  0.11687600  1
  Ni  Ni1  1  0.50000000  0.19965100  0.61687600  1
  Ni  Ni2  1  0.00000000  0.82153100  0.58768300  1
  Ni  Ni3  1  0.50000000  0.17846900  0.08768300  1
  Cu  Cu4  1  0.50000000  0.69098800  0.88779400  1
  Cu  Cu5  1  0.00000000  0.30901200  0.38779400  1
  Cu  Cu6  1  0.50000000  0.66324300  0.40929300  1
  Cu  Cu7  1  0.00000000  0.33675700  0.90929300  1
  C  C8  1  0.50000000  0.49637800  0.68847700  1
  C  C9  1  0.00000000  0.00114100  0.31914200  1
  C  C10  1  0.00000000  0.50362200  0.18847700  1
  C  C11  1  0.50000000  0.99885900  0.81914200  1
  C  C12  1  0.00000000  0.71542500  0.29088500  1
  C  C13  1  0.50000000  0.78633200  0.71363200  1
  C  C14  1  0.50000000  0.28457500  0.79088500  1
  C  C15  1  0.00000000  0.21366800  0.21363200  1
  C  C16  1  0.50000000  0.65754300  0.06852900  1
  C  C17  1  0.00000000  0.83298800  0.92909300  1
  C  C18  1  0.00000000  0.34245700  0.56852900  1
  C  C19  1  0.50000000  0.16701200  0.42909300  1
  C  C20  1  0.00000000  0.62264600  0.53251600  1
  C  C21  1  0.50000000  0.86929900  0.46189500  1
  C  C22  1  0.50000000  0.37735400  0.03251600  1
  C  C23  1  0.00000000  0.13070100  0.96189500  1
  C  C24  1  0.00000000  0.54801800  0.84788700  1
  C  C25  1  0.50000000  0.95021600  0.14629800  1
  C  C26  1  0.50000000  0.45198200  0.34788700  1
  C  C27  1  0.00000000  0.04978400  0.64629800  1
