# generated using pymatgen
data_CuNiC9
_symmetry_space_group_name_H-M   'P 1'
_cell_length_a   7.36431509
_cell_length_b   7.36431509
_cell_length_c   7.36431509
_cell_angle_alpha   121.22805564
_cell_angle_beta   117.88568492
_cell_angle_gamma   90.79329786
_symmetry_Int_Tables_number   1
_chemical_formula_structural   CuNiC9
_chemical_formula_sum   'Cu2 Ni2 C18'
_cell_volume   283.97609555
_cell_formula_units_Z   2
loop_
 _symmetry_equiv_pos_site_id
 _symmetry_equiv_pos_as_xyz
  1  'x, y, z'
loop_
 _atom_site_type_symbol
 _atom_site_label
 _atom_site_symmetry_multiplicity
 _atom_site_fract_x
 _atom_site_fract_y
 _atom_site_fract_z
 _atom_site_occupancy
  C  C0  1  0.50000000  0.00000000  0.00000000  1
  C  C1  1  0.50000000  0.50000000  0.50000000  1
  C  C2  1  0.50000000  0.00000000  0.50000000  1
  C  C3  1  0.00000000  0.00000000  0.00000000  1
  Ni  Ni4  1  0.00000000  0.50000000  0.00000000  1
  Ni  Ni5  1  0.00000000  0.00000000  0.50000000  1
  Cu  Cu6  1  0.00000000  0.50000000  0.50000000  1
  Cu  Cu7  1  0.50000000  0.50000000  0.00000000  1
  C  C8  1  0.92132200  0.17132200  0.75000000  1
  C  C9  1  0.31652900  0.56652900  0.75000000  1
  C  C10  1  0.93673500  0.58252000  0.76530600  1
  C  C11  1  0.31721400  0.17142900  0.73469400  1
  C  C12  1  0.93673500  0.17142900  0.35421600  1
  C  C13  1  0.31721400  0.58252000  0.14578400  1
  C  C14  1  0.07867800  0.82867800  0.25000000  1
  C  C15  1  0.68347100  0.43347100  0.25000000  1
  C  C16  1  0.06326500  0.41748000  0.23469400  1
  C  C17  1  0.68278700  0.82857100  0.26530600  1
  C  C18  1  0.06326500  0.82857100  0.64578400  1
  C  C19  1  0.68278700  0.41748000  0.85421600  1
  C  C20  1  0.62251800  0.87251800  0.75000000  1
  C  C21  1  0.37748300  0.12748300  0.25000000  1
