# generated using pymatgen
data_Cu(NiC)4
_symmetry_space_group_name_H-M   'P 1'
_cell_length_a   5.49887200
_cell_length_b   7.43007400
_cell_length_c   12.39638000
_cell_angle_alpha   90.00000000
_cell_angle_beta   90.00000000
_cell_angle_gamma   90.00000000
_symmetry_Int_Tables_number   1
_chemical_formula_structural   Cu(NiC)4
_chemical_formula_sum   'Cu4 Ni16 C16'
_cell_volume   506.47921844
_cell_formula_units_Z   4
loop_
 _symmetry_equiv_pos_site_id
 _symmetry_equiv_pos_as_xyz
  1  'x, y, z'
loop_
 _atom_site_type_symbol
 _atom_site_label
 _atom_site_symmetry_multiplicity
 _atom_site_fract_x
 _atom_site_fract_y
 _atom_site_fract_z
 _atom_site_occupancy
  C  C0  1  0.25158700  0.25000000  0.41954300  1
  C  C1  1  0.74841300  0.75000000  0.58045700  1
  C  C2  1  0.24841300  0.75000000  0.91954300  1
  C  C3  1  0.75158700  0.25000000  0.08045700  1
  C  C4  1  0.25890700  0.00614100  0.16254200  1
  C  C5  1  0.74109300  0.99385900  0.83745800  1
  C  C6  1  0.24109300  0.99385900  0.66254200  1
  C  C7  1  0.74109300  0.50614100  0.83745800  1
  C  C8  1  0.75890700  0.00614100  0.33745800  1
  C  C9  1  0.25890700  0.49385900  0.16254200  1
  C  C10  1  0.75890700  0.49385900  0.33745800  1
  C  C11  1  0.24109300  0.50614100  0.66254200  1
  C  C12  1  0.72062700  0.25000000  0.58776900  1
  C  C13  1  0.27937300  0.75000000  0.41223100  1
  C  C14  1  0.77937300  0.75000000  0.08776900  1
  C  C15  1  0.22062700  0.25000000  0.91223100  1
  Ni  Ni16  1  0.17898400  0.56599500  0.34756800  1
  Ni  Ni17  1  0.82101600  0.43400500  0.65243200  1
  Ni  Ni18  1  0.32101600  0.43400500  0.84756800  1
  Ni  Ni19  1  0.82101600  0.06599600  0.65243200  1
  Ni  Ni20  1  0.67898400  0.56599500  0.15243200  1
  Ni  Ni21  1  0.17898400  0.93400500  0.34756800  1
  Ni  Ni22  1  0.67898400  0.93400500  0.15243200  1
  Ni  Ni23  1  0.32101600  0.06599600  0.84756800  1
  Ni  Ni24  1  0.41498100  0.25000000  0.59589300  1
  Ni  Ni25  1  0.58501900  0.75000000  0.40410700  1
  Ni  Ni26  1  0.08501900  0.75000000  0.09589300  1
  Ni  Ni27  1  0.91498100  0.25000000  0.90410700  1
  Ni  Ni28  1  0.33614800  0.25000000  0.03683400  1
  Ni  Ni29  1  0.66385200  0.75000000  0.96316600  1
  Ni  Ni30  1  0.16385200  0.75000000  0.53683400  1
  Ni  Ni31  1  0.83614800  0.25000000  0.46316600  1
  Cu  Cu32  1  0.00146600  0.25000000  0.23705100  1
  Cu  Cu33  1  0.99853400  0.75000000  0.76294900  1
  Cu  Cu34  1  0.49853400  0.75000000  0.73705100  1
  Cu  Cu35  1  0.50146600  0.25000000  0.26294900  1
