# generated using pymatgen
data_Cu2NiC20
_symmetry_space_group_name_H-M   'P 1'
_cell_length_a   9.87968458
_cell_length_b   9.87968458
_cell_length_c   5.64687800
_cell_angle_alpha   90.00000000
_cell_angle_beta   90.00000000
_cell_angle_gamma   120.00000391
_symmetry_Int_Tables_number   1
_chemical_formula_structural   Cu2NiC20
_chemical_formula_sum   'Cu2 Ni1 C20'
_cell_volume   477.33708744
_cell_formula_units_Z   1
loop_
 _symmetry_equiv_pos_site_id
 _symmetry_equiv_pos_as_xyz
  1  'x, y, z'
loop_
 _atom_site_type_symbol
 _atom_site_label
 _atom_site_symmetry_multiplicity
 _atom_site_fract_x
 _atom_site_fract_y
 _atom_site_fract_z
 _atom_site_occupancy
  C  C0  1  0.12320500  0.35531800  0.74707100  1
  C  C1  1  0.23211400  0.87679500  0.74707100  1
  C  C2  1  0.64468200  0.76788600  0.74707100  1
  C  C3  1  0.87608700  0.64508300  0.25188000  1
  C  C4  1  0.76899600  0.12391300  0.25188000  1
  C  C5  1  0.35491700  0.23100400  0.25188000  1
  Ni  Ni6  1  0.00000000  0.00000000  0.51502100  1
  Cu  Cu7  1  0.33333300  0.66666700  0.16451900  1
  Cu  Cu8  1  0.66666700  0.33333300  0.66365500  1
  C  C9  1  0.33333300  0.66666700  0.53659500  1
  C  C10  1  0.66666700  0.33333300  0.03550600  1
  C  C11  1  0.08607500  0.24489200  0.27568400  1
  C  C12  1  0.15881700  0.91392500  0.27568400  1
  C  C13  1  0.75510800  0.84118300  0.27568400  1
  C  C14  1  0.91496800  0.75365300  0.75472200  1
  C  C15  1  0.83868400  0.08503200  0.75472200  1
  C  C16  1  0.24634700  0.16131600  0.75472200  1
  C  C17  1  0.41165400  0.51866000  0.01458500  1
  C  C18  1  0.10700600  0.58834600  0.01458500  1
  C  C19  1  0.48134000  0.89299400  0.01458500  1
  C  C20  1  0.58596200  0.47883000  0.51245600  1
  C  C21  1  0.89286900  0.41403800  0.51245600  1
  C  C22  1  0.52117000  0.10713100  0.51245600  1
