# generated using pymatgen
data_Cu14Ni6C5
_symmetry_space_group_name_H-M   'P 1'
_cell_length_a   20.15496100
_cell_length_b   4.14602300
_cell_length_c   16.84155716
_cell_angle_alpha   88.04478357
_cell_angle_beta   90.00000000
_cell_angle_gamma   90.00000000
_symmetry_Int_Tables_number   1
_chemical_formula_structural   Cu14Ni6C5
_chemical_formula_sum   'Cu28 Ni12 C10'
_cell_volume   1406.51054563
_cell_formula_units_Z   2
loop_
 _symmetry_equiv_pos_site_id
 _symmetry_equiv_pos_as_xyz
  1  'x, y, z'
loop_
 _atom_site_type_symbol
 _atom_site_label
 _atom_site_symmetry_multiplicity
 _atom_site_fract_x
 _atom_site_fract_y
 _atom_site_fract_z
 _atom_site_occupancy
  C  C0  1  0.00000000  0.50000000  0.00000000  1
  C  C1  1  0.50000000  0.50000000  0.50000000  1
  Ni  Ni2  1  0.54935400  0.09520900  0.10284800  1
  Ni  Ni3  1  0.04935400  0.90479100  0.39715200  1
  Ni  Ni4  1  0.45064600  0.90479100  0.89715200  1
  Ni  Ni5  1  0.95064600  0.09520900  0.60284800  1
  Ni  Ni6  1  0.93423100  0.93464600  0.18096200  1
  Ni  Ni7  1  0.43423100  0.06535400  0.31903800  1
  Ni  Ni8  1  0.06576900  0.06535400  0.81903800  1
  Ni  Ni9  1  0.56576900  0.93464600  0.68096200  1
  Ni  Ni10  1  0.66007100  0.09126600  0.86662200  1
  Ni  Ni11  1  0.16007100  0.90873400  0.63337800  1
  Ni  Ni12  1  0.33992900  0.90873400  0.13337800  1
  Ni  Ni13  1  0.83992900  0.09126600  0.36662200  1
  C  C14  1  0.73652500  0.54773100  0.06448100  1
  C  C15  1  0.23652500  0.45226900  0.43551900  1
  C  C16  1  0.26347500  0.45226900  0.93551900  1
  C  C17  1  0.76347500  0.54773100  0.56448100  1
  C  C18  1  0.63462900  0.52790000  0.31022900  1
  C  C19  1  0.13462900  0.47210000  0.18977100  1
  C  C20  1  0.36537100  0.47210000  0.68977100  1
  C  C21  1  0.86537100  0.52790000  0.81022900  1
  Cu  Cu22  1  0.66252500  0.04363100  0.18113900  1
  Cu  Cu23  1  0.16252500  0.95636900  0.31886100  1
  Cu  Cu24  1  0.33747500  0.95636900  0.81886100  1
  Cu  Cu25  1  0.83747500  0.04363100  0.68113900  1
  Cu  Cu26  1  0.89501400  0.48677200  0.07796800  1
  Cu  Cu27  1  0.39501400  0.51322800  0.42203200  1
  Cu  Cu28  1  0.10498600  0.51322800  0.92203200  1
  Cu  Cu29  1  0.60498600  0.48677200  0.57796800  1
  Cu  Cu30  1  0.54326500  0.02089600  0.40710500  1
  Cu  Cu31  1  0.04326500  0.97910400  0.09289500  1
  Cu  Cu32  1  0.45673500  0.97910400  0.59289500  1
  Cu  Cu33  1  0.95673500  0.02089600  0.90710500  1
  Cu  Cu34  1  0.77306100  0.06293000  0.94372900  1
  Cu  Cu35  1  0.27306100  0.93707000  0.55627100  1
  Cu  Cu36  1  0.22693900  0.93707000  0.05627100  1
  Cu  Cu37  1  0.72693900  0.06293000  0.44372900  1
  Cu  Cu38  1  0.59859800  0.55440200  0.99447000  1
  Cu  Cu39  1  0.09859800  0.44559800  0.50553000  1
  Cu  Cu40  1  0.40140200  0.44559800  0.00553000  1
  Cu  Cu41  1  0.90140200  0.55440200  0.49447000  1
  Cu  Cu42  1  0.50335300  0.52870900  0.21536100  1
  Cu  Cu43  1  0.00335300  0.47129100  0.28463900  1
  Cu  Cu44  1  0.49664700  0.47129100  0.78463900  1
  Cu  Cu45  1  0.99664700  0.52870900  0.71536100  1
  Cu  Cu46  1  0.79713500  0.58686100  0.27194200  1
  Cu  Cu47  1  0.29713500  0.41313900  0.22805800  1
  Cu  Cu48  1  0.20286500  0.41313900  0.72805800  1
  Cu  Cu49  1  0.70286500  0.58686100  0.77194200  1
