# generated using pymatgen
data_Cu2NiC4
_symmetry_space_group_name_H-M   'P 1'
_cell_length_a   5.77337309
_cell_length_b   5.77337309
_cell_length_c   10.90179554
_cell_angle_alpha   89.68738736
_cell_angle_beta   89.68738736
_cell_angle_gamma   59.15303398
_symmetry_Int_Tables_number   1
_chemical_formula_structural   Cu2NiC4
_chemical_formula_sum   'Cu8 Ni4 C16'
_cell_volume   311.96739582
_cell_formula_units_Z   4
loop_
 _symmetry_equiv_pos_site_id
 _symmetry_equiv_pos_as_xyz
  1  'x, y, z'
loop_
 _atom_site_type_symbol
 _atom_site_label
 _atom_site_symmetry_multiplicity
 _atom_site_fract_x
 _atom_site_fract_y
 _atom_site_fract_z
 _atom_site_occupancy
  Ni  Ni0  1  0.00000000  0.50000000  0.00000000  1
  Ni  Ni1  1  0.50000000  0.00000000  0.50000000  1
  Ni  Ni2  1  0.98756100  0.01243900  0.25000000  1
  Ni  Ni3  1  0.01243900  0.98756100  0.75000000  1
  Cu  Cu4  1  0.27975300  0.77622500  0.01765200  1
  Cu  Cu5  1  0.22377500  0.72024700  0.48234800  1
  Cu  Cu6  1  0.72024700  0.22377500  0.98234800  1
  Cu  Cu7  1  0.77622500  0.27975300  0.51765200  1
  Cu  Cu8  1  0.71446600  0.73131100  0.76448700  1
  Cu  Cu9  1  0.73131100  0.71446600  0.26448700  1
  Cu  Cu10  1  0.26868900  0.28553400  0.73551300  1
  Cu  Cu11  1  0.28553400  0.26868900  0.23551300  1
  C  C12  1  0.91428200  0.88632900  0.07913400  1
  C  C13  1  0.88632900  0.91428200  0.57913400  1
  C  C14  1  0.37437100  0.40305100  0.06598100  1
  C  C15  1  0.40305100  0.37437100  0.56598100  1
  C  C16  1  0.37822600  0.90387600  0.18304000  1
  C  C17  1  0.37818500  0.92068500  0.67213900  1
  C  C18  1  0.92068500  0.37818500  0.17213900  1
  C  C19  1  0.90387600  0.37822600  0.68304000  1
  C  C20  1  0.62562900  0.59694900  0.93401900  1
  C  C21  1  0.59694900  0.62562900  0.43401900  1
  C  C22  1  0.08571800  0.11367100  0.92086600  1
  C  C23  1  0.11367100  0.08571800  0.42086600  1
  C  C24  1  0.07931500  0.62181500  0.82786100  1
  C  C25  1  0.09612400  0.62177400  0.31696000  1
  C  C26  1  0.62177400  0.09612400  0.81696000  1
  C  C27  1  0.62181500  0.07931500  0.32786100  1
