# generated using pymatgen
data_Cu9Ni5C3
_symmetry_space_group_name_H-M   'P 1'
_cell_length_a   14.17328592
_cell_length_b   14.17328592
_cell_length_c   9.77453595
_cell_angle_alpha   84.41204852
_cell_angle_beta   84.41204852
_cell_angle_gamma   139.57090694
_symmetry_Int_Tables_number   1
_chemical_formula_structural   Cu9Ni5C3
_chemical_formula_sum   'Cu18 Ni10 C6'
_cell_volume   1221.75425451
_cell_formula_units_Z   2
loop_
 _symmetry_equiv_pos_site_id
 _symmetry_equiv_pos_as_xyz
  1  'x, y, z'
loop_
 _atom_site_type_symbol
 _atom_site_label
 _atom_site_symmetry_multiplicity
 _atom_site_fract_x
 _atom_site_fract_y
 _atom_site_fract_z
 _atom_site_occupancy
  C  C0  1  0.41592500  0.58407500  0.50000000  1
  C  C1  1  0.58407500  0.41592500  0.50000000  1
  C  C2  1  0.01233800  0.44381700  0.24118400  1
  C  C3  1  0.44381700  0.01233800  0.24118400  1
  C  C4  1  0.98766200  0.55618300  0.75881600  1
  C  C5  1  0.55618300  0.98766200  0.75881600  1
  Ni  Ni6  1  0.03740700  0.28134300  0.84046300  1
  Ni  Ni7  1  0.28134300  0.03740700  0.84046300  1
  Ni  Ni8  1  0.96259300  0.71865700  0.15953700  1
  Ni  Ni9  1  0.71865700  0.96259300  0.15953700  1
  Ni  Ni10  1  0.42260300  0.57739700  0.00000000  1
  Ni  Ni11  1  0.57739700  0.42260300  0.00000000  1
  Ni  Ni12  1  0.92713600  0.07286400  0.50000000  1
  Ni  Ni13  1  0.07286400  0.92713600  0.50000000  1
  Ni  Ni14  1  0.13287300  0.13287300  0.10896300  1
  Ni  Ni15  1  0.86712700  0.86712700  0.89103700  1
  Cu  Cu16  1  0.99977100  0.31537200  0.59642300  1
  Cu  Cu17  1  0.31537200  0.99977100  0.59642300  1
  Cu  Cu18  1  0.00022900  0.68462800  0.40357700  1
  Cu  Cu19  1  0.68462800  0.00022900  0.40357700  1
  Cu  Cu20  1  0.24677000  0.56238400  0.84789600  1
  Cu  Cu21  1  0.56238400  0.24677000  0.84789600  1
  Cu  Cu22  1  0.75323000  0.43761600  0.15210400  1
  Cu  Cu23  1  0.43761600  0.75323000  0.15210400  1
  Cu  Cu24  1  0.12479200  0.12479200  0.62987900  1
  Cu  Cu25  1  0.87520800  0.87520800  0.37012100  1
  Cu  Cu26  1  0.37228800  0.37228800  0.87180100  1
  Cu  Cu27  1  0.62771200  0.62771200  0.12819900  1
  Cu  Cu28  1  0.80670900  0.19329100  0.00000000  1
  Cu  Cu29  1  0.19329100  0.80670900  0.00000000  1
  Cu  Cu30  1  0.15281100  0.30533900  0.22629700  1
  Cu  Cu31  1  0.30533900  0.15281100  0.22629700  1
  Cu  Cu32  1  0.84718900  0.69466100  0.77370300  1
  Cu  Cu33  1  0.69466100  0.84718900  0.77370300  1
