# generated using pymatgen
data_Cu5Ni2C25
_symmetry_space_group_name_H-M   'P 1'
_cell_length_a   7.73049252
_cell_length_b   7.73049252
_cell_length_c   5.16695160
_cell_angle_alpha   75.40960479
_cell_angle_beta   75.40960479
_cell_angle_gamma   95.49590616
_symmetry_Int_Tables_number   1
_chemical_formula_structural   Cu5Ni2C25
_chemical_formula_sum   'Cu5 Ni2 C25'
_cell_volume   284.97498430
_cell_formula_units_Z   1
loop_
 _symmetry_equiv_pos_site_id
 _symmetry_equiv_pos_as_xyz
  1  'x, y, z'
loop_
 _atom_site_type_symbol
 _atom_site_label
 _atom_site_symmetry_multiplicity
 _atom_site_fract_x
 _atom_site_fract_y
 _atom_site_fract_z
 _atom_site_occupancy
  C  C0  1  0.37834000  0.13219900  0.99079100  1
  C  C1  1  0.86780100  0.62166000  0.00920900  1
  C  C2  1  0.50505200  0.00363500  0.50969200  1
  C  C3  1  0.99636500  0.49494800  0.49030800  1
  C  C4  1  0.62229500  0.86815400  0.99446900  1
  C  C5  1  0.13184600  0.37770500  0.00553100  1
  C  C6  1  0.73911800  0.74142700  0.51603400  1
  C  C7  1  0.25857300  0.26088200  0.48396600  1
  C  C8  1  0.49843200  0.50156800  0.00000000  1
  Ni  Ni9  1  0.99949600  0.00050400  0.00000000  1
  Ni  Ni10  1  0.25411100  0.74588900  0.00000000  1
  Cu  Cu11  1  0.12536800  0.87463200  0.50000000  1
  Cu  Cu12  1  0.62576900  0.37423100  0.50000000  1
  Cu  Cu13  1  0.74589300  0.25410700  0.00000000  1
  Cu  Cu14  1  0.38022300  0.61977700  0.50000000  1
  Cu  Cu15  1  0.87281300  0.12718700  0.50000000  1
  C  C16  1  0.24005000  0.98962700  0.77206400  1
  C  C17  1  0.73642200  0.47208200  0.74372700  1
  C  C18  1  0.35574300  0.85332700  0.25304900  1
  C  C19  1  0.86226100  0.37068900  0.27423700  1
  C  C20  1  0.48461400  0.75313600  0.76238500  1
  C  C21  1  0.98319400  0.23956800  0.76870000  1
  C  C22  1  0.61441900  0.60941000  0.28686500  1
  C  C23  1  0.12383300  0.11419100  0.27799800  1
  C  C24  1  0.52791800  0.26357800  0.25627300  1
  C  C25  1  0.01037300  0.75995000  0.22793600  1
  C  C26  1  0.62931100  0.13773900  0.72576300  1
  C  C27  1  0.14667300  0.64425700  0.74695100  1
  C  C28  1  0.76043200  0.01680600  0.23130000  1
  C  C29  1  0.24686400  0.51538600  0.23761500  1
  C  C30  1  0.88580900  0.87616700  0.72200200  1
  C  C31  1  0.39059000  0.38558100  0.71313500  1
