# generated using pymatgen
data_CuNiC7
_symmetry_space_group_name_H-M   'P 1'
_cell_length_a   7.49578129
_cell_length_b   7.49578129
_cell_length_c   7.49578129
_cell_angle_alpha   120.56537561
_cell_angle_beta   120.45258211
_cell_angle_gamma   89.12068872
_symmetry_Int_Tables_number   1
_chemical_formula_structural   CuNiC7
_chemical_formula_sum   'Cu2 Ni2 C14'
_cell_volume   295.47837057
_cell_formula_units_Z   2
loop_
 _symmetry_equiv_pos_site_id
 _symmetry_equiv_pos_as_xyz
  1  'x, y, z'
loop_
 _atom_site_type_symbol
 _atom_site_label
 _atom_site_symmetry_multiplicity
 _atom_site_fract_x
 _atom_site_fract_y
 _atom_site_fract_z
 _atom_site_occupancy
  C  C0  1  0.37118300  0.12118300  0.25000000  1
  C  C1  1  0.62881700  0.87881700  0.75000000  1
  Ni  Ni2  1  0.00000000  0.50000000  0.50000000  1
  Ni  Ni3  1  0.50000000  0.50000000  0.00000000  1
  Cu  Cu4  1  0.00000000  0.50000000  0.00000000  1
  Cu  Cu5  1  0.00000000  0.00000000  0.50000000  1
  C  C6  1  0.31115500  0.56115500  0.75000000  1
  C  C7  1  0.92757000  0.17757000  0.75000000  1
  C  C8  1  0.32860000  0.19169400  0.76353200  1
  C  C9  1  0.92816100  0.56506700  0.73646800  1
  C  C10  1  0.32860000  0.56506700  0.13690600  1
  C  C11  1  0.92816100  0.19169400  0.36309400  1
  C  C12  1  0.68884500  0.43884500  0.25000000  1
  C  C13  1  0.07243000  0.82243000  0.25000000  1
  C  C14  1  0.67140000  0.80830600  0.23646800  1
  C  C15  1  0.07183900  0.43493300  0.26353200  1
  C  C16  1  0.67140000  0.43493300  0.86309400  1
  C  C17  1  0.07183900  0.80830600  0.63690600  1
