# generated using pymatgen
data_Cu6Ni6C
_symmetry_space_group_name_H-M   'P 1'
_cell_length_a   5.19733722
_cell_length_b   6.19817832
_cell_length_c   11.21344717
_cell_angle_alpha   83.94132521
_cell_angle_beta   75.41929580
_cell_angle_gamma   65.21190405
_symmetry_Int_Tables_number   1
_chemical_formula_structural   Cu6Ni6C
_chemical_formula_sum   'Cu6 Ni6 C1'
_cell_volume   317.38625648
_cell_formula_units_Z   1
loop_
 _symmetry_equiv_pos_site_id
 _symmetry_equiv_pos_as_xyz
  1  'x, y, z'
loop_
 _atom_site_type_symbol
 _atom_site_label
 _atom_site_symmetry_multiplicity
 _atom_site_fract_x
 _atom_site_fract_y
 _atom_site_fract_z
 _atom_site_occupancy
  C  C0  1  0.00000000  0.00000000  0.00000000  1
  Ni  Ni1  1  0.74339300  0.00000000  0.51184800  1
  Ni  Ni2  1  0.25660700  0.00000000  0.48815200  1
  Ni  Ni3  1  0.63545600  0.48805900  0.99997900  1
  Ni  Ni4  1  0.36454400  0.51194100  0.00002100  1
  Ni  Ni5  1  0.12351500  0.51194100  0.99997900  1
  Ni  Ni6  1  0.87648500  0.48805900  0.00002100  1
  Cu  Cu7  1  0.63934100  0.20887300  0.51152300  1
  Cu  Cu8  1  0.36065900  0.79112700  0.48847700  1
  Cu  Cu9  1  0.63186500  0.00000000  0.00090100  1
  Cu  Cu10  1  0.15178600  0.20887300  0.48847700  1
  Cu  Cu11  1  0.36813500  0.00000000  0.99909900  1
  Cu  Cu12  1  0.84821400  0.79112700  0.51152300  1
