# generated using pymatgen
data_Cu11(Ni5C)4
_symmetry_space_group_name_H-M   'P 1'
_cell_length_a   4.18602400
_cell_length_b   10.96583582
_cell_length_c   13.80031646
_cell_angle_alpha   83.00799373
_cell_angle_beta   81.27662650
_cell_angle_gamma   78.99663663
_symmetry_Int_Tables_number   1
_chemical_formula_structural   Cu11(Ni5C)4
_chemical_formula_sum   'Cu11 Ni20 C4'
_cell_volume   611.82343865
_cell_formula_units_Z   1
loop_
 _symmetry_equiv_pos_site_id
 _symmetry_equiv_pos_as_xyz
  1  'x, y, z'
loop_
 _atom_site_type_symbol
 _atom_site_label
 _atom_site_symmetry_multiplicity
 _atom_site_fract_x
 _atom_site_fract_y
 _atom_site_fract_z
 _atom_site_occupancy
  C  C0  1  0.12134800  0.09141500  0.66588900  1
  C  C1  1  0.87865200  0.90858500  0.33411100  1
  C  C2  1  0.77473200  0.63085900  0.81967600  1
  C  C3  1  0.22526800  0.36914100  0.18032400  1
  Ni  Ni4  1  0.00701700  0.07210100  0.91386600  1
  Ni  Ni5  1  0.99298300  0.92789900  0.08613400  1
  Ni  Ni6  1  0.06528700  0.67084500  0.19858100  1
  Ni  Ni7  1  0.93471300  0.32915500  0.80141900  1
  Ni  Ni8  1  0.10206100  0.34221700  0.45366000  1
  Ni  Ni9  1  0.89793900  0.65778300  0.54634000  1
  Ni  Ni10  1  0.20063700  0.60650800  0.99221800  1
  Ni  Ni11  1  0.79936300  0.39349200  0.00778200  1
  Ni  Ni12  1  0.25561900  0.78337400  0.70538800  1
  Ni  Ni13  1  0.74438100  0.21662600  0.29461200  1
  Ni  Ni14  1  0.30120000  0.90054000  0.49706000  1
  Ni  Ni15  1  0.69880000  0.09946000  0.50294000  1
  Ni  Ni16  1  0.38769000  0.52661800  0.69800200  1
  Ni  Ni17  1  0.61231000  0.47338200  0.30199800  1
  Ni  Ni18  1  0.39766000  0.20682000  0.99786000  1
  Ni  Ni19  1  0.60234000  0.79318000  0.00214000  1
  Ni  Ni20  1  0.54396000  0.28649500  0.62558500  1
  Ni  Ni21  1  0.45604000  0.71350500  0.37441500  1
  Ni  Ni22  1  0.63436200  0.93441900  0.79685800  1
  Ni  Ni23  1  0.36563800  0.06558100  0.20314200  1
  Cu  Cu24  1  0.50000000  0.50000000  0.50000000  1
  Cu  Cu25  1  0.02758700  0.57370600  0.37112000  1
  Cu  Cu26  1  0.97241300  0.42629400  0.62888000  1
  Cu  Cu27  1  0.13585500  0.83479900  0.89349100  1
  Cu  Cu28  1  0.86414500  0.16520100  0.10650900  1
  Cu  Cu29  1  0.24143800  0.12805200  0.38907100  1
  Cu  Cu30  1  0.75856200  0.87194800  0.61092900  1
  Cu  Cu31  1  0.34476800  0.42015500  0.89030900  1
  Cu  Cu32  1  0.65523200  0.57984500  0.10969100  1
  Cu  Cu33  1  0.50634100  0.17273500  0.81458400  1
  Cu  Cu34  1  0.49365900  0.82726500  0.18541600  1
