# generated using pymatgen
data_Cu(NiC5)2
_symmetry_space_group_name_H-M   'P 1'
_cell_length_a   5.22910216
_cell_length_b   6.02379795
_cell_length_c   19.30601992
_cell_angle_alpha   89.98780987
_cell_angle_beta   90.02321555
_cell_angle_gamma   90.00188323
_symmetry_Int_Tables_number   1
_chemical_formula_structural   Cu(NiC5)2
_chemical_formula_sum   'Cu4 Ni8 C40'
_cell_volume   608.12131677
_cell_formula_units_Z   4
loop_
 _symmetry_equiv_pos_site_id
 _symmetry_equiv_pos_as_xyz
  1  'x, y, z'
loop_
 _atom_site_type_symbol
 _atom_site_label
 _atom_site_symmetry_multiplicity
 _atom_site_fract_x
 _atom_site_fract_y
 _atom_site_fract_z
 _atom_site_occupancy
  C  C0  1  0.75547500  0.14134100  0.27297700  1
  C  C1  1  0.75547600  0.64134200  0.77297600  1
  C  C2  1  0.74528400  0.64119700  0.22705500  1
  C  C3  1  0.74528400  0.14119600  0.72705400  1
  C  C4  1  0.24530100  0.35488500  0.22691800  1
  C  C5  1  0.24530200  0.85488500  0.72691900  1
  C  C6  1  0.25547000  0.85502800  0.27284600  1
  C  C7  1  0.25547200  0.35502900  0.77284500  1
  Ni  Ni8  1  0.74525100  0.16099300  0.11738500  1
  Ni  Ni9  1  0.74525100  0.66098800  0.61738600  1
  Ni  Ni10  1  0.75536700  0.66102200  0.38256000  1
  Ni  Ni11  1  0.75536900  0.16102300  0.88256000  1
  Ni  Ni12  1  0.25536400  0.33538900  0.38249700  1
  Ni  Ni13  1  0.25536500  0.83539100  0.88249900  1
  Ni  Ni14  1  0.24528300  0.83528300  0.11735300  1
  Ni  Ni15  1  0.24528400  0.33528100  0.61735300  1
  Cu  Cu16  1  0.75021300  0.64211400  0.99994500  1
  Cu  Cu17  1  0.25031300  0.85425600  0.49996400  1
  Cu  Cu18  1  0.75021600  0.14212100  0.49994700  1
  Cu  Cu19  1  0.25031200  0.35425400  0.99996400  1
  C  C20  1  0.07908800  0.10832300  0.07270000  1
  C  C21  1  0.07908900  0.60832400  0.57270100  1
  C  C22  1  0.42155900  0.60821300  0.42724500  1
  C  C23  1  0.42155900  0.10821200  0.92724600  1
  C  C24  1  0.92150100  0.38798300  0.42719600  1
  C  C25  1  0.92150100  0.88798200  0.92719400  1
  C  C26  1  0.57904900  0.88821000  0.07263900  1
  C  C27  1  0.57905100  0.38821000  0.57263700  1
  C  C28  1  0.59715200  0.37118900  0.06053700  1
  C  C29  1  0.59715300  0.87118400  0.56053700  1
  C  C30  1  0.90334200  0.87103000  0.43946900  1
  C  C31  1  0.90334200  0.37103500  0.93946900  1
  C  C32  1  0.40335300  0.12525900  0.43939100  1
  C  C33  1  0.40335300  0.62526500  0.93939100  1
  C  C34  1  0.09716700  0.62533500  0.06045500  1
  C  C35  1  0.09716500  0.12533200  0.56045500  1
  C  C36  1  0.45549100  0.10173800  0.18654800  1
  C  C37  1  0.45549400  0.60173800  0.68654700  1
  C  C38  1  0.04520800  0.60199500  0.31338800  1
  C  C39  1  0.04520900  0.10199700  0.81338700  1
  C  C40  1  0.95555200  0.89428800  0.18653200  1
  C  C41  1  0.95554800  0.39428500  0.68653300  1
  C  C42  1  0.54523800  0.39453400  0.31335200  1
  C  C43  1  0.54523500  0.89453400  0.81335300  1
  C  C44  1  0.38076400  0.64473100  0.19182300  1
  C  C45  1  0.38076700  0.14473300  0.69182400  1
  C  C46  1  0.12012800  0.14485200  0.30801900  1
  C  C47  1  0.12012800  0.64484700  0.80801900  1
  C  C48  1  0.61999200  0.85150100  0.30806300  1
  C  C49  1  0.61998800  0.35149900  0.80806200  1
  C  C50  1  0.88063700  0.35139100  0.19188400  1
  C  C51  1  0.88063600  0.85139400  0.69188400  1
