# generated using pymatgen
data_CuNiC6
_symmetry_space_group_name_H-M   'P 1'
_cell_length_a   5.26742100
_cell_length_b   10.45757200
_cell_length_c   15.22818100
_cell_angle_alpha   90.00000000
_cell_angle_beta   90.00000000
_cell_angle_gamma   90.00000000
_symmetry_Int_Tables_number   1
_chemical_formula_structural   CuNiC6
_chemical_formula_sum   'Cu8 Ni8 C48'
_cell_volume   838.83573674
_cell_formula_units_Z   8
loop_
 _symmetry_equiv_pos_site_id
 _symmetry_equiv_pos_as_xyz
  1  'x, y, z'
loop_
 _atom_site_type_symbol
 _atom_site_label
 _atom_site_symmetry_multiplicity
 _atom_site_fract_x
 _atom_site_fract_y
 _atom_site_fract_z
 _atom_site_occupancy
  Ni  Ni0  1  0.49229700  0.36762400  0.54797300  1
  Ni  Ni1  1  0.99229700  0.13237600  0.54797300  1
  Ni  Ni2  1  0.99229700  0.63237600  0.95202700  1
  Ni  Ni3  1  0.00770300  0.36762400  0.04797300  1
  Ni  Ni4  1  0.50770300  0.13237600  0.04797300  1
  Ni  Ni5  1  0.00770300  0.86762400  0.45202700  1
  Ni  Ni6  1  0.50770300  0.63237600  0.45202700  1
  Ni  Ni7  1  0.49229700  0.86762400  0.95202700  1
  C  C8  1  0.99714000  0.38297600  0.41961700  1
  C  C9  1  0.50286000  0.88297600  0.58038300  1
  C  C10  1  0.00286000  0.61702400  0.58038300  1
  C  C11  1  0.49714000  0.11702400  0.41961700  1
  C  C12  1  0.00286000  0.11702400  0.91961700  1
  C  C13  1  0.99714000  0.88297600  0.08038300  1
  C  C14  1  0.50286000  0.38297600  0.91961700  1
  C  C15  1  0.49714000  0.61702400  0.08038300  1
  Cu  Cu16  1  0.01159100  0.85725700  0.76158700  1
  Cu  Cu17  1  0.98840900  0.14274300  0.23841300  1
  Cu  Cu18  1  0.48840900  0.35725700  0.23841300  1
  Cu  Cu19  1  0.98840900  0.64274300  0.26158700  1
  Cu  Cu20  1  0.51159100  0.14274300  0.73841300  1
  Cu  Cu21  1  0.51159100  0.64274300  0.76158700  1
  Cu  Cu22  1  0.48840900  0.85725700  0.26158700  1
  Cu  Cu23  1  0.01159100  0.35725700  0.73841300  1
  C  C24  1  0.82997000  0.30432700  0.31993600  1
  C  C25  1  0.25481800  0.02351100  0.96934500  1
  C  C26  1  0.24518200  0.52351100  0.03065500  1
  C  C27  1  0.34623700  0.79910200  0.83616900  1
  C  C28  1  0.15376300  0.29910200  0.16383100  1
  C  C29  1  0.82997000  0.80432700  0.18006400  1
  C  C30  1  0.15376300  0.79910200  0.33616900  1
  C  C31  1  0.67003000  0.80432700  0.68006400  1
  C  C32  1  0.25481800  0.52351100  0.53065500  1
  C  C33  1  0.17003000  0.69567300  0.68006400  1
  C  C34  1  0.67003000  0.30432700  0.81993600  1
  C  C35  1  0.68743600  0.22165200  0.48608000  1
  C  C36  1  0.75481800  0.97648900  0.53065500  1
  C  C37  1  0.65376300  0.70089800  0.33616900  1
  C  C38  1  0.20930900  0.99264900  0.15416700  1
  C  C39  1  0.75481800  0.47648900  0.96934500  1
  C  C40  1  0.17003000  0.19567300  0.81993600  1
  C  C41  1  0.84623700  0.20089800  0.66383100  1
  C  C42  1  0.18743600  0.77834800  0.01392000  1
  C  C43  1  0.24518200  0.02351100  0.46934500  1
  C  C44  1  0.31256400  0.77834800  0.51392000  1
  C  C45  1  0.79069100  0.00735100  0.84583300  1
  C  C46  1  0.65376300  0.20089800  0.16383100  1
  C  C47  1  0.70930900  0.00735100  0.34583300  1
  C  C48  1  0.31256400  0.27834800  0.98608000  1
  C  C49  1  0.18743600  0.27834800  0.48608000  1
  C  C50  1  0.74518200  0.47648900  0.46934500  1
  C  C51  1  0.74518200  0.97648900  0.03065500  1
  C  C52  1  0.70930900  0.50735100  0.15416700  1
  C  C53  1  0.81256400  0.72165200  0.51392000  1
  C  C54  1  0.81256400  0.22165200  0.98608000  1
  C  C55  1  0.68743600  0.72165200  0.01392000  1
  C  C56  1  0.79069100  0.50735100  0.65416700  1
  C  C57  1  0.84623700  0.70089800  0.83616900  1
  C  C58  1  0.34623700  0.29910200  0.66383100  1
  C  C59  1  0.20930900  0.49264900  0.34583300  1
  C  C60  1  0.29069100  0.49264900  0.84583300  1
  C  C61  1  0.32997000  0.19567300  0.31993600  1
  C  C62  1  0.29069100  0.99264900  0.65416700  1
  C  C63  1  0.32997000  0.69567300  0.18006400  1
