# generated using pymatgen
data_Cu7NiC18
_symmetry_space_group_name_H-M   'P 1'
_cell_length_a   10.92933273
_cell_length_b   10.92933273
_cell_length_c   6.70020100
_cell_angle_alpha   90.00000000
_cell_angle_beta   90.00000000
_cell_angle_gamma   120.00000441
_symmetry_Int_Tables_number   1
_chemical_formula_structural   Cu7NiC18
_chemical_formula_sum   'Cu14 Ni2 C36'
_cell_volume   693.11570442
_cell_formula_units_Z   2
loop_
 _symmetry_equiv_pos_site_id
 _symmetry_equiv_pos_as_xyz
  1  'x, y, z'
loop_
 _atom_site_type_symbol
 _atom_site_label
 _atom_site_symmetry_multiplicity
 _atom_site_fract_x
 _atom_site_fract_y
 _atom_site_fract_z
 _atom_site_occupancy
  Ni  Ni0  1  0.33333300  0.66666700  0.18933400  1
  Ni  Ni1  1  0.66666700  0.33333300  0.68933400  1
  Cu  Cu2  1  0.00000000  0.00000000  0.15253300  1
  Cu  Cu3  1  0.00000000  0.00000000  0.65253300  1
  Cu  Cu4  1  0.93853600  0.45740800  0.05479900  1
  Cu  Cu5  1  0.51887200  0.06146400  0.05479900  1
  Cu  Cu6  1  0.54259200  0.48112800  0.05479900  1
  Cu  Cu7  1  0.48112800  0.54259200  0.55479900  1
  Cu  Cu8  1  0.45740800  0.93853600  0.55479900  1
  Cu  Cu9  1  0.06146400  0.51887200  0.55479900  1
  Cu  Cu10  1  0.82501600  0.63173700  0.37236700  1
  Cu  Cu11  1  0.80672100  0.17498400  0.37236700  1
  Cu  Cu12  1  0.36826300  0.19327900  0.37236700  1
  Cu  Cu13  1  0.19327900  0.36826300  0.87236700  1
  Cu  Cu14  1  0.63173700  0.82501600  0.87236700  1
  Cu  Cu15  1  0.17498400  0.80672100  0.87236700  1
  C  C16  1  0.15403900  0.81619000  0.35075500  1
  C  C17  1  0.66215200  0.84596100  0.35075500  1
  C  C18  1  0.18381000  0.33784800  0.35075500  1
  C  C19  1  0.33784800  0.18381000  0.85075500  1
  C  C20  1  0.81619000  0.15403900  0.85075500  1
  C  C21  1  0.84596100  0.66215200  0.85075500  1
  C  C22  1  0.21807100  0.77086900  0.54257000  1
  C  C23  1  0.55279800  0.78192900  0.54257000  1
  C  C24  1  0.22913100  0.44720200  0.54257000  1
  C  C25  1  0.44720200  0.22913100  0.04257000  1
  C  C26  1  0.77086900  0.21807100  0.04257000  1
  C  C27  1  0.78192900  0.55279800  0.04257000  1
  C  C28  1  0.07324200  0.67084700  0.21527600  1
  C  C29  1  0.59760500  0.92675800  0.21527600  1
  C  C30  1  0.32915300  0.40239500  0.21527600  1
  C  C31  1  0.40239500  0.32915300  0.71527600  1
  C  C32  1  0.67084700  0.07324200  0.71527600  1
  C  C33  1  0.92675800  0.59760500  0.71527600  1
  C  C34  1  0.28676100  0.94362600  0.22547600  1
  C  C35  1  0.65686500  0.71323900  0.22547600  1
  C  C36  1  0.05637400  0.34313500  0.22547600  1
  C  C37  1  0.34313500  0.05637400  0.72547600  1
  C  C38  1  0.94362600  0.28676100  0.72547600  1
  C  C39  1  0.71323900  0.65686500  0.72547600  1
  C  C40  1  0.82657700  0.96571200  0.40964000  1
  C  C41  1  0.13913500  0.17342300  0.40964000  1
  C  C42  1  0.03428800  0.86086500  0.40964000  1
  C  C43  1  0.86086500  0.03428800  0.90964000  1
  C  C44  1  0.96571200  0.82657700  0.90964000  1
  C  C45  1  0.17342300  0.13913500  0.90964000  1
  C  C46  1  0.15160900  0.56319700  0.88325700  1
  C  C47  1  0.41158900  0.84839100  0.88325700  1
  C  C48  1  0.43680300  0.58841100  0.88325700  1
  C  C49  1  0.58841100  0.43680300  0.38325700  1
  C  C50  1  0.56319700  0.15160900  0.38325700  1
  C  C51  1  0.84839100  0.41158900  0.38325700  1
