# generated using pymatgen
data_CuNiC3
_symmetry_space_group_name_H-M   'P 1'
_cell_length_a   8.90002800
_cell_length_b   5.35252100
_cell_length_c   18.64141193
_cell_angle_alpha   88.79596128
_cell_angle_beta   90.00000000
_cell_angle_gamma   90.00000000
_symmetry_Int_Tables_number   1
_chemical_formula_structural   CuNiC3
_chemical_formula_sum   'Cu16 Ni16 C48'
_cell_volume   887.83580537
_cell_formula_units_Z   16
loop_
 _symmetry_equiv_pos_site_id
 _symmetry_equiv_pos_as_xyz
  1  'x, y, z'
loop_
 _atom_site_type_symbol
 _atom_site_label
 _atom_site_symmetry_multiplicity
 _atom_site_fract_x
 _atom_site_fract_y
 _atom_site_fract_z
 _atom_site_occupancy
  Ni  Ni0  1  0.39994700  0.25000000  0.00000000  1
  Ni  Ni1  1  0.60005300  0.75000000  0.00000000  1
  Ni  Ni2  1  0.24262400  0.75000000  0.00000000  1
  Ni  Ni3  1  0.75737600  0.25000000  0.00000000  1
  Ni  Ni4  1  0.90089300  0.27739900  0.24954000  1
  Ni  Ni5  1  0.90089300  0.22260100  0.75046000  1
  Ni  Ni6  1  0.09910700  0.72260100  0.75046000  1
  Ni  Ni7  1  0.09910700  0.77739900  0.24954000  1
  Ni  Ni8  1  0.25803300  0.27669800  0.25214700  1
  Ni  Ni9  1  0.25803300  0.22330200  0.74785300  1
  Ni  Ni10  1  0.74196700  0.72330200  0.74785300  1
  Ni  Ni11  1  0.74196700  0.77669800  0.25214700  1
  Ni  Ni12  1  0.59661800  0.75000000  0.50000000  1
  Ni  Ni13  1  0.40338200  0.25000000  0.50000000  1
  Ni  Ni14  1  0.23897200  0.75000000  0.50000000  1
  Ni  Ni15  1  0.76102800  0.25000000  0.50000000  1
  Cu  Cu16  1  0.91109900  0.54922900  0.89585100  1
  Cu  Cu17  1  0.91109900  0.95077100  0.10414900  1
  Cu  Cu18  1  0.08890100  0.45077100  0.10414900  1
  Cu  Cu19  1  0.08890100  0.04922900  0.89585100  1
  Cu  Cu20  1  0.41066400  0.59123300  0.85221500  1
  Cu  Cu21  1  0.41066400  0.90876700  0.14778500  1
  Cu  Cu22  1  0.58933600  0.40876700  0.14778500  1
  Cu  Cu23  1  0.58933600  0.09123300  0.85221500  1
  Cu  Cu24  1  0.90943700  0.57913900  0.39716600  1
  Cu  Cu25  1  0.90943700  0.92086100  0.60283400  1
  Cu  Cu26  1  0.09056300  0.42086100  0.60283400  1
  Cu  Cu27  1  0.09056300  0.07913900  0.39716600  1
  Cu  Cu28  1  0.58982000  0.08153500  0.35288400  1
  Cu  Cu29  1  0.58982000  0.41846500  0.64711600  1
  Cu  Cu30  1  0.41018000  0.91846500  0.64711600  1
  Cu  Cu31  1  0.41018000  0.58153500  0.35288400  1
  C  C32  1  0.90818200  0.55358800  0.80821600  1
  C  C33  1  0.90818200  0.94641200  0.19178400  1
  C  C34  1  0.09181800  0.44641200  0.19178400  1
  C  C35  1  0.09181800  0.05358800  0.80821600  1
  C  C36  1  0.75678100  0.57139100  0.93972800  1
  C  C37  1  0.75678100  0.92860900  0.06027200  1
  C  C38  1  0.24321900  0.42860900  0.06027200  1
  C  C39  1  0.24321900  0.07139100  0.93972800  1
  C  C40  1  0.03451700  0.76106800  0.92299400  1
  C  C41  1  0.03451700  0.73893200  0.07700600  1
  C  C42  1  0.96548300  0.23893200  0.07700600  1
  C  C43  1  0.96548300  0.26106800  0.92299400  1
  C  C44  1  0.40750800  0.58279100  0.94011200  1
  C  C45  1  0.40750800  0.91720900  0.05988800  1
  C  C46  1  0.59249200  0.41720900  0.05988800  1
  C  C47  1  0.59249200  0.08279100  0.94011200  1
  C  C48  1  0.25743700  0.52779400  0.80977100  1
  C  C49  1  0.25743700  0.97220600  0.19022900  1
  C  C50  1  0.74256300  0.47220600  0.19022900  1
  C  C51  1  0.74256300  0.02779400  0.80977100  1
  C  C52  1  0.53070400  0.37267700  0.82492700  1
  C  C53  1  0.53070400  0.12732300  0.17507300  1
  C  C54  1  0.46929600  0.62732300  0.17507300  1
  C  C55  1  0.46929600  0.87267700  0.82492700  1
  C  C56  1  0.90784400  0.59851200  0.30985100  1
  C  C57  1  0.90784400  0.90148800  0.69014900  1
  C  C58  1  0.09215600  0.40148800  0.69014900  1
  C  C59  1  0.09215600  0.09851200  0.30985100  1
  C  C60  1  0.75165400  0.57469400  0.43922200  1
  C  C61  1  0.75165400  0.92530600  0.56077800  1
  C  C62  1  0.24834600  0.42530600  0.56077800  1
  C  C63  1  0.24834600  0.07469400  0.43922200  1
  C  C64  1  0.97747600  0.30250800  0.42598000  1
  C  C65  1  0.97747600  0.19749200  0.57402000  1
  C  C66  1  0.02252400  0.69749200  0.57402000  1
  C  C67  1  0.02252400  0.80250800  0.42598000  1
  C  C68  1  0.59108800  0.08506500  0.44042100  1
  C  C69  1  0.59108800  0.41493500  0.55957900  1
  C  C70  1  0.40891200  0.91493500  0.55957900  1
  C  C71  1  0.40891200  0.58506500  0.44042100  1
  C  C72  1  0.74896500  0.09261100  0.31239500  1
  C  C73  1  0.74896500  0.40738900  0.68760500  1
  C  C74  1  0.25103500  0.90738900  0.68760500  1
  C  C75  1  0.25103500  0.59261100  0.31239500  1
  C  C76  1  0.52827700  0.80371700  0.32340000  1
  C  C77  1  0.52827700  0.69628300  0.67660000  1
  C  C78  1  0.47172300  0.19628300  0.67660000  1
  C  C79  1  0.47172300  0.30371700  0.32340000  1
