# generated using pymatgen
data_CuNiC6
_symmetry_space_group_name_H-M   'P 1'
_cell_length_a   5.77823500
_cell_length_b   7.30314900
_cell_length_c   8.57886600
_cell_angle_alpha   90.00000000
_cell_angle_beta   90.00000000
_cell_angle_gamma   90.00000000
_symmetry_Int_Tables_number   1
_chemical_formula_structural   CuNiC6
_chemical_formula_sum   'Cu4 Ni4 C24'
_cell_volume   362.02223575
_cell_formula_units_Z   4
loop_
 _symmetry_equiv_pos_site_id
 _symmetry_equiv_pos_as_xyz
  1  'x, y, z'
loop_
 _atom_site_type_symbol
 _atom_site_label
 _atom_site_symmetry_multiplicity
 _atom_site_fract_x
 _atom_site_fract_y
 _atom_site_fract_z
 _atom_site_occupancy
  C  C0  1  0.50000000  0.36630800  0.33117400  1
  C  C1  1  0.50000000  0.63369200  0.66882600  1
  C  C2  1  0.50000000  0.13369200  0.83117400  1
  C  C3  1  0.50000000  0.86630800  0.16882600  1
  Ni  Ni4  1  0.25155600  0.00000000  0.50000000  1
  Ni  Ni5  1  0.74844400  0.00000000  0.50000000  1
  Ni  Ni6  1  0.74844400  0.50000000  0.00000000  1
  Ni  Ni7  1  0.25155600  0.50000000  0.00000000  1
  Cu  Cu8  1  0.00000000  0.10673600  0.14614900  1
  Cu  Cu9  1  0.00000000  0.89326400  0.85385100  1
  Cu  Cu10  1  0.00000000  0.39326400  0.64614900  1
  Cu  Cu11  1  0.00000000  0.60673600  0.35385100  1
  C  C12  1  0.23594600  0.00000000  0.00000000  1
  C  C13  1  0.76405400  0.00000000  0.00000000  1
  C  C14  1  0.76405400  0.50000000  0.50000000  1
  C  C15  1  0.23594600  0.50000000  0.50000000  1
  C  C16  1  0.26085000  0.10823900  0.29490300  1
  C  C17  1  0.73915000  0.89176100  0.70509700  1
  C  C18  1  0.26085000  0.89176100  0.70509700  1
  C  C19  1  0.73915000  0.39176100  0.79490300  1
  C  C20  1  0.73915000  0.10823900  0.29490300  1
  C  C21  1  0.26085000  0.60823900  0.20509700  1
  C  C22  1  0.73915000  0.60823900  0.20509700  1
  C  C23  1  0.26085000  0.39176100  0.79490300  1
  C  C24  1  0.50000000  0.33699500  0.05844800  1
  C  C25  1  0.50000000  0.66300500  0.94155200  1
  C  C26  1  0.50000000  0.16300500  0.55844800  1
  C  C27  1  0.50000000  0.83699500  0.44155200  1
  C  C28  1  0.00000000  0.34967900  0.07015900  1
  C  C29  1  0.00000000  0.65032100  0.92984100  1
  C  C30  1  0.00000000  0.15032100  0.57015900  1
  C  C31  1  0.00000000  0.84967900  0.42984100  1
