# generated using pymatgen
data_Cu3NiC18
_symmetry_space_group_name_H-M   'P 1'
_cell_length_a   7.36181331
_cell_length_b   7.36181331
_cell_length_c   7.32281421
_cell_angle_alpha   60.83332315
_cell_angle_beta   60.83332315
_cell_angle_gamma   61.05536610
_symmetry_Int_Tables_number   1
_chemical_formula_structural   Cu3NiC18
_chemical_formula_sum   'Cu3 Ni1 C18'
_cell_volume   286.36523810
_cell_formula_units_Z   1
loop_
 _symmetry_equiv_pos_site_id
 _symmetry_equiv_pos_as_xyz
  1  'x, y, z'
loop_
 _atom_site_type_symbol
 _atom_site_label
 _atom_site_symmetry_multiplicity
 _atom_site_fract_x
 _atom_site_fract_y
 _atom_site_fract_z
 _atom_site_occupancy
  Ni  Ni0  1  0.50000000  0.50000000  0.00000000  1
  Cu  Cu1  1  0.50000000  0.50000000  0.50000000  1
  Cu  Cu2  1  0.50000000  0.00000000  0.00000000  1
  Cu  Cu3  1  0.00000000  0.50000000  0.00000000  1
  C  C4  1  0.00000000  0.00000000  0.50000000  1
  C  C5  1  0.00000000  0.00000000  0.00000000  1
  C  C6  1  0.00000000  0.50000000  0.50000000  1
  C  C7  1  0.50000000  0.00000000  0.50000000  1
  C  C8  1  0.93061800  0.93061800  0.81661300  1
  C  C9  1  0.32598100  0.32598100  0.42941500  1
  C  C10  1  0.92425200  0.32242600  0.42482800  1
  C  C11  1  0.31876800  0.93903200  0.81987600  1
  C  C12  1  0.93903200  0.31876800  0.81987600  1
  C  C13  1  0.32242600  0.92425200  0.42482800  1
  C  C14  1  0.06938200  0.06938200  0.18338700  1
  C  C15  1  0.67401900  0.67401900  0.57058500  1
  C  C16  1  0.07574800  0.67757400  0.57517200  1
  C  C17  1  0.68123200  0.06096800  0.18012400  1
  C  C18  1  0.06096800  0.68123200  0.18012400  1
  C  C19  1  0.67757400  0.07574800  0.57517200  1
  C  C20  1  0.62788500  0.62788500  0.12550200  1
  C  C21  1  0.37211500  0.37211500  0.87449800  1
