# generated using pymatgen
data_Cu10Ni2C
_symmetry_space_group_name_H-M   'P 1'
_cell_length_a   4.70947600
_cell_length_b   6.43602996
_cell_length_c   6.43602996
_cell_angle_alpha   96.83559019
_cell_angle_beta   111.46101632
_cell_angle_gamma   68.53898368
_symmetry_Int_Tables_number   1
_chemical_formula_structural   Cu10Ni2C
_chemical_formula_sum   'Cu10 Ni2 C1'
_cell_volume   168.94032489
_cell_formula_units_Z   1
loop_
 _symmetry_equiv_pos_site_id
 _symmetry_equiv_pos_as_xyz
  1  'x, y, z'
loop_
 _atom_site_type_symbol
 _atom_site_label
 _atom_site_symmetry_multiplicity
 _atom_site_fract_x
 _atom_site_fract_y
 _atom_site_fract_z
 _atom_site_occupancy
  C  C0  1  0.00000000  0.00000000  0.00000000  1
  Ni  Ni1  1  0.00000000  0.34894300  0.34894300  1
  Ni  Ni2  1  0.00000000  0.65105700  0.65105700  1
  Cu  Cu3  1  0.72249000  0.77751000  0.22249000  1
  Cu  Cu4  1  0.27751000  0.22249000  0.77751000  1
  Cu  Cu5  1  0.50000000  0.77659700  0.77659700  1
  Cu  Cu6  1  0.50000000  0.22340300  0.22340300  1
  Cu  Cu7  1  0.50000000  0.00000000  0.50000000  1
  Cu  Cu8  1  0.00000000  0.00000000  0.50000000  1
  Cu  Cu9  1  0.50000000  0.50000000  0.00000000  1
  Cu  Cu10  1  0.00000000  0.50000000  0.00000000  1
  Cu  Cu11  1  0.64071300  0.35928700  0.64071300  1
  Cu  Cu12  1  0.35928700  0.64071300  0.35928700  1
