# generated using pymatgen
data_Cu12Ni3C4
_symmetry_space_group_name_H-M   'P 1'
_cell_length_a   11.43594939
_cell_length_b   11.43594939
_cell_length_c   11.43594998
_cell_angle_alpha   114.75076863
_cell_angle_beta   114.75076863
_cell_angle_gamma   114.75076830
_symmetry_Int_Tables_number   1
_chemical_formula_structural   Cu12Ni3C4
_chemical_formula_sum   'Cu24 Ni6 C8'
_cell_volume   855.72442954
_cell_formula_units_Z   2
loop_
 _symmetry_equiv_pos_site_id
 _symmetry_equiv_pos_as_xyz
  1  'x, y, z'
loop_
 _atom_site_type_symbol
 _atom_site_label
 _atom_site_symmetry_multiplicity
 _atom_site_fract_x
 _atom_site_fract_y
 _atom_site_fract_z
 _atom_site_occupancy
  C  C0  1  0.49815900  0.49815900  0.49815900  1
  C  C1  1  0.99815900  0.99815900  0.99815900  1
  C  C2  1  0.43163100  0.20705100  0.97198000  1
  C  C3  1  0.97198000  0.43163100  0.20705100  1
  C  C4  1  0.20705100  0.97198000  0.43163100  1
  C  C5  1  0.47198000  0.70705100  0.93163100  1
  C  C6  1  0.93163100  0.47198000  0.70705100  1
  C  C7  1  0.70705100  0.93163100  0.47198000  1
  Ni  Ni8  1  0.85298600  0.63981000  0.46683400  1
  Ni  Ni9  1  0.46683400  0.85298600  0.63981000  1
  Ni  Ni10  1  0.63981000  0.46683400  0.85298600  1
  Ni  Ni11  1  0.96683400  0.13981000  0.35298600  1
  Ni  Ni12  1  0.35298600  0.96683400  0.13981000  1
  Ni  Ni13  1  0.13981000  0.35298600  0.96683400  1
  Cu  Cu14  1  0.78405100  0.39153300  0.31772600  1
  Cu  Cu15  1  0.31772600  0.78405100  0.39153300  1
  Cu  Cu16  1  0.39153300  0.31772600  0.78405100  1
  Cu  Cu17  1  0.81772600  0.89153300  0.28405100  1
  Cu  Cu18  1  0.28405100  0.81772600  0.89153300  1
  Cu  Cu19  1  0.89153300  0.28405100  0.81772600  1
  Cu  Cu20  1  0.87292900  0.68718300  0.68232100  1
  Cu  Cu21  1  0.68232100  0.87292900  0.68718300  1
  Cu  Cu22  1  0.68718300  0.68232100  0.87292900  1
  Cu  Cu23  1  0.18232100  0.18718300  0.37292900  1
  Cu  Cu24  1  0.37292900  0.18232100  0.18718300  1
  Cu  Cu25  1  0.18718300  0.37292900  0.18232100  1
  Cu  Cu26  1  0.62050000  0.58648100  0.30075600  1
  Cu  Cu27  1  0.30075600  0.62050000  0.58648100  1
  Cu  Cu28  1  0.58648100  0.30075600  0.62050000  1
  Cu  Cu29  1  0.80075600  0.08648100  0.12050000  1
  Cu  Cu30  1  0.12050000  0.80075600  0.08648100  1
  Cu  Cu31  1  0.08648100  0.12050000  0.80075600  1
  Cu  Cu32  1  0.11555500  0.84708000  0.57843400  1
  Cu  Cu33  1  0.57843400  0.11555500  0.84708000  1
  Cu  Cu34  1  0.84708000  0.57843400  0.11555500  1
  Cu  Cu35  1  0.07843400  0.34708000  0.61555500  1
  Cu  Cu36  1  0.61555500  0.07843400  0.34708000  1
  Cu  Cu37  1  0.34708000  0.61555500  0.07843400  1
