# generated using pymatgen
data_Cu2Ni2C9
_symmetry_space_group_name_H-M   'P 1'
_cell_length_a   9.80476700
_cell_length_b   10.28092100
_cell_length_c   11.00601500
_cell_angle_alpha   90.00000000
_cell_angle_beta   90.00000000
_cell_angle_gamma   90.00000000
_symmetry_Int_Tables_number   1
_chemical_formula_structural   Cu2Ni2C9
_chemical_formula_sum   'Cu16 Ni16 C72'
_cell_volume   1109.42870869
_cell_formula_units_Z   8
loop_
 _symmetry_equiv_pos_site_id
 _symmetry_equiv_pos_as_xyz
  1  'x, y, z'
loop_
 _atom_site_type_symbol
 _atom_site_label
 _atom_site_symmetry_multiplicity
 _atom_site_fract_x
 _atom_site_fract_y
 _atom_site_fract_z
 _atom_site_occupancy
  C  C0  1  0.08326800  0.12322400  0.92554300  1
  C  C1  1  0.41673200  0.62322400  0.07445700  1
  C  C2  1  0.58326800  0.87677600  0.57445700  1
  C  C3  1  0.91673200  0.37677600  0.42554300  1
  C  C4  1  0.91673200  0.87677600  0.07445700  1
  C  C5  1  0.58326800  0.37677600  0.92554300  1
  C  C6  1  0.41673200  0.12322400  0.42554300  1
  C  C7  1  0.08326800  0.62322400  0.57445700  1
  C  C8  1  0.91656700  0.32218400  0.10544800  1
  C  C9  1  0.58343300  0.82218400  0.89455200  1
  C  C10  1  0.41656700  0.67781600  0.39455200  1
  C  C11  1  0.08343300  0.17781600  0.60544800  1
  C  C12  1  0.08343300  0.67781600  0.89455200  1
  C  C13  1  0.41656700  0.17781600  0.10544800  1
  C  C14  1  0.58343300  0.32218400  0.60544800  1
  C  C15  1  0.91656700  0.82218400  0.39455200  1
  C  C16  1  0.21773200  0.40368100  0.96110700  1
  C  C17  1  0.28226800  0.90368100  0.03889300  1
  C  C18  1  0.71773200  0.59631900  0.53889300  1
  C  C19  1  0.78226800  0.09631900  0.46110700  1
  C  C20  1  0.78226800  0.59631900  0.03889300  1
  C  C21  1  0.71773200  0.09631900  0.96110700  1
  C  C22  1  0.28226800  0.40368100  0.46110700  1
  C  C23  1  0.21773200  0.90368100  0.53889300  1
  Ni  Ni24  1  0.31749300  0.21682900  0.75390600  1
  Ni  Ni25  1  0.18250700  0.71682900  0.24609400  1
  Ni  Ni26  1  0.81749300  0.78317100  0.74609400  1
  Ni  Ni27  1  0.68250700  0.28317100  0.25390600  1
  Ni  Ni28  1  0.68250700  0.78317100  0.24609400  1
  Ni  Ni29  1  0.81749300  0.28317100  0.75390600  1
  Ni  Ni30  1  0.18250700  0.21682900  0.25390600  1
  Ni  Ni31  1  0.31749300  0.71682900  0.74609400  1
  Ni  Ni32  1  0.27325500  0.43270700  0.74578400  1
  Ni  Ni33  1  0.22674500  0.93270700  0.25421600  1
  Ni  Ni34  1  0.77325500  0.56729300  0.75421600  1
  Ni  Ni35  1  0.72674500  0.06729300  0.24578400  1
  Ni  Ni36  1  0.72674500  0.56729300  0.25421600  1
  Ni  Ni37  1  0.77325500  0.06729300  0.74578400  1
  Ni  Ni38  1  0.22674500  0.43270700  0.24578400  1
  Ni  Ni39  1  0.27325500  0.93270700  0.75421600  1
  Cu  Cu40  1  0.94578900  0.59119500  0.24098500  1
  Cu  Cu41  1  0.55421100  0.09119500  0.75901500  1
  Cu  Cu42  1  0.44578800  0.40880500  0.25901500  1
  Cu  Cu43  1  0.05421100  0.90880500  0.74098500  1
  Cu  Cu44  1  0.05421100  0.40880500  0.75901500  1
  Cu  Cu45  1  0.44578800  0.90880500  0.24098500  1
  Cu  Cu46  1  0.55421100  0.59119500  0.74098500  1
  Cu  Cu47  1  0.94578900  0.09119500  0.25901500  1
  Cu  Cu48  1  0.19900100  0.37194100  0.79470700  1
  Cu  Cu49  1  0.30099900  0.87194100  0.20529300  1
  Cu  Cu50  1  0.69900100  0.62805900  0.70529300  1
  Cu  Cu51  1  0.80099900  0.12805900  0.29470700  1
  Cu  Cu52  1  0.80099900  0.62805900  0.20529300  1
  Cu  Cu53  1  0.69900100  0.12805900  0.79470700  1
  Cu  Cu54  1  0.30099900  0.37194100  0.29470700  1
  Cu  Cu55  1  0.19900100  0.87194100  0.70529300  1
  C  C56  1  0.35758800  0.35136700  0.00298000  1
  C  C57  1  0.14241200  0.85136700  0.99702000  1
  C  C58  1  0.85758800  0.64863300  0.49702000  1
  C  C59  1  0.64241200  0.14863300  0.50298000  1
  C  C60  1  0.64241200  0.64863300  0.99702000  1
  C  C61  1  0.85758800  0.14863300  0.00298000  1
  C  C62  1  0.14241200  0.35136700  0.50298000  1
  C  C63  1  0.35758800  0.85136700  0.49702000  1
  C  C64  1  0.21357400  0.55279900  0.97718100  1
  C  C65  1  0.28642600  0.05279900  0.02281900  1
  C  C66  1  0.71357400  0.44720100  0.52281900  1
  C  C67  1  0.78642600  0.94720100  0.47718100  1
  C  C68  1  0.78642600  0.44720100  0.02281900  1
  C  C69  1  0.71357400  0.94720100  0.97718100  1
  C  C70  1  0.28642600  0.55279900  0.47718100  1
  C  C71  1  0.21357400  0.05279900  0.52281900  1
  C  C72  1  0.09799400  0.32901100  0.01668300  1
  C  C73  1  0.40200600  0.82901100  0.98331700  1
  C  C74  1  0.59799400  0.67098900  0.48331700  1
  C  C75  1  0.90200600  0.17098900  0.51668300  1
  C  C76  1  0.90200600  0.67098900  0.98331700  1
  C  C77  1  0.59799400  0.17098900  0.01668300  1
  C  C78  1  0.40200600  0.32901100  0.51668300  1
  C  C79  1  0.09799400  0.82901100  0.48331700  1
  C  C80  1  0.21817300  0.23657500  0.76681900  1
  C  C81  1  0.28182700  0.73657500  0.23318100  1
  C  C82  1  0.71817300  0.76342500  0.73318100  1
  C  C83  1  0.78182700  0.26342500  0.26681900  1
  C  C84  1  0.78182700  0.76342500  0.23318100  1
  C  C85  1  0.71817300  0.26342500  0.76681900  1
  C  C86  1  0.28182700  0.23657500  0.26681900  1
  C  C87  1  0.21817300  0.73657500  0.73318100  1
  C  C88  1  0.98334300  0.47360400  0.23257200  1
  C  C89  1  0.51665700  0.97360400  0.76742800  1
  C  C90  1  0.48334300  0.52639600  0.26742800  1
  C  C91  1  0.01665700  0.02639600  0.73257200  1
  C  C92  1  0.01665700  0.52639600  0.76742800  1
  C  C93  1  0.48334300  0.02639600  0.23257200  1
  C  C94  1  0.51665700  0.47360400  0.73257200  1
  C  C95  1  0.98334300  0.97360400  0.26742800  1
  C  C96  1  0.02281800  0.18310800  0.22168400  1
  C  C97  1  0.47718200  0.68310800  0.77831600  1
  C  C98  1  0.52281800  0.81689200  0.27831600  1
  C  C99  1  0.97718200  0.31689200  0.72168400  1
  C  C100  1  0.97718200  0.81689200  0.77831600  1
  C  C101  1  0.52281800  0.31689200  0.22168400  1
  C  C102  1  0.47718200  0.18310800  0.72168400  1
  C  C103  1  0.02281800  0.68310800  0.27831600  1
