# generated using pymatgen
data_Cu3Ni5C12
_symmetry_space_group_name_H-M   'P 1'
_cell_length_a   5.72949037
_cell_length_b   5.72949037
_cell_length_c   14.00632400
_cell_angle_alpha   89.80522821
_cell_angle_beta   89.80522821
_cell_angle_gamma   60.08687267
_symmetry_Int_Tables_number   1
_chemical_formula_structural   Cu3Ni5C12
_chemical_formula_sum   'Cu6 Ni10 C24'
_cell_volume   398.53177091
_cell_formula_units_Z   2
loop_
 _symmetry_equiv_pos_site_id
 _symmetry_equiv_pos_as_xyz
  1  'x, y, z'
loop_
 _atom_site_type_symbol
 _atom_site_label
 _atom_site_symmetry_multiplicity
 _atom_site_fract_x
 _atom_site_fract_y
 _atom_site_fract_z
 _atom_site_occupancy
  Ni  Ni0  1  0.82627300  0.34058900  0.79522500  1
  Ni  Ni1  1  0.82887400  0.82887400  0.79451300  1
  Ni  Ni2  1  0.34058900  0.82627300  0.79522500  1
  Ni  Ni3  1  0.17001600  0.66332100  0.45949800  1
  Ni  Ni4  1  0.00540000  0.00540000  0.62367800  1
  Ni  Ni5  1  0.66332100  0.17001600  0.45949800  1
  Ni  Ni6  1  0.49812200  0.00516000  0.11987300  1
  Ni  Ni7  1  0.32794000  0.32794000  0.29350900  1
  Ni  Ni8  1  0.49763300  0.49763300  0.12038800  1
  Ni  Ni9  1  0.00516000  0.49812200  0.11987300  1
  Cu  Cu10  1  0.00123800  0.00123800  0.99620700  1
  Cu  Cu11  1  0.33693500  0.33693500  0.66566700  1
  Cu  Cu12  1  0.66692100  0.66692100  0.95097900  1
  Cu  Cu13  1  0.65862500  0.65862500  0.57739600  1
  Cu  Cu14  1  0.67485300  0.67485300  0.33589000  1
  Cu  Cu15  1  0.99526800  0.99526800  0.25652200  1
  C  C16  1  0.95741400  0.51944200  0.86736500  1
  C  C17  1  0.66592800  0.66592800  0.71421900  1
  C  C18  1  0.51946100  0.51946100  0.86811100  1
  C  C19  1  0.51944200  0.95741400  0.86736500  1
  C  C20  1  0.14736200  0.69994800  0.71434200  1
  C  C21  1  0.30705500  0.82391300  0.54501700  1
  C  C22  1  0.14988300  0.14988300  0.71276100  1
  C  C23  1  0.98942100  0.98942100  0.38435600  1
  C  C24  1  0.84925200  0.84925200  0.53760600  1
  C  C25  1  0.99918000  0.99918000  0.86302900  1
  C  C26  1  0.82391300  0.30705500  0.54501700  1
  C  C27  1  0.69994800  0.14736200  0.71434200  1
  C  C28  1  0.63972300  0.18230200  0.20439800  1
  C  C29  1  0.51049400  0.02268400  0.37121600  1
  C  C30  1  0.48307000  0.48307000  0.37864300  1
  C  C31  1  0.33326200  0.33326200  0.06082100  1
  C  C32  1  0.34433900  0.34433900  0.53541800  1
  C  C33  1  0.18025900  0.18025900  0.20650400  1
  C  C34  1  0.18230200  0.63972300  0.20439800  1
  C  C35  1  0.02268400  0.51049400  0.37121600  1
  C  C36  1  0.82185900  0.35798400  0.04662600  1
  C  C37  1  0.82115300  0.82115300  0.04640500  1
  C  C38  1  0.66720100  0.66720100  0.19329600  1
  C  C39  1  0.35798400  0.82185900  0.04662600  1
