# generated using pymatgen
data_CuNiC18
_symmetry_space_group_name_H-M   'P 1'
_cell_length_a   7.56690383
_cell_length_b   7.56690383
_cell_length_c   14.78073014
_cell_angle_alpha   88.19231424
_cell_angle_beta   88.19231424
_cell_angle_gamma   40.83090757
_symmetry_Int_Tables_number   1
_chemical_formula_structural   CuNiC18
_chemical_formula_sum   'Cu2 Ni2 C36'
_cell_volume   553.03198740
_cell_formula_units_Z   2
loop_
 _symmetry_equiv_pos_site_id
 _symmetry_equiv_pos_as_xyz
  1  'x, y, z'
loop_
 _atom_site_type_symbol
 _atom_site_label
 _atom_site_symmetry_multiplicity
 _atom_site_fract_x
 _atom_site_fract_y
 _atom_site_fract_z
 _atom_site_occupancy
  C  C0  1  0.73432100  0.89077000  0.12404800  1
  C  C1  1  0.89077000  0.73432100  0.62404800  1
  C  C2  1  0.26567900  0.10923000  0.87595200  1
  C  C3  1  0.10923000  0.26567900  0.37595200  1
  Ni  Ni4  1  0.43578100  0.56421900  0.25000000  1
  Ni  Ni5  1  0.56421900  0.43578100  0.75000000  1
  C  C6  1  0.85856900  0.90269500  0.37275800  1
  C  C7  1  0.14143100  0.09730500  0.62724200  1
  C  C8  1  0.90269500  0.85856900  0.87275800  1
  C  C9  1  0.09730500  0.14143100  0.12724200  1
  Cu  Cu10  1  0.50000000  0.50000000  0.50000000  1
  Cu  Cu11  1  0.50000000  0.50000000  0.00000000  1
  C  C12  1  0.89823000  0.11088200  0.83779300  1
  C  C13  1  0.59096900  0.12613000  0.95477300  1
  C  C14  1  0.40903100  0.87387000  0.04522700  1
  C  C15  1  0.14346200  0.35018900  0.09954900  1
  C  C16  1  0.51967300  0.38465300  0.12162600  1
  C  C17  1  0.61534700  0.48032700  0.37837400  1
  C  C18  1  0.12613000  0.59096900  0.45477300  1
  C  C19  1  0.88911800  0.10177000  0.66220600  1
  C  C20  1  0.02952000  0.63655900  0.27581500  1
  C  C21  1  0.85653800  0.64981100  0.90045100  1
  C  C22  1  0.58188900  0.20174800  0.28810500  1
  C  C23  1  0.64981100  0.85653800  0.40045100  1
  C  C24  1  0.20174800  0.58188900  0.78810500  1
  C  C25  1  0.41811100  0.79825200  0.71189500  1
  C  C26  1  0.38465300  0.51967300  0.62162600  1
  C  C27  1  0.97048000  0.36344100  0.72418500  1
  C  C28  1  0.27716400  0.87914600  0.51525300  1
  C  C29  1  0.10177000  0.88911800  0.16220600  1
  C  C30  1  0.72283600  0.12085400  0.48474700  1
  C  C31  1  0.87914600  0.27716400  0.01525300  1
  C  C32  1  0.87387000  0.40903100  0.54522700  1
  C  C33  1  0.79825200  0.41811100  0.21189500  1
  C  C34  1  0.63655900  0.02952000  0.77581500  1
  C  C35  1  0.12085400  0.72283600  0.98474700  1
  C  C36  1  0.48032700  0.61534700  0.87837400  1
  C  C37  1  0.11088200  0.89823000  0.33779400  1
  C  C38  1  0.36344100  0.97048000  0.22418500  1
  C  C39  1  0.35018900  0.14346200  0.59954800  1
