# generated using pymatgen
data_Cu2NiC8
_symmetry_space_group_name_H-M   'P 1'
_cell_length_a   6.78498579
_cell_length_b   6.78498579
_cell_length_c   7.39901500
_cell_angle_alpha   90.00000000
_cell_angle_beta   90.00000000
_cell_angle_gamma   119.99999797
_symmetry_Int_Tables_number   1
_chemical_formula_structural   Cu2NiC8
_chemical_formula_sum   'Cu2 Ni1 C8'
_cell_volume   294.98669863
_cell_formula_units_Z   1
loop_
 _symmetry_equiv_pos_site_id
 _symmetry_equiv_pos_as_xyz
  1  'x, y, z'
loop_
 _atom_site_type_symbol
 _atom_site_label
 _atom_site_symmetry_multiplicity
 _atom_site_fract_x
 _atom_site_fract_y
 _atom_site_fract_z
 _atom_site_occupancy
  C  C0  1  0.33333300  0.66666700  0.60168300  1
  C  C1  1  0.66666700  0.33333300  0.39831700  1
  Ni  Ni2  1  0.00000000  0.00000000  0.00000000  1
  Cu  Cu3  1  0.33333300  0.66666700  0.06601200  1
  Cu  Cu4  1  0.66666700  0.33333300  0.93398800  1
  C  C5  1  0.22913800  0.89072800  0.22179400  1
  C  C6  1  0.89072800  0.66159000  0.77820600  1
  C  C7  1  0.77086200  0.10927200  0.77820600  1
  C  C8  1  0.33841000  0.22913800  0.77820600  1
  C  C9  1  0.66159000  0.77086200  0.22179400  1
  C  C10  1  0.10927200  0.33841000  0.22179400  1
