# generated using pymatgen
data_Cu7Ni3C5
_symmetry_space_group_name_H-M   'P 1'
_cell_length_a   7.24219600
_cell_length_b   8.71503100
_cell_length_c   8.75732847
_cell_angle_alpha   73.32934563
_cell_angle_beta   90.00000000
_cell_angle_gamma   90.00000000
_symmetry_Int_Tables_number   1
_chemical_formula_structural   Cu7Ni3C5
_chemical_formula_sum   'Cu14 Ni6 C10'
_cell_volume   529.49584211
_cell_formula_units_Z   2
loop_
 _symmetry_equiv_pos_site_id
 _symmetry_equiv_pos_as_xyz
  1  'x, y, z'
loop_
 _atom_site_type_symbol
 _atom_site_label
 _atom_site_symmetry_multiplicity
 _atom_site_fract_x
 _atom_site_fract_y
 _atom_site_fract_z
 _atom_site_occupancy
  C  C0  1  0.00000000  0.50000000  0.50000000  1
  C  C1  1  0.50000000  0.50000000  0.50000000  1
  C  C2  1  0.25000000  0.20192400  0.75541600  1
  C  C3  1  0.75000000  0.79807600  0.24458400  1
  C  C4  1  0.25000000  0.27687800  0.26847900  1
  C  C5  1  0.75000000  0.72312200  0.73152100  1
  C  C6  1  0.25000000  0.73549900  0.17804500  1
  C  C7  1  0.75000000  0.26450100  0.82195500  1
  C  C8  1  0.25000000  0.60700000  0.78608100  1
  C  C9  1  0.75000000  0.39300000  0.21391900  1
  Ni  Ni10  1  0.25000000  0.02790600  0.52365400  1
  Ni  Ni11  1  0.75000000  0.97209400  0.47634600  1
  Ni  Ni12  1  0.01535500  0.11806700  0.11986200  1
  Ni  Ni13  1  0.51535500  0.88193300  0.88013800  1
  Ni  Ni14  1  0.98464500  0.88193300  0.88013800  1
  Ni  Ni15  1  0.48464500  0.11806700  0.11986200  1
  Cu  Cu16  1  0.93841600  0.29698800  0.68478200  1
  Cu  Cu17  1  0.43841600  0.70301200  0.31521800  1
  Cu  Cu18  1  0.06158400  0.70301200  0.31521800  1
  Cu  Cu19  1  0.56158400  0.29698800  0.68478200  1
  Cu  Cu20  1  0.93940500  0.37039200  0.34484800  1
  Cu  Cu21  1  0.43940500  0.62960800  0.65515200  1
  Cu  Cu22  1  0.06059500  0.62960800  0.65515200  1
  Cu  Cu23  1  0.56059500  0.37039200  0.34484800  1
  Cu  Cu24  1  0.25000000  0.39595800  0.52076500  1
  Cu  Cu25  1  0.75000000  0.60404200  0.47923500  1
  Cu  Cu26  1  0.25000000  0.40341800  0.87507800  1
  Cu  Cu27  1  0.75000000  0.59658200  0.12492200  1
  Cu  Cu28  1  0.25000000  0.56350500  0.12617400  1
  Cu  Cu29  1  0.75000000  0.43649500  0.87382600  1
