# generated using pymatgen
data_Cu3Ni3C
_symmetry_space_group_name_H-M   'P 1'
_cell_length_a   7.38140382
_cell_length_b   7.38140382
_cell_length_c   12.82075500
_cell_angle_alpha   90.00000000
_cell_angle_beta   90.00000000
_cell_angle_gamma   120.00076922
_symmetry_Int_Tables_number   1
_chemical_formula_structural   Cu3Ni3C
_chemical_formula_sum   'Cu12 Ni12 C4'
_cell_volume   604.94904734
_cell_formula_units_Z   4
loop_
 _symmetry_equiv_pos_site_id
 _symmetry_equiv_pos_as_xyz
  1  'x, y, z'
loop_
 _atom_site_type_symbol
 _atom_site_label
 _atom_site_symmetry_multiplicity
 _atom_site_fract_x
 _atom_site_fract_y
 _atom_site_fract_z
 _atom_site_occupancy
  C  C0  1  0.66667400  0.33332600  0.75000000  1
  C  C1  1  0.33332600  0.66667400  0.25000000  1
  C  C2  1  0.00000000  0.00000000  0.50000000  1
  C  C3  1  0.00000000  0.00000000  0.00000000  1
  Ni  Ni4  1  0.88118300  0.76236600  0.58404100  1
  Ni  Ni5  1  0.88118700  0.11881300  0.58403900  1
  Ni  Ni6  1  0.23763400  0.11881700  0.58404100  1
  Ni  Ni7  1  0.11881700  0.23763400  0.41595900  1
  Ni  Ni8  1  0.11881300  0.88118700  0.41596100  1
  Ni  Ni9  1  0.76236600  0.88118300  0.41595900  1
  Ni  Ni10  1  0.11881700  0.23763400  0.08404100  1
  Ni  Ni11  1  0.11881300  0.88118700  0.08403900  1
  Ni  Ni12  1  0.76236600  0.88118300  0.08404100  1
  Ni  Ni13  1  0.88118300  0.76236600  0.91595900  1
  Ni  Ni14  1  0.88118700  0.11881300  0.91596100  1
  Ni  Ni15  1  0.23763400  0.11881700  0.91595900  1
  Cu  Cu16  1  0.80711100  0.61421400  0.63765100  1
  Cu  Cu17  1  0.80711300  0.19288700  0.63765100  1
  Cu  Cu18  1  0.38578600  0.19288900  0.63765100  1
  Cu  Cu19  1  0.19288900  0.38578600  0.36234900  1
  Cu  Cu20  1  0.19288700  0.80711300  0.36234900  1
  Cu  Cu21  1  0.61421400  0.80711100  0.36234900  1
  Cu  Cu22  1  0.19288900  0.38578600  0.13765100  1
  Cu  Cu23  1  0.19288700  0.80711300  0.13765100  1
  Cu  Cu24  1  0.61421400  0.80711100  0.13765100  1
  Cu  Cu25  1  0.80711100  0.61421400  0.86234900  1
  Cu  Cu26  1  0.80711300  0.19288700  0.86234900  1
  Cu  Cu27  1  0.38578600  0.19288900  0.86234900  1
