# generated using pymatgen
data_Cu(NiC2)2
_symmetry_space_group_name_H-M   'P 1'
_cell_length_a   6.31369816
_cell_length_b   6.31369816
_cell_length_c   6.18427177
_cell_angle_alpha   62.08249247
_cell_angle_beta   62.08249247
_cell_angle_gamma   32.61951754
_symmetry_Int_Tables_number   1
_chemical_formula_structural   Cu(NiC2)2
_chemical_formula_sum   'Cu1 Ni2 C4'
_cell_volume   116.00449280
_cell_formula_units_Z   1
loop_
 _symmetry_equiv_pos_site_id
 _symmetry_equiv_pos_as_xyz
  1  'x, y, z'
loop_
 _atom_site_type_symbol
 _atom_site_label
 _atom_site_symmetry_multiplicity
 _atom_site_fract_x
 _atom_site_fract_y
 _atom_site_fract_z
 _atom_site_occupancy
  Ni  Ni0  1  0.49955800  0.49955800  0.50326500  1
  Ni  Ni1  1  0.75885900  0.75885900  0.21829700  1
  Cu  Cu2  1  0.23961500  0.23961500  0.78301300  1
  C  C3  1  0.62096000  0.62096000  0.04481900  1
  C  C4  1  0.37840600  0.37840600  0.95399500  1
  C  C5  1  0.13745300  0.13745300  0.52493000  1
  C  C6  1  0.86515000  0.86515000  0.47168100  1
