# generated using pymatgen
data_Cu5Ni3C8
_symmetry_space_group_name_H-M   'P 1'
_cell_length_a   8.25757800
_cell_length_b   8.25757800
_cell_length_c   6.96263600
_cell_angle_alpha   90.00000000
_cell_angle_beta   90.00000000
_cell_angle_gamma   90.00000000
_symmetry_Int_Tables_number   1
_chemical_formula_structural   Cu5Ni3C8
_chemical_formula_sum   'Cu5 Ni3 C8'
_cell_volume   474.76539970
_cell_formula_units_Z   1
loop_
 _symmetry_equiv_pos_site_id
 _symmetry_equiv_pos_as_xyz
  1  'x, y, z'
loop_
 _atom_site_type_symbol
 _atom_site_label
 _atom_site_symmetry_multiplicity
 _atom_site_fract_x
 _atom_site_fract_y
 _atom_site_fract_z
 _atom_site_occupancy
  Ni  Ni0  1  0.50000000  0.50000000  0.50000000  1
  Ni  Ni1  1  0.50000000  0.50000000  0.00000000  1
  Ni  Ni2  1  0.00000000  0.00000000  0.50000000  1
  Cu  Cu3  1  0.50000000  0.00000000  0.50000000  1
  Cu  Cu4  1  0.00000000  0.50000000  0.00000000  1
  Cu  Cu5  1  0.00000000  0.50000000  0.50000000  1
  Cu  Cu6  1  0.50000000  0.00000000  0.00000000  1
  Cu  Cu7  1  0.00000000  0.00000000  0.00000000  1
  C  C8  1  0.17140000  0.67220700  0.24950000  1
  C  C9  1  0.67220700  0.17140000  0.75050000  1
  C  C10  1  0.32779300  0.82860000  0.75050000  1
  C  C11  1  0.82860000  0.32779300  0.24950000  1
  C  C12  1  0.67220700  0.82860000  0.24950000  1
  C  C13  1  0.17140000  0.32779300  0.75050000  1
  C  C14  1  0.82860000  0.67220700  0.75050000  1
  C  C15  1  0.32779300  0.17140000  0.24950000  1
