# generated using pymatgen
data_Cu27Ni15C
_symmetry_space_group_name_H-M   'P 1'
_cell_length_a   10.29004863
_cell_length_b   10.29004863
_cell_length_c   18.40680248
_cell_angle_alpha   73.85018815
_cell_angle_beta   73.85018815
_cell_angle_gamma   54.34739530
_symmetry_Int_Tables_number   1
_chemical_formula_structural   Cu27Ni15C
_chemical_formula_sum   'Cu54 Ni30 C2'
_cell_volume   1504.29800030
_cell_formula_units_Z   2
loop_
 _symmetry_equiv_pos_site_id
 _symmetry_equiv_pos_as_xyz
  1  'x, y, z'
loop_
 _atom_site_type_symbol
 _atom_site_label
 _atom_site_symmetry_multiplicity
 _atom_site_fract_x
 _atom_site_fract_y
 _atom_site_fract_z
 _atom_site_occupancy
  C  C0  1  0.50000000  0.50000000  0.00000000  1
  C  C1  1  0.50000000  0.50000000  0.50000000  1
  Ni  Ni2  1  0.49620600  0.21782900  0.26103000  1
  Ni  Ni3  1  0.78217100  0.50379400  0.23897000  1
  Ni  Ni4  1  0.50379400  0.78217100  0.73897000  1
  Ni  Ni5  1  0.21782900  0.49620600  0.76103000  1
  Ni  Ni6  1  0.79123700  0.91116900  0.94345400  1
  Ni  Ni7  1  0.08883100  0.20876300  0.55654600  1
  Ni  Ni8  1  0.20876300  0.08883100  0.05654600  1
  Ni  Ni9  1  0.91116900  0.79123700  0.44345400  1
  Ni  Ni10  1  0.27498500  0.98213100  0.30530000  1
  Ni  Ni11  1  0.01786900  0.72501500  0.19470000  1
  Ni  Ni12  1  0.72501500  0.01786900  0.69470000  1
  Ni  Ni13  1  0.98213100  0.27498500  0.80530000  1
  Ni  Ni14  1  0.54636800  0.35297400  0.86231000  1
  Ni  Ni15  1  0.64702600  0.45363200  0.63769000  1
  Ni  Ni16  1  0.45363200  0.64702600  0.13769000  1
  Ni  Ni17  1  0.35297400  0.54636800  0.36231000  1
  Ni  Ni18  1  0.79965500  0.18011000  0.05870500  1
  Ni  Ni19  1  0.81989000  0.20034500  0.44129500  1
  Ni  Ni20  1  0.20034500  0.81989000  0.94129500  1
  Ni  Ni21  1  0.18011000  0.79965500  0.55870500  1
  Ni  Ni22  1  0.26424400  0.39396300  0.08180700  1
  Ni  Ni23  1  0.60603700  0.73575600  0.41819300  1
  Ni  Ni24  1  0.73575600  0.60603700  0.91819300  1
  Ni  Ni25  1  0.39396300  0.26424400  0.58180700  1
  Ni  Ni26  1  0.93218100  0.06781900  0.25000000  1
  Ni  Ni27  1  0.06781900  0.93218100  0.75000000  1
  Ni  Ni28  1  0.62138400  0.90132300  0.14595600  1
  Ni  Ni29  1  0.09867700  0.37861600  0.35404400  1
  Ni  Ni30  1  0.37861600  0.09867700  0.85404400  1
  Ni  Ni31  1  0.90132400  0.62138400  0.64595600  1
  Cu  Cu32  1  0.35374500  0.72465700  0.08980000  1
  Cu  Cu33  1  0.27534300  0.64625500  0.41020000  1
  Cu  Cu34  1  0.64625500  0.27534300  0.91020000  1
  Cu  Cu35  1  0.72465700  0.35374500  0.58980000  1
  Cu  Cu36  1  0.43901200  0.50117300  0.86771100  1
  Cu  Cu37  1  0.49882700  0.56098800  0.63228900  1
  Cu  Cu38  1  0.56098800  0.49882700  0.13228900  1
  Cu  Cu39  1  0.50117300  0.43901200  0.36771100  1
  Cu  Cu40  1  0.55347600  0.28640700  0.81342300  1
  Cu  Cu41  1  0.71359300  0.44652400  0.68657700  1
  Cu  Cu42  1  0.44652400  0.71359300  0.18657700  1
  Cu  Cu43  1  0.28640700  0.55347600  0.31342300  1
  Cu  Cu44  1  0.81340000  0.29088900  0.01321100  1
  Cu  Cu45  1  0.70911100  0.18660000  0.48678900  1
  Cu  Cu46  1  0.18660000  0.70911100  0.98678900  1
  Cu  Cu47  1  0.29088900  0.81340000  0.51321100  1
  Cu  Cu48  1  0.65851000  0.20542800  0.07737800  1
  Cu  Cu49  1  0.79457200  0.34149000  0.42262200  1
  Cu  Cu50  1  0.34149000  0.79457200  0.92262200  1
  Cu  Cu51  1  0.20542800  0.65851000  0.57737800  1
  Cu  Cu52  1  0.91817500  0.05288000  0.08407300  1
  Cu  Cu53  1  0.94712000  0.08182500  0.41592700  1
  Cu  Cu54  1  0.08182500  0.94712000  0.91592700  1
  Cu  Cu55  1  0.05288000  0.91817500  0.58407300  1
  Cu  Cu56  1  0.30813400  0.45217100  0.11551300  1
  Cu  Cu57  1  0.54782900  0.69186600  0.38448700  1
  Cu  Cu58  1  0.69186600  0.54782900  0.88448700  1
  Cu  Cu59  1  0.45217100  0.30813400  0.61551300  1
  Cu  Cu60  1  0.66014900  0.64039700  0.98462400  1
  Cu  Cu61  1  0.35960300  0.33985100  0.51537600  1
  Cu  Cu62  1  0.33985100  0.35960300  0.01537600  1
  Cu  Cu63  1  0.64039700  0.66014900  0.48462400  1
  Cu  Cu64  1  0.15307600  0.37324800  0.11211600  1
  Cu  Cu65  1  0.62675200  0.84692400  0.38788400  1
  Cu  Cu66  1  0.84692400  0.62675200  0.88788400  1
  Cu  Cu67  1  0.37324800  0.15307600  0.61211600  1
  Cu  Cu68  1  0.07307800  0.80480000  0.78178300  1
  Cu  Cu69  1  0.19520000  0.92692200  0.71821700  1
  Cu  Cu70  1  0.92692200  0.19520000  0.21821700  1
  Cu  Cu71  1  0.80480000  0.07307800  0.28178300  1
  Cu  Cu72  1  0.93475300  0.06524700  0.75000000  1
  Cu  Cu73  1  0.06524700  0.93475300  0.25000000  1
  Cu  Cu74  1  0.74804600  0.79741200  0.10930300  1
  Cu  Cu75  1  0.20258800  0.25195400  0.39069700  1
  Cu  Cu76  1  0.25195400  0.20258800  0.89069700  1
  Cu  Cu77  1  0.79741200  0.74804600  0.60930300  1
  Cu  Cu78  1  0.62336600  0.89428300  0.21486800  1
  Cu  Cu79  1  0.10571700  0.37663400  0.28513200  1
  Cu  Cu80  1  0.37663400  0.10571700  0.78513200  1
  Cu  Cu81  1  0.89428300  0.62336600  0.71486800  1
  Cu  Cu82  1  0.49924200  0.00621400  0.11499900  1
  Cu  Cu83  1  0.99378600  0.50075800  0.38500100  1
  Cu  Cu84  1  0.50075800  0.99378600  0.88500100  1
  Cu  Cu85  1  0.00621400  0.49924200  0.61499900  1
