# generated using pymatgen
data_Cu3Ni13C9
_symmetry_space_group_name_H-M   'P 1'
_cell_length_a   6.62612289
_cell_length_b   5.99268681
_cell_length_c   7.51932122
_cell_angle_alpha   78.43247929
_cell_angle_beta   92.11719817
_cell_angle_gamma   88.07881158
_symmetry_Int_Tables_number   1
_chemical_formula_structural   Cu3Ni13C9
_chemical_formula_sum   'Cu3 Ni13 C9'
_cell_volume   292.05959388
_cell_formula_units_Z   1
loop_
 _symmetry_equiv_pos_site_id
 _symmetry_equiv_pos_as_xyz
  1  'x, y, z'
loop_
 _atom_site_type_symbol
 _atom_site_label
 _atom_site_symmetry_multiplicity
 _atom_site_fract_x
 _atom_site_fract_y
 _atom_site_fract_z
 _atom_site_occupancy
  C  C0  1  0.90872500  0.94939200  0.56338900  1
  C  C1  1  0.36411500  0.33960500  0.12096900  1
  C  C2  1  0.12101500  0.61744700  0.35136500  1
  C  C3  1  0.85979500  0.15912800  0.11906300  1
  C  C4  1  0.39877800  0.20875900  0.68475500  1
  C  C5  1  0.15878000  0.88711800  0.93349700  1
  C  C6  1  0.59008100  0.78219800  0.30418000  1
  C  C7  1  0.61273600  0.63969400  0.87025800  1
  C  C8  1  0.87562600  0.40030700  0.66369100  1
  Ni  Ni9  1  0.14920700  0.13007400  0.09625600  1
  Ni  Ni10  1  0.16860200  0.59998400  0.10400300  1
  Ni  Ni11  1  0.57537600  0.56468300  0.12980000  1
  Ni  Ni12  1  0.08145600  0.60247100  0.60555100  1
  Ni  Ni13  1  0.33340000  0.80085300  0.37751900  1
  Ni  Ni14  1  0.10953100  0.14632200  0.72272000  1
  Ni  Ni15  1  0.57797500  0.10539600  0.16674200  1
  Ni  Ni16  1  0.42180200  0.89105500  0.83436700  1
  Ni  Ni17  1  0.66972900  0.19871000  0.63540000  1
  Ni  Ni18  1  0.87850500  0.85393600  0.28373800  1
  Ni  Ni19  1  0.41256200  0.41828500  0.86584900  1
  Ni  Ni20  1  0.67991000  0.65604400  0.61006500  1
  Ni  Ni21  1  0.83082100  0.40936000  0.90637900  1
  Cu  Cu22  1  0.33074400  0.31165700  0.39972700  1
  Cu  Cu23  1  0.92054000  0.35265600  0.38441700  1
  Cu  Cu24  1  0.85019100  0.85581500  0.89629900  1
