# generated using pymatgen
data_Cu2NiC12
_symmetry_space_group_name_H-M   'P 1'
_cell_length_a   15.50643753
_cell_length_b   15.50643753
_cell_length_c   15.50643720
_cell_angle_alpha   14.07848214
_cell_angle_beta   14.07848214
_cell_angle_gamma   14.07848292
_symmetry_Int_Tables_number   1
_chemical_formula_structural   Cu2NiC12
_chemical_formula_sum   'Cu2 Ni1 C12'
_cell_volume   192.02359182
_cell_formula_units_Z   1
loop_
 _symmetry_equiv_pos_site_id
 _symmetry_equiv_pos_as_xyz
  1  'x, y, z'
loop_
 _atom_site_type_symbol
 _atom_site_label
 _atom_site_symmetry_multiplicity
 _atom_site_fract_x
 _atom_site_fract_y
 _atom_site_fract_z
 _atom_site_occupancy
  Ni  Ni0  1  0.99677400  0.99677400  0.99677400  1
  Cu  Cu1  1  0.59595500  0.59595500  0.59595500  1
  Cu  Cu2  1  0.20212200  0.20212200  0.20212200  1
  C  C3  1  0.80320100  0.80320100  0.80320100  1
  C  C4  1  0.40185700  0.40185700  0.40185700  1
  C  C5  1  0.05123400  0.05123400  0.05123400  1
  C  C6  1  0.85417300  0.85417300  0.85417300  1
  C  C7  1  0.45304200  0.45304200  0.45304200  1
  C  C8  1  0.64444900  0.64444900  0.64444900  1
  C  C9  1  0.24843500  0.24843500  0.24843500  1
  C  C10  1  0.34900900  0.34900900  0.34900900  1
  C  C11  1  0.15389800  0.15389800  0.15389800  1
  C  C12  1  0.75231100  0.75231100  0.75231100  1
  C  C13  1  0.94378500  0.94378500  0.94378500  1
  C  C14  1  0.54975400  0.54975400  0.54975400  1
