# generated using pymatgen
data_CuNi14C17
_symmetry_space_group_name_H-M   'P 1'
_cell_length_a   8.80115950
_cell_length_b   8.99133591
_cell_length_c   4.53401015
_cell_angle_alpha   90.00000000
_cell_angle_beta   90.00000000
_cell_angle_gamma   90.00000000
_symmetry_Int_Tables_number   1
_chemical_formula_structural   CuNi14C17
_chemical_formula_sum   'Cu1 Ni14 C17'
_cell_volume   358.79518196
_cell_formula_units_Z   1
loop_
 _symmetry_equiv_pos_site_id
 _symmetry_equiv_pos_as_xyz
  1  'x, y, z'
loop_
 _atom_site_type_symbol
 _atom_site_label
 _atom_site_symmetry_multiplicity
 _atom_site_fract_x
 _atom_site_fract_y
 _atom_site_fract_z
 _atom_site_occupancy
  C  C0  1  0.00000000  0.00000000  0.00000000  1
  Ni  Ni1  1  0.50000000  0.00000000  0.00000000  1
  Ni  Ni2  1  0.50000000  0.50000000  0.00000000  1
  Ni  Ni3  1  0.00000000  0.24494983  0.50000000  1
  Ni  Ni4  1  0.00000000  0.75505017  0.50000000  1
  Ni  Ni5  1  0.50000000  0.24897248  0.50000000  1
  Ni  Ni6  1  0.50000000  0.75102752  0.50000000  1
  Ni  Ni7  1  0.26203341  0.00000000  0.50000000  1
  Ni  Ni8  1  0.26423585  0.50000000  0.50000000  1
  Ni  Ni9  1  0.73796659  0.00000000  0.50000000  1
  Ni  Ni10  1  0.73576415  0.50000000  0.50000000  1
  Ni  Ni11  1  0.26418457  0.24695594  -0.00000000  1
  Ni  Ni12  1  0.26418457  0.75304406  0.00000000  1
  Ni  Ni13  1  0.73581543  0.24695594  -0.00000000  1
  Ni  Ni14  1  0.73581543  0.75304406  0.00000000  1
  Cu  Cu15  1  0.00000000  0.50000000  0.00000000  1
  C  C16  1  0.27311387  0.00000000  0.00000000  1
  C  C17  1  0.27089525  0.50000000  0.00000000  1
  C  C18  1  0.72688613  0.00000000  -0.00000000  1
  C  C19  1  0.72910475  0.50000000  -0.00000000  1
  C  C20  1  0.24961139  0.25062741  0.50000000  1
  C  C21  1  0.24961139  0.74937259  0.50000000  1
  C  C22  1  0.75038861  0.25062741  0.50000000  1
  C  C23  1  0.75038861  0.74937259  0.50000000  1
  C  C24  1  0.00000000  0.00000000  0.50000000  1
  C  C25  1  0.00000000  0.50000000  0.50000000  1
  C  C26  1  0.50000000  0.00000000  0.50000000  1
  C  C27  1  0.50000000  0.50000000  0.50000000  1
  C  C28  1  0.00000000  0.25076238  -0.00000000  1
  C  C29  1  0.00000000  0.74923762  0.00000000  1
  C  C30  1  0.50000000  0.25171879  -0.00000000  1
  C  C31  1  0.50000000  0.74828121  0.00000000  1
