# generated using pymatgen
data_Cu3NiC
_symmetry_space_group_name_H-M   'P 1'
_cell_length_a   6.78349508
_cell_length_b   6.78349508
_cell_length_c   6.78349508
_cell_angle_alpha   139.33175241
_cell_angle_beta   139.33175241
_cell_angle_gamma   58.86935701
_symmetry_Int_Tables_number   1
_chemical_formula_structural   Cu3NiC
_chemical_formula_sum   'Cu3 Ni1 C1'
_cell_volume   131.30828115
_cell_formula_units_Z   1
loop_
 _symmetry_equiv_pos_site_id
 _symmetry_equiv_pos_as_xyz
  1  'x, y, z'
loop_
 _atom_site_type_symbol
 _atom_site_label
 _atom_site_symmetry_multiplicity
 _atom_site_fract_x
 _atom_site_fract_y
 _atom_site_fract_z
 _atom_site_occupancy
  C  C0  1  0.99649900  0.99649900  0.00000000  1
  Ni  Ni1  1  0.38319000  0.38319000  0.00000000  1
  Cu  Cu2  1  0.25896000  0.75896000  0.50000000  1
  Cu  Cu3  1  0.75896000  0.25896000  0.50000000  1
  Cu  Cu4  1  0.60239100  0.60239100  0.00000000  1
