# generated using pymatgen
data_CuNiC4
_symmetry_space_group_name_H-M   'P 1'
_cell_length_a   3.50001174
_cell_length_b   3.50001174
_cell_length_c   39.60452900
_cell_angle_alpha   90.00000000
_cell_angle_beta   90.00000000
_cell_angle_gamma   119.99999500
_symmetry_Int_Tables_number   1
_chemical_formula_structural   CuNiC4
_chemical_formula_sum   'Cu2 Ni2 C8'
_cell_volume   420.15980941
_cell_formula_units_Z   2
loop_
 _symmetry_equiv_pos_site_id
 _symmetry_equiv_pos_as_xyz
  1  'x, y, z'
loop_
 _atom_site_type_symbol
 _atom_site_label
 _atom_site_symmetry_multiplicity
 _atom_site_fract_x
 _atom_site_fract_y
 _atom_site_fract_z
 _atom_site_occupancy
  C  C0  1  0.00000000  0.00000000  0.70403900  1
  C  C1  1  0.33333300  0.66666700  0.04770900  1
  C  C2  1  0.33333300  0.66666700  0.42316100  1
  C  C3  1  0.33333300  0.66666700  0.14015200  1
  C  C4  1  0.33333300  0.66666700  0.51615600  1
  C  C5  1  0.00000000  0.00000000  0.61103600  1
  Ni  Ni6  1  0.00000000  0.00000000  0.09392300  1
  Ni  Ni7  1  0.33333300  0.66666700  0.28179800  1
  Cu  Cu8  1  0.00000000  0.00000000  0.46963800  1
  Cu  Cu9  1  0.33333300  0.66666700  0.65755200  1
  C  C10  1  0.00000000  0.00000000  0.32264500  1
  C  C11  1  0.00000000  0.00000000  0.24094000  1
