# generated using pymatgen
data_CuNi2C3
_symmetry_space_group_name_H-M   'P 1'
_cell_length_a   3.34361069
_cell_length_b   3.34361069
_cell_length_c   41.75879000
_cell_angle_alpha   90.00000000
_cell_angle_beta   90.00000000
_cell_angle_gamma   120.00001370
_symmetry_Int_Tables_number   1
_chemical_formula_structural   CuNi2C3
_chemical_formula_sum   'Cu2 Ni4 C6'
_cell_volume   404.30572274
_cell_formula_units_Z   2
loop_
 _symmetry_equiv_pos_site_id
 _symmetry_equiv_pos_as_xyz
  1  'x, y, z'
loop_
 _atom_site_type_symbol
 _atom_site_label
 _atom_site_symmetry_multiplicity
 _atom_site_fract_x
 _atom_site_fract_y
 _atom_site_fract_z
 _atom_site_occupancy
  C  C0  1  0.66666700  0.33333300  0.42437000  1
  C  C1  1  0.66666700  0.33333300  0.51531400  1
  C  C2  1  0.33333300  0.66666700  0.09375100  1
  C  C3  1  0.33333300  0.66666700  0.46982400  1
  C  C4  1  0.66666700  0.33333300  0.27940600  1
  C  C5  1  0.66666700  0.33333300  0.65993700  1
  Ni  Ni6  1  0.33333300  0.66666700  0.31930400  1
  Ni  Ni7  1  0.33333300  0.66666700  0.69985000  1
  Ni  Ni8  1  0.33333300  0.66666700  0.23947700  1
  Ni  Ni9  1  0.33333300  0.66666700  0.62003300  1
  Cu  Cu10  1  0.66666700  0.33333300  0.05740300  1
  Cu  Cu11  1  0.66666700  0.33333300  0.13007800  1
