# generated using pymatgen
data_Cu4Ni43C6
_symmetry_space_group_name_H-M   'P 1'
_cell_length_a   10.91824788
_cell_length_b   10.91824788
_cell_length_c   17.49226000
_cell_angle_alpha   90.00000000
_cell_angle_beta   90.00000000
_cell_angle_gamma   119.99999930
_symmetry_Int_Tables_number   1
_chemical_formula_structural   Cu4Ni43C6
_chemical_formula_sum   'Cu8 Ni86 C12'
_cell_volume   1805.85326647
_cell_formula_units_Z   2
loop_
 _symmetry_equiv_pos_site_id
 _symmetry_equiv_pos_as_xyz
  1  'x, y, z'
loop_
 _atom_site_type_symbol
 _atom_site_label
 _atom_site_symmetry_multiplicity
 _atom_site_fract_x
 _atom_site_fract_y
 _atom_site_fract_z
 _atom_site_occupancy
  C  C0  1  0.47127000  0.47127000  0.90486400  1
  C  C1  1  0.52873000  0.00000000  0.90486400  1
  C  C2  1  0.00000000  0.52873000  0.90486400  1
  C  C3  1  0.52873000  0.52873000  0.09513600  1
  C  C4  1  0.47127000  0.00000000  0.09513600  1
  C  C5  1  0.00000000  0.47127000  0.09513600  1
  C  C6  1  0.52873000  0.52873000  0.40486400  1
  C  C7  1  0.47127000  0.00000000  0.40486400  1
  C  C8  1  0.00000000  0.47127000  0.40486400  1
  C  C9  1  0.47127000  0.47127000  0.59513600  1
  C  C10  1  0.52873000  0.00000000  0.59513600  1
  C  C11  1  0.00000000  0.52873000  0.59513600  1
  Ni  Ni12  1  0.84125000  0.23210100  0.83417500  1
  Ni  Ni13  1  0.76789900  0.60914900  0.83417500  1
  Ni  Ni14  1  0.39085100  0.15875000  0.83417500  1
  Ni  Ni15  1  0.23210100  0.84125000  0.83417500  1
  Ni  Ni16  1  0.60914900  0.76789900  0.83417500  1
  Ni  Ni17  1  0.15875000  0.39085100  0.83417500  1
  Ni  Ni18  1  0.15875000  0.76789900  0.16582500  1
  Ni  Ni19  1  0.23210100  0.39085100  0.16582500  1
  Ni  Ni20  1  0.60914900  0.84125000  0.16582500  1
  Ni  Ni21  1  0.76789900  0.15875000  0.16582500  1
  Ni  Ni22  1  0.39085100  0.23210100  0.16582500  1
  Ni  Ni23  1  0.84125000  0.60914900  0.16582500  1
  Ni  Ni24  1  0.15875000  0.76789900  0.33417500  1
  Ni  Ni25  1  0.23210100  0.39085100  0.33417500  1
  Ni  Ni26  1  0.60914900  0.84125000  0.33417500  1
  Ni  Ni27  1  0.76789900  0.15875000  0.33417500  1
  Ni  Ni28  1  0.39085100  0.23210100  0.33417500  1
  Ni  Ni29  1  0.84125000  0.60914900  0.33417500  1
  Ni  Ni30  1  0.84125000  0.23210100  0.66582500  1
  Ni  Ni31  1  0.76789900  0.60914900  0.66582500  1
  Ni  Ni32  1  0.39085100  0.15875000  0.66582500  1
  Ni  Ni33  1  0.23210100  0.84125000  0.66582500  1
  Ni  Ni34  1  0.60914900  0.76789900  0.66582500  1
  Ni  Ni35  1  0.15875000  0.39085100  0.66582500  1
  Ni  Ni36  1  0.84554900  0.84554900  0.38357400  1
  Ni  Ni37  1  0.15445100  0.00000000  0.38357400  1
  Ni  Ni38  1  0.00000000  0.15445100  0.38357400  1
  Ni  Ni39  1  0.15445100  0.15445100  0.61642600  1
  Ni  Ni40  1  0.84554900  0.00000000  0.61642600  1
  Ni  Ni41  1  0.00000000  0.84554900  0.61642600  1
  Ni  Ni42  1  0.15445100  0.15445100  0.88357400  1
  Ni  Ni43  1  0.84554900  0.00000000  0.88357400  1
  Ni  Ni44  1  0.00000000  0.84554900  0.88357400  1
  Ni  Ni45  1  0.84554900  0.84554900  0.11642600  1
  Ni  Ni46  1  0.15445100  0.00000000  0.11642600  1
  Ni  Ni47  1  0.00000000  0.15445100  0.11642600  1
  Ni  Ni48  1  0.75045600  0.75045600  0.96926200  1
  Ni  Ni49  1  0.24954400  0.00000000  0.96926200  1
  Ni  Ni50  1  0.00000000  0.24954400  0.96926200  1
  Ni  Ni51  1  0.24954400  0.24954400  0.03073800  1
  Ni  Ni52  1  0.75045600  0.00000000  0.03073800  1
  Ni  Ni53  1  0.00000000  0.75045600  0.03073800  1
  Ni  Ni54  1  0.24954400  0.24954400  0.46926200  1
  Ni  Ni55  1  0.75045600  0.00000000  0.46926200  1
  Ni  Ni56  1  0.00000000  0.75045600  0.46926200  1
  Ni  Ni57  1  0.75045600  0.75045600  0.53073800  1
  Ni  Ni58  1  0.24954400  0.00000000  0.53073800  1
  Ni  Ni59  1  0.00000000  0.24954400  0.53073800  1
  Ni  Ni60  1  0.85541600  0.45265700  0.75000000  1
  Ni  Ni61  1  0.54734300  0.40276000  0.75000000  1
  Ni  Ni62  1  0.59724000  0.14458400  0.75000000  1
  Ni  Ni63  1  0.45265700  0.85541600  0.75000000  1
  Ni  Ni64  1  0.40276000  0.54734300  0.75000000  1
  Ni  Ni65  1  0.14458400  0.59724000  0.75000000  1
  Ni  Ni66  1  0.14458400  0.54734300  0.25000000  1
  Ni  Ni67  1  0.45265700  0.59724000  0.25000000  1
  Ni  Ni68  1  0.40276000  0.85541600  0.25000000  1
  Ni  Ni69  1  0.54734300  0.14458400  0.25000000  1
  Ni  Ni70  1  0.59724000  0.45265700  0.25000000  1
  Ni  Ni71  1  0.85541600  0.40276000  0.25000000  1
  Ni  Ni72  1  0.75338900  0.24661100  0.00000000  1
  Ni  Ni73  1  0.75338900  0.50677800  0.00000000  1
  Ni  Ni74  1  0.49322200  0.24661100  0.00000000  1
  Ni  Ni75  1  0.24661100  0.75338900  0.00000000  1
  Ni  Ni76  1  0.50677800  0.75338900  0.00000000  1
  Ni  Ni77  1  0.24661100  0.49322200  0.00000000  1
  Ni  Ni78  1  0.24661100  0.75338900  0.50000000  1
  Ni  Ni79  1  0.24661100  0.49322200  0.50000000  1
  Ni  Ni80  1  0.50677800  0.75338900  0.50000000  1
  Ni  Ni81  1  0.75338900  0.24661100  0.50000000  1
  Ni  Ni82  1  0.49322200  0.24661100  0.50000000  1
  Ni  Ni83  1  0.75338900  0.50677800  0.50000000  1
  Ni  Ni84  1  0.66666700  0.33333300  0.87242500  1
  Ni  Ni85  1  0.33333300  0.66666700  0.87242500  1
  Ni  Ni86  1  0.33333300  0.66666700  0.12757500  1
  Ni  Ni87  1  0.66666700  0.33333300  0.12757500  1
  Ni  Ni88  1  0.33333300  0.66666700  0.37242500  1
  Ni  Ni89  1  0.66666700  0.33333300  0.37242500  1
  Ni  Ni90  1  0.66666700  0.33333300  0.62757500  1
  Ni  Ni91  1  0.33333300  0.66666700  0.62757500  1
  Ni  Ni92  1  0.85525800  0.85525800  0.75000000  1
  Ni  Ni93  1  0.14474200  0.00000000  0.75000000  1
  Ni  Ni94  1  0.00000000  0.14474200  0.75000000  1
  Ni  Ni95  1  0.14474200  0.14474200  0.25000000  1
  Ni  Ni96  1  0.85525800  0.00000000  0.25000000  1
  Ni  Ni97  1  0.00000000  0.85525800  0.25000000  1
  Cu  Cu98  1  0.26969100  0.26969100  0.75000000  1
  Cu  Cu99  1  0.73030900  0.00000000  0.75000000  1
  Cu  Cu100  1  0.00000000  0.73030900  0.75000000  1
  Cu  Cu101  1  0.73030900  0.73030900  0.25000000  1
  Cu  Cu102  1  0.26969100  0.00000000  0.25000000  1
  Cu  Cu103  1  0.00000000  0.26969100  0.25000000  1
  Cu  Cu104  1  0.00000000  0.00000000  0.00000000  1
  Cu  Cu105  1  0.00000000  0.00000000  0.50000000  1
