# generated using pymatgen
data_Cu2NiC2
_symmetry_space_group_name_H-M   'P 1'
_cell_length_a   4.10957700
_cell_length_b   4.10957700
_cell_length_c   13.15013600
_cell_angle_alpha   90.00000000
_cell_angle_beta   90.00000000
_cell_angle_gamma   90.00000000
_symmetry_Int_Tables_number   1
_chemical_formula_structural   Cu2NiC2
_chemical_formula_sum   'Cu4 Ni2 C4'
_cell_volume   222.08769087
_cell_formula_units_Z   2
loop_
 _symmetry_equiv_pos_site_id
 _symmetry_equiv_pos_as_xyz
  1  'x, y, z'
loop_
 _atom_site_type_symbol
 _atom_site_label
 _atom_site_symmetry_multiplicity
 _atom_site_fract_x
 _atom_site_fract_y
 _atom_site_fract_z
 _atom_site_occupancy
  C  C0  1  0.50000000  0.00000000  0.10603400  1
  C  C1  1  0.00000000  0.50000000  0.89396600  1
  Ni  Ni2  1  0.50000000  0.00000000  0.61649300  1
  Ni  Ni3  1  0.00000000  0.50000000  0.38350700  1
  Cu  Cu4  1  0.50000000  0.00000000  0.37810700  1
  Cu  Cu5  1  0.00000000  0.50000000  0.62189300  1
  Cu  Cu6  1  0.50000000  0.00000000  0.81665300  1
  Cu  Cu7  1  0.00000000  0.50000000  0.18334700  1
  C  C8  1  0.50000000  0.50000000  0.00000000  1
  C  C9  1  0.00000000  0.00000000  0.00000000  1
