# generated using pymatgen
data_Cu3NiC16
_symmetry_space_group_name_H-M   'P 1'
_cell_length_a   6.37330438
_cell_length_b   6.37330438
_cell_length_c   6.37330438
_cell_angle_alpha   109.47122063
_cell_angle_beta   109.47122063
_cell_angle_gamma   109.47122063
_symmetry_Int_Tables_number   1
_chemical_formula_structural   Cu3NiC16
_chemical_formula_sum   'Cu3 Ni1 C16'
_cell_volume   199.28384331
_cell_formula_units_Z   1
loop_
 _symmetry_equiv_pos_site_id
 _symmetry_equiv_pos_as_xyz
  1  'x, y, z'
loop_
 _atom_site_type_symbol
 _atom_site_label
 _atom_site_symmetry_multiplicity
 _atom_site_fract_x
 _atom_site_fract_y
 _atom_site_fract_z
 _atom_site_occupancy
  C  C0  1  0.00000000  0.50000000  0.00000000  1
  C  C1  1  0.50000000  0.00000000  0.00000000  1
  C  C2  1  0.50000000  0.50000000  0.50000000  1
  C  C3  1  0.00000000  0.00000000  0.50000000  1
  Ni  Ni4  1  0.00000000  0.00000000  0.00000000  1
  Cu  Cu5  1  0.50000000  0.00000000  0.50000000  1
  Cu  Cu6  1  0.50000000  0.50000000  0.00000000  1
  Cu  Cu7  1  0.00000000  0.50000000  0.50000000  1
  C  C8  1  0.30874600  0.13892500  0.83017900  1
  C  C9  1  0.69125400  0.86107500  0.16982100  1
  C  C10  1  0.69125400  0.52143400  0.83017900  1
  C  C11  1  0.47856600  0.16982100  0.30874600  1
  C  C12  1  0.16982100  0.30874600  0.47856600  1
  C  C13  1  0.83017900  0.30874600  0.13892500  1
  C  C14  1  0.86107500  0.16982100  0.69125400  1
  C  C15  1  0.83017900  0.69125400  0.52143400  1
  C  C16  1  0.30874600  0.47856600  0.16982100  1
  C  C17  1  0.52143400  0.83017900  0.69125400  1
  C  C18  1  0.16982100  0.69125400  0.86107500  1
  C  C19  1  0.13892500  0.83017900  0.30874600  1
