# generated using pymatgen
data_Cu2NiC11
_symmetry_space_group_name_H-M   'P 1'
_cell_length_a   6.58702609
_cell_length_b   6.58702609
_cell_length_c   14.51064752
_cell_angle_alpha   69.49622315
_cell_angle_beta   69.49622315
_cell_angle_gamma   25.51602152
_symmetry_Int_Tables_number   1
_chemical_formula_structural   Cu2NiC11
_chemical_formula_sum   'Cu4 Ni2 C22'
_cell_volume   253.11558248
_cell_formula_units_Z   2
loop_
 _symmetry_equiv_pos_site_id
 _symmetry_equiv_pos_as_xyz
  1  'x, y, z'
loop_
 _atom_site_type_symbol
 _atom_site_label
 _atom_site_symmetry_multiplicity
 _atom_site_fract_x
 _atom_site_fract_y
 _atom_site_fract_z
 _atom_site_occupancy
  C  C0  1  0.64022200  0.64022200  0.78999400  1
  C  C1  1  0.20612700  0.20612700  0.93601100  1
  C  C2  1  0.79387300  0.79387300  0.06398900  1
  C  C3  1  0.07164400  0.07164400  0.64548100  1
  C  C4  1  0.50000000  0.50000000  0.50000000  1
  C  C5  1  0.35977800  0.35977800  0.21000600  1
  C  C6  1  0.92835600  0.92835600  0.35451900  1
  C  C7  1  0.50000000  0.50000000  0.00000000  1
  Ni  Ni8  1  0.35668800  0.35668800  0.71645700  1
  Ni  Ni9  1  0.64331200  0.64331200  0.28354300  1
  Cu  Cu10  1  0.93845300  0.93845300  0.86633800  1
  Cu  Cu11  1  0.06154700  0.06154700  0.13366200  1
  Cu  Cu12  1  0.21472300  0.21472300  0.43116200  1
  Cu  Cu13  1  0.78527700  0.78527700  0.56883800  1
  C  C14  1  0.79507500  0.79507500  0.80687300  1
  C  C15  1  0.36020100  0.36020100  0.95427700  1
  C  C16  1  0.93331900  0.93331900  0.11240400  1
  C  C17  1  0.22666600  0.22666600  0.67400500  1
  C  C18  1  0.64615900  0.64615900  0.53255400  1
  C  C19  1  0.51556500  0.51556500  0.24592800  1
  C  C20  1  0.08043900  0.08043900  0.38026100  1
  C  C21  1  0.48443500  0.48443500  0.75407200  1
  C  C22  1  0.06668100  0.06668100  0.88759600  1
  C  C23  1  0.63979900  0.63979900  0.04572300  1
  C  C24  1  0.91956100  0.91956100  0.61973900  1
  C  C25  1  0.35384100  0.35384100  0.46744600  1
  C  C26  1  0.20492500  0.20492500  0.19312700  1
  C  C27  1  0.77333400  0.77333400  0.32599500  1
