# generated using pymatgen
data_Cu7NiC4
_symmetry_space_group_name_H-M   'P 1'
_cell_length_a   4.17061500
_cell_length_b   7.61350600
_cell_length_c   9.15650564
_cell_angle_alpha   89.56521396
_cell_angle_beta   90.00000000
_cell_angle_gamma   90.00000000
_symmetry_Int_Tables_number   1
_chemical_formula_structural   Cu7NiC4
_chemical_formula_sum   'Cu7 Ni1 C4'
_cell_volume   290.73817353
_cell_formula_units_Z   1
loop_
 _symmetry_equiv_pos_site_id
 _symmetry_equiv_pos_as_xyz
  1  'x, y, z'
loop_
 _atom_site_type_symbol
 _atom_site_label
 _atom_site_symmetry_multiplicity
 _atom_site_fract_x
 _atom_site_fract_y
 _atom_site_fract_z
 _atom_site_occupancy
  C  C0  1  0.50000000  0.76426300  0.13977100  1
  C  C1  1  0.50000000  0.25554700  0.36984000  1
  C  C2  1  0.00000000  0.22246400  0.86529500  1
  C  C3  1  0.00000000  0.75305700  0.62192900  1
  Ni  Ni4  1  0.50000000  0.53571700  0.83696000  1
  Cu  Cu5  1  0.50000000  0.63807300  0.43259300  1
  Cu  Cu6  1  0.50000000  0.14415100  0.07036500  1
  Cu  Cu7  1  0.00000000  0.35943500  0.56801900  1
  Cu  Cu8  1  0.00000000  0.85315000  0.93221500  1
  Cu  Cu9  1  0.50000000  0.03071900  0.66429300  1
  Cu  Cu10  1  0.00000000  0.47189200  0.16372300  1
  Cu  Cu11  1  0.00000000  0.97153100  0.33499800  1
