# generated using pymatgen
data_Cu2NiC18
_symmetry_space_group_name_H-M   'P 1'
_cell_length_a   8.99680502
_cell_length_b   9.01533953
_cell_length_c   14.41116407
_cell_angle_alpha   71.74019511
_cell_angle_beta   89.92046253
_cell_angle_gamma   119.99533431
_symmetry_Int_Tables_number   1
_chemical_formula_structural   Cu2NiC18
_chemical_formula_sum   'Cu8 Ni4 C72'
_cell_volume   943.43816385
_cell_formula_units_Z   4
loop_
 _symmetry_equiv_pos_site_id
 _symmetry_equiv_pos_as_xyz
  1  'x, y, z'
loop_
 _atom_site_type_symbol
 _atom_site_label
 _atom_site_symmetry_multiplicity
 _atom_site_fract_x
 _atom_site_fract_y
 _atom_site_fract_z
 _atom_site_occupancy
  C  C0  1  0.37826000  0.83068900  0.88620300  1
  C  C1  1  0.96930500  0.25756000  0.87416400  1
  C  C2  1  0.01794600  0.51160800  0.99940800  1
  C  C3  1  0.29743300  0.66940200  0.36387000  1
  C  C4  1  0.54185500  0.74975600  0.62508800  1
  C  C5  1  0.11525300  0.15397000  0.62299900  1
  C  C6  1  0.21772500  0.34915300  0.11102300  1
  C  C7  1  0.50665900  0.52004900  0.50108300  1
  C  C8  1  0.78719400  0.67029300  0.86213000  1
  C  C9  1  0.86668800  0.82920300  0.38842600  1
  C  C10  1  0.46254100  0.24352000  0.37493300  1
  C  C11  1  0.25562200  0.98807300  0.25042600  1
  C  C12  1  0.71283100  0.34625100  0.62720400  1
  C  C13  1  0.03945900  0.74966600  0.12611000  1
  C  C14  1  0.61925400  0.15090100  0.13816100  1
  C  C15  1  0.73758800  0.98049900  0.74897900  1
  C  C16  1  0.17605700  0.85356200  0.46232500  1
  C  C17  1  0.07227300  0.64605200  0.78763800  1
  C  C18  1  0.67577200  0.85676100  0.96296600  1
  C  C19  1  0.56861000  0.64321100  0.28707200  1
  C  C20  1  0.43022900  0.36364800  0.71297600  1
  C  C21  1  0.31999900  0.14367200  0.03769700  1
  C  C22  1  0.92581200  0.35593900  0.21220800  1
  C  C23  1  0.81898200  0.13840500  0.53662100  1
  Ni  Ni24  1  0.57806600  0.95082600  0.37724700  1
  Ni  Ni25  1  0.32819100  0.74979700  0.12502400  1
  Ni  Ni26  1  0.37761500  0.54915200  0.87326900  1
  Ni  Ni27  1  0.82936700  0.74995400  0.62530800  1
  Cu  Cu28  1  0.07863800  0.95404100  0.87730900  1
  Cu  Cu29  1  0.12172300  0.45109700  0.62563700  1
  Cu  Cu30  1  0.17137400  0.24681700  0.37443400  1
  Cu  Cu31  1  0.62487300  0.45343400  0.12374200  1
  Cu  Cu32  1  0.67535900  0.25336900  0.87527400  1
  Cu  Cu33  1  0.42127600  0.04961900  0.62423400  1
  Cu  Cu34  1  0.87434300  0.54635100  0.37241700  1
  Cu  Cu35  1  0.92124000  0.04594800  0.12619100  1
  C  C36  1  0.14078000  0.98379700  0.97265500  1
  C  C37  1  0.04816900  0.76315700  0.88691900  1
  C  C38  1  0.03462500  0.73783000  0.36280000  1
  C  C39  1  0.29512500  0.88839700  0.71846000  1
  C  C40  1  0.38405300  0.92624800  0.36549600  1
  C  C41  1  0.09008500  0.47996900  0.72136600  1
  C  C42  1  0.29742600  0.91123600  0.13475900  1
  C  C43  1  0.20835600  0.57389600  0.88421600  1
  C  C44  1  0.15645100  0.61239000  0.53144100  1
  C  C45  1  0.13589300  0.58826100  0.11523100  1
  C  C46  1  0.55186200  0.75059200  0.86162900  1
  C  C47  1  0.64513800  0.97940700  0.47847700  1
  C  C48  1  0.39768900  0.68951700  0.22612900  1
  C  C49  1  0.33357300  0.37622000  0.97400900  1
  C  C50  1  0.27890000  0.42406700  0.61444800  1
  C  C51  1  0.45813900  0.81000000  0.02391300  1
  C  C52  1  0.41355600  0.51928900  0.77184000  1
  C  C53  1  0.55034800  0.74928600  0.38822600  1
  C  C54  1  0.89753300  0.93690400  0.86779200  1
  C  C55  1  0.04544300  0.18463700  0.47085000  1
  C  C56  1  0.79874800  0.90936500  0.63814800  1
  C  C57  1  0.10598900  0.30933100  0.28099400  1
  C  C58  1  0.20518600  0.11450500  0.78262600  1
  C  C59  1  0.35461400  0.39575000  0.38433200  1
  C  C60  1  0.63847100  0.58874800  0.61256300  1
  C  C61  1  0.79451200  0.88993900  0.22166400  1
  C  C62  1  0.89977500  0.69026400  0.72599200  1
  C  C63  1  0.19921000  0.09323700  0.36483400  1
  C  C64  1  0.95927000  0.80969300  0.52421200  1
  C  C65  1  0.10284500  0.06603300  0.13634700  1
  C  C66  1  0.44357900  0.23671400  0.61771900  1
  C  C67  1  0.59223700  0.48641100  0.21831500  1
  C  C68  1  0.54711600  0.19059700  0.96918100  1
  C  C69  1  0.70963100  0.56260200  0.38208600  1
  C  C70  1  0.65442900  0.60932800  0.02859600  1
  C  C71  1  0.61321900  0.31609100  0.77919200  1
  C  C72  1  0.36020800  0.02037000  0.52857100  1
  C  C73  1  0.46191300  0.26011200  0.13575600  1
  C  C74  1  0.85710900  0.40646900  0.88555000  1
  C  C75  1  0.84244300  0.38795500  0.46676900  1
  C  C76  1  0.78618400  0.43297200  0.11389200  1
  C  C77  1  0.70934700  0.10380900  0.86594700  1
  C  C78  1  0.90771000  0.51727400  0.27689700  1
  C  C79  1  0.60645200  0.07716700  0.63434400  1
  C  C80  1  0.70738600  0.12306100  0.27618000  1
  C  C81  1  0.95650000  0.26340200  0.63259500  1
  C  C82  1  0.95163000  0.23906600  0.11421700  1
  C  C83  1  0.85573200  0.01238500  0.03203100  1
