# generated using pymatgen
data_Cu2NiC12
_symmetry_space_group_name_H-M   'P 1'
_cell_length_a   10.22383030
_cell_length_b   10.22383030
_cell_length_c   10.22383030
_cell_angle_alpha   146.60000224
_cell_angle_beta   131.37882189
_cell_angle_gamma   60.27204353
_symmetry_Int_Tables_number   1
_chemical_formula_structural   Cu2NiC12
_chemical_formula_sum   'Cu4 Ni2 C24'
_cell_volume   437.34524534
_cell_formula_units_Z   2
loop_
 _symmetry_equiv_pos_site_id
 _symmetry_equiv_pos_as_xyz
  1  'x, y, z'
loop_
 _atom_site_type_symbol
 _atom_site_label
 _atom_site_symmetry_multiplicity
 _atom_site_fract_x
 _atom_site_fract_y
 _atom_site_fract_z
 _atom_site_occupancy
  C  C0  1  0.77146200  0.50000000  0.27146200  1
  C  C1  1  0.39447700  0.15633900  0.23813800  1
  C  C2  1  0.08179900  0.84366100  0.23813800  1
  C  C3  1  0.22853800  0.50000000  0.72853800  1
  C  C4  1  0.91820100  0.15633900  0.76186200  1
  C  C5  1  0.60552300  0.84366100  0.76186200  1
  Ni  Ni6  1  0.66787400  0.66787400  0.00000000  1
  Ni  Ni7  1  0.33212600  0.33212600  0.00000000  1
  Cu  Cu8  1  0.50000000  0.00000000  0.50000000  1
  Cu  Cu9  1  0.16187500  0.66187500  0.50000000  1
  Cu  Cu10  1  0.83812500  0.33812500  0.50000000  1
  Cu  Cu11  1  0.00000000  0.00000000  0.00000000  1
  C  C12  1  0.74430300  0.00000000  0.74430300  1
  C  C13  1  0.41680500  0.66641600  0.75038900  1
  C  C14  1  0.08397300  0.33358400  0.75038900  1
  C  C15  1  0.58422800  0.83476200  0.25053400  1
  C  C16  1  0.24868400  0.50025500  0.25157100  1
  C  C17  1  0.91571000  0.16535800  0.24964800  1
  C  C18  1  0.41577200  0.66630600  0.25053400  1
  C  C19  1  0.08429000  0.33393800  0.24964800  1
  C  C20  1  0.75131600  0.00288700  0.25157100  1
  C  C21  1  0.25569700  0.00000000  0.25569700  1
  C  C22  1  0.91602700  0.66641600  0.24961100  1
  C  C23  1  0.58319500  0.33358400  0.24961100  1
  C  C24  1  0.41577200  0.16523800  0.74946600  1
  C  C25  1  0.08429000  0.83464200  0.75035200  1
  C  C26  1  0.75131600  0.49974500  0.74842900  1
  C  C27  1  0.58422800  0.33369400  0.74946600  1
  C  C28  1  0.24868400  0.99711300  0.74842900  1
  C  C29  1  0.91571000  0.66606200  0.75035200  1
