# generated using pymatgen
data_CuNi149
_symmetry_space_group_name_H-M   'P 1'
_cell_length_a   15.93335383
_cell_length_b   15.93335997
_cell_length_c   15.54793397
_cell_angle_alpha   90.00000000
_cell_angle_beta   90.00000000
_cell_angle_gamma   120.00001516
_symmetry_Int_Tables_number   1
_chemical_formula_structural   CuNi149
_chemical_formula_sum   'Cu1 Ni149'
_cell_volume   3418.36018453
_cell_formula_units_Z   1
loop_
 _symmetry_equiv_pos_site_id
 _symmetry_equiv_pos_as_xyz
  1  'x, y, z'
loop_
 _atom_site_type_symbol
 _atom_site_label
 _atom_site_symmetry_multiplicity
 _atom_site_fract_x
 _atom_site_fract_y
 _atom_site_fract_z
 _atom_site_occupancy
  Ni  Ni0  1  0.20159709  0.00096005  -0.00000000  1
  Ni  Ni1  1  0.79936396  0.00096005  -0.00000000  1
  Ni  Ni2  1  0.40001218  0.20000659  -0.00000000  1
  Ni  Ni3  1  0.79999341  0.20000659  -0.00000000  1
  Ni  Ni4  1  0.60000358  0.20000717  -0.00000000  1
  Ni  Ni5  1  0.99903895  0.20063604  -0.00000000  1
  Ni  Ni6  1  0.20159709  0.20063704  -0.00000000  1
  Ni  Ni7  1  0.19955849  0.39911798  -0.00000000  1
  Ni  Ni8  1  0.79999283  0.39999642  -0.00000000  1
  Ni  Ni9  1  0.60000358  0.39999642  -0.00000000  1
  Ni  Ni10  1  0.40034767  0.40045105  -0.00000000  1
  Ni  Ni11  1  0.00010439  0.40045105  -0.00000000  1
  Ni  Ni12  1  0.59954895  0.59965333  -0.00000000  1
  Ni  Ni13  1  0.00010439  0.59965333  -0.00000000  1
  Ni  Ni14  1  0.19990888  0.59995444  -0.00000000  1
  Ni  Ni15  1  0.40004556  0.59995444  -0.00000000  1
  Ni  Ni16  1  0.79999341  0.59998782  -0.00000000  1
  Ni  Ni17  1  0.99903895  0.79840291  -0.00000000  1
  Ni  Ni18  1  0.79936396  0.79840391  -0.00000000  1
  Ni  Ni19  1  0.40004556  0.80009112  -0.00000000  1
  Ni  Ni20  1  0.60088102  0.80044051  -0.00000000  1
  Ni  Ni21  1  0.19955849  0.80044051  -0.00000000  1
  Ni  Ni22  1  0.59954895  0.99989661  -0.00000000  1
  Ni  Ni23  1  0.40034767  0.99989661  -0.00000000  1
  Ni  Ni24  1  0.06634051  0.33289672  0.16625854  1
  Ni  Ni25  1  0.26655621  0.33289672  0.16625854  1
  Ni  Ni26  1  0.06634051  0.73344379  0.16625854  1
  Ni  Ni27  1  0.66710328  0.73344379  0.16625854  1
  Ni  Ni28  1  0.66710328  0.93365949  0.16625854  1
  Ni  Ni29  1  0.26655621  0.93365949  0.16625854  1
  Ni  Ni30  1  0.46679688  0.13332207  0.16642123  1
  Ni  Ni31  1  0.66652419  0.13332207  0.16642123  1
  Ni  Ni32  1  0.46679688  0.33347581  0.16642123  1
  Ni  Ni33  1  0.86667793  0.33347581  0.16642123  1
  Ni  Ni34  1  0.66652419  0.53320312  0.16642123  1
  Ni  Ni35  1  0.86667793  0.53320312  0.16642123  1
  Ni  Ni36  1  0.66666700  0.33333300  0.16660276  1
  Ni  Ni37  1  0.26654102  0.53308104  0.16652083  1
  Ni  Ni38  1  0.46691896  0.73345898  0.16652083  1
  Ni  Ni39  1  0.26654102  0.73345998  0.16652083  1
  Ni  Ni40  1  0.46661146  0.53338854  0.16646450  1
  Ni  Ni41  1  0.06677709  0.53338854  0.16646450  1
  Ni  Ni42  1  0.46661146  0.93322291  0.16646450  1
  Ni  Ni43  1  0.86630259  0.13369741  0.16724938  1
  Ni  Ni44  1  0.26739483  0.13369741  0.16724938  1
  Ni  Ni45  1  0.86630259  0.73260517  0.16724938  1
  Ni  Ni46  1  0.06683811  0.13367622  0.16782409  1
  Ni  Ni47  1  0.86632378  0.93316189  0.16782409  1
  Ni  Ni48  1  0.06683811  0.93316189  0.16782409  1
  Ni  Ni49  1  0.19991377  0.39982654  0.33293380  1
  Ni  Ni50  1  0.60017346  0.80008623  0.33293380  1
  Ni  Ni51  1  0.19991377  0.80008623  0.33293380  1
  Ni  Ni52  1  0.39989238  0.99999386  0.33314789  1
  Ni  Ni53  1  0.60010248  0.99999486  0.33314789  1
  Ni  Ni54  1  0.00000514  0.39989752  0.33314789  1
  Ni  Ni55  1  0.39989238  0.39989752  0.33314789  1
  Ni  Ni56  1  0.00000514  0.60010762  0.33314789  1
  Ni  Ni57  1  0.60010248  0.60010762  0.33314789  1
  Ni  Ni58  1  0.60002377  0.20004654  0.33306253  1
  Ni  Ni59  1  0.60002377  0.39997623  0.33306253  1
  Ni  Ni60  1  0.79995346  0.39997723  0.33306253  1
  Ni  Ni61  1  -0.00000000  0.00000000  0.33351652  1
  Ni  Ni62  1  0.40011849  0.20005875  0.33322631  1
  Ni  Ni63  1  0.79994025  0.20005975  0.33322631  1
  Ni  Ni64  1  0.79994025  0.59988051  0.33322631  1
  Ni  Ni65  1  0.20004225  0.60002162  0.33310125  1
  Ni  Ni66  1  0.39997838  0.60002162  0.33310125  1
  Ni  Ni67  1  0.39997838  0.79995675  0.33310125  1
  Ni  Ni68  1  0.19982985  0.00006228  0.33379332  1
  Ni  Ni69  1  0.80023243  0.00006228  0.33379332  1
  Ni  Ni70  1  0.19982985  0.19976757  0.33379332  1
  Ni  Ni71  1  0.99993772  0.19976757  0.33379332  1
  Ni  Ni72  1  0.99993772  0.80017015  0.33379332  1
  Ni  Ni73  1  0.80023243  0.80017015  0.33379332  1
  Ni  Ni74  1  0.06656069  0.13312138  0.50000000  1
  Ni  Ni75  1  0.66649479  0.13313397  0.50000000  1
  Ni  Ni76  1  0.46663918  0.13313397  0.50000000  1
  Ni  Ni77  1  0.86674594  0.13325406  0.50000000  1
  Ni  Ni78  1  0.26650813  0.13325406  0.50000000  1
  Ni  Ni79  1  0.26661942  0.33322568  0.50000000  1
  Ni  Ni80  1  0.06660627  0.33322668  0.50000000  1
  Ni  Ni81  1  0.66666700  0.33333300  0.50000000  1
  Ni  Ni82  1  0.46663918  0.33350521  0.50000000  1
  Ni  Ni83  1  0.86686603  0.33350521  0.50000000  1
  Ni  Ni84  1  0.66649479  0.53336082  0.50000000  1
  Ni  Ni85  1  0.86686603  0.53336082  0.50000000  1
  Ni  Ni86  1  0.26650694  0.53301489  0.50000000  1
  Ni  Ni87  1  0.46669180  0.53330820  0.50000000  1
  Ni  Ni88  1  0.06661639  0.53330820  0.50000000  1
  Ni  Ni89  1  0.26650694  0.73349206  0.50000000  1
  Ni  Ni90  1  0.46698511  0.73349306  0.50000000  1
  Ni  Ni91  1  0.86674594  0.73349187  0.50000000  1
  Ni  Ni92  1  0.66677432  0.73337958  0.50000000  1
  Ni  Ni93  1  0.06660627  0.73337958  0.50000000  1
  Ni  Ni94  1  0.46669180  0.93338361  0.50000000  1
  Ni  Ni95  1  0.26661942  0.93339373  0.50000000  1
  Ni  Ni96  1  0.66677432  0.93339473  0.50000000  1
  Ni  Ni97  1  0.06656069  0.93343931  0.50000000  1
  Ni  Ni98  1  0.86687862  0.93343931  0.50000000  1
  Ni  Ni99  1  0.19982985  0.00006228  0.66620768  1
  Ni  Ni100  1  0.80023243  0.00006228  0.66620768  1
  Ni  Ni101  1  0.19982985  0.19976757  0.66620768  1
  Ni  Ni102  1  0.99993772  0.19976757  0.66620768  1
  Ni  Ni103  1  0.99993772  0.80017015  0.66620768  1
  Ni  Ni104  1  0.80023243  0.80017015  0.66620768  1
  Ni  Ni105  1  0.20004225  0.60002162  0.66689975  1
  Ni  Ni106  1  0.39997838  0.60002162  0.66689975  1
  Ni  Ni107  1  0.39997838  0.79995675  0.66689975  1
  Ni  Ni108  1  0.40011849  0.20005875  0.66677469  1
  Ni  Ni109  1  0.79994025  0.20005975  0.66677469  1
  Ni  Ni110  1  0.79994025  0.59988051  0.66677469  1
  Ni  Ni111  1  -0.00000000  0.00000000  0.66648348  1
  Ni  Ni112  1  0.60002377  0.20004654  0.66693747  1
  Ni  Ni113  1  0.60002377  0.39997623  0.66693747  1
  Ni  Ni114  1  0.79995346  0.39997723  0.66693747  1
  Ni  Ni115  1  0.39989238  0.99999386  0.66685211  1
  Ni  Ni116  1  0.60010248  0.99999486  0.66685211  1
  Ni  Ni117  1  0.00000514  0.39989752  0.66685211  1
  Ni  Ni118  1  0.39989238  0.39989752  0.66685211  1
  Ni  Ni119  1  0.00000514  0.60010762  0.66685211  1
  Ni  Ni120  1  0.60010248  0.60010762  0.66685211  1
  Ni  Ni121  1  0.19991377  0.39982654  0.66706620  1
  Ni  Ni122  1  0.60017346  0.80008623  0.66706620  1
  Ni  Ni123  1  0.19991377  0.80008623  0.66706620  1
  Ni  Ni124  1  0.06683811  0.13367622  0.83217591  1
  Ni  Ni125  1  0.86632378  0.93316189  0.83217591  1
  Ni  Ni126  1  0.06683811  0.93316189  0.83217591  1
  Ni  Ni127  1  0.86630259  0.13369741  0.83275062  1
  Ni  Ni128  1  0.26739483  0.13369741  0.83275062  1
  Ni  Ni129  1  0.86630259  0.73260517  0.83275062  1
  Ni  Ni130  1  0.46661146  0.53338854  0.83353550  1
  Ni  Ni131  1  0.06677709  0.53338854  0.83353550  1
  Ni  Ni132  1  0.46661146  0.93322291  0.83353550  1
  Ni  Ni133  1  0.26654102  0.53308104  0.83347917  1
  Ni  Ni134  1  0.46691896  0.73345898  0.83347917  1
  Ni  Ni135  1  0.26654102  0.73345998  0.83347917  1
  Ni  Ni136  1  0.66666700  0.33333300  0.83339724  1
  Ni  Ni137  1  0.46679688  0.13332207  0.83357877  1
  Ni  Ni138  1  0.66652419  0.13332207  0.83357877  1
  Ni  Ni139  1  0.46679688  0.33347581  0.83357877  1
  Ni  Ni140  1  0.86667793  0.33347581  0.83357877  1
  Ni  Ni141  1  0.66652419  0.53320312  0.83357877  1
  Ni  Ni142  1  0.86667793  0.53320312  0.83357877  1
  Ni  Ni143  1  0.06634051  0.33289672  0.83374046  1
  Ni  Ni144  1  0.26655621  0.33289672  0.83374046  1
  Ni  Ni145  1  0.06634051  0.73344379  0.83374046  1
  Ni  Ni146  1  0.66710328  0.73344379  0.83374046  1
  Ni  Ni147  1  0.66710328  0.93365949  0.83374046  1
  Ni  Ni148  1  0.26655621  0.93365949  0.83374046  1
  Cu  Cu149  1  -0.00000000  0.00000000  -0.00000000  1
