# generated using pymatgen
data_CuNiC8
_symmetry_space_group_name_H-M   'P 1'
_cell_length_a   7.55148762
_cell_length_b   7.55148762
_cell_length_c   15.29474358
_cell_angle_alpha   88.21316959
_cell_angle_beta   88.21316959
_cell_angle_gamma   42.90299917
_symmetry_Int_Tables_number   1
_chemical_formula_structural   CuNiC8
_chemical_formula_sum   'Cu4 Ni4 C32'
_cell_volume   593.41278760
_cell_formula_units_Z   4
loop_
 _symmetry_equiv_pos_site_id
 _symmetry_equiv_pos_as_xyz
  1  'x, y, z'
loop_
 _atom_site_type_symbol
 _atom_site_label
 _atom_site_symmetry_multiplicity
 _atom_site_fract_x
 _atom_site_fract_y
 _atom_site_fract_z
 _atom_site_occupancy
  C  C0  1  0.64974200  0.73153800  0.87657700  1
  C  C1  1  0.35025800  0.26846200  0.12342300  1
  C  C2  1  0.26846200  0.35025800  0.62342300  1
  C  C3  1  0.73153800  0.64974200  0.37657700  1
  Ni  Ni4  1  0.00000000  0.00000000  0.50000000  1
  Ni  Ni5  1  0.00000000  0.00000000  0.00000000  1
  Ni  Ni6  1  0.95182300  0.04817700  0.75000000  1
  Ni  Ni7  1  0.04817700  0.95182300  0.25000000  1
  Cu  Cu8  1  0.38198700  0.37354800  0.87475700  1
  Cu  Cu9  1  0.61801300  0.62645200  0.12524300  1
  Cu  Cu10  1  0.62645200  0.61801300  0.62524300  1
  Cu  Cu11  1  0.37354800  0.38198700  0.37475700  1
  C  C12  1  0.42797100  0.74474000  0.51733100  1
  C  C13  1  0.57202900  0.25526000  0.48266900  1
  C  C14  1  0.25526000  0.57202900  0.98266900  1
  C  C15  1  0.74474000  0.42797100  0.01733100  1
  C  C16  1  0.68708700  0.81715500  0.59182500  1
  C  C17  1  0.31291300  0.18284500  0.40817500  1
  C  C18  1  0.18284500  0.31291300  0.90817500  1
  C  C19  1  0.81715500  0.68708700  0.09182500  1
  C  C20  1  0.54698200  0.12179600  0.77826100  1
  C  C21  1  0.45301800  0.87820400  0.22173900  1
  C  C22  1  0.87820400  0.45301800  0.72173900  1
  C  C23  1  0.12179600  0.54698200  0.27826100  1
  C  C24  1  0.60428300  0.38310400  0.65605700  1
  C  C25  1  0.39571700  0.61689600  0.34394300  1
  C  C26  1  0.61689600  0.39571700  0.84394300  1
  C  C27  1  0.38310400  0.60428300  0.15605700  1
  C  C28  1  0.34532200  0.89917200  0.70135000  1
  C  C29  1  0.65467800  0.10082800  0.29865000  1
  C  C30  1  0.10082800  0.65467800  0.79865000  1
  C  C31  1  0.89917200  0.34532200  0.20135000  1
  C  C32  1  0.66397900  0.06308000  0.95106100  1
  C  C33  1  0.33602100  0.93692000  0.04893900  1
  C  C34  1  0.93692000  0.33602100  0.54893900  1
  C  C35  1  0.06308000  0.66397900  0.45106100  1
  C  C36  1  0.83737600  0.03709500  0.12887100  1
  C  C37  1  0.16262400  0.96290500  0.87112900  1
  C  C38  1  0.96290500  0.16262400  0.37112900  1
  C  C39  1  0.03709500  0.83737600  0.62887100  1
