# generated using pymatgen
data_Cu25(Ni4C3)2
_symmetry_space_group_name_H-M   'P 1'
_cell_length_a   7.88226503
_cell_length_b   7.88226503
_cell_length_c   22.60625313
_cell_angle_alpha   86.87482909
_cell_angle_beta   86.87482909
_cell_angle_gamma   89.85974821
_symmetry_Int_Tables_number   1
_chemical_formula_structural   Cu25(Ni4C3)2
_chemical_formula_sum   'Cu50 Ni16 C12'
_cell_volume   1400.35413949
_cell_formula_units_Z   2
loop_
 _symmetry_equiv_pos_site_id
 _symmetry_equiv_pos_as_xyz
  1  'x, y, z'
loop_
 _atom_site_type_symbol
 _atom_site_label
 _atom_site_symmetry_multiplicity
 _atom_site_fract_x
 _atom_site_fract_y
 _atom_site_fract_z
 _atom_site_occupancy
  C  C0  1  0.74916322  0.26187851  0.02433904  1
  C  C1  1  0.73812149  0.25083678  0.47566096  1
  C  C2  1  0.25083678  0.73812149  0.97566096  1
  C  C3  1  0.26187851  0.74916322  0.52433904  1
  C  C4  1  0.85539651  0.75544392  0.74734168  1
  C  C5  1  0.24455608  0.14460349  0.75265832  1
  C  C6  1  0.14460349  0.24455608  0.25265832  1
  C  C7  1  0.75544392  0.85539651  0.24734168  1
  C  C8  1  0.76723134  0.26916045  0.83378682  1
  C  C9  1  0.73083955  0.23276866  0.66621318  1
  C  C10  1  0.23276866  0.73083955  0.16621318  1
  C  C11  1  0.26916045  0.76723134  0.33378682  1
  Ni  Ni12  1  0.59838721  0.58222754  0.86901424  1
  Ni  Ni13  1  0.41777246  0.40161279  0.63098576  1
  Ni  Ni14  1  0.40161279  0.41777246  0.13098576  1
  Ni  Ni15  1  0.58222754  0.59838721  0.36901424  1
  Ni  Ni16  1  0.91641549  0.94686151  0.87729644  1
  Ni  Ni17  1  0.05313849  0.08358451  0.62270356  1
  Ni  Ni18  1  0.08358451  0.05313849  0.12270356  1
  Ni  Ni19  1  0.94686151  0.91641549  0.37729644  1
  Ni  Ni20  1  0.44986272  0.10646578  0.88022557  1
  Ni  Ni21  1  0.89353422  0.55013728  0.61977443  1
  Ni  Ni22  1  0.55013728  0.89353422  0.11977443  1
  Ni  Ni23  1  0.10646578  0.44986272  0.38022557  1
  Ni  Ni24  1  0.91835843  0.57372596  0.13343858  1
  Ni  Ni25  1  0.42627404  0.08164157  0.36656142  1
  Ni  Ni26  1  0.08164157  0.42627404  0.86656142  1
  Ni  Ni27  1  0.57372596  0.91835843  0.63343858  1
  Cu  Cu28  1  0.67663245  0.50944736  0.82280395  1
  Cu  Cu29  1  0.49055264  0.32336755  0.67719605  1
  Cu  Cu30  1  0.32336755  0.49055264  0.17719605  1
  Cu  Cu31  1  0.50944736  0.67663245  0.32280395  1
  Cu  Cu32  1  0.58094980  0.50020146  0.91749576  1
  Cu  Cu33  1  0.49979854  0.41905020  0.58250424  1
  Cu  Cu34  1  0.41905020  0.49979854  0.08250424  1
  Cu  Cu35  1  0.50020146  0.58094980  0.41749576  1
  Cu  Cu36  1  0.54929553  0.72971933  0.85871156  1
  Cu  Cu37  1  0.27028067  0.45070447  0.64128844  1
  Cu  Cu38  1  0.45070447  0.27028067  0.14128844  1
  Cu  Cu39  1  0.72971933  0.54929553  0.35871156  1
  Cu  Cu40  1  0.86511162  0.03045344  0.82811131  1
  Cu  Cu41  1  0.96954656  0.13488838  0.67188869  1
  Cu  Cu42  1  0.13488838  0.96954656  0.17188869  1
  Cu  Cu43  1  0.03045344  0.86511162  0.32811131  1
  Cu  Cu44  1  0.91680218  0.01981280  0.92426448  1
  Cu  Cu45  1  0.98018720  0.08319782  0.57573552  1
  Cu  Cu46  1  0.08319782  0.98018720  0.07573552  1
  Cu  Cu47  1  0.01981280  0.91680218  0.42426448  1
  Cu  Cu48  1  0.96217600  0.79751841  0.87042491  1
  Cu  Cu49  1  0.20248159  0.03782400  0.62957509  1
  Cu  Cu50  1  0.03782400  0.20248159  0.12957509  1
  Cu  Cu51  1  0.79751841  0.96217600  0.37042491  1
  Cu  Cu52  1  0.52599998  0.17782095  0.83104461  1
  Cu  Cu53  1  0.82217905  0.47400002  0.66895539  1
  Cu  Cu54  1  0.47400002  0.82217905  0.16895539  1
  Cu  Cu55  1  0.17782095  0.52599998  0.33104461  1
  Cu  Cu56  1  0.52827639  0.08828301  0.92608373  1
  Cu  Cu57  1  0.91171699  0.47172361  0.57391627  1
  Cu  Cu58  1  0.47172361  0.91171699  0.07391627  1
  Cu  Cu59  1  0.08828301  0.52827639  0.42608373  1
  Cu  Cu60  1  0.29969585  0.06162028  0.87539997  1
  Cu  Cu61  1  0.93837972  0.70030415  0.62460003  1
  Cu  Cu62  1  0.70030415  0.93837972  0.12460003  1
  Cu  Cu63  1  0.06162028  0.29969585  0.37539997  1
  Cu  Cu64  1  0.99628838  0.57974713  0.08414649  1
  Cu  Cu65  1  0.42025287  0.00371162  0.41585351  1
  Cu  Cu66  1  0.00371162  0.42025287  0.91585351  1
  Cu  Cu67  1  0.57974713  0.99628838  0.58414649  1
  Cu  Cu68  1  0.77436239  0.51523668  0.14470762  1
  Cu  Cu69  1  0.48476332  0.22563761  0.35529238  1
  Cu  Cu70  1  0.22563761  0.48476332  0.85529238  1
  Cu  Cu71  1  0.51523668  0.77436239  0.64470762  1
  Cu  Cu72  1  0.99384719  0.63492409  0.17985392  1
  Cu  Cu73  1  0.36507591  0.00615281  0.32014608  1
  Cu  Cu74  1  0.00615281  0.36507591  0.82014608  1
  Cu  Cu75  1  0.63492409  0.99384719  0.67985392  1
  Cu  Cu76  1  0.21381448  0.78618552  0.75000000  1
  Cu  Cu77  1  0.78618552  0.21381448  0.25000000  1
