# generated using pymatgen
data_CuNiC8
_symmetry_space_group_name_H-M   'P 1'
_cell_length_a   5.56248200
_cell_length_b   5.38596400
_cell_length_c   9.41222073
_cell_angle_alpha   55.03711123
_cell_angle_beta   90.00000000
_cell_angle_gamma   90.00000000
_symmetry_Int_Tables_number   1
_chemical_formula_structural   CuNiC8
_chemical_formula_sum   'Cu2 Ni2 C16'
_cell_volume   231.09232358
_cell_formula_units_Z   2
loop_
 _symmetry_equiv_pos_site_id
 _symmetry_equiv_pos_as_xyz
  1  'x, y, z'
loop_
 _atom_site_type_symbol
 _atom_site_label
 _atom_site_symmetry_multiplicity
 _atom_site_fract_x
 _atom_site_fract_y
 _atom_site_fract_z
 _atom_site_occupancy
  C  C0  1  0.94552500  0.23578800  0.75062600  1
  C  C1  1  0.44552500  0.76421200  0.74937400  1
  C  C2  1  0.55447500  0.23578800  0.25062600  1
  C  C3  1  0.05447500  0.76421200  0.24937400  1
  Ni  Ni4  1  0.50000000  0.00000000  0.00000000  1
  Ni  Ni5  1  0.00000000  0.00000000  0.50000000  1
  Cu  Cu6  1  0.50000000  0.50000000  0.50000000  1
  Cu  Cu7  1  0.00000000  0.50000000  0.00000000  1
  C  C8  1  0.47274000  0.65635100  0.25142200  1
  C  C9  1  0.20120300  0.84554900  0.95215500  1
  C  C10  1  0.20357900  0.25575400  0.54711700  1
  C  C11  1  0.70357900  0.74424600  0.95288300  1
  C  C12  1  0.70120300  0.15445100  0.54784500  1
  C  C13  1  0.97274000  0.34364900  0.24857800  1
  C  C14  1  0.02726000  0.65635100  0.75142200  1
  C  C15  1  0.29879700  0.84554900  0.45215500  1
  C  C16  1  0.29642100  0.25575400  0.04711700  1
  C  C17  1  0.79879700  0.15445100  0.04784500  1
  C  C18  1  0.79642100  0.74424600  0.45288300  1
  C  C19  1  0.52726000  0.34364900  0.74857800  1
