# generated using pymatgen
data_Cu3Ni4C11
_symmetry_space_group_name_H-M   'P 1'
_cell_length_a   5.73429600
_cell_length_b   12.55026400
_cell_length_c   12.88874600
_cell_angle_alpha   90.00000000
_cell_angle_beta   90.00000000
_cell_angle_gamma   90.00000000
_symmetry_Int_Tables_number   1
_chemical_formula_structural   Cu3Ni4C11
_chemical_formula_sum   'Cu6 Ni8 C22'
_cell_volume   927.56346382
_cell_formula_units_Z   2
loop_
 _symmetry_equiv_pos_site_id
 _symmetry_equiv_pos_as_xyz
  1  'x, y, z'
loop_
 _atom_site_type_symbol
 _atom_site_label
 _atom_site_symmetry_multiplicity
 _atom_site_fract_x
 _atom_site_fract_y
 _atom_site_fract_z
 _atom_site_occupancy
  C  C0  1  0.21582400  0.65181600  0.13752500  1
  C  C1  1  0.21582400  0.34818400  0.86247500  1
  C  C2  1  0.78417600  0.84818400  0.63752500  1
  C  C3  1  0.78417600  0.15181600  0.36247500  1
  C  C4  1  0.25119600  0.50000000  0.50000000  1
  C  C5  1  0.74880400  0.00000000  0.00000000  1
  C  C6  1  0.92938700  0.66332100  0.38528900  1
  C  C7  1  0.92938700  0.33667900  0.61471100  1
  C  C8  1  0.07061300  0.83667900  0.88528900  1
  C  C9  1  0.07061300  0.16332100  0.11471100  1
  C  C10  1  0.43712300  0.92297900  0.18173300  1
  C  C11  1  0.43712300  0.07702100  0.81826700  1
  C  C12  1  0.56287700  0.57702100  0.68173300  1
  C  C13  1  0.56287700  0.42297900  0.31826700  1
  C  C14  1  0.74638600  0.73951300  0.31320300  1
  C  C15  1  0.74638600  0.26048700  0.68679700  1
  C  C16  1  0.25361400  0.76048700  0.81320300  1
  C  C17  1  0.25361400  0.23951300  0.18679700  1
  C  C18  1  0.26147500  0.88822600  0.27319000  1
  C  C19  1  0.26147500  0.11177400  0.72681000  1
  C  C20  1  0.73852500  0.61177400  0.77319000  1
  C  C21  1  0.73852500  0.38822600  0.22681000  1
  Ni  Ni22  1  0.05401000  0.60960000  0.43556700  1
  Ni  Ni23  1  0.05401000  0.39040000  0.56443300  1
  Ni  Ni24  1  0.94599000  0.89040000  0.93556700  1
  Ni  Ni25  1  0.94599000  0.10960000  0.06443300  1
  Ni  Ni26  1  0.56738100  0.94824600  0.11425200  1
  Ni  Ni27  1  0.56738100  0.05175400  0.88574800  1
  Ni  Ni28  1  0.43261900  0.55175400  0.61425200  1
  Ni  Ni29  1  0.43261900  0.44824600  0.38574800  1
  Cu  Cu30  1  0.76040200  0.69656100  0.20137600  1
  Cu  Cu31  1  0.76040200  0.30343900  0.79862400  1
  Cu  Cu32  1  0.23959800  0.80343900  0.70137600  1
  Cu  Cu33  1  0.23959800  0.19656100  0.29862400  1
  Cu  Cu34  1  0.84259300  0.00000000  0.50000000  1
  Cu  Cu35  1  0.15740700  0.50000000  0.00000000  1
