# generated using pymatgen
data_Cu(NiC)4
_symmetry_space_group_name_H-M   'P 1'
_cell_length_a   5.26264800
_cell_length_b   13.60447700
_cell_length_c   13.86526025
_cell_angle_alpha   59.46988394
_cell_angle_beta   90.00000000
_cell_angle_gamma   90.00000000
_symmetry_Int_Tables_number   1
_chemical_formula_structural   Cu(NiC)4
_chemical_formula_sum   'Cu8 Ni32 C32'
_cell_volume   855.06679555
_cell_formula_units_Z   8
loop_
 _symmetry_equiv_pos_site_id
 _symmetry_equiv_pos_as_xyz
  1  'x, y, z'
loop_
 _atom_site_type_symbol
 _atom_site_label
 _atom_site_symmetry_multiplicity
 _atom_site_fract_x
 _atom_site_fract_y
 _atom_site_fract_z
 _atom_site_occupancy
  C  C0  1  0.27056500  0.91898100  0.91166500  1
  C  C1  1  0.77056500  0.08101900  0.58833500  1
  C  C2  1  0.72943500  0.08101900  0.08833500  1
  C  C3  1  0.22943500  0.91898100  0.41166500  1
  C  C4  1  0.23848000  0.17034500  0.41925200  1
  C  C5  1  0.73848000  0.82965500  0.08074800  1
  C  C6  1  0.76152000  0.82965500  0.58074800  1
  C  C7  1  0.26152000  0.17034500  0.91925200  1
  C  C8  1  0.75856900  0.58134700  0.08203700  1
  C  C9  1  0.25856900  0.41865300  0.41796300  1
  C  C10  1  0.24143100  0.41865300  0.91796300  1
  C  C11  1  0.74143100  0.58134700  0.58203700  1
  C  C12  1  0.76046100  0.32967500  0.33844600  1
  C  C13  1  0.26046100  0.67032500  0.16155400  1
  C  C14  1  0.23953900  0.67032500  0.66155400  1
  C  C15  1  0.73953900  0.32967500  0.83844600  1
  C  C16  1  0.78524500  0.82328700  0.85083900  1
  C  C17  1  0.28524500  0.17671300  0.64916100  1
  C  C18  1  0.21475500  0.17671300  0.14916100  1
  C  C19  1  0.71475500  0.82328700  0.35083900  1
  C  C20  1  0.22185800  0.67700800  0.92463800  1
  C  C21  1  0.72185800  0.32299200  0.57536200  1
  C  C22  1  0.77814200  0.32299200  0.07536200  1
  C  C23  1  0.27814200  0.67700800  0.42463800  1
  C  C24  1  0.70029000  0.08794800  0.32308700  1
  C  C25  1  0.20029000  0.91205200  0.17691300  1
  C  C26  1  0.29971000  0.91205200  0.67691300  1
  C  C27  1  0.79971000  0.08794800  0.82308700  1
  C  C28  1  0.79350700  0.58809900  0.33899700  1
  C  C29  1  0.29350700  0.41190100  0.16100300  1
  C  C30  1  0.20649300  0.41190100  0.66100300  1
  C  C31  1  0.70649300  0.58809900  0.83899700  1
  Ni  Ni32  1  0.08597100  0.60611500  0.34611200  1
  Ni  Ni33  1  0.58597100  0.39388500  0.15388800  1
  Ni  Ni34  1  0.91402900  0.39388500  0.65388800  1
  Ni  Ni35  1  0.41402900  0.60611500  0.84611200  1
  Ni  Ni36  1  0.09214200  0.10748500  0.79872100  1
  Ni  Ni37  1  0.59214200  0.89251500  0.70127900  1
  Ni  Ni38  1  0.90785800  0.89251500  0.20127900  1
  Ni  Ni39  1  0.40785800  0.10748500  0.29872100  1
  Ni  Ni40  1  0.85205200  0.65456700  0.88705500  1
  Ni  Ni41  1  0.35205200  0.34543300  0.61294500  1
  Ni  Ni42  1  0.14794800  0.34543300  0.11294500  1
  Ni  Ni43  1  0.64794800  0.65456700  0.38705500  1
  Ni  Ni44  1  0.26985400  0.54129800  0.58802700  1
  Ni  Ni45  1  0.76985500  0.45870200  0.91197300  1
  Ni  Ni46  1  0.73014600  0.45870200  0.41197300  1
  Ni  Ni47  1  0.23014600  0.54129800  0.08802700  1
  Ni  Ni48  1  0.21690300  0.87009800  0.59782000  1
  Ni  Ni49  1  0.71690300  0.12990200  0.90218000  1
  Ni  Ni50  1  0.78309700  0.12990200  0.40218000  1
  Ni  Ni51  1  0.28309700  0.87009800  0.09782000  1
  Ni  Ni52  1  0.71489200  0.63155600  0.21721300  1
  Ni  Ni53  1  0.21489200  0.36844400  0.28278700  1
  Ni  Ni54  1  0.28510800  0.36844400  0.78278700  1
  Ni  Ni55  1  0.78510800  0.63155600  0.71721300  1
  Ni  Ni56  1  0.26285700  0.04146600  0.12275900  1
  Ni  Ni57  1  0.76285700  0.95853400  0.37724100  1
  Ni  Ni58  1  0.73714300  0.95853400  0.87724100  1
  Ni  Ni59  1  0.23714300  0.04146600  0.62275900  1
  Ni  Ni60  1  0.84372200  0.15429500  0.20811800  1
  Ni  Ni61  1  0.34372200  0.84570500  0.29188200  1
  Ni  Ni62  1  0.15627800  0.84570500  0.79188200  1
  Ni  Ni63  1  0.65627800  0.15429500  0.70811800  1
  Cu  Cu64  1  0.50419200  0.24755400  0.50165900  1
  Cu  Cu65  1  0.00419200  0.75244600  0.99834100  1
  Cu  Cu66  1  0.49580800  0.75244600  0.49834100  1
  Cu  Cu67  1  0.99580800  0.24755400  0.00165900  1
  Cu  Cu68  1  0.50478900  0.74810300  0.97014800  1
  Cu  Cu69  1  0.00478900  0.25189700  0.52985200  1
  Cu  Cu70  1  0.49521100  0.25189700  0.02985200  1
  Cu  Cu71  1  0.99521100  0.74810300  0.47014800  1
