# generated using pymatgen
data_Cu2NiC5
_symmetry_space_group_name_H-M   'P 1'
_cell_length_a   7.05413743
_cell_length_b   7.05413743
_cell_length_c   7.05413743
_cell_angle_alpha   119.83127301
_cell_angle_beta   104.59133128
_cell_angle_gamma   104.51476756
_symmetry_Int_Tables_number   1
_chemical_formula_structural   Cu2NiC5
_chemical_formula_sum   'Cu2 Ni1 C5'
_cell_volume   263.48682853
_cell_formula_units_Z   1
loop_
 _symmetry_equiv_pos_site_id
 _symmetry_equiv_pos_as_xyz
  1  'x, y, z'
loop_
 _atom_site_type_symbol
 _atom_site_label
 _atom_site_symmetry_multiplicity
 _atom_site_fract_x
 _atom_site_fract_y
 _atom_site_fract_z
 _atom_site_occupancy
  Ni  Ni0  1  0.00000000  0.50000000  0.50000000  1
  Cu  Cu1  1  0.50000000  0.50000000  0.00000000  1
  Cu  Cu2  1  0.00000000  0.00000000  0.00000000  1
  C  C3  1  0.50000000  0.00000000  0.50000000  1
  C  C4  1  0.84960400  0.40641200  0.90652100  1
  C  C5  1  0.15039600  0.05691700  0.55680800  1
  C  C6  1  0.49989100  0.94308300  0.09347900  1
  C  C7  1  0.50010900  0.59358800  0.44319200  1
