# generated using pymatgen
data_Cu(NiC5)2
_symmetry_space_group_name_H-M   'P 1'
_cell_length_a   3.46487991
_cell_length_b   3.46487991
_cell_length_c   26.61074600
_cell_angle_alpha   90.00000000
_cell_angle_beta   90.00000000
_cell_angle_gamma   119.99999833
_symmetry_Int_Tables_number   1
_chemical_formula_structural   Cu(NiC5)2
_chemical_formula_sum   'Cu1 Ni2 C10'
_cell_volume   276.67126965
_cell_formula_units_Z   1
loop_
 _symmetry_equiv_pos_site_id
 _symmetry_equiv_pos_as_xyz
  1  'x, y, z'
loop_
 _atom_site_type_symbol
 _atom_site_label
 _atom_site_symmetry_multiplicity
 _atom_site_fract_x
 _atom_site_fract_y
 _atom_site_fract_z
 _atom_site_occupancy
  Ni  Ni0  1  0.00000000  0.00000000  0.37651500  1
  Ni  Ni1  1  0.00000000  0.00000000  0.87499900  1
  Cu  Cu2  1  0.00000000  0.00000000  0.24727500  1
  C  C3  1  0.00000000  0.00000000  0.12227900  1
  C  C4  1  0.00000000  0.00000000  0.62497900  1
  C  C5  1  0.66666700  0.33333300  0.31193200  1
  C  C6  1  0.66666700  0.33333300  0.81188600  1
  C  C7  1  0.33333300  0.66666700  0.18736300  1
  C  C8  1  0.33333300  0.66666700  0.68359900  1
  C  C9  1  0.33333300  0.66666700  0.06550300  1
  C  C10  1  0.33333300  0.66666700  0.56638500  1
  C  C11  1  0.66666700  0.33333300  0.43922000  1
  C  C12  1  0.66666700  0.33333300  0.93806500  1
