# generated using pymatgen
data_CuNi4C21
_symmetry_space_group_name_H-M   'P 1'
_cell_length_a   3.88956700
_cell_length_b   3.95935100
_cell_length_c   23.80218100
_cell_angle_alpha   90.00000000
_cell_angle_beta   90.00000000
_cell_angle_gamma   90.00000000
_symmetry_Int_Tables_number   1
_chemical_formula_structural   CuNi4C21
_chemical_formula_sum   'Cu1 Ni4 C21'
_cell_volume   366.55741934
_cell_formula_units_Z   1
loop_
 _symmetry_equiv_pos_site_id
 _symmetry_equiv_pos_as_xyz
  1  'x, y, z'
loop_
 _atom_site_type_symbol
 _atom_site_label
 _atom_site_symmetry_multiplicity
 _atom_site_fract_x
 _atom_site_fract_y
 _atom_site_fract_z
 _atom_site_occupancy
  Ni  Ni0  1  0.50000000  0.50000000  0.83976900  1
  Ni  Ni1  1  0.50000000  0.50000000  0.33963700  1
  Ni  Ni2  1  0.50000000  0.50000000  0.16023100  1
  Ni  Ni3  1  0.50000000  0.50000000  0.66036300  1
  C  C4  1  0.50000000  0.50000000  0.50000000  1
  Cu  Cu5  1  0.50000000  0.50000000  0.00000000  1
  C  C6  1  0.00000000  0.00000000  0.92305500  1
  C  C7  1  0.00000000  0.00000000  0.42255300  1
  C  C8  1  0.00000000  0.00000000  0.07694500  1
  C  C9  1  0.00000000  0.00000000  0.57744700  1
  C  C10  1  0.00000000  0.00000000  0.75002800  1
  C  C11  1  0.00000000  0.00000000  0.24997200  1
  C  C12  1  0.00000000  0.50000000  0.93585400  1
  C  C13  1  0.00000000  0.50000000  0.43493900  1
  C  C14  1  0.00000000  0.50000000  0.06414600  1
  C  C15  1  0.00000000  0.50000000  0.56506100  1
  C  C16  1  0.00000000  0.00000000  0.82902100  1
  C  C17  1  0.00000000  0.00000000  0.32887900  1
  C  C18  1  0.00000000  0.00000000  0.17097900  1
  C  C19  1  0.00000000  0.00000000  0.67112100  1
  C  C20  1  0.00000000  0.50000000  0.75006200  1
  C  C21  1  0.00000000  0.50000000  0.24993800  1
  C  C22  1  0.50000000  0.00000000  0.93633700  1
  C  C23  1  0.50000000  0.00000000  0.43544300  1
  C  C24  1  0.50000000  0.00000000  0.06366300  1
  C  C25  1  0.50000000  0.00000000  0.56455700  1
