# generated using pymatgen
data_Cu3NiC19
_symmetry_space_group_name_H-M   'P 1'
_cell_length_a   8.64861071
_cell_length_b   8.64892496
_cell_length_c   10.83240101
_cell_angle_alpha   89.99762517
_cell_angle_beta   89.99653889
_cell_angle_gamma   119.99973093
_symmetry_Int_Tables_number   1
_chemical_formula_structural   Cu3NiC19
_chemical_formula_sum   'Cu6 Ni2 C38'
_cell_volume   701.72187353
_cell_formula_units_Z   2
loop_
 _symmetry_equiv_pos_site_id
 _symmetry_equiv_pos_as_xyz
  1  'x, y, z'
loop_
 _atom_site_type_symbol
 _atom_site_label
 _atom_site_symmetry_multiplicity
 _atom_site_fract_x
 _atom_site_fract_y
 _atom_site_fract_z
 _atom_site_occupancy
  C  C0  1  0.25130500  0.99969800  0.74979100  1
  C  C1  1  0.00000900  0.25135800  0.24996500  1
  C  C2  1  0.99993800  0.25148700  0.75012000  1
  C  C3  1  0.74841900  0.74842500  0.24992400  1
  C  C4  1  0.74863400  0.74865300  0.74980800  1
  C  C5  1  0.25175500  0.00031300  0.25024500  1
  Ni  Ni6  1  0.00003100  0.99996800  0.00000400  1
  Ni  Ni7  1  0.99998400  0.00001800  0.49997500  1
  C  C8  1  0.33330000  0.66664400  0.28016500  1
  C  C9  1  0.33339900  0.66669200  0.78016500  1
  C  C10  1  0.66672500  0.33334600  0.21985100  1
  C  C11  1  0.66660900  0.33333600  0.71986400  1
  Cu  Cu12  1  0.39690400  0.39688300  0.99990300  1
  Cu  Cu13  1  0.39692500  0.39692600  0.50008000  1
  Cu  Cu14  1  0.60304800  0.99998700  0.50001800  1
  Cu  Cu15  1  0.60305800  0.99997100  0.99999900  1
  Cu  Cu16  1  0.00000500  0.60312900  0.00007900  1
  Cu  Cu17  1  0.99997300  0.60303900  0.49991500  1
  C  C18  1  0.33339100  0.66673300  0.13813300  1
  C  C19  1  0.33338300  0.66673100  0.63810500  1
  C  C20  1  0.66659900  0.33330400  0.36190800  1
  C  C21  1  0.66660900  0.33330800  0.86189200  1
  C  C22  1  0.73173000  0.52399500  0.16480400  1
  C  C23  1  0.73162200  0.52402900  0.66485400  1
  C  C24  1  0.47606200  0.20768400  0.16485800  1
  C  C25  1  0.47595900  0.20765000  0.66483500  1
  C  C26  1  0.79239900  0.26831900  0.16491600  1
  C  C27  1  0.79233600  0.26837300  0.66485000  1
  C  C28  1  0.26833400  0.79233300  0.33520800  1
  C  C29  1  0.26837500  0.79235400  0.83513700  1
  C  C30  1  0.20758400  0.47594400  0.33514800  1
  C  C31  1  0.20774000  0.47602500  0.83519700  1
  C  C32  1  0.52398000  0.73163100  0.33519100  1
  C  C33  1  0.52410300  0.73169900  0.83511000  1
  C  C34  1  0.08554100  0.87379500  0.10421900  1
  C  C35  1  0.08539400  0.87349500  0.60390100  1
  C  C36  1  0.12630600  0.21189600  0.10394000  1
  C  C37  1  0.12626600  0.21167500  0.60419500  1
  C  C38  1  0.78814100  0.91450200  0.10403500  1
  C  C39  1  0.78807500  0.91436100  0.60395600  1
  C  C40  1  0.91457600  0.78829400  0.39581700  1
  C  C41  1  0.91439400  0.78812400  0.89601500  1
  C  C42  1  0.21193200  0.12646100  0.39606500  1
  C  C43  1  0.21173900  0.12622100  0.89581000  1
  C  C44  1  0.87376900  0.08570700  0.39602100  1
  C  C45  1  0.87364000  0.08548800  0.89601200  1
