# generated using pymatgen
data_Cu7NiC5
_symmetry_space_group_name_H-M   'P 1'
_cell_length_a   8.07211100
_cell_length_b   8.66313600
_cell_length_c   12.34320246
_cell_angle_alpha   59.69004581
_cell_angle_beta   90.00000000
_cell_angle_gamma   90.00000000
_symmetry_Int_Tables_number   1
_chemical_formula_structural   Cu7NiC5
_chemical_formula_sum   'Cu28 Ni4 C20'
_cell_volume   745.17078091
_cell_formula_units_Z   4
loop_
 _symmetry_equiv_pos_site_id
 _symmetry_equiv_pos_as_xyz
  1  'x, y, z'
loop_
 _atom_site_type_symbol
 _atom_site_label
 _atom_site_symmetry_multiplicity
 _atom_site_fract_x
 _atom_site_fract_y
 _atom_site_fract_z
 _atom_site_occupancy
  C  C0  1  0.62631000  0.79798700  0.22042500  1
  C  C1  1  0.87369000  0.79798700  0.72042500  1
  C  C2  1  0.37369000  0.20201300  0.77957500  1
  C  C3  1  0.12631000  0.20201300  0.27957500  1
  C  C4  1  0.61742000  0.42254600  0.91046300  1
  C  C5  1  0.88258000  0.42254600  0.41046300  1
  C  C6  1  0.38258000  0.57745400  0.08953700  1
  C  C7  1  0.11742000  0.57745400  0.58953700  1
  C  C8  1  0.63787800  0.57082800  0.58074900  1
  C  C9  1  0.86212200  0.57082800  0.08074900  1
  C  C10  1  0.36212200  0.42917200  0.41925100  1
  C  C11  1  0.13787800  0.42917200  0.91925100  1
  C  C12  1  0.61472600  0.18283500  0.27909400  1
  C  C13  1  0.88527400  0.18283500  0.77909400  1
  C  C14  1  0.38527400  0.81716500  0.72090600  1
  C  C15  1  0.11472600  0.81716500  0.22090600  1
  C  C16  1  0.87095600  0.86992600  0.41299400  1
  C  C17  1  0.62904400  0.86992600  0.91299400  1
  C  C18  1  0.12904400  0.13007400  0.58700600  1
  C  C19  1  0.37095600  0.13007400  0.08700600  1
  Ni  Ni20  1  0.85498000  0.11807200  0.03268300  1
  Ni  Ni21  1  0.64502000  0.11807200  0.53268300  1
  Ni  Ni22  1  0.14502000  0.88192800  0.96731700  1
  Ni  Ni23  1  0.35498000  0.88192800  0.46731700  1
  Cu  Cu24  1  0.62222200  0.54201800  0.40293700  1
  Cu  Cu25  1  0.87777800  0.54201800  0.90293700  1
  Cu  Cu26  1  0.37777800  0.45798200  0.59706300  1
  Cu  Cu27  1  0.12222200  0.45798200  0.09706300  1
  Cu  Cu28  1  0.63694800  0.30852100  0.77579500  1
  Cu  Cu29  1  0.86305200  0.30852100  0.27579500  1
  Cu  Cu30  1  0.36305200  0.69147900  0.22420500  1
  Cu  Cu31  1  0.13694800  0.69147900  0.72420500  1
  Cu  Cu32  1  0.61702300  0.67757500  0.71842100  1
  Cu  Cu33  1  0.88297700  0.67757500  0.21842100  1
  Cu  Cu34  1  0.38297700  0.32242500  0.28157900  1
  Cu  Cu35  1  0.11702300  0.32242500  0.78157900  1
  Cu  Cu36  1  0.62244400  0.42943000  0.09258300  1
  Cu  Cu37  1  0.87755600  0.42943000  0.59258300  1
  Cu  Cu38  1  0.37755600  0.57057000  0.90741700  1
  Cu  Cu39  1  0.12244400  0.57057000  0.40741700  1
  Cu  Cu40  1  0.88833800  0.77552600  0.54263600  1
  Cu  Cu41  1  0.61166200  0.77552600  0.04263600  1
  Cu  Cu42  1  0.11166200  0.22447400  0.45736400  1
  Cu  Cu43  1  0.38833800  0.22447400  0.95736400  1
  Cu  Cu44  1  0.00811700  0.93316000  0.33678200  1
  Cu  Cu45  1  0.49188300  0.93316000  0.83678200  1
  Cu  Cu46  1  0.99188300  0.06684000  0.66321800  1
  Cu  Cu47  1  0.50811700  0.06684000  0.16321800  1
  Cu  Cu48  1  0.71454600  0.88801300  0.36351700  1
  Cu  Cu49  1  0.78545400  0.88801300  0.86351700  1
  Cu  Cu50  1  0.28545400  0.11198700  0.63648300  1
  Cu  Cu51  1  0.21454600  0.11198700  0.13648300  1
