# generated using pymatgen
data_Cu18Ni8C17
_symmetry_space_group_name_H-M   'P 1'
_cell_length_a   10.12084100
_cell_length_b   10.16782459
_cell_length_c   10.32828074
_cell_angle_alpha   72.63188554
_cell_angle_beta   64.44405333
_cell_angle_gamma   64.83051295
_symmetry_Int_Tables_number   1
_chemical_formula_structural   Cu18Ni8C17
_chemical_formula_sum   'Cu18 Ni8 C17'
_cell_volume   859.16951913
_cell_formula_units_Z   1
loop_
 _symmetry_equiv_pos_site_id
 _symmetry_equiv_pos_as_xyz
  1  'x, y, z'
loop_
 _atom_site_type_symbol
 _atom_site_label
 _atom_site_symmetry_multiplicity
 _atom_site_fract_x
 _atom_site_fract_y
 _atom_site_fract_z
 _atom_site_occupancy
  C  C0  1  0.85440500  0.73455800  0.69963700  1
  C  C1  1  0.14559500  0.26544200  0.30036300  1
  C  C2  1  0.51700600  0.63830500  0.86822300  1
  C  C3  1  0.48299400  0.36169500  0.13177700  1
  C  C4  1  0.15839200  0.53269100  0.40545000  1
  C  C5  1  0.84160800  0.46730900  0.59455000  1
  C  C6  1  0.50000000  0.00000000  0.00000000  1
  C  C7  1  0.16580900  0.91487600  0.52125500  1
  C  C8  1  0.83419100  0.08512400  0.47874500  1
  C  C9  1  0.17094400  0.86026400  0.13368000  1
  C  C10  1  0.82905600  0.13973600  0.86632000  1
  C  C11  1  0.48176700  0.67318000  0.23033900  1
  C  C12  1  0.51823300  0.32682000  0.76966100  1
  C  C13  1  0.82349900  0.43173400  0.96613400  1
  C  C14  1  0.17650100  0.56826600  0.03386600  1
  C  C15  1  0.81346000  0.78836100  0.34802900  1
  C  C16  1  0.18654000  0.21163900  0.65197100  1
  Ni  Ni17  1  0.14123700  0.55693300  0.68295300  1
  Ni  Ni18  1  0.85876300  0.44306700  0.31704700  1
  Ni  Ni19  1  0.52215600  0.64209900  0.60682300  1
  Ni  Ni20  1  0.47784400  0.35790100  0.39317700  1
  Ni  Ni21  1  0.78221000  0.78105100  0.98672100  1
  Ni  Ni22  1  0.21779000  0.21894900  0.01327900  1
  Ni  Ni23  1  0.56724500  0.93485500  0.71632900  1
  Ni  Ni24  1  0.43275500  0.06514500  0.28367100  1
  Cu  Cu25  1  0.75969300  0.56222700  0.79506900  1
  Cu  Cu26  1  0.24030700  0.43777300  0.20493100  1
  Cu  Cu27  1  0.06192100  0.08622300  0.38877600  1
  Cu  Cu28  1  0.93807900  0.91377700  0.61122400  1
  Cu  Cu29  1  0.90592300  0.65470700  0.49761100  1
  Cu  Cu30  1  0.09407700  0.34529300  0.50238900  1
  Cu  Cu31  1  0.56708100  0.54745000  0.07485000  1
  Cu  Cu32  1  0.43291900  0.45255000  0.92515000  1
  Cu  Cu33  1  0.24679000  0.69988200  0.29339400  1
  Cu  Cu34  1  0.75321000  0.30011800  0.70660600  1
  Cu  Cu35  1  0.59761000  0.15012200  0.90689800  1
  Cu  Cu36  1  0.40239000  0.84987800  0.09310200  1
  Cu  Cu37  1  0.02259200  0.73037600  0.18756600  1
  Cu  Cu38  1  0.97740800  0.26962400  0.81243400  1
  Cu  Cu39  1  0.87246900  0.95649700  0.34666300  1
  Cu  Cu40  1  0.12753100  0.04350300  0.65333700  1
  Cu  Cu41  1  0.28162400  0.72182600  0.98070400  1
  Cu  Cu42  1  0.71837600  0.27817400  0.01929600  1
