# generated using pymatgen
data_CuNiC5
_symmetry_space_group_name_H-M   'P 1'
_cell_length_a   5.43135543
_cell_length_b   5.43135543
_cell_length_c   13.18981360
_cell_angle_alpha   78.11827639
_cell_angle_beta   78.11827639
_cell_angle_gamma   90.00000000
_symmetry_Int_Tables_number   1
_chemical_formula_structural   CuNiC5
_chemical_formula_sum   'Cu4 Ni4 C20'
_cell_volume   372.23493389
_cell_formula_units_Z   4
loop_
 _symmetry_equiv_pos_site_id
 _symmetry_equiv_pos_as_xyz
  1  'x, y, z'
loop_
 _atom_site_type_symbol
 _atom_site_label
 _atom_site_symmetry_multiplicity
 _atom_site_fract_x
 _atom_site_fract_y
 _atom_site_fract_z
 _atom_site_occupancy
  Ni  Ni0  1  0.30106240  0.55106240  0.39787519  1
  Ni  Ni1  1  0.55106240  0.30106240  0.89787519  1
  Ni  Ni2  1  0.19893760  0.94893760  0.60212481  1
  Ni  Ni3  1  0.94893760  0.19893760  0.10212481  1
  Cu  Cu4  1  0.80369721  0.05369721  0.39260559  1
  Cu  Cu5  1  0.05369721  0.80369721  0.89260559  1
  Cu  Cu6  1  0.69630279  0.44630279  0.60739441  1
  Cu  Cu7  1  0.44630279  0.69630279  0.10739441  1
  C  C8  1  0.12500000  0.37500000  0.75000000  1
  C  C9  1  0.62500000  0.87500000  0.75000000  1
  C  C10  1  0.37500000  0.12500000  0.25000000  1
  C  C11  1  0.87500000  0.62500000  0.25000000  1
  C  C12  1  0.21096812  0.46096812  0.57806376  1
  C  C13  1  0.71631557  0.96631557  0.56736885  1
  C  C14  1  0.46096812  0.21096812  0.07806376  1
  C  C15  1  0.96631557  0.71631557  0.06736885  1
  C  C16  1  0.78368443  0.53368443  0.43263115  1
  C  C17  1  0.28903188  0.03903188  0.42193624  1
  C  C18  1  0.53368443  0.78368443  0.93263115  1
  C  C19  1  0.03903188  0.28903188  0.92193624  1
  C  C20  1  0.05765246  0.31781155  0.25300611  1
  C  C21  1  0.18218845  0.81065857  0.24699389  1
  C  C22  1  0.31781155  0.05765246  0.75300611  1
  C  C23  1  0.44234754  0.57081766  0.74699389  1
  C  C24  1  0.92918234  0.68934143  0.75300611  1
  C  C25  1  0.81065857  0.18218845  0.74699389  1
  C  C26  1  0.68934143  0.92918234  0.25300611  1
  C  C27  1  0.57081766  0.44234754  0.24699389  1
