# generated using pymatgen
data_CuNiC3
_symmetry_space_group_name_H-M   'P 1'
_cell_length_a   5.01951300
_cell_length_b   5.05239300
_cell_length_c   7.53218200
_cell_angle_alpha   90.00000000
_cell_angle_beta   90.00000000
_cell_angle_gamma   90.00000000
_symmetry_Int_Tables_number   1
_chemical_formula_structural   CuNiC3
_chemical_formula_sum   'Cu4 Ni4 C12'
_cell_volume   191.02029588
_cell_formula_units_Z   4
loop_
 _symmetry_equiv_pos_site_id
 _symmetry_equiv_pos_as_xyz
  1  'x, y, z'
loop_
 _atom_site_type_symbol
 _atom_site_label
 _atom_site_symmetry_multiplicity
 _atom_site_fract_x
 _atom_site_fract_y
 _atom_site_fract_z
 _atom_site_occupancy
  Ni  Ni0  1  0.98819200  0.97756900  0.75000000  1
  Ni  Ni1  1  0.48819200  0.52243100  0.25000000  1
  Ni  Ni2  1  0.51180800  0.47756900  0.75000000  1
  Ni  Ni3  1  0.01180800  0.02243100  0.25000000  1
  Cu  Cu4  1  0.00000000  0.50000000  0.50000000  1
  Cu  Cu5  1  0.50000000  0.00000000  0.50000000  1
  Cu  Cu6  1  0.50000000  0.00000000  0.00000000  1
  Cu  Cu7  1  0.00000000  0.50000000  0.00000000  1
  C  C8  1  0.66001400  0.33701600  0.42139900  1
  C  C9  1  0.16001400  0.16298400  0.57860100  1
  C  C10  1  0.83998600  0.83701600  0.07860100  1
  C  C11  1  0.33998600  0.66298400  0.92139900  1
  C  C12  1  0.33998600  0.66298400  0.57860100  1
  C  C13  1  0.83998600  0.83701600  0.42139900  1
  C  C14  1  0.16001400  0.16298400  0.92139900  1
  C  C15  1  0.66001400  0.33701600  0.07860100  1
  C  C16  1  0.14148900  0.37842000  0.25000000  1
  C  C17  1  0.64148900  0.12158000  0.75000000  1
  C  C18  1  0.35851100  0.87842000  0.25000000  1
  C  C19  1  0.85851100  0.62158000  0.75000000  1
