# generated using pymatgen
data_Cu3NiC16
_symmetry_space_group_name_H-M   'P 1'
_cell_length_a   5.99421426
_cell_length_b   5.99421426
_cell_length_c   30.16640013
_cell_angle_alpha   86.54219265
_cell_angle_beta   86.54219265
_cell_angle_gamma   59.90962283
_symmetry_Int_Tables_number   1
_chemical_formula_structural   Cu3NiC16
_chemical_formula_sum   'Cu9 Ni3 C48'
_cell_volume   935.55125198
_cell_formula_units_Z   3
loop_
 _symmetry_equiv_pos_site_id
 _symmetry_equiv_pos_as_xyz
  1  'x, y, z'
loop_
 _atom_site_type_symbol
 _atom_site_label
 _atom_site_symmetry_multiplicity
 _atom_site_fract_x
 _atom_site_fract_y
 _atom_site_fract_z
 _atom_site_occupancy
  C  C0  1  0.33182500  0.33182500  0.46072400  1
  C  C1  1  0.66817500  0.66817500  0.53927600  1
  C  C2  1  0.34548000  0.34548000  0.61980100  1
  C  C3  1  0.65452000  0.65452000  0.38019900  1
  C  C4  1  0.99597700  0.99597700  0.71703400  1
  C  C5  1  0.00402300  0.00402300  0.28296600  1
  C  C6  1  0.32637100  0.32637100  0.20307400  1
  C  C7  1  0.67362900  0.67362900  0.79692600  1
  C  C8  1  0.00547700  0.00547700  0.87177200  1
  C  C9  1  0.99452300  0.99452300  0.12822800  1
  C  C10  1  0.32165500  0.32165500  0.04947800  1
  C  C11  1  0.67834500  0.67834500  0.95052200  1
  Ni  Ni12  1  0.32878900  0.32878900  0.33216000  1
  Ni  Ni13  1  0.67121100  0.67121100  0.66784000  1
  Ni  Ni14  1  0.00000000  0.00000000  0.00000000  1
  Cu  Cu15  1  0.00000000  0.00000000  0.50000000  1
  Cu  Cu16  1  0.01800600  0.01800600  0.58568000  1
  Cu  Cu17  1  0.98199400  0.98199400  0.41432000  1
  Cu  Cu18  1  0.32251600  0.32251600  0.74903100  1
  Cu  Cu19  1  0.67748400  0.67748400  0.25096900  1
  Cu  Cu20  1  0.33704100  0.33704100  0.83385100  1
  Cu  Cu21  1  0.66295900  0.66295900  0.16614900  1
  Cu  Cu22  1  0.35156500  0.35156500  0.91885500  1
  Cu  Cu23  1  0.64843500  0.64843500  0.08114500  1
  C  C24  1  0.16113700  0.16113700  0.53464500  1
  C  C25  1  0.83886300  0.83886300  0.46535500  1
  C  C26  1  0.11877600  0.11877600  0.36507000  1
  C  C27  1  0.88122400  0.88122400  0.63493000  1
  C  C28  1  0.46202400  0.46202400  0.70099600  1
  C  C29  1  0.53797600  0.53797600  0.29900400  1
  C  C30  1  0.82322000  0.82322000  0.20104600  1
  C  C31  1  0.17678000  0.17678000  0.79895400  1
  C  C32  1  0.49765400  0.49765400  0.86865100  1
  C  C33  1  0.50234600  0.50234600  0.13134900  1
  C  C34  1  0.78801600  0.78801600  0.03289200  1
  C  C35  1  0.21198400  0.21198400  0.96710800  1
  C  C36  1  0.70029100  0.15885600  0.54607300  1
  C  C37  1  0.15885600  0.70029100  0.54607300  1
  C  C38  1  0.29970900  0.84114400  0.45392700  1
  C  C39  1  0.84114400  0.29970900  0.45392700  1
  C  C40  1  0.64918100  0.12541400  0.38331700  1
  C  C41  1  0.12541400  0.64918100  0.38331700  1
  C  C42  1  0.35081900  0.87458600  0.61668300  1
  C  C43  1  0.87458600  0.35081900  0.61668300  1
  C  C44  1  0.53157100  0.01169100  0.28123800  1
  C  C45  1  0.01169100  0.53157100  0.28123800  1
  C  C46  1  0.46842900  0.98830900  0.71876200  1
  C  C47  1  0.98830900  0.46842900  0.71876200  1
  C  C48  1  0.35940900  0.82256900  0.21111200  1
  C  C49  1  0.82256900  0.35940900  0.21111200  1
  C  C50  1  0.64059100  0.17743100  0.78888800  1
  C  C51  1  0.17743100  0.64059100  0.78888800  1
  C  C52  1  0.50413700  0.96700900  0.12101600  1
  C  C53  1  0.96700900  0.50413700  0.12101600  1
  C  C54  1  0.49586300  0.03299100  0.87898400  1
  C  C55  1  0.03299100  0.49586300  0.87898400  1
  C  C56  1  0.31451600  0.79288900  0.05118800  1
  C  C57  1  0.79288900  0.31451600  0.05118800  1
  C  C58  1  0.68548400  0.20711100  0.94881200  1
  C  C59  1  0.20711100  0.68548400  0.94881200  1
