# generated using pymatgen
data_Cu9Ni8C21
_symmetry_space_group_name_H-M   'P 1'
_cell_length_a   13.47031800
_cell_length_b   13.47031800
_cell_length_c   13.47031800
_cell_angle_alpha   90.00000000
_cell_angle_beta   90.00000000
_cell_angle_gamma   90.00000000
_symmetry_Int_Tables_number   1
_chemical_formula_structural   Cu9Ni8C21
_chemical_formula_sum   'Cu36 Ni32 C84'
_cell_volume   2444.18202171
_cell_formula_units_Z   4
loop_
 _symmetry_equiv_pos_site_id
 _symmetry_equiv_pos_as_xyz
  1  'x, y, z'
loop_
 _atom_site_type_symbol
 _atom_site_label
 _atom_site_symmetry_multiplicity
 _atom_site_fract_x
 _atom_site_fract_y
 _atom_site_fract_z
 _atom_site_occupancy
  Ni  Ni0  1  0.21838000  0.45458500  0.10696000  1
  Ni  Ni1  1  0.10696000  0.21838000  0.45458500  1
  Ni  Ni2  1  0.45458500  0.10696000  0.21838000  1
  Ni  Ni3  1  0.04541500  0.89304000  0.71838000  1
  Ni  Ni4  1  0.60696000  0.28162000  0.54541500  1
  Ni  Ni5  1  0.54541500  0.60696000  0.28162000  1
  Ni  Ni6  1  0.39304000  0.78162000  0.95458500  1
  Ni  Ni7  1  0.89304000  0.71838000  0.04541500  1
  Ni  Ni8  1  0.95458500  0.39304000  0.78162000  1
  Ni  Ni9  1  0.71838000  0.04541500  0.89304000  1
  Ni  Ni10  1  0.78162000  0.95458500  0.39304000  1
  Ni  Ni11  1  0.28162000  0.54541500  0.60696000  1
  Ni  Ni12  1  0.78162000  0.54541500  0.89304000  1
  Ni  Ni13  1  0.89304000  0.78162000  0.54541500  1
  Ni  Ni14  1  0.54541500  0.89304000  0.78162000  1
  Ni  Ni15  1  0.95458500  0.10696000  0.28162000  1
  Ni  Ni16  1  0.39304000  0.71838000  0.45458500  1
  Ni  Ni17  1  0.45458500  0.39304000  0.71838000  1
  Ni  Ni18  1  0.60696000  0.21838000  0.04541500  1
  Ni  Ni19  1  0.10696000  0.28162000  0.95458500  1
  Ni  Ni20  1  0.04541500  0.60696000  0.21838000  1
  Ni  Ni21  1  0.28162000  0.95458500  0.10696000  1
  Ni  Ni22  1  0.21838000  0.04541500  0.60696000  1
  Ni  Ni23  1  0.71838000  0.45458500  0.39304000  1
  Ni  Ni24  1  0.07454100  0.07454100  0.07454100  1
  Ni  Ni25  1  0.42545900  0.92545900  0.57454100  1
  Ni  Ni26  1  0.57454100  0.42545900  0.92545900  1
  Ni  Ni27  1  0.92545900  0.57454100  0.42545900  1
  Ni  Ni28  1  0.92545900  0.92545900  0.92545900  1
  Ni  Ni29  1  0.57454100  0.07454100  0.42545900  1
  Ni  Ni30  1  0.42545900  0.57454100  0.07454100  1
  Ni  Ni31  1  0.07454100  0.42545900  0.57454100  1
  Cu  Cu32  1  0.26537100  0.95682400  0.37654900  1
  Cu  Cu33  1  0.37654900  0.26537100  0.95682400  1
  Cu  Cu34  1  0.95682400  0.37654900  0.26537100  1
  Cu  Cu35  1  0.54317600  0.62345100  0.76537100  1
  Cu  Cu36  1  0.87654900  0.23462900  0.04317600  1
  Cu  Cu37  1  0.04317600  0.87654900  0.23462900  1
  Cu  Cu38  1  0.12345100  0.73462900  0.45682400  1
  Cu  Cu39  1  0.62345100  0.76537100  0.54317600  1
  Cu  Cu40  1  0.45682400  0.12345100  0.73462900  1
  Cu  Cu41  1  0.76537100  0.54317600  0.62345100  1
  Cu  Cu42  1  0.73462900  0.45682400  0.12345100  1
  Cu  Cu43  1  0.23462900  0.04317600  0.87654900  1
  Cu  Cu44  1  0.73462900  0.04317600  0.62345100  1
  Cu  Cu45  1  0.62345100  0.73462900  0.04317600  1
  Cu  Cu46  1  0.04317600  0.62345100  0.73462900  1
  Cu  Cu47  1  0.45682400  0.37654900  0.23462900  1
  Cu  Cu48  1  0.12345100  0.76537100  0.95682400  1
  Cu  Cu49  1  0.95682400  0.12345100  0.76537100  1
  Cu  Cu50  1  0.87654900  0.26537100  0.54317600  1
  Cu  Cu51  1  0.37654900  0.23462900  0.45682400  1
  Cu  Cu52  1  0.54317600  0.87654900  0.26537100  1
  Cu  Cu53  1  0.23462900  0.45682400  0.37654900  1
  Cu  Cu54  1  0.26537100  0.54317600  0.87654900  1
  Cu  Cu55  1  0.76537100  0.95682400  0.12345100  1
  Cu  Cu56  1  0.50000000  0.50000000  0.50000000  1
  Cu  Cu57  1  0.00000000  0.50000000  0.00000000  1
  Cu  Cu58  1  0.00000000  0.00000000  0.50000000  1
  Cu  Cu59  1  0.50000000  0.00000000  0.00000000  1
  Cu  Cu60  1  0.22448200  0.22448200  0.22448200  1
  Cu  Cu61  1  0.27551800  0.77551800  0.72448200  1
  Cu  Cu62  1  0.72448200  0.27551800  0.77551800  1
  Cu  Cu63  1  0.77551800  0.72448200  0.27551800  1
  Cu  Cu64  1  0.77551800  0.77551800  0.77551800  1
  Cu  Cu65  1  0.72448200  0.22448200  0.27551800  1
  Cu  Cu66  1  0.27551800  0.72448200  0.22448200  1
  Cu  Cu67  1  0.22448200  0.27551800  0.72448200  1
  C  C68  1  0.04717100  0.05407400  0.20306400  1
  C  C69  1  0.20306400  0.04717100  0.05407400  1
  C  C70  1  0.05407400  0.20306400  0.04717100  1
  C  C71  1  0.44592600  0.79693600  0.54717100  1
  C  C72  1  0.70306400  0.45282900  0.94592600  1
  C  C73  1  0.94592600  0.70306400  0.45282900  1
  C  C74  1  0.29693600  0.95282900  0.55407400  1
  C  C75  1  0.79693600  0.54717100  0.44592600  1
  C  C76  1  0.55407400  0.29693600  0.95282900  1
  C  C77  1  0.54717100  0.44592600  0.79693600  1
  C  C78  1  0.95282900  0.55407400  0.29693600  1
  C  C79  1  0.45282900  0.94592600  0.70306400  1
  C  C80  1  0.95282900  0.94592600  0.79693600  1
  C  C81  1  0.79693600  0.95282900  0.94592600  1
  C  C82  1  0.94592600  0.79693600  0.95282900  1
  C  C83  1  0.55407400  0.20306400  0.45282900  1
  C  C84  1  0.29693600  0.54717100  0.05407400  1
  C  C85  1  0.05407400  0.29693600  0.54717100  1
  C  C86  1  0.70306400  0.04717100  0.44592600  1
  C  C87  1  0.20306400  0.45282900  0.55407400  1
  C  C88  1  0.44592600  0.70306400  0.04717100  1
  C  C89  1  0.45282900  0.55407400  0.20306400  1
  C  C90  1  0.04717100  0.44592600  0.70306400  1
  C  C91  1  0.54717100  0.05407400  0.29693600  1
  C  C92  1  0.71180900  0.62102900  0.80956200  1
  C  C93  1  0.80956200  0.71180900  0.62102900  1
  C  C94  1  0.62102900  0.80956200  0.71180900  1
  C  C95  1  0.87897100  0.19043800  0.21180900  1
  C  C96  1  0.30956200  0.78819100  0.37897100  1
  C  C97  1  0.37897100  0.30956200  0.78819100  1
  C  C98  1  0.69043800  0.28819100  0.12102900  1
  C  C99  1  0.19043800  0.21180900  0.87897100  1
  C  C100  1  0.12102900  0.69043800  0.28819100  1
  C  C101  1  0.21180900  0.87897100  0.19043800  1
  C  C102  1  0.28819100  0.12102900  0.69043800  1
  C  C103  1  0.78819100  0.37897100  0.30956200  1
  C  C104  1  0.28819100  0.37897100  0.19043800  1
  C  C105  1  0.19043800  0.28819100  0.37897100  1
  C  C106  1  0.37897100  0.19043800  0.28819100  1
  C  C107  1  0.12102900  0.80956200  0.78819100  1
  C  C108  1  0.69043800  0.21180900  0.62102900  1
  C  C109  1  0.62102900  0.69043800  0.21180900  1
  C  C110  1  0.30956200  0.71180900  0.87897100  1
  C  C111  1  0.80956200  0.78819100  0.12102900  1
  C  C112  1  0.87897100  0.30956200  0.71180900  1
  C  C113  1  0.78819100  0.12102900  0.80956200  1
  C  C114  1  0.71180900  0.87897100  0.30956200  1
  C  C115  1  0.21180900  0.62102900  0.69043800  1
  C  C116  1  0.00000000  0.00000000  0.00000000  1
  C  C117  1  0.50000000  0.00000000  0.50000000  1
  C  C118  1  0.50000000  0.50000000  0.00000000  1
  C  C119  1  0.00000000  0.50000000  0.50000000  1
  C  C120  1  0.38484100  0.49334600  0.66961500  1
  C  C121  1  0.66961500  0.38484100  0.49334600  1
  C  C122  1  0.49334600  0.66961500  0.38484100  1
  C  C123  1  0.00665400  0.33038500  0.88484100  1
  C  C124  1  0.16961500  0.11515900  0.50665400  1
  C  C125  1  0.50665400  0.16961500  0.11515900  1
  C  C126  1  0.83038500  0.61515900  0.99334600  1
  C  C127  1  0.33038500  0.88484100  0.00665400  1
  C  C128  1  0.99334600  0.83038500  0.61515900  1
  C  C129  1  0.88484100  0.00665400  0.33038500  1
  C  C130  1  0.61515900  0.99334600  0.83038500  1
  C  C131  1  0.11515900  0.50665400  0.16961500  1
  C  C132  1  0.61515900  0.50665400  0.33038500  1
  C  C133  1  0.33038500  0.61515900  0.50665400  1
  C  C134  1  0.50665400  0.33038500  0.61515900  1
  C  C135  1  0.99334600  0.66961500  0.11515900  1
  C  C136  1  0.83038500  0.88484100  0.49334600  1
  C  C137  1  0.49334600  0.83038500  0.88484100  1
  C  C138  1  0.16961500  0.38484100  0.00665400  1
  C  C139  1  0.66961500  0.11515900  0.99334600  1
  C  C140  1  0.00665400  0.16961500  0.38484100  1
  C  C141  1  0.11515900  0.99334600  0.66961500  1
  C  C142  1  0.38484100  0.00665400  0.16961500  1
  C  C143  1  0.88484100  0.49334600  0.83038500  1
  C  C144  1  0.39219800  0.39219800  0.39219800  1
  C  C145  1  0.10780200  0.60780200  0.89219800  1
  C  C146  1  0.89219800  0.10780200  0.60780200  1
  C  C147  1  0.60780200  0.89219800  0.10780200  1
  C  C148  1  0.60780200  0.60780200  0.60780200  1
  C  C149  1  0.89219800  0.39219800  0.10780200  1
  C  C150  1  0.10780200  0.89219800  0.39219800  1
  C  C151  1  0.39219800  0.10780200  0.89219800  1
