# generated using pymatgen
data_CuNi2C7
_symmetry_space_group_name_H-M   'P 1'
_cell_length_a   5.97331410
_cell_length_b   6.16451400
_cell_length_c   8.55512909
_cell_angle_alpha   90.00000000
_cell_angle_beta   89.93675650
_cell_angle_gamma   90.00000000
_symmetry_Int_Tables_number   1
_chemical_formula_structural   CuNi2C7
_chemical_formula_sum   'Cu2 Ni4 C14'
_cell_volume   315.02172004
_cell_formula_units_Z   2
loop_
 _symmetry_equiv_pos_site_id
 _symmetry_equiv_pos_as_xyz
  1  'x, y, z'
loop_
 _atom_site_type_symbol
 _atom_site_label
 _atom_site_symmetry_multiplicity
 _atom_site_fract_x
 _atom_site_fract_y
 _atom_site_fract_z
 _atom_site_occupancy
  Ni  Ni0  1  0.01356100  0.45030100  0.25306000  1
  Ni  Ni1  1  0.98643900  0.54969900  0.74694000  1
  Ni  Ni2  1  0.48643900  0.95030100  0.24694000  1
  Ni  Ni3  1  0.51356100  0.04969900  0.75306000  1
  Cu  Cu4  1  0.00000000  0.00000000  0.50000000  1
  Cu  Cu5  1  0.50000000  0.50000000  0.00000000  1
  C  C6  1  0.00000000  0.00000000  0.00000000  1
  C  C7  1  0.50000000  0.50000000  0.50000000  1
  C  C8  1  0.89927300  0.04371400  0.23942900  1
  C  C9  1  0.10072700  0.95628600  0.76057100  1
  C  C10  1  0.60072700  0.54371400  0.26057100  1
  C  C11  1  0.39927300  0.45628600  0.73942900  1
  C  C12  1  0.19263600  0.71582900  0.05832500  1
  C  C13  1  0.80736400  0.28417100  0.94167500  1
  C  C14  1  0.30736400  0.21582900  0.44167500  1
  C  C15  1  0.69263600  0.78417100  0.55832500  1
  C  C16  1  0.28979800  0.19430700  0.04810700  1
  C  C17  1  0.71020200  0.80569300  0.95189300  1
  C  C18  1  0.21020200  0.69430700  0.45189300  1
  C  C19  1  0.78979800  0.30569300  0.54810700  1
