# generated using pymatgen
data_Cu3Ni2C9
_symmetry_space_group_name_H-M   'P 1'
_cell_length_a   7.36699580
_cell_length_b   7.36066192
_cell_length_c   7.36740226
_cell_angle_alpha   60.05863816
_cell_angle_beta   60.03895341
_cell_angle_gamma   60.03129859
_symmetry_Int_Tables_number   1
_chemical_formula_structural   Cu3Ni2C9
_chemical_formula_sum   'Cu3 Ni2 C9'
_cell_volume   282.76740475
_cell_formula_units_Z   1
loop_
 _symmetry_equiv_pos_site_id
 _symmetry_equiv_pos_as_xyz
  1  'x, y, z'
loop_
 _atom_site_type_symbol
 _atom_site_label
 _atom_site_symmetry_multiplicity
 _atom_site_fract_x
 _atom_site_fract_y
 _atom_site_fract_z
 _atom_site_occupancy
  Ni  Ni0  1  0.87495500  0.87465600  0.87504300  1
  Ni  Ni1  1  0.12503800  0.12533500  0.12496900  1
  C  C2  1  0.50001600  0.50006100  0.49990300  1
  Cu  Cu3  1  0.50003400  0.49997400  0.00000300  1
  Cu  Cu4  1  0.99999300  0.49998900  0.50001900  1
  Cu  Cu5  1  0.49999500  0.00000000  0.50002300  1
  C  C6  1  0.73845600  0.73865200  0.73873600  1
  C  C7  1  0.25297100  0.25336900  0.71872700  1
  C  C8  1  0.25321000  0.71835500  0.25316100  1
  C  C9  1  0.71878800  0.25339400  0.25290500  1
  C  C10  1  0.74676800  0.28164000  0.74683400  1
  C  C11  1  0.28120800  0.74659200  0.74711200  1
  C  C12  1  0.26153100  0.26133300  0.26128900  1
  C  C13  1  0.74704100  0.74664400  0.28127700  1
