# generated using pymatgen
data_CuNiC7
_symmetry_space_group_name_H-M   'P 1'
_cell_length_a   5.86557200
_cell_length_b   6.46365700
_cell_length_c   7.13354586
_cell_angle_alpha   67.10079816
_cell_angle_beta   90.00000000
_cell_angle_gamma   90.00000000
_symmetry_Int_Tables_number   1
_chemical_formula_structural   CuNiC7
_chemical_formula_sum   'Cu2 Ni2 C14'
_cell_volume   249.14015705
_cell_formula_units_Z   2
loop_
 _symmetry_equiv_pos_site_id
 _symmetry_equiv_pos_as_xyz
  1  'x, y, z'
loop_
 _atom_site_type_symbol
 _atom_site_label
 _atom_site_symmetry_multiplicity
 _atom_site_fract_x
 _atom_site_fract_y
 _atom_site_fract_z
 _atom_site_occupancy
  Ni  Ni0  1  0.25000000  0.07100300  0.79647700  1
  Ni  Ni1  1  0.75000000  0.92899700  0.20352300  1
  Cu  Cu2  1  0.25000000  0.38823100  0.18080500  1
  Cu  Cu3  1  0.75000000  0.61176900  0.81919500  1
  C  C4  1  0.25000000  0.76771500  0.46409400  1
  C  C5  1  0.75000000  0.23228500  0.53590600  1
  C  C6  1  0.46480000  0.76799200  0.59455200  1
  C  C7  1  0.53520000  0.23200800  0.40544800  1
  C  C8  1  0.96480000  0.23200800  0.40544800  1
  C  C9  1  0.03520000  0.76799200  0.59455200  1
  C  C10  1  0.25000000  0.55895300  0.40855600  1
  C  C11  1  0.75000000  0.44104700  0.59144400  1
  C  C12  1  0.49885400  0.67969200  0.03437000  1
  C  C13  1  0.50114600  0.32030800  0.96563000  1
  C  C14  1  0.99885400  0.32030800  0.96563000  1
  C  C15  1  0.00114600  0.67969200  0.03437000  1
  C  C16  1  0.25000000  0.98642200  0.26380600  1
  C  C17  1  0.75000000  0.01357800  0.73619400  1
