# generated using pymatgen
data_Cu2Ni2C
_symmetry_space_group_name_H-M   'P 1'
_cell_length_a   7.28808600
_cell_length_b   8.24092500
_cell_length_c   8.82293800
_cell_angle_alpha   90.00000000
_cell_angle_beta   90.00000000
_cell_angle_gamma   90.00000000
_symmetry_Int_Tables_number   1
_chemical_formula_structural   Cu2Ni2C
_chemical_formula_sum   'Cu8 Ni8 C4'
_cell_volume   529.91068641
_cell_formula_units_Z   4
loop_
 _symmetry_equiv_pos_site_id
 _symmetry_equiv_pos_as_xyz
  1  'x, y, z'
loop_
 _atom_site_type_symbol
 _atom_site_label
 _atom_site_symmetry_multiplicity
 _atom_site_fract_x
 _atom_site_fract_y
 _atom_site_fract_z
 _atom_site_occupancy
  C  C0  1  0.00000000  0.59544000  0.50000000  1
  C  C1  1  0.50000000  0.40456000  0.00000000  1
  C  C2  1  0.50000000  0.09083800  0.50000000  1
  C  C3  1  0.00000000  0.90916200  0.00000000  1
  Ni  Ni4  1  0.33710100  0.91190000  0.79144300  1
  Ni  Ni5  1  0.66289900  0.91190000  0.20855700  1
  Ni  Ni6  1  0.16289900  0.08810000  0.29144300  1
  Ni  Ni7  1  0.83710100  0.08810000  0.70855700  1
  Ni  Ni8  1  0.35065400  0.34359300  0.66338700  1
  Ni  Ni9  1  0.64934600  0.34359300  0.33661300  1
  Ni  Ni10  1  0.14934600  0.65640700  0.16338700  1
  Ni  Ni11  1  0.85065400  0.65640700  0.83661300  1
  Cu  Cu12  1  0.26149400  0.93247100  0.61321100  1
  Cu  Cu13  1  0.73850600  0.93247100  0.38678900  1
  Cu  Cu14  1  0.23850600  0.06752900  0.11321100  1
  Cu  Cu15  1  0.76149400  0.06752900  0.88678900  1
  Cu  Cu16  1  0.44359500  0.67769900  0.44765600  1
  Cu  Cu17  1  0.55640500  0.67769900  0.55234400  1
  Cu  Cu18  1  0.05640500  0.32230100  0.94765600  1
  Cu  Cu19  1  0.94359500  0.32230100  0.05234400  1
