# generated using pymatgen
data_Cu2Ni4C17
_symmetry_space_group_name_H-M   'P 1'
_cell_length_a   7.52889403
_cell_length_b   10.92469187
_cell_length_c   9.07705880
_cell_angle_alpha   69.82241233
_cell_angle_beta   65.49824578
_cell_angle_gamma   69.84374526
_symmetry_Int_Tables_number   1
_chemical_formula_structural   Cu2Ni4C17
_chemical_formula_sum   'Cu4 Ni8 C34'
_cell_volume   619.66434566
_cell_formula_units_Z   2
loop_
 _symmetry_equiv_pos_site_id
 _symmetry_equiv_pos_as_xyz
  1  'x, y, z'
loop_
 _atom_site_type_symbol
 _atom_site_label
 _atom_site_symmetry_multiplicity
 _atom_site_fract_x
 _atom_site_fract_y
 _atom_site_fract_z
 _atom_site_occupancy
  C  C0  1  0.78292300  0.00361600  0.46670300  1
  C  C1  1  0.25324300  0.49638300  0.03329700  1
  C  C2  1  0.74675700  0.50361700  0.96670300  1
  C  C3  1  0.68352200  0.25000000  0.75000000  1
  C  C4  1  0.21707700  0.99638300  0.53329700  1
  C  C5  1  0.31647800  0.75000000  0.25000000  1
  Ni  Ni6  1  0.45898500  0.29237600  0.31793100  1
  Ni  Ni7  1  0.93070800  0.79237600  0.81793100  1
  Ni  Ni8  1  0.51272500  0.92161400  0.82728800  1
  Ni  Ni9  1  0.73837400  0.42161400  0.32728800  1
  Ni  Ni10  1  0.06929200  0.20762400  0.18206900  1
  Ni  Ni11  1  0.48727500  0.07838600  0.17271200  1
  Ni  Ni12  1  0.26162600  0.57838600  0.67271200  1
  Ni  Ni13  1  0.54101500  0.70762400  0.68206900  1
  Cu  Cu14  1  0.19536400  0.25000000  0.75000000  1
  Cu  Cu15  1  0.80463600  0.75000000  0.25000000  1
  Cu  Cu16  1  0.00000000  0.00000000  0.00000000  1
  Cu  Cu17  1  0.00000000  0.50000000  0.50000000  1
  C  C18  1  0.20641900  0.58329300  0.51535000  1
  C  C19  1  0.08347600  0.60293300  0.25682900  1
  C  C20  1  0.41433600  0.94049600  0.26885200  1
  C  C21  1  0.05676200  0.10293300  0.75682900  1
  C  C22  1  0.77064300  0.67399000  0.55197400  1
  C  C23  1  0.95700800  0.37320100  0.17204000  1
  C  C24  1  0.37631500  0.44049600  0.76885200  1
  C  C25  1  0.99660600  0.82601000  0.94802600  1
  C  C26  1  0.04299200  0.62679900  0.82796000  1
  C  C27  1  0.38113700  0.70250700  0.60264700  1
  C  C28  1  0.91652400  0.39706700  0.74317100  1
  C  C29  1  0.22935700  0.32601000  0.44802600  1
  C  C30  1  0.50225100  0.12679900  0.32796000  1
  C  C31  1  0.69493700  0.08329300  0.01535000  1
  C  C32  1  0.31371000  0.20250700  0.10264700  1
  C  C33  1  0.00339400  0.17399000  0.05197300  1
  C  C34  1  0.01277800  0.12290800  0.37168400  1
  C  C35  1  0.61886300  0.29749300  0.39735300  1
  C  C36  1  0.50736900  0.37709200  0.12831600  1
  C  C37  1  0.68629000  0.79749300  0.89735300  1
  C  C38  1  0.49774900  0.87320100  0.67204000  1
  C  C39  1  0.94323800  0.89706700  0.24317100  1
  C  C40  1  0.49263100  0.62290800  0.87168400  1
  C  C41  1  0.58566400  0.05950400  0.73114800  1
  C  C42  1  0.98722200  0.87709200  0.62831600  1
  C  C43  1  0.62368500  0.55950400  0.23114800  1
  C  C44  1  0.30506300  0.91670700  0.98465000  1
  C  C45  1  0.79358100  0.41670700  0.48465000  1
