# generated using pymatgen
data_Cu6Ni10C19
_symmetry_space_group_name_H-M   'P 1'
_cell_length_a   17.12553900
_cell_length_b   9.04145900
_cell_length_c   10.08891199
_cell_angle_alpha   74.17343566
_cell_angle_beta   90.00000000
_cell_angle_gamma   90.00000000
_symmetry_Int_Tables_number   1
_chemical_formula_structural   Cu6Ni10C19
_chemical_formula_sum   'Cu24 Ni40 C76'
_cell_volume   1502.94658541
_cell_formula_units_Z   4
loop_
 _symmetry_equiv_pos_site_id
 _symmetry_equiv_pos_as_xyz
  1  'x, y, z'
loop_
 _atom_site_type_symbol
 _atom_site_label
 _atom_site_symmetry_multiplicity
 _atom_site_fract_x
 _atom_site_fract_y
 _atom_site_fract_z
 _atom_site_occupancy
  C  C0  1  0.40460100  0.80775600  0.88710700  1
  C  C1  1  0.90460100  0.19224400  0.61289300  1
  C  C2  1  0.59539900  0.19224400  0.11289300  1
  C  C3  1  0.09539900  0.80775600  0.38710700  1
  C  C4  1  0.38168000  0.44383800  0.47865500  1
  C  C5  1  0.88168000  0.55616200  0.02134500  1
  C  C6  1  0.61832000  0.55616200  0.52134500  1
  C  C7  1  0.11832000  0.44383800  0.97865500  1
  Ni  Ni8  1  0.44713800  0.11372700  0.01556800  1
  Ni  Ni9  1  0.94713800  0.88627300  0.48443200  1
  Ni  Ni10  1  0.55286200  0.88627300  0.98443200  1
  Ni  Ni11  1  0.05286200  0.11372700  0.51556800  1
  Ni  Ni12  1  0.43567900  0.11146300  0.17568800  1
  Ni  Ni13  1  0.93567900  0.88853700  0.32431200  1
  Ni  Ni14  1  0.56432100  0.88853700  0.82431200  1
  Ni  Ni15  1  0.06432100  0.11146300  0.67568800  1
  Ni  Ni16  1  0.20158000  0.42394300  0.49704000  1
  Ni  Ni17  1  0.70158000  0.57605700  0.00296000  1
  Ni  Ni18  1  0.79842000  0.57605700  0.50296000  1
  Ni  Ni19  1  0.29842000  0.42394300  0.99704000  1
  Ni  Ni20  1  0.22588100  0.35626900  0.37659200  1
  Ni  Ni21  1  0.72588100  0.64373100  0.12340800  1
  Ni  Ni22  1  0.77411900  0.64373100  0.62340800  1
  Ni  Ni23  1  0.27411900  0.35626900  0.87659200  1
  Ni  Ni24  1  0.24820500  0.76433300  0.98523100  1
  Ni  Ni25  1  0.74820500  0.23566700  0.51476900  1
  Ni  Ni26  1  0.75179500  0.23566700  0.01476900  1
  Ni  Ni27  1  0.25179500  0.76433300  0.48523100  1
  Ni  Ni28  1  0.27527500  0.92690600  0.00866700  1
  Ni  Ni29  1  0.77527500  0.07309400  0.49133300  1
  Ni  Ni30  1  0.72472500  0.07309400  0.99133300  1
  Ni  Ni31  1  0.22472500  0.92690600  0.50866700  1
  Ni  Ni32  1  0.29348600  0.02033300  0.19317300  1
  Ni  Ni33  1  0.79348600  0.97966700  0.30682700  1
  Ni  Ni34  1  0.70651400  0.97966700  0.80682700  1
  Ni  Ni35  1  0.20651400  0.02033300  0.69317300  1
  Ni  Ni36  1  0.26685900  0.15012100  0.06379200  1
  Ni  Ni37  1  0.76685900  0.84987900  0.43620800  1
  Ni  Ni38  1  0.73314100  0.84987900  0.93620800  1
  Ni  Ni39  1  0.23314100  0.15012100  0.56379200  1
  Ni  Ni40  1  0.60347100  0.92124100  0.61503200  1
  Ni  Ni41  1  0.10347100  0.07875900  0.88496800  1
  Ni  Ni42  1  0.39652900  0.07875900  0.38496800  1
  Ni  Ni43  1  0.89652900  0.92124100  0.11503200  1
  Ni  Ni44  1  0.60227600  0.08105100  0.65383900  1
  Ni  Ni45  1  0.10227600  0.91894900  0.84616100  1
  Ni  Ni46  1  0.39772400  0.91894900  0.34616100  1
  Ni  Ni47  1  0.89772400  0.08105100  0.15383900  1
  Cu  Cu48  1  0.56180800  0.38578300  0.30922300  1
  Cu  Cu49  1  0.06180800  0.61421700  0.19077700  1
  Cu  Cu50  1  0.43819200  0.61421700  0.69077700  1
  Cu  Cu51  1  0.93819200  0.38578300  0.80922300  1
  Cu  Cu52  1  0.65055600  0.35262300  0.32365200  1
  Cu  Cu53  1  0.15055600  0.64737700  0.17634800  1
  Cu  Cu54  1  0.34944400  0.64737700  0.67634800  1
  Cu  Cu55  1  0.84944400  0.35262300  0.82365200  1
  Cu  Cu56  1  0.40413500  0.69995300  0.20140100  1
  Cu  Cu57  1  0.90413500  0.30004700  0.29859900  1
  Cu  Cu58  1  0.59586500  0.30004700  0.79859900  1
  Cu  Cu59  1  0.09586500  0.69995300  0.70140100  1
  Cu  Cu60  1  0.37724100  0.55577700  0.15903000  1
  Cu  Cu61  1  0.87724100  0.44422300  0.34097000  1
  Cu  Cu62  1  0.62275900  0.44422300  0.84097000  1
  Cu  Cu63  1  0.12275900  0.55577700  0.65903000  1
  Cu  Cu64  1  0.88818400  0.84186000  0.74169900  1
  Cu  Cu65  1  0.38818400  0.15814000  0.75830100  1
  Cu  Cu66  1  0.11181600  0.15814000  0.25830100  1
  Cu  Cu67  1  0.61181600  0.84186000  0.24169900  1
  Cu  Cu68  1  0.40812500  0.09336000  0.63578500  1
  Cu  Cu69  1  0.90812500  0.90664000  0.86421500  1
  Cu  Cu70  1  0.59187500  0.90664000  0.36421500  1
  Cu  Cu71  1  0.09187500  0.09336000  0.13578500  1
  C  C72  1  0.52852400  0.44934300  0.38954500  1
  C  C73  1  0.02852400  0.55065700  0.11045500  1
  C  C74  1  0.47147600  0.55065700  0.61045500  1
  C  C75  1  0.97147600  0.44934300  0.88954500  1
  C  C76  1  0.47081100  0.65886700  0.78691300  1
  C  C77  1  0.97081100  0.34113300  0.71308700  1
  C  C78  1  0.52918900  0.34113300  0.21308700  1
  C  C79  1  0.02918900  0.65886700  0.28691300  1
  C  C80  1  0.32121600  0.71289600  0.76258300  1
  C  C81  1  0.82121600  0.28710400  0.73741700  1
  C  C82  1  0.67878400  0.28710400  0.23741700  1
  C  C83  1  0.17878400  0.71289600  0.26258300  1
  C  C84  1  0.31131800  0.61268900  0.58231400  1
  C  C85  1  0.81131800  0.38731100  0.91768600  1
  C  C86  1  0.68868200  0.38731100  0.41768600  1
  C  C87  1  0.18868200  0.61268900  0.08231400  1
  C  C88  1  0.92412900  0.18567900  0.39928800  1
  C  C89  1  0.42412900  0.81432100  0.10071200  1
  C  C90  1  0.07587100  0.81432100  0.60071200  1
  C  C91  1  0.57587100  0.18567900  0.89928800  1
  C  C92  1  0.90318200  0.29999900  0.17484000  1
  C  C93  1  0.40318200  0.70000100  0.32516000  1
  C  C94  1  0.09681800  0.70000100  0.82516000  1
  C  C95  1  0.59681800  0.29999900  0.67484000  1
  C  C96  1  0.37553100  0.57447700  0.02745500  1
  C  C97  1  0.87553100  0.42552300  0.47254500  1
  C  C98  1  0.62446900  0.42552300  0.97254500  1
  C  C99  1  0.12446900  0.57447700  0.52745500  1
  C  C100  1  0.85720100  0.56250700  0.25168300  1
  C  C101  1  0.35720100  0.43749300  0.24831700  1
  C  C102  1  0.14279900  0.43749300  0.74831700  1
  C  C103  1  0.64279900  0.56250700  0.75168300  1
  C  C104  1  0.89617600  0.94177500  0.62302000  1
  C  C105  1  0.39617600  0.05822500  0.87698000  1
  C  C106  1  0.10382400  0.05822500  0.37698000  1
  C  C107  1  0.60382400  0.94177500  0.12302000  1
  C  C108  1  0.36663200  0.29372400  0.73758100  1
  C  C109  1  0.86663200  0.70627600  0.76241900  1
  C  C110  1  0.63336800  0.70627600  0.26241900  1
  C  C111  1  0.13336800  0.29372400  0.23758100  1
  C  C112  1  0.41013000  0.18096500  0.51513400  1
  C  C113  1  0.91013000  0.81903500  0.98486600  1
  C  C114  1  0.58987000  0.81903500  0.48486600  1
  C  C115  1  0.08987000  0.18096500  0.01513400  1
  C  C116  1  0.57787600  0.05057700  0.33124100  1
  C  C117  1  0.07787600  0.94942300  0.16875900  1
  C  C118  1  0.42212400  0.94942300  0.66875900  1
  C  C119  1  0.92212400  0.05057700  0.83124100  1
  C  C120  1  0.46905900  0.15291000  0.09018900  1
  C  C121  1  0.96905900  0.84709000  0.40981100  1
  C  C122  1  0.53094100  0.84709000  0.90981100  1
  C  C123  1  0.03094100  0.15291000  0.59018900  1
  C  C124  1  0.24109200  0.35812100  0.46978000  1
  C  C125  1  0.74109200  0.64187900  0.03022000  1
  C  C126  1  0.75890800  0.64187900  0.53022000  1
  C  C127  1  0.25890800  0.35812100  0.96978000  1
  C  C128  1  0.28287600  0.85425700  0.94849800  1
  C  C129  1  0.78287600  0.14574300  0.55150200  1
  C  C130  1  0.71712400  0.14574300  0.05150200  1
  C  C131  1  0.21712400  0.85425700  0.44849800  1
  C  C132  1  0.26042800  0.03946800  0.11047000  1
  C  C133  1  0.76042800  0.96053200  0.38953000  1
  C  C134  1  0.73957200  0.96053200  0.88953000  1
  C  C135  1  0.23957200  0.03946800  0.61047000  1
  C  C136  1  0.61516900  0.97134500  0.68900600  1
  C  C137  1  0.11516900  0.02865500  0.81099400  1
  C  C138  1  0.38483100  0.02865500  0.31099400  1
  C  C139  1  0.88483100  0.97134500  0.18900600  1
