# generated using pymatgen
data_Cu2(NiC13)3
_symmetry_space_group_name_H-M   'P 1'
_cell_length_a   13.29426943
_cell_length_b   13.29426943
_cell_length_c   13.29426943
_cell_angle_alpha   90.00000000
_cell_angle_beta   90.00000000
_cell_angle_gamma   90.00000000
_symmetry_Int_Tables_number   1
_chemical_formula_structural   Cu2(NiC13)3
_chemical_formula_sum   'Cu8 Ni12 C156'
_cell_volume   2349.59726852
_cell_formula_units_Z   4
loop_
 _symmetry_equiv_pos_site_id
 _symmetry_equiv_pos_as_xyz
  1  'x, y, z'
loop_
 _atom_site_type_symbol
 _atom_site_label
 _atom_site_symmetry_multiplicity
 _atom_site_fract_x
 _atom_site_fract_y
 _atom_site_fract_z
 _atom_site_occupancy
  Ni  Ni0  1  0.20122004  0.54906072  0.47227838  1
  Ni  Ni1  1  0.29877996  0.45093928  0.97227838  1
  Ni  Ni2  1  0.79877996  0.04906072  0.02772162  1
  Ni  Ni3  1  0.47227838  0.20122004  0.54906072  1
  Ni  Ni4  1  0.70122004  0.95093928  0.52772162  1
  Ni  Ni5  1  0.97227838  0.29877996  0.45093928  1
  Ni  Ni6  1  0.02772162  0.79877996  0.04906072  1
  Ni  Ni7  1  0.52772162  0.70122004  0.95093928  1
  Ni  Ni8  1  0.54906072  0.47227838  0.20122004  1
  Ni  Ni9  1  0.04906072  0.02772162  0.79877996  1
  Ni  Ni10  1  0.95093928  0.52772162  0.70122004  1
  Ni  Ni11  1  0.45093928  0.97227838  0.29877996  1
  Cu  Cu12  1  0.21578871  0.21578871  0.21578871  1
  Cu  Cu13  1  0.28421129  0.78421129  0.71578871  1
  Cu  Cu14  1  0.78421129  0.71578871  0.28421129  1
  Cu  Cu15  1  0.71578871  0.28421129  0.78421129  1
  Cu  Cu16  1  0.52853394  0.52853394  0.52853394  1
  Cu  Cu17  1  0.97146606  0.47146606  0.02853394  1
  Cu  Cu18  1  0.47146606  0.02853394  0.97146606  1
  Cu  Cu19  1  0.02853394  0.97146606  0.47146606  1
  C  C20  1  0.10419192  0.17228472  0.54245490  1
  C  C21  1  0.39580808  0.82771528  0.04245490  1
  C  C22  1  0.89580808  0.67228472  0.95754510  1
  C  C23  1  0.54245490  0.10419192  0.17228472  1
  C  C24  1  0.60419192  0.32771528  0.45754510  1
  C  C25  1  0.04245490  0.39580808  0.82771528  1
  C  C26  1  0.95754510  0.89580808  0.67228472  1
  C  C27  1  0.45754510  0.60419192  0.32771528  1
  C  C28  1  0.17228472  0.54245490  0.10419192  1
  C  C29  1  0.67228472  0.95754510  0.89580808  1
  C  C30  1  0.32771528  0.45754510  0.60419192  1
  C  C31  1  0.82771528  0.04245490  0.39580808  1
  C  C32  1  0.00990694  0.25935708  0.12369646  1
  C  C33  1  0.49009306  0.74064292  0.62369646  1
  C  C34  1  0.99009306  0.75935708  0.37630354  1
  C  C35  1  0.12369646  0.00990694  0.25935708  1
  C  C36  1  0.50990694  0.24064292  0.87630354  1
  C  C37  1  0.62369646  0.49009306  0.74064292  1
  C  C38  1  0.37630354  0.99009306  0.75935708  1
  C  C39  1  0.87630354  0.50990694  0.24064292  1
  C  C40  1  0.25935708  0.12369646  0.00990694  1
  C  C41  1  0.75935708  0.37630354  0.99009306  1
  C  C42  1  0.24064292  0.87630354  0.50990694  1
  C  C43  1  0.74064292  0.62369646  0.49009306  1
  C  C44  1  0.13703354  0.37958469  0.35612140  1
  C  C45  1  0.36296646  0.62041531  0.85612140  1
  C  C46  1  0.86296646  0.87958469  0.14387860  1
  C  C47  1  0.35612140  0.13703354  0.37958469  1
  C  C48  1  0.63703354  0.12041531  0.64387860  1
  C  C49  1  0.85612140  0.36296646  0.62041531  1
  C  C50  1  0.14387860  0.86296646  0.87958469  1
  C  C51  1  0.64387860  0.63703354  0.12041531  1
  C  C52  1  0.37958469  0.35612140  0.13703354  1
  C  C53  1  0.87958469  0.14387860  0.86296646  1
  C  C54  1  0.12041531  0.64387860  0.63703354  1
  C  C55  1  0.62041531  0.85612140  0.36296646  1
  C  C56  1  0.09146559  0.55411942  0.15449134  1
  C  C57  1  0.40853441  0.44588058  0.65449134  1
  C  C58  1  0.90853441  0.05411942  0.34550866  1
  C  C59  1  0.15449134  0.09146559  0.55411942  1
  C  C60  1  0.59146559  0.94588058  0.84550866  1
  C  C61  1  0.65449134  0.40853441  0.44588058  1
  C  C62  1  0.34550866  0.90853441  0.05411942  1
  C  C63  1  0.84550866  0.59146559  0.94588058  1
  C  C64  1  0.55411942  0.15449134  0.09146559  1
  C  C65  1  0.05411942  0.34550866  0.90853441  1
  C  C66  1  0.94588058  0.84550866  0.59146559  1
  C  C67  1  0.44588058  0.65449134  0.40853441  1
  C  C68  1  0.13725745  0.25646662  0.56135018  1
  C  C69  1  0.36274255  0.74353338  0.06135018  1
  C  C70  1  0.86274255  0.75646662  0.93864982  1
  C  C71  1  0.56135018  0.13725745  0.25646662  1
  C  C72  1  0.63725745  0.24353338  0.43864982  1
  C  C73  1  0.06135018  0.36274255  0.74353338  1
  C  C74  1  0.93864982  0.86274255  0.75646662  1
  C  C75  1  0.43864982  0.63725745  0.24353338  1
  C  C76  1  0.25646662  0.56135018  0.13725745  1
  C  C77  1  0.75646662  0.93864982  0.86274255  1
  C  C78  1  0.24353338  0.43864982  0.63725745  1
  C  C79  1  0.74353338  0.06135018  0.36274255  1
  C  C80  1  0.08906655  0.29599632  0.34453282  1
  C  C81  1  0.41093345  0.70400368  0.84453282  1
  C  C82  1  0.91093345  0.79599632  0.15546718  1
  C  C83  1  0.34453282  0.08906655  0.29599632  1
  C  C84  1  0.58906655  0.20400368  0.65546718  1
  C  C85  1  0.84453282  0.41093345  0.70400368  1
  C  C86  1  0.15546718  0.91093345  0.79599632  1
  C  C87  1  0.65546718  0.58906655  0.20400368  1
  C  C88  1  0.29599632  0.34453282  0.08906655  1
  C  C89  1  0.79599632  0.15546718  0.91093345  1
  C  C90  1  0.20400368  0.65546718  0.58906655  1
  C  C91  1  0.70400368  0.84453282  0.41093345  1
  C  C92  1  0.01303482  0.16099652  0.50696646  1
  C  C93  1  0.48696518  0.83900348  0.00696646  1
  C  C94  1  0.98696518  0.66099652  0.99303354  1
  C  C95  1  0.50696646  0.01303482  0.16099652  1
  C  C96  1  0.51303482  0.33900348  0.49303354  1
  C  C97  1  0.00696646  0.48696518  0.83900348  1
  C  C98  1  0.99303354  0.98696518  0.66099652  1
  C  C99  1  0.49303354  0.51303482  0.33900348  1
  C  C100  1  0.16099652  0.50696646  0.01303482  1
  C  C101  1  0.66099652  0.99303354  0.98696518  1
  C  C102  1  0.33900348  0.49303354  0.51303482  1
  C  C103  1  0.83900348  0.00696646  0.48696518  1
  C  C104  1  0.20993303  0.64296925  0.34217293  1
  C  C105  1  0.29006697  0.35703075  0.84217293  1
  C  C106  1  0.79006697  0.14296925  0.15782707  1
  C  C107  1  0.34217293  0.20993303  0.64296925  1
  C  C108  1  0.70993303  0.85703075  0.65782707  1
  C  C109  1  0.84217293  0.29006697  0.35703075  1
  C  C110  1  0.15782707  0.79006697  0.14296925  1
  C  C111  1  0.65782707  0.70993303  0.85703075  1
  C  C112  1  0.64296925  0.34217293  0.20993303  1
  C  C113  1  0.14296925  0.15782707  0.79006697  1
  C  C114  1  0.85703075  0.65782707  0.70993303  1
  C  C115  1  0.35703075  0.84217293  0.29006697  1
  C  C116  1  0.07000399  0.77631270  0.42316356  1
  C  C117  1  0.42999601  0.22368730  0.92316356  1
  C  C118  1  0.92999601  0.27631270  0.07683644  1
  C  C119  1  0.42316356  0.07000399  0.77631270  1
  C  C120  1  0.57000399  0.72368730  0.57683644  1
  C  C121  1  0.92316356  0.42999601  0.22368730  1
  C  C122  1  0.07683644  0.92999601  0.27631270  1
  C  C123  1  0.57683644  0.57000399  0.72368730  1
  C  C124  1  0.77631270  0.42316356  0.07000399  1
  C  C125  1  0.27631270  0.07683644  0.92999601  1
  C  C126  1  0.72368730  0.57683644  0.57000399  1
  C  C127  1  0.22368730  0.92316356  0.42999601  1
  C  C128  1  0.02659508  0.17885744  0.16955414  1
  C  C129  1  0.47340492  0.82114256  0.66955414  1
  C  C130  1  0.97340492  0.67885744  0.33044586  1
  C  C131  1  0.16955414  0.02659508  0.17885744  1
  C  C132  1  0.52659508  0.32114256  0.83044586  1
  C  C133  1  0.66955414  0.47340492  0.82114256  1
  C  C134  1  0.33044586  0.97340492  0.67885744  1
  C  C135  1  0.83044586  0.52659508  0.32114256  1
  C  C136  1  0.17885744  0.16955414  0.02659508  1
  C  C137  1  0.67885744  0.33044586  0.97340492  1
  C  C138  1  0.32114256  0.83044586  0.52659508  1
  C  C139  1  0.82114256  0.66955414  0.47340492  1
  C  C140  1  0.21520153  0.39293295  0.30375471  1
  C  C141  1  0.28479847  0.60706705  0.80375471  1
  C  C142  1  0.78479847  0.89293295  0.19624529  1
  C  C143  1  0.30375471  0.21520153  0.39293295  1
  C  C144  1  0.71520153  0.10706705  0.69624529  1
  C  C145  1  0.80375471  0.28479847  0.60706705  1
  C  C146  1  0.19624529  0.78479847  0.89293295  1
  C  C147  1  0.69624529  0.71520153  0.10706705  1
  C  C148  1  0.39293295  0.30375471  0.21520153  1
  C  C149  1  0.89293295  0.19624529  0.78479847  1
  C  C150  1  0.10706705  0.69624529  0.71520153  1
  C  C151  1  0.60706705  0.80375471  0.28479847  1
  C  C152  1  0.07868734  0.32835278  0.12467739  1
  C  C153  1  0.42131266  0.67164722  0.62467739  1
  C  C154  1  0.92131266  0.82835278  0.37532261  1
  C  C155  1  0.12467739  0.07868734  0.32835278  1
  C  C156  1  0.57868734  0.17164722  0.87532261  1
  C  C157  1  0.62467739  0.42131266  0.67164722  1
  C  C158  1  0.37532261  0.92131266  0.82835278  1
  C  C159  1  0.87532261  0.57868734  0.17164722  1
  C  C160  1  0.32835278  0.12467739  0.07868734  1
  C  C161  1  0.82835278  0.37532261  0.92131266  1
  C  C162  1  0.17164722  0.87532261  0.57868734  1
  C  C163  1  0.67164722  0.62467739  0.42131266  1
  C  C164  1  0.10524969  0.44266223  0.41802548  1
  C  C165  1  0.39475031  0.55733777  0.91802548  1
  C  C166  1  0.89475031  0.94266223  0.08197452  1
  C  C167  1  0.41802548  0.10524969  0.44266223  1
  C  C168  1  0.60524969  0.05733777  0.58197452  1
  C  C169  1  0.91802548  0.39475031  0.55733777  1
  C  C170  1  0.08197452  0.89475031  0.94266223  1
  C  C171  1  0.58197452  0.60524969  0.05733777  1
  C  C172  1  0.44266223  0.41802548  0.10524969  1
  C  C173  1  0.94266223  0.08197452  0.89475031  1
  C  C174  1  0.05733777  0.58197452  0.60524969  1
  C  C175  1  0.55733777  0.91802548  0.39475031  1
