# generated using pymatgen
data_Cu7(Ni4C5)4
_symmetry_space_group_name_H-M   'P 1'
_cell_length_a   7.13178666
_cell_length_b   7.13178666
_cell_length_c   18.42660928
_cell_angle_alpha   81.03100085
_cell_angle_beta   81.03100085
_cell_angle_gamma   76.93592515
_symmetry_Int_Tables_number   1
_chemical_formula_structural   Cu7(Ni4C5)4
_chemical_formula_sum   'Cu14 Ni32 C40'
_cell_volume   894.68247570
_cell_formula_units_Z   2
loop_
 _symmetry_equiv_pos_site_id
 _symmetry_equiv_pos_as_xyz
  1  'x, y, z'
loop_
 _atom_site_type_symbol
 _atom_site_label
 _atom_site_symmetry_multiplicity
 _atom_site_fract_x
 _atom_site_fract_y
 _atom_site_fract_z
 _atom_site_occupancy
  C  C0  1  0.98731100  0.87173000  0.42413800  1
  C  C1  1  0.87173000  0.98731100  0.92413800  1
  Ni  Ni2  1  0.35025100  0.07681600  0.39563700  1
  Ni  Ni3  1  0.07681600  0.35025100  0.89563700  1
  Ni  Ni4  1  0.17693100  0.25389700  0.38374300  1
  Ni  Ni5  1  0.25389700  0.17693100  0.88374300  1
  Ni  Ni6  1  0.77982300  0.50670600  0.45021100  1
  Ni  Ni7  1  0.50670600  0.77982300  0.95021100  1
  Ni  Ni8  1  0.61151100  0.68397500  0.46884200  1
  Ni  Ni9  1  0.68397500  0.61151100  0.96884200  1
  Ni  Ni10  1  0.83170500  0.36724500  0.25869600  1
  Ni  Ni11  1  0.36724500  0.83170500  0.75869600  1
  Ni  Ni12  1  0.85319200  0.58574800  0.25552600  1
  Ni  Ni13  1  0.58574800  0.85319200  0.75552600  1
  Ni  Ni14  1  0.45942700  0.16791500  0.21622900  1
  Ni  Ni15  1  0.16791500  0.45942700  0.71622900  1
  Ni  Ni16  1  0.28036500  0.11084600  0.26743400  1
  Ni  Ni17  1  0.11084600  0.28036500  0.76743400  1
  Ni  Ni18  1  0.86903200  0.45832800  0.68733400  1
  Ni  Ni19  1  0.45832800  0.86903200  0.18733400  1
  Ni  Ni20  1  0.64873500  0.62076300  0.68686700  1
  Ni  Ni21  1  0.62076300  0.64873500  0.18686700  1
  Ni  Ni22  1  0.70237400  0.43066600  0.63686900  1
  Ni  Ni23  1  0.43066600  0.70237400  0.13686900  1
  Ni  Ni24  1  0.81879100  0.61400000  0.61131700  1
  Ni  Ni25  1  0.61400000  0.81879100  0.11131700  1
  Ni  Ni26  1  0.27185100  0.21680300  0.64501900  1
  Ni  Ni27  1  0.21680300  0.27185100  0.14501900  1
  Ni  Ni28  1  0.39828500  0.98705000  0.64492000  1
  Ni  Ni29  1  0.98705000  0.39828500  0.14492000  1
  Ni  Ni30  1  0.21302200  0.07591000  0.59014500  1
  Ni  Ni31  1  0.07591000  0.21302200  0.09014500  1
  Ni  Ni32  1  0.42727600  0.14686000  0.56887100  1
  Ni  Ni33  1  0.14686000  0.42727600  0.06887100  1
  Cu  Cu34  1  0.75860900  0.53158900  0.65586000  1
  Cu  Cu35  1  0.53158900  0.75860900  0.15586000  1
  Cu  Cu36  1  0.32848000  0.10604800  0.61155100  1
  Cu  Cu37  1  0.10604800  0.32848000  0.11155100  1
  Cu  Cu38  1  0.25148600  0.58284600  0.32601100  1
  Cu  Cu39  1  0.58284600  0.25148600  0.82601100  1
  Cu  Cu40  1  0.26813500  0.63744400  0.53510900  1
  Cu  Cu41  1  0.63744400  0.26813500  0.03510900  1
  Cu  Cu42  1  0.85187700  0.04036400  0.57606300  1
  Cu  Cu43  1  0.04036400  0.85187700  0.07606300  1
  Cu  Cu44  1  0.62956200  0.21354000  0.42949300  1
  Cu  Cu45  1  0.21354000  0.62956200  0.92949300  1
  Cu  Cu46  1  0.84801000  0.97730400  0.26660100  1
  Cu  Cu47  1  0.97730400  0.84801000  0.76660100  1
  C  C48  1  0.21908600  0.11272600  0.38012700  1
  C  C49  1  0.11272600  0.21908600  0.88012700  1
  C  C50  1  0.75397500  0.63953900  0.46359300  1
  C  C51  1  0.63953900  0.75397500  0.96359300  1
  C  C52  1  0.26240000  0.76073300  0.32238600  1
  C  C53  1  0.76073300  0.26240000  0.82238600  1
  C  C54  1  0.12874300  0.52174200  0.37844000  1
  C  C55  1  0.52174200  0.12874300  0.87844000  1
  C  C56  1  0.35167500  0.47600900  0.28162100  1
  C  C57  1  0.47600900  0.35167500  0.78162100  1
  C  C58  1  0.33377100  0.74983700  0.48012300  1
  C  C59  1  0.74983700  0.33377100  0.98012300  1
  C  C60  1  0.09273900  0.61998900  0.53631300  1
  C  C61  1  0.61998900  0.09273900  0.03631300  1
  C  C62  1  0.36880900  0.55146700  0.58409000  1
  C  C63  1  0.55146700  0.36880900  0.08409000  1
  C  C64  1  0.02466400  0.03773600  0.54300600  1
  C  C65  1  0.03773600  0.02466400  0.04300600  1
  C  C66  1  0.75173300  0.94364100  0.55023500  1
  C  C67  1  0.94364100  0.75173300  0.05023500  1
  C  C68  1  0.78369400  0.13332500  0.62913400  1
  C  C69  1  0.13332500  0.78369400  0.12913400  1
  C  C70  1  0.80059100  0.24177000  0.43107900  1
  C  C71  1  0.24177000  0.80059100  0.93107900  1
  C  C72  1  0.61898500  0.04965600  0.41128500  1
  C  C73  1  0.04965600  0.61898500  0.91128500  1
  C  C74  1  0.48202700  0.33547300  0.44659700  1
  C  C75  1  0.33547300  0.48202700  0.94659700  1
  C  C76  1  0.91681400  0.09683600  0.29485700  1
  C  C77  1  0.09683600  0.91681400  0.79485700  1
  C  C78  1  0.85913300  0.80691800  0.30253500  1
  C  C79  1  0.80691800  0.85913300  0.80253500  1
  C  C80  1  0.77258200  0.02560900  0.20829200  1
  C  C81  1  0.02560900  0.77258200  0.70829200  1
  C  C82  1  0.82407500  0.49273100  0.22677300  1
  C  C83  1  0.49273100  0.82407500  0.72677300  1
  C  C84  1  0.34479400  0.11461800  0.21599700  1
  C  C85  1  0.11461800  0.34479400  0.71599700  1
