# generated using pymatgen
data_Cu2(NiC4)3
_symmetry_space_group_name_H-M   'P 1'
_cell_length_a   9.50808964
_cell_length_b   8.81299100
_cell_length_c   12.58651998
_cell_angle_alpha   90.00000000
_cell_angle_beta   98.88887216
_cell_angle_gamma   90.00000000
_symmetry_Int_Tables_number   1
_chemical_formula_structural   Cu2(NiC4)3
_chemical_formula_sum   'Cu8 Ni12 C48'
_cell_volume   1042.01690848
_cell_formula_units_Z   4
loop_
 _symmetry_equiv_pos_site_id
 _symmetry_equiv_pos_as_xyz
  1  'x, y, z'
loop_
 _atom_site_type_symbol
 _atom_site_label
 _atom_site_symmetry_multiplicity
 _atom_site_fract_x
 _atom_site_fract_y
 _atom_site_fract_z
 _atom_site_occupancy
  Ni  Ni0  1  0.14216100  0.36318700  0.64308600  1
  Ni  Ni1  1  0.85783900  0.86318700  0.85691400  1
  Ni  Ni2  1  0.85783900  0.63681300  0.35691400  1
  Ni  Ni3  1  0.14216100  0.13681300  0.14308600  1
  Ni  Ni4  1  0.26755600  0.95821300  0.51737600  1
  Ni  Ni5  1  0.73244400  0.45821300  0.98262400  1
  Ni  Ni6  1  0.73244400  0.04178700  0.48262400  1
  Ni  Ni7  1  0.26755600  0.54178700  0.01737600  1
  Ni  Ni8  1  0.35804900  0.15220800  0.86506600  1
  Ni  Ni9  1  0.64195100  0.65220800  0.63493400  1
  Ni  Ni10  1  0.64195100  0.84779200  0.13493400  1
  Ni  Ni11  1  0.35804900  0.34779100  0.36506600  1
  Cu  Cu12  1  0.01610200  0.24593500  0.85839600  1
  Cu  Cu13  1  0.98389800  0.74593500  0.64160400  1
  Cu  Cu14  1  0.98389800  0.75406500  0.14160400  1
  Cu  Cu15  1  0.01610200  0.25406500  0.35839600  1
  Cu  Cu16  1  0.49205600  0.26547000  0.65192400  1
  Cu  Cu17  1  0.50794400  0.76547000  0.84807600  1
  Cu  Cu18  1  0.50794400  0.73453000  0.34807600  1
  Cu  Cu19  1  0.49205600  0.23453000  0.15192400  1
  C  C20  1  0.07108200  0.20388500  0.51038900  1
  C  C21  1  0.92891800  0.70388500  0.98961100  1
  C  C22  1  0.92891800  0.79611500  0.48961100  1
  C  C23  1  0.07108200  0.29611500  0.01038900  1
  C  C24  1  0.01610000  0.72154100  0.79462800  1
  C  C25  1  0.98390000  0.22154100  0.70537200  1
  C  C26  1  0.98390000  0.27845900  0.20537200  1
  C  C27  1  0.01610000  0.77845900  0.29462800  1
  C  C28  1  0.14338400  0.07615400  0.88420300  1
  C  C29  1  0.85661600  0.57615400  0.61579700  1
  C  C30  1  0.85661600  0.92384600  0.11579700  1
  C  C31  1  0.14338400  0.42384600  0.38420300  1
  C  C32  1  0.10553800  0.90722900  0.64659200  1
  C  C33  1  0.89446200  0.40722900  0.85340800  1
  C  C34  1  0.89446200  0.09277100  0.35340800  1
  C  C35  1  0.10553800  0.59277100  0.14659200  1
  C  C36  1  0.13015800  0.60749500  0.61948500  1
  C  C37  1  0.86984200  0.10749500  0.88051500  1
  C  C38  1  0.86984200  0.39250600  0.38051500  1
  C  C39  1  0.13015800  0.89250500  0.11948500  1
  C  C40  1  0.18715900  0.36362900  0.83190700  1
  C  C41  1  0.81284100  0.86362900  0.66809300  1
  C  C42  1  0.81284100  0.63637100  0.16809300  1
  C  C43  1  0.18715900  0.13637100  0.33190700  1
  C  C44  1  0.32207200  0.14530800  0.67948700  1
  C  C45  1  0.67792800  0.64530800  0.82051300  1
  C  C46  1  0.67792800  0.85469200  0.32051300  1
  C  C47  1  0.32207200  0.35469200  0.17948700  1
  C  C48  1  0.35635800  0.42800300  0.61603200  1
  C  C49  1  0.64364200  0.92800300  0.88396800  1
  C  C50  1  0.64364200  0.57199700  0.38396800  1
  C  C51  1  0.35635800  0.07199700  0.11603200  1
  C  C52  1  0.43978000  0.20070300  0.50026500  1
  C  C53  1  0.56022000  0.70070300  0.99973500  1
  C  C54  1  0.56022000  0.79929700  0.49973500  1
  C  C55  1  0.43978000  0.29929700  0.00026500  1
  C  C56  1  0.51818000  0.30100800  0.80358900  1
  C  C57  1  0.48182000  0.80100800  0.69641100  1
  C  C58  1  0.48182000  0.69899200  0.19641100  1
  C  C59  1  0.51818000  0.19899200  0.30358900  1
  C  C60  1  0.61672100  0.10922100  0.65933200  1
  C  C61  1  0.38327900  0.60922100  0.84066800  1
  C  C62  1  0.38327900  0.89077900  0.34066800  1
  C  C63  1  0.61672100  0.39077900  0.15933200  1
  C  C64  1  0.62991000  0.40719400  0.62164600  1
  C  C65  1  0.37009000  0.90719400  0.87835400  1
  C  C66  1  0.37009000  0.59280600  0.37835400  1
  C  C67  1  0.62991000  0.09280600  0.12164600  1
