# generated using pymatgen
data_CuNi4
_symmetry_space_group_name_H-M   'P 1'
_cell_length_a   15.58460243
_cell_length_b   15.58460243
_cell_length_c   15.58460191
_cell_angle_alpha   117.57306512
_cell_angle_beta   117.57306512
_cell_angle_gamma   117.57306612
_symmetry_Int_Tables_number   1
_chemical_formula_structural   CuNi4
_chemical_formula_sum   'Cu9 Ni36'
_cell_volume   1508.75346386
_cell_formula_units_Z   9
loop_
 _symmetry_equiv_pos_site_id
 _symmetry_equiv_pos_as_xyz
  1  'x, y, z'
loop_
 _atom_site_type_symbol
 _atom_site_label
 _atom_site_symmetry_multiplicity
 _atom_site_fract_x
 _atom_site_fract_y
 _atom_site_fract_z
 _atom_site_occupancy
  Ni  Ni0  1  0.75099400  0.63306700  0.04941300  1
  Ni  Ni1  1  0.04941300  0.75099400  0.63306700  1
  Ni  Ni2  1  0.63306700  0.04941300  0.75099400  1
  Ni  Ni3  1  0.04941300  0.63306700  0.75099400  1
  Ni  Ni4  1  0.75099400  0.04941300  0.63306700  1
  Ni  Ni5  1  0.63306700  0.75099400  0.04941300  1
  Ni  Ni6  1  0.24900600  0.36693300  0.95058700  1
  Ni  Ni7  1  0.95058700  0.24900600  0.36693300  1
  Ni  Ni8  1  0.36693300  0.95058700  0.24900600  1
  Ni  Ni9  1  0.95058700  0.36693300  0.24900600  1
  Ni  Ni10  1  0.24900600  0.95058700  0.36693300  1
  Ni  Ni11  1  0.36693300  0.24900600  0.95058700  1
  Ni  Ni12  1  0.81858300  0.69356600  0.32956500  1
  Ni  Ni13  1  0.32956500  0.81858300  0.69356600  1
  Ni  Ni14  1  0.69356600  0.32956500  0.81858300  1
  Ni  Ni15  1  0.32956500  0.69356600  0.81858300  1
  Ni  Ni16  1  0.81858300  0.32956500  0.69356600  1
  Ni  Ni17  1  0.69356600  0.81858300  0.32956500  1
  Ni  Ni18  1  0.18141700  0.30643400  0.67043500  1
  Ni  Ni19  1  0.67043500  0.18141700  0.30643400  1
  Ni  Ni20  1  0.30643400  0.67043500  0.18141700  1
  Ni  Ni21  1  0.67043500  0.30643400  0.18141700  1
  Ni  Ni22  1  0.18141700  0.67043500  0.30643400  1
  Ni  Ni23  1  0.30643400  0.18141700  0.67043500  1
  Ni  Ni24  1  0.38101700  0.20143800  0.38101700  1
  Ni  Ni25  1  0.38101700  0.38101700  0.20143800  1
  Ni  Ni26  1  0.20143800  0.38101700  0.38101700  1
  Ni  Ni27  1  0.61898300  0.79856200  0.61898300  1
  Ni  Ni28  1  0.61898300  0.61898300  0.79856200  1
  Ni  Ni29  1  0.79856200  0.61898300  0.61898300  1
  Ni  Ni30  1  0.16785800  0.42833800  0.16785800  1
  Ni  Ni31  1  0.16785800  0.16785800  0.42833800  1
  Ni  Ni32  1  0.42833800  0.16785800  0.16785800  1
  Ni  Ni33  1  0.83214200  0.57166200  0.83214200  1
  Ni  Ni34  1  0.83214200  0.83214200  0.57166200  1
  Ni  Ni35  1  0.57166200  0.83214200  0.83214200  1
  Cu  Cu36  1  0.33078300  0.66921700  0.50000000  1
  Cu  Cu37  1  0.50000000  0.33078300  0.66921700  1
  Cu  Cu38  1  0.66921700  0.50000000  0.33078300  1
  Cu  Cu39  1  0.50000000  0.66921700  0.33078300  1
  Cu  Cu40  1  0.33078300  0.50000000  0.66921700  1
  Cu  Cu41  1  0.66921700  0.33078300  0.50000000  1
  Cu  Cu42  1  0.50000000  0.50000000  0.00000000  1
  Cu  Cu43  1  0.00000000  0.50000000  0.50000000  1
  Cu  Cu44  1  0.50000000  0.00000000  0.50000000  1
