# generated using pymatgen
data_Cu3Ni3C34
_symmetry_space_group_name_H-M   'P 1'
_cell_length_a   12.71851001
_cell_length_b   12.71851001
_cell_length_c   12.71851001
_cell_angle_alpha   90.00000000
_cell_angle_beta   90.00000000
_cell_angle_gamma   90.00000000
_symmetry_Int_Tables_number   1
_chemical_formula_structural   Cu3Ni3C34
_chemical_formula_sum   'Cu12 Ni12 C136'
_cell_volume   2057.35249872
_cell_formula_units_Z   4
loop_
 _symmetry_equiv_pos_site_id
 _symmetry_equiv_pos_as_xyz
  1  'x, y, z'
loop_
 _atom_site_type_symbol
 _atom_site_label
 _atom_site_symmetry_multiplicity
 _atom_site_fract_x
 _atom_site_fract_y
 _atom_site_fract_z
 _atom_site_occupancy
  C  C0  1  0.37501247  0.37501247  0.37501247  1
  C  C1  1  0.12498753  0.62498753  0.87501247  1
  C  C2  1  0.62498753  0.87501247  0.12498753  1
  C  C3  1  0.87501247  0.12498753  0.62498753  1
  C  C4  1  0.65021404  0.65021404  0.65021404  1
  C  C5  1  0.84978596  0.34978596  0.15021404  1
  C  C6  1  0.34978596  0.15021404  0.84978596  1
  C  C7  1  0.15021404  0.84978596  0.34978596  1
  C  C8  1  0.09950722  0.09950722  0.09950722  1
  C  C9  1  0.40049278  0.90049278  0.59950722  1
  C  C10  1  0.90049278  0.59950722  0.40049278  1
  C  C11  1  0.59950722  0.40049278  0.90049278  1
  Ni  Ni12  1  0.18359087  0.56677246  0.37483848  1
  Ni  Ni13  1  0.31640913  0.43322754  0.87483848  1
  Ni  Ni14  1  0.81640913  0.06677246  0.12516152  1
  Ni  Ni15  1  0.37483848  0.18359087  0.56677246  1
  Ni  Ni16  1  0.68359087  0.93322754  0.62516152  1
  Ni  Ni17  1  0.87483848  0.31640913  0.43322754  1
  Ni  Ni18  1  0.12516152  0.81640913  0.06677246  1
  Ni  Ni19  1  0.62516152  0.68359087  0.93322754  1
  Ni  Ni20  1  0.56677246  0.37483848  0.18359087  1
  Ni  Ni21  1  0.06677246  0.12516152  0.81640913  1
  Ni  Ni22  1  0.93322754  0.62516152  0.68359087  1
  Ni  Ni23  1  0.43322754  0.87483848  0.31640913  1
  Cu  Cu24  1  0.12490321  0.14102634  0.39056234  1
  Cu  Cu25  1  0.37509679  0.85897366  0.89056234  1
  Cu  Cu26  1  0.87509679  0.64102634  0.10943766  1
  Cu  Cu27  1  0.39056234  0.12490321  0.14102634  1
  Cu  Cu28  1  0.62490321  0.35897366  0.60943766  1
  Cu  Cu29  1  0.89056234  0.37509679  0.85897366  1
  Cu  Cu30  1  0.10943766  0.87509679  0.64102634  1
  Cu  Cu31  1  0.60943766  0.62490321  0.35897366  1
  Cu  Cu32  1  0.14102634  0.39056234  0.12490321  1
  Cu  Cu33  1  0.64102634  0.10943766  0.87509679  1
  Cu  Cu34  1  0.35897366  0.60943766  0.62490321  1
  Cu  Cu35  1  0.85897366  0.89056234  0.37509679  1
  C  C36  1  0.08952960  0.35658724  0.33799782  1
  C  C37  1  0.41047040  0.64341276  0.83799782  1
  C  C38  1  0.91047040  0.85658724  0.16200218  1
  C  C39  1  0.33799782  0.08952960  0.35658724  1
  C  C40  1  0.58952960  0.14341276  0.66200218  1
  C  C41  1  0.83799782  0.41047040  0.64341276  1
  C  C42  1  0.16200218  0.91047040  0.85658724  1
  C  C43  1  0.66200218  0.58952960  0.14341276  1
  C  C44  1  0.35658724  0.33799782  0.08952960  1
  C  C45  1  0.85658724  0.16200218  0.91047040  1
  C  C46  1  0.14341276  0.66200218  0.58952960  1
  C  C47  1  0.64341276  0.83799782  0.41047040  1
  C  C48  1  0.08828000  0.60656794  0.16038675  1
  C  C49  1  0.41172000  0.39343206  0.66038675  1
  C  C50  1  0.91172000  0.10656794  0.33961325  1
  C  C51  1  0.16038675  0.08828000  0.60656794  1
  C  C52  1  0.58828000  0.89343206  0.83961325  1
  C  C53  1  0.66038675  0.41172000  0.39343206  1
  C  C54  1  0.33961325  0.91172000  0.10656794  1
  C  C55  1  0.83961325  0.58828000  0.89343206  1
  C  C56  1  0.60656794  0.16038675  0.08828000  1
  C  C57  1  0.10656794  0.33961325  0.91172000  1
  C  C58  1  0.89343206  0.83961325  0.58828000  1
  C  C59  1  0.39343206  0.66038675  0.41172000  1
  C  C60  1  0.08403966  0.12153055  0.69167991  1
  C  C61  1  0.41596034  0.87846945  0.19167991  1
  C  C62  1  0.91596034  0.62153055  0.80832009  1
  C  C63  1  0.69167991  0.08403966  0.12153055  1
  C  C64  1  0.58403966  0.37846945  0.30832009  1
  C  C65  1  0.19167991  0.41596034  0.87846945  1
  C  C66  1  0.80832009  0.91596034  0.62153055  1
  C  C67  1  0.30832009  0.58403966  0.37846945  1
  C  C68  1  0.12153055  0.69167991  0.08403966  1
  C  C69  1  0.62153055  0.80832009  0.91596034  1
  C  C70  1  0.37846945  0.30832009  0.58403966  1
  C  C71  1  0.87846945  0.19167991  0.41596034  1
  C  C72  1  0.12983552  0.62225194  0.27165668  1
  C  C73  1  0.37016448  0.37774806  0.77165668  1
  C  C74  1  0.87016448  0.12225194  0.22834332  1
  C  C75  1  0.27165668  0.12983552  0.62225194  1
  C  C76  1  0.62983552  0.87774806  0.72834332  1
  C  C77  1  0.77165668  0.37016448  0.37774806  1
  C  C78  1  0.22834332  0.87016448  0.12225194  1
  C  C79  1  0.72834332  0.62983552  0.87774806  1
  C  C80  1  0.62225194  0.27165668  0.12983552  1
  C  C81  1  0.12225194  0.22834332  0.87016448  1
  C  C82  1  0.87774806  0.72834332  0.62983552  1
  C  C83  1  0.37774806  0.77165668  0.37016448  1
  C  C84  1  0.16471708  0.44233119  0.37145619  1
  C  C85  1  0.33528292  0.55766881  0.87145619  1
  C  C86  1  0.83528292  0.94233119  0.12854381  1
  C  C87  1  0.37145619  0.16471708  0.44233119  1
  C  C88  1  0.66471708  0.05766881  0.62854381  1
  C  C89  1  0.87145619  0.33528292  0.55766881  1
  C  C90  1  0.12854381  0.83528292  0.94233119  1
  C  C91  1  0.62854381  0.66471708  0.05766881  1
  C  C92  1  0.44233119  0.37145619  0.16471708  1
  C  C93  1  0.94233119  0.12854381  0.83528292  1
  C  C94  1  0.05766881  0.62854381  0.66471708  1
  C  C95  1  0.55766881  0.87145619  0.33528292  1
  C  C96  1  0.03545932  0.10220665  0.32665166  1
  C  C97  1  0.46454068  0.89779335  0.82665166  1
  C  C98  1  0.96454068  0.60220665  0.17334834  1
  C  C99  1  0.32665166  0.03545932  0.10220665  1
  C  C100  1  0.53545932  0.39779335  0.67334834  1
  C  C101  1  0.82665166  0.46454068  0.89779335  1
  C  C102  1  0.17334834  0.96454068  0.60220665  1
  C  C103  1  0.67334834  0.53545932  0.39779335  1
  C  C104  1  0.10220665  0.32665166  0.03545932  1
  C  C105  1  0.60220665  0.17334834  0.96454068  1
  C  C106  1  0.39779335  0.67334834  0.53545932  1
  C  C107  1  0.89779335  0.82665166  0.46454068  1
  C  C108  1  0.14490790  0.25313595  0.37339679  1
  C  C109  1  0.35509210  0.74686405  0.87339679  1
  C  C110  1  0.85509210  0.75313595  0.12660321  1
  C  C111  1  0.37339679  0.14490790  0.25313595  1
  C  C112  1  0.64490790  0.24686405  0.62660321  1
  C  C113  1  0.87339679  0.35509210  0.74686405  1
  C  C114  1  0.12660321  0.85509210  0.75313595  1
  C  C115  1  0.62660321  0.64490790  0.24686405  1
  C  C116  1  0.25313595  0.37339679  0.14490790  1
  C  C117  1  0.75313595  0.12660321  0.85509210  1
  C  C118  1  0.24686405  0.62660321  0.64490790  1
  C  C119  1  0.74686405  0.87339679  0.35509210  1
  C  C120  1  0.87369747  0.87369747  0.87369747  1
  C  C121  1  0.62630253  0.12630253  0.37369747  1
  C  C122  1  0.12630253  0.37369747  0.62630253  1
  C  C123  1  0.37369747  0.62630253  0.12630253  1
  C  C124  1  0.12833864  0.62169797  0.47750395  1
  C  C125  1  0.37166136  0.37830203  0.97750395  1
  C  C126  1  0.87166136  0.12169797  0.02249605  1
  C  C127  1  0.47750395  0.12833864  0.62169797  1
  C  C128  1  0.62833864  0.87830203  0.52249605  1
  C  C129  1  0.97750395  0.37166136  0.37830203  1
  C  C130  1  0.02249605  0.87166136  0.12169797  1
  C  C131  1  0.52249605  0.62833864  0.87830203  1
  C  C132  1  0.62169797  0.47750395  0.12833864  1
  C  C133  1  0.12169797  0.02249605  0.87166136  1
  C  C134  1  0.87830203  0.52249605  0.62833864  1
  C  C135  1  0.37830203  0.97750395  0.37166136  1
  C  C136  1  0.07737973  0.35091305  0.21427654  1
  C  C137  1  0.42262027  0.64908695  0.71427654  1
  C  C138  1  0.92262027  0.85091305  0.28572346  1
  C  C139  1  0.21427654  0.07737973  0.35091305  1
  C  C140  1  0.57737973  0.14908695  0.78572346  1
  C  C141  1  0.71427654  0.42262027  0.64908695  1
  C  C142  1  0.28572346  0.92262027  0.85091305  1
  C  C143  1  0.78572346  0.57737973  0.14908695  1
  C  C144  1  0.35091305  0.21427654  0.07737973  1
  C  C145  1  0.85091305  0.28572346  0.92262027  1
  C  C146  1  0.14908695  0.78572346  0.57737973  1
  C  C147  1  0.64908695  0.71427654  0.42262027  1
  C  C148  1  0.10529827  0.12257579  0.50261978  1
  C  C149  1  0.39470173  0.87742421  0.00261978  1
  C  C150  1  0.89470173  0.62257579  0.99738022  1
  C  C151  1  0.50261978  0.10529827  0.12257579  1
  C  C152  1  0.60529827  0.37742421  0.49738022  1
  C  C153  1  0.00261978  0.39470173  0.87742421  1
  C  C154  1  0.99738022  0.89470173  0.62257579  1
  C  C155  1  0.49738022  0.60529827  0.37742421  1
  C  C156  1  0.12257579  0.50261978  0.10529827  1
  C  C157  1  0.62257579  0.99738022  0.89470173  1
  C  C158  1  0.37742421  0.49738022  0.60529827  1
  C  C159  1  0.87742421  0.00261978  0.39470173  1
