# generated using pymatgen
data_Cu5NiC30
_symmetry_space_group_name_H-M   'P 1'
_cell_length_a   10.05641174
_cell_length_b   11.99083705
_cell_length_c   12.41317380
_cell_angle_alpha   88.55833439
_cell_angle_beta   114.22791739
_cell_angle_gamma   113.63969206
_symmetry_Int_Tables_number   1
_chemical_formula_structural   Cu5NiC30
_chemical_formula_sum   'Cu10 Ni2 C60'
_cell_volume   1232.92517606
_cell_formula_units_Z   2
loop_
 _symmetry_equiv_pos_site_id
 _symmetry_equiv_pos_as_xyz
  1  'x, y, z'
loop_
 _atom_site_type_symbol
 _atom_site_label
 _atom_site_symmetry_multiplicity
 _atom_site_fract_x
 _atom_site_fract_y
 _atom_site_fract_z
 _atom_site_occupancy
  C  C0  1  0.99795244  0.59863834  0.38758256  1
  C  C1  1  0.00204756  0.40136166  0.61241744  1
  C  C2  1  0.00000000  0.50000000  -0.00000000  1
  C  C3  1  0.00000000  -0.00000000  0.50000000  1
  C  C4  1  0.00116171  0.83560147  0.16446877  1
  C  C5  1  0.99883829  0.16439853  0.83553123  1
  C  C6  1  0.41421697  0.70160677  0.22377466  1
  C  C7  1  0.58578303  0.29839323  0.77622534  1
  Ni  Ni8  1  0.09576311  0.92760581  0.93081521  1
  Ni  Ni9  1  0.90423689  0.07239419  0.06918479  1
  Cu  Cu10  1  0.43339212  0.02823232  0.22587290  1
  Cu  Cu11  1  0.43791004  0.22679686  0.03610598  1
  Cu  Cu12  1  0.56660788  0.97176768  0.77412710  1
  Cu  Cu13  1  0.56208996  0.77320314  0.96389402  1
  Cu  Cu14  1  0.26874566  0.15552825  0.34605044  1
  Cu  Cu15  1  0.27402305  0.35266346  0.15535261  1
  Cu  Cu16  1  0.73125434  0.84447175  0.65394956  1
  Cu  Cu17  1  0.72597695  0.64733654  0.84464739  1
  Cu  Cu18  1  0.61139148  0.32961346  0.33016211  1
  Cu  Cu19  1  0.38860852  0.67038654  0.66983789  1
  C  C20  1  0.02942162  0.60788597  0.18017229  1
  C  C21  1  0.05031658  0.20449501  0.60174304  1
  C  C22  1  0.97057838  0.39211403  0.81982771  1
  C  C23  1  0.94968342  0.79550499  0.39825696  1
  C  C24  1  0.16995438  0.69703890  0.24223415  1
  C  C25  1  0.16956495  0.23495930  0.70291227  1
  C  C26  1  0.83004562  0.30296110  0.75776585  1
  C  C27  1  0.83043505  0.76504070  0.29708773  1
  C  C28  1  0.21623656  0.93414432  0.10457540  1
  C  C29  1  0.21991240  0.10612527  0.93938060  1
  C  C30  1  0.78376344  0.06585568  0.89542460  1
  C  C31  1  0.78008760  0.89387473  0.06061940  1
  C  C32  1  0.81317862  0.43342535  0.43471947  1
  C  C33  1  0.18682138  0.56657465  0.56528053  1
  C  C34  1  0.49846298  0.27436813  0.43011336  1
  C  C35  1  0.50233262  0.43691623  0.27498925  1
  C  C36  1  0.50153702  0.72563187  0.56988664  1
  C  C37  1  0.49766738  0.56308377  0.72501075  1
  C  C38  1  0.17630134  0.85976510  0.86570537  1
  C  C39  1  0.82369866  0.14023490  0.13429463  1
  C  C40  1  0.50202827  0.91262819  0.26122387  1
  C  C41  1  0.51499782  0.26551079  0.92976466  1
  C  C42  1  0.49797173  0.08737181  0.73877613  1
  C  C43  1  0.48500218  0.73448921  0.07023534  1
  C  C44  1  0.62778260  0.17323240  0.33339099  1
  C  C45  1  0.63188568  0.33480568  0.18061840  1
  C  C46  1  0.37221740  0.82676760  0.66660901  1
  C  C47  1  0.36811432  0.66519432  0.81938160  1
  C  C48  1  0.23962967  0.83548861  0.40705439  1
  C  C49  1  0.22368027  0.42993392  0.83153824  1
  C  C50  1  0.76037033  0.16451139  0.59294561  1
  C  C51  1  0.77631973  0.57006608  0.16846176  1
  C  C52  1  0.06555985  0.05023116  0.21758270  1
  C  C53  1  0.06753207  0.22668238  0.05138378  1
  C  C54  1  0.93444015  0.94976884  0.78241730  1
  C  C55  1  0.93246793  0.77331762  0.94861622  1
  C  C56  1  0.21675864  0.13004137  0.46723139  1
  C  C57  1  0.23356765  0.48587727  0.13573063  1
  C  C58  1  0.78324136  0.86995863  0.53276861  1
  C  C59  1  0.76643235  0.51412273  0.86426937  1
  C  C60  1  0.48897316  0.09142722  0.09704990  1
  C  C61  1  0.51102684  0.90857278  0.90295010  1
  C  C62  1  0.22646262  0.29624330  0.28986429  1
  C  C63  1  0.77353738  0.70375670  0.71013571  1
  C  C64  1  0.33975242  0.02712862  0.33726458  1
  C  C65  1  0.34638611  0.34392210  0.03377306  1
  C  C66  1  0.66024758  0.97287138  0.66273542  1
  C  C67  1  0.65361389  0.65607790  0.96622694  1
  C  C68  1  0.36439775  0.19937654  0.19799903  1
  C  C69  1  0.63560225  0.80062346  0.80200097  1
  C  C70  1  0.07429036  0.42564456  0.38159501  1
  C  C71  1  0.92570964  0.57435544  0.61840499  1
