# generated using pymatgen
data_CuNiC3
_symmetry_space_group_name_H-M   'P 1'
_cell_length_a   5.32786200
_cell_length_b   5.45557900
_cell_length_c   7.74743500
_cell_angle_alpha   90.00000000
_cell_angle_beta   90.00000000
_cell_angle_gamma   90.00000000
_symmetry_Int_Tables_number   1
_chemical_formula_structural   CuNiC3
_chemical_formula_sum   'Cu4 Ni4 C12'
_cell_volume   225.19137757
_cell_formula_units_Z   4
loop_
 _symmetry_equiv_pos_site_id
 _symmetry_equiv_pos_as_xyz
  1  'x, y, z'
loop_
 _atom_site_type_symbol
 _atom_site_label
 _atom_site_symmetry_multiplicity
 _atom_site_fract_x
 _atom_site_fract_y
 _atom_site_fract_z
 _atom_site_occupancy
  Ni  Ni0  1  0.98337600  0.04992100  0.25000000  1
  Ni  Ni1  1  0.48337600  0.45007900  0.75000000  1
  Ni  Ni2  1  0.51662400  0.54992100  0.25000000  1
  Ni  Ni3  1  0.01662400  0.95007900  0.75000000  1
  Cu  Cu4  1  0.50000000  0.00000000  0.00000000  1
  Cu  Cu5  1  0.00000000  0.50000000  0.00000000  1
  Cu  Cu6  1  0.00000000  0.50000000  0.50000000  1
  Cu  Cu7  1  0.50000000  0.00000000  0.50000000  1
  C  C8  1  0.10718900  0.45453500  0.25000000  1
  C  C9  1  0.60719000  0.04546500  0.75000000  1
  C  C10  1  0.39281100  0.95453500  0.25000000  1
  C  C11  1  0.89281000  0.54546500  0.75000000  1
  C  C12  1  0.70380800  0.29411300  0.05870600  1
  C  C13  1  0.20380800  0.20588700  0.94129400  1
  C  C14  1  0.79619200  0.79411300  0.44129400  1
  C  C15  1  0.29619200  0.70588700  0.55870600  1
  C  C16  1  0.29619200  0.70588700  0.94129400  1
  C  C17  1  0.79619200  0.79411300  0.05870600  1
  C  C18  1  0.20380800  0.20588700  0.55870600  1
  C  C19  1  0.70380800  0.29411300  0.44129400  1
