# generated using pymatgen
data_Cu3NiC7
_symmetry_space_group_name_H-M   'P 1'
_cell_length_a   6.65310262
_cell_length_b   6.65310262
_cell_length_c   15.09261633
_cell_angle_alpha   80.85491757
_cell_angle_beta   80.85491757
_cell_angle_gamma   42.72672110
_symmetry_Int_Tables_number   1
_chemical_formula_structural   Cu3NiC7
_chemical_formula_sum   'Cu6 Ni2 C14'
_cell_volume   446.62797840
_cell_formula_units_Z   2
loop_
 _symmetry_equiv_pos_site_id
 _symmetry_equiv_pos_as_xyz
  1  'x, y, z'
loop_
 _atom_site_type_symbol
 _atom_site_label
 _atom_site_symmetry_multiplicity
 _atom_site_fract_x
 _atom_site_fract_y
 _atom_site_fract_z
 _atom_site_occupancy
  C  C0  1  0.00000000  0.00000000  0.50000000  1
  C  C1  1  0.00000000  0.00000000  0.00000000  1
  Ni  Ni2  1  0.63054100  0.36945900  0.75000000  1
  Ni  Ni3  1  0.36945900  0.63054100  0.25000000  1
  Cu  Cu4  1  0.50000000  0.50000000  0.50000000  1
  Cu  Cu5  1  0.50000000  0.50000000  0.00000000  1
  Cu  Cu6  1  0.71318300  0.09337100  0.70933800  1
  Cu  Cu7  1  0.90662900  0.28681700  0.79066200  1
  Cu  Cu8  1  0.28681700  0.90662900  0.29066200  1
  Cu  Cu9  1  0.09337100  0.71318300  0.20933800  1
  C  C10  1  0.36060400  0.02004200  0.61683500  1
  C  C11  1  0.97995800  0.63939600  0.88316500  1
  C  C12  1  0.63939600  0.97995800  0.38316500  1
  C  C13  1  0.02004200  0.36060400  0.11683500  1
  C  C14  1  0.19114900  0.15953800  0.55466100  1
  C  C15  1  0.84046200  0.80885100  0.94533900  1
  C  C16  1  0.80885100  0.84046200  0.44533900  1
  C  C17  1  0.15953800  0.19114900  0.05466100  1
  C  C18  1  0.04084100  0.10395000  0.37085300  1
  C  C19  1  0.89605000  0.95915900  0.12914700  1
  C  C20  1  0.95915900  0.89605100  0.62914700  1
  C  C21  1  0.10395000  0.04084100  0.87085300  1
