# generated using pymatgen
data_CuNiC7
_symmetry_space_group_name_H-M   'P 1'
_cell_length_a   6.13423900
_cell_length_b   7.74393000
_cell_length_c   9.32003100
_cell_angle_alpha   90.00000000
_cell_angle_beta   90.00000000
_cell_angle_gamma   90.00000000
_symmetry_Int_Tables_number   1
_chemical_formula_structural   CuNiC7
_chemical_formula_sum   'Cu4 Ni4 C28'
_cell_volume   442.73052694
_cell_formula_units_Z   4
loop_
 _symmetry_equiv_pos_site_id
 _symmetry_equiv_pos_as_xyz
  1  'x, y, z'
loop_
 _atom_site_type_symbol
 _atom_site_label
 _atom_site_symmetry_multiplicity
 _atom_site_fract_x
 _atom_site_fract_y
 _atom_site_fract_z
 _atom_site_occupancy
  C  C0  1  0.02640000  0.36550600  0.83360500  1
  C  C1  1  0.52640000  0.13449400  0.16639500  1
  C  C2  1  0.97360000  0.86550600  0.66639500  1
  C  C3  1  0.47360000  0.63449400  0.33360500  1
  C  C4  1  0.25708500  0.75837200  0.99372900  1
  C  C5  1  0.75708500  0.74162800  0.00627100  1
  C  C6  1  0.74291500  0.25837200  0.50627100  1
  C  C7  1  0.24291500  0.24162800  0.49372900  1
  Ni  Ni8  1  0.98668800  0.38265200  0.18625000  1
  Ni  Ni9  1  0.48668800  0.11734800  0.81375000  1
  Ni  Ni10  1  0.01331200  0.88265200  0.31375000  1
  Ni  Ni11  1  0.51331200  0.61734800  0.68625000  1
  Cu  Cu12  1  0.98993300  0.00121900  0.98482400  1
  Cu  Cu13  1  0.48993300  0.49878100  0.01517600  1
  Cu  Cu14  1  0.01006700  0.50121900  0.51517600  1
  Cu  Cu15  1  0.51006700  0.99878100  0.48482400  1
  C  C16  1  0.00770900  0.55950900  0.07012500  1
  C  C17  1  0.50770900  0.94049100  0.92987500  1
  C  C18  1  0.99229100  0.05950900  0.42987500  1
  C  C19  1  0.49229100  0.44049100  0.57012500  1
  C  C20  1  0.93447500  0.21216200  0.07252300  1
  C  C21  1  0.43447500  0.28783800  0.92747700  1
  C  C22  1  0.06552500  0.71216200  0.42747700  1
  C  C23  1  0.56552500  0.78783800  0.57252300  1
  C  C24  1  0.26917200  0.64001500  0.77821400  1
  C  C25  1  0.76917200  0.85998500  0.22178600  1
  C  C26  1  0.73082800  0.14001500  0.72178600  1
  C  C27  1  0.23082800  0.35998500  0.27821400  1
  C  C28  1  0.74043000  0.60720700  0.79653700  1
  C  C29  1  0.24043000  0.89279300  0.20346300  1
  C  C30  1  0.25957000  0.10720700  0.70346300  1
  C  C31  1  0.75957000  0.39279300  0.29653700  1
  C  C32  1  0.99694200  0.89099300  0.93263100  1
  C  C33  1  0.49694200  0.60900700  0.06736900  1
  C  C34  1  0.00305800  0.39099300  0.56736900  1
  C  C35  1  0.50305800  0.10900700  0.43263100  1
