# generated using pymatgen
data_Cu5Ni3C
_symmetry_space_group_name_H-M   'P 1'
_cell_length_a   6.36695400
_cell_length_b   7.69934400
_cell_length_c   18.40673300
_cell_angle_alpha   90.00000000
_cell_angle_beta   90.00000000
_cell_angle_gamma   90.00000000
_symmetry_Int_Tables_number   1
_chemical_formula_structural   Cu5Ni3C
_chemical_formula_sum   'Cu20 Ni12 C4'
_cell_volume   902.32325192
_cell_formula_units_Z   4
loop_
 _symmetry_equiv_pos_site_id
 _symmetry_equiv_pos_as_xyz
  1  'x, y, z'
loop_
 _atom_site_type_symbol
 _atom_site_label
 _atom_site_symmetry_multiplicity
 _atom_site_fract_x
 _atom_site_fract_y
 _atom_site_fract_z
 _atom_site_occupancy
  C  C0  1  0.23093100  0.75000000  0.13261000  1
  C  C1  1  0.26906900  0.75000000  0.63261000  1
  C  C2  1  0.76906900  0.25000000  0.86739000  1
  C  C3  1  0.73093100  0.25000000  0.36739000  1
  Ni  Ni4  1  0.45889800  0.75000000  0.84809000  1
  Ni  Ni5  1  0.04110200  0.75000000  0.34809000  1
  Ni  Ni6  1  0.54110200  0.25000000  0.15191000  1
  Ni  Ni7  1  0.95889800  0.25000000  0.65191000  1
  Ni  Ni8  1  0.70722800  0.53747700  0.66528200  1
  Ni  Ni9  1  0.79277200  0.96252300  0.16528200  1
  Ni  Ni10  1  0.29277200  0.03747700  0.33471800  1
  Ni  Ni11  1  0.20722800  0.46252300  0.83471800  1
  Ni  Ni12  1  0.29277200  0.46252300  0.33471800  1
  Ni  Ni13  1  0.20722800  0.03747700  0.83471800  1
  Ni  Ni14  1  0.70722800  0.96252300  0.66528200  1
  Ni  Ni15  1  0.79277200  0.53747700  0.16528200  1
  Cu  Cu16  1  0.21503100  0.75000000  0.01147200  1
  Cu  Cu17  1  0.28496900  0.75000000  0.51147200  1
  Cu  Cu18  1  0.78496900  0.25000000  0.98852800  1
  Cu  Cu19  1  0.71503100  0.25000000  0.48852800  1
  Cu  Cu20  1  0.95147500  0.75000000  0.16305800  1
  Cu  Cu21  1  0.54852500  0.75000000  0.66305800  1
  Cu  Cu22  1  0.04852500  0.25000000  0.83694200  1
  Cu  Cu23  1  0.45147500  0.25000000  0.33694200  1
  Cu  Cu24  1  0.42421500  0.75000000  0.18513800  1
  Cu  Cu25  1  0.07578500  0.75000000  0.68513800  1
  Cu  Cu26  1  0.57578500  0.25000000  0.81486200  1
  Cu  Cu27  1  0.92421500  0.25000000  0.31486200  1
  Cu  Cu28  1  0.26169200  0.88476200  0.05212400  1
  Cu  Cu29  1  0.23830800  0.61523800  0.55212400  1
  Cu  Cu30  1  0.73830800  0.38476200  0.94787600  1
  Cu  Cu31  1  0.76169200  0.11523800  0.44787600  1
  Cu  Cu32  1  0.73830800  0.11523800  0.94787600  1
  Cu  Cu33  1  0.76169200  0.38476200  0.44787600  1
  Cu  Cu34  1  0.26169200  0.61523800  0.05212400  1
  Cu  Cu35  1  0.23830800  0.88476200  0.55212400  1
