# generated using pymatgen
data_Cu4NiC4
_symmetry_space_group_name_H-M   'P 1'
_cell_length_a   9.04691900
_cell_length_b   2.77382100
_cell_length_c   15.19119600
_cell_angle_alpha   90.00000000
_cell_angle_beta   90.00000000
_cell_angle_gamma   90.00000000
_symmetry_Int_Tables_number   1
_chemical_formula_structural   Cu4NiC4
_chemical_formula_sum   'Cu16 Ni4 C16'
_cell_volume   381.21598312
_cell_formula_units_Z   4
loop_
 _symmetry_equiv_pos_site_id
 _symmetry_equiv_pos_as_xyz
  1  'x, y, z'
loop_
 _atom_site_type_symbol
 _atom_site_label
 _atom_site_symmetry_multiplicity
 _atom_site_fract_x
 _atom_site_fract_y
 _atom_site_fract_z
 _atom_site_occupancy
  C  C0  1  0.03933500  0.25000000  0.15598500  1
  C  C1  1  0.53933500  0.25000000  0.34401500  1
  C  C2  1  0.96066500  0.75000000  0.84401500  1
  C  C3  1  0.46066500  0.75000000  0.65598500  1
  C  C4  1  0.85642600  0.25000000  0.03427300  1
  C  C5  1  0.35642600  0.25000000  0.46572700  1
  C  C6  1  0.14357400  0.75000000  0.96572700  1
  C  C7  1  0.64357400  0.75000000  0.53427300  1
  C  C8  1  0.44627000  0.25000000  0.81304900  1
  C  C9  1  0.94627000  0.25000000  0.68695100  1
  C  C10  1  0.55373000  0.75000000  0.18695100  1
  C  C11  1  0.05373000  0.75000000  0.31304900  1
  C  C12  1  0.18836500  0.25000000  0.78413000  1
  C  C13  1  0.68836500  0.25000000  0.71587000  1
  C  C14  1  0.81163500  0.75000000  0.21587000  1
  C  C15  1  0.31163500  0.75000000  0.28413000  1
  Ni  Ni16  1  0.33268400  0.25000000  0.08345300  1
  Ni  Ni17  1  0.83268400  0.25000000  0.41654700  1
  Ni  Ni18  1  0.66731600  0.75000000  0.91654700  1
  Ni  Ni19  1  0.16731600  0.75000000  0.58345300  1
  Cu  Cu20  1  0.66593700  0.25000000  0.24335300  1
  Cu  Cu21  1  0.16593700  0.25000000  0.25664700  1
  Cu  Cu22  1  0.33406300  0.75000000  0.75664700  1
  Cu  Cu23  1  0.83406300  0.75000000  0.74335300  1
  Cu  Cu24  1  0.09313200  0.25000000  0.88888700  1
  Cu  Cu25  1  0.59313200  0.25000000  0.61111300  1
  Cu  Cu26  1  0.90686800  0.75000000  0.11111300  1
  Cu  Cu27  1  0.40686800  0.75000000  0.38888700  1
  Cu  Cu28  1  0.20460300  0.25000000  0.05267800  1
  Cu  Cu29  1  0.70460300  0.25000000  0.44732200  1
  Cu  Cu30  1  0.79539700  0.75000000  0.94732200  1
  Cu  Cu31  1  0.29539700  0.75000000  0.55267800  1
  Cu  Cu32  1  0.45200500  0.25000000  0.12030500  1
  Cu  Cu33  1  0.95200500  0.25000000  0.37969500  1
  Cu  Cu34  1  0.54799500  0.75000000  0.87969500  1
  Cu  Cu35  1  0.04799500  0.75000000  0.62030500  1
