# generated using pymatgen
data_Cu(NiC5)2
_symmetry_space_group_name_H-M   'P 1'
_cell_length_a   11.58994176
_cell_length_b   11.58994176
_cell_length_c   11.58994176
_cell_angle_alpha   144.99246005
_cell_angle_beta   115.98342532
_cell_angle_gamma   75.09674583
_symmetry_Int_Tables_number   1
_chemical_formula_structural   Cu(NiC5)2
_chemical_formula_sum   'Cu4 Ni8 C40'
_cell_volume   787.10279914
_cell_formula_units_Z   4
loop_
 _symmetry_equiv_pos_site_id
 _symmetry_equiv_pos_as_xyz
  1  'x, y, z'
loop_
 _atom_site_type_symbol
 _atom_site_label
 _atom_site_symmetry_multiplicity
 _atom_site_fract_x
 _atom_site_fract_y
 _atom_site_fract_z
 _atom_site_occupancy
  Ni  Ni0  1  0.28682600  0.33625500  0.92981200  1
  Ni  Ni1  1  0.90644300  0.35701400  0.57018800  1
  Ni  Ni2  1  0.59355700  0.16374500  0.45057100  1
  Ni  Ni3  1  0.21317400  0.14298600  0.04942900  1
  Ni  Ni4  1  0.71317400  0.66374500  0.07018800  1
  Ni  Ni5  1  0.09355700  0.64298600  0.42981200  1
  Ni  Ni6  1  0.40644300  0.83625500  0.54942900  1
  Ni  Ni7  1  0.78682600  0.85701400  0.95057100  1
  Cu  Cu8  1  0.32293400  0.75000000  0.07293400  1
  Cu  Cu9  1  0.17706600  0.25000000  0.42706600  1
  Cu  Cu10  1  0.67706600  0.25000000  0.92706600  1
  Cu  Cu11  1  0.82293400  0.75000000  0.57293400  1
  C  C12  1  0.93044800  0.25000000  0.18044800  1
  C  C13  1  0.56955200  0.75000000  0.31955200  1
  C  C14  1  0.06955200  0.75000000  0.81955200  1
  C  C15  1  0.43044800  0.25000000  0.68044800  1
  C  C16  1  0.92719500  0.17719500  0.75000000  1
  C  C17  1  0.57280500  0.32280500  0.25000000  1
  C  C18  1  0.07280500  0.82280500  0.25000000  1
  C  C19  1  0.42719500  0.67719500  0.75000000  1
  C  C20  1  0.93846700  0.19711700  0.27053400  1
  C  C21  1  0.42658400  0.66793400  0.22946600  1
  C  C22  1  0.07341600  0.30288300  0.24135000  1
  C  C23  1  0.56153300  0.83206600  0.25865000  1
  C  C24  1  0.06153300  0.80288300  0.72946600  1
  C  C25  1  0.57341600  0.33206600  0.77053400  1
  C  C26  1  0.92658400  0.69711700  0.75865000  1
  C  C27  1  0.43846700  0.16793400  0.74135000  1
  C  C28  1  0.84340000  0.06819300  0.92758300  1
  C  C29  1  0.64061000  0.91581700  0.57241700  1
  C  C30  1  0.85939000  0.43180700  0.27520800  1
  C  C31  1  0.65660000  0.58418300  0.22479200  1
  C  C32  1  0.15660000  0.93180700  0.07241700  1
  C  C33  1  0.35939000  0.08418300  0.42758300  1
  C  C34  1  0.14061000  0.56819300  0.72479300  1
  C  C35  1  0.34340000  0.41581700  0.77520800  1
  C  C36  1  0.84377500  0.33042000  0.93428200  1
  C  C37  1  0.89613800  0.90949200  0.56571800  1
  C  C38  1  0.60386200  0.16958000  0.01335400  1
  C  C39  1  0.65622500  0.59050800  0.48664600  1
  C  C40  1  0.15622500  0.66958000  0.06571800  1
  C  C41  1  0.10386200  0.09050800  0.43428200  1
  C  C42  1  0.39613800  0.83042000  0.98664600  1
  C  C43  1  0.34377500  0.40949200  0.51335400  1
  C  C44  1  0.86305000  0.18885600  0.58721900  1
  C  C45  1  0.10163600  0.27583100  0.91278100  1
  C  C46  1  0.39836400  0.31114400  0.17419500  1
  C  C47  1  0.63695000  0.22416900  0.32580500  1
  C  C48  1  0.13695000  0.81114400  0.41278100  1
  C  C49  1  0.89836400  0.72416900  0.08721900  1
  C  C50  1  0.60163600  0.68885600  0.82580500  1
  C  C51  1  0.36305000  0.77583100  0.67419500  1
