# generated using pymatgen
data_Cu2Ni3C5
_symmetry_space_group_name_H-M   'P 1'
_cell_length_a   8.61993649
_cell_length_b   8.61993649
_cell_length_c   8.61993649
_cell_angle_alpha   99.57817729
_cell_angle_beta   99.57817729
_cell_angle_gamma   131.85237315
_symmetry_Int_Tables_number   1
_chemical_formula_structural   Cu2Ni3C5
_chemical_formula_sum   'Cu4 Ni6 C10'
_cell_volume   435.58330091
_cell_formula_units_Z   2
loop_
 _symmetry_equiv_pos_site_id
 _symmetry_equiv_pos_as_xyz
  1  'x, y, z'
loop_
 _atom_site_type_symbol
 _atom_site_label
 _atom_site_symmetry_multiplicity
 _atom_site_fract_x
 _atom_site_fract_y
 _atom_site_fract_z
 _atom_site_occupancy
  C  C0  1  0.84832000  0.94798500  0.29850900  1
  C  C1  1  0.75000000  0.25000000  0.50000000  1
  C  C2  1  0.45018900  0.15168000  0.09966500  1
  C  C3  1  0.64947600  0.54981100  0.70149100  1
  C  C4  1  0.54981100  0.84832000  0.90033500  1
  C  C5  1  0.35052400  0.45018900  0.29850900  1
  C  C6  1  0.25000000  0.75000000  0.50000000  1
  C  C7  1  0.15168000  0.05201500  0.70149100  1
  C  C8  1  0.05201500  0.35052400  0.90033500  1
  C  C9  1  0.94798500  0.64947600  0.09966500  1
  Ni  Ni10  1  0.40008500  0.80012900  0.20021400  1
  Ni  Ni11  1  0.80012900  0.59991500  0.40004400  1
  Ni  Ni12  1  0.59991500  0.19987100  0.79978600  1
  Ni  Ni13  1  0.50000000  0.50000000  0.00000000  1
  Ni  Ni14  1  0.19987100  0.40008500  0.59995600  1
  Ni  Ni15  1  0.00000000  0.00000000  0.00000000  1
  Cu  Cu16  1  0.69999200  0.90000800  0.60000000  1
  Cu  Cu17  1  0.90000800  0.30000800  0.20001700  1
  Cu  Cu18  1  0.30000800  0.09999200  0.40000000  1
  Cu  Cu19  1  0.09999200  0.69999200  0.79998300  1
