# generated using pymatgen
data_Cu11NiC10
_symmetry_space_group_name_H-M   'P 1'
_cell_length_a   12.57399844
_cell_length_b   12.57399844
_cell_length_c   6.48701120
_cell_angle_alpha   90.00000000
_cell_angle_beta   90.00000000
_cell_angle_gamma   90.00000000
_symmetry_Int_Tables_number   1
_chemical_formula_structural   Cu11NiC10
_chemical_formula_sum   'Cu44 Ni4 C40'
_cell_volume   1025.63173910
_cell_formula_units_Z   4
loop_
 _symmetry_equiv_pos_site_id
 _symmetry_equiv_pos_as_xyz
  1  'x, y, z'
loop_
 _atom_site_type_symbol
 _atom_site_label
 _atom_site_symmetry_multiplicity
 _atom_site_fract_x
 _atom_site_fract_y
 _atom_site_fract_z
 _atom_site_occupancy
  C  C0  1  0.45219578  0.83020034  0.77334974  1
  C  C1  1  0.54780422  0.16979966  0.27334974  1
  C  C2  1  0.83020034  0.54780422  0.52334974  1
  C  C3  1  0.16979966  0.45219578  0.02334974  1
  Ni  Ni4  1  0.57328054  0.08675444  0.77183345  1
  Ni  Ni5  1  0.42671946  0.91324556  0.27183345  1
  Ni  Ni6  1  0.08675444  0.42671946  0.52183345  1
  Ni  Ni7  1  0.91324556  0.57328054  0.02183345  1
  Cu  Cu8  1  0.14175727  0.88488417  0.83088260  1
  Cu  Cu9  1  0.85824273  0.11511583  0.33088260  1
  Cu  Cu10  1  0.88488417  0.85824273  0.58088260  1
  Cu  Cu11  1  0.11511583  0.14175727  0.08088260  1
  Cu  Cu12  1  0.13889045  0.77231382  0.41837788  1
  Cu  Cu13  1  0.86110955  0.22768618  0.91837788  1
  Cu  Cu14  1  0.77231382  0.86110955  0.16837788  1
  Cu  Cu15  1  0.22768618  0.13889045  0.66837788  1
  Cu  Cu16  1  0.29365395  0.62715285  0.92180590  1
  Cu  Cu17  1  0.70634605  0.37284715  0.42180590  1
  Cu  Cu18  1  0.62715285  0.70634605  0.67180590  1
  Cu  Cu19  1  0.37284715  0.29365395  0.17180590  1
  Cu  Cu20  1  0.33423780  0.60966794  0.44467971  1
  Cu  Cu21  1  0.66576220  0.39033206  0.94467971  1
  Cu  Cu22  1  0.60966794  0.66576220  0.19467971  1
  Cu  Cu23  1  0.39033206  0.33423780  0.69467971  1
  Cu  Cu24  1  0.17330509  0.65742690  0.92102851  1
  Cu  Cu25  1  0.82669491  0.34257310  0.42102851  1
  Cu  Cu26  1  0.65742690  0.82669491  0.67102851  1
  Cu  Cu27  1  0.34257310  0.17330509  0.17102851  1
  Cu  Cu28  1  0.55736421  0.41620718  0.78361546  1
  Cu  Cu29  1  0.44263579  0.58379282  0.28361546  1
  Cu  Cu30  1  0.41620718  0.44263579  0.53361546  1
  Cu  Cu31  1  0.58379282  0.55736421  0.03361546  1
  Cu  Cu32  1  0.72072502  0.86676518  0.11080354  1
  Cu  Cu33  1  0.27927498  0.13323482  0.61080354  1
  Cu  Cu34  1  0.86676518  0.27927498  0.86080354  1
  Cu  Cu35  1  0.13323482  0.72072502  0.36080354  1
  Cu  Cu36  1  0.98518527  0.90427588  0.98165466  1
  Cu  Cu37  1  0.01481473  0.09572412  0.48165466  1
  Cu  Cu38  1  0.90427588  0.01481473  0.73165466  1
  Cu  Cu39  1  0.09572412  0.98518527  0.23165466  1
  Cu  Cu40  1  0.94973815  0.71041305  0.40600034  1
  Cu  Cu41  1  0.05026185  0.28958695  0.90600034  1
  Cu  Cu42  1  0.71041305  0.05026185  0.15600034  1
  Cu  Cu43  1  0.28958695  0.94973815  0.65600034  1
  Cu  Cu44  1  0.28411842  0.64255193  0.44211676  1
  Cu  Cu45  1  0.71588158  0.35744807  0.94211676  1
  Cu  Cu46  1  0.64255193  0.71588158  0.19211676  1
  Cu  Cu47  1  0.35744807  0.28411842  0.69211676  1
  Cu  Cu48  1  0.72600562  0.04457001  0.63431208  1
  Cu  Cu49  1  0.27399438  0.95542999  0.13431208  1
  Cu  Cu50  1  0.04457001  0.27399438  0.38431208  1
  Cu  Cu51  1  0.95542999  0.72600562  0.88431208  1
  C  C52  1  0.51552514  0.98000031  0.77278571  1
  C  C53  1  0.48447486  0.01999969  0.27278571  1
  C  C54  1  0.98000031  0.48447486  0.52278571  1
  C  C55  1  0.01999969  0.51552514  0.02278571  1
  C  C56  1  0.54798252  0.15336955  0.58203511  1
  C  C57  1  0.45201748  0.84663045  0.08203511  1
  C  C58  1  0.15336955  0.45201748  0.33203511  1
  C  C59  1  0.84663045  0.54798252  0.83203511  1
  C  C60  1  0.55928119  0.15067456  0.96972759  1
  C  C61  1  0.44071881  0.84932544  0.46972759  1
  C  C62  1  0.15067456  0.44071881  0.71972759  1
  C  C63  1  0.84932544  0.55928119  0.21972759  1
  C  C64  1  0.60906448  0.77597828  0.73509347  1
  C  C65  1  0.39093552  0.22402172  0.23509347  1
  C  C66  1  0.77597828  0.39093552  0.48509347  1
  C  C67  1  0.22402172  0.60906448  0.98509347  1
  C  C68  1  0.29510444  0.91304776  0.78998975  1
  C  C69  1  0.70489556  0.08695224  0.28998975  1
  C  C70  1  0.91304776  0.70489556  0.53998975  1
  C  C71  1  0.08695224  0.29510444  0.03998975  1
  C  C72  1  0.40184196  0.70988053  0.78921722  1
  C  C73  1  0.59815804  0.29011947  0.28921722  1
  C  C74  1  0.70988053  0.59815804  0.53921722  1
  C  C75  1  0.29011947  0.40184196  0.03921722  1
  C  C76  1  0.16061426  0.20441360  0.03012386  1
  C  C77  1  0.83938574  0.79558640  0.53012386  1
  C  C78  1  0.20441360  0.83938574  0.78012386  1
  C  C79  1  0.79558640  0.16061426  0.28012386  1
  C  C80  1  0.03514843  0.94141088  0.89107836  1
  C  C81  1  0.96485157  0.05858912  0.39107836  1
  C  C82  1  0.94141088  0.96485157  0.64107836  1
  C  C83  1  0.05858912  0.03514843  0.14107836  1
  C  C84  1  0.29898365  0.93932315  0.27338830  1
  C  C85  1  0.70101635  0.06067685  0.77338830  1
  C  C86  1  0.93932315  0.70101635  0.02338830  1
  C  C87  1  0.06067685  0.29898365  0.52338830  1
