# generated using pymatgen
data_Cu(NiC2)3
_symmetry_space_group_name_H-M   'P 1'
_cell_length_a   6.57208100
_cell_length_b   6.35656600
_cell_length_c   11.08223849
_cell_angle_alpha   55.32321670
_cell_angle_beta   90.00000000
_cell_angle_gamma   90.00000000
_symmetry_Int_Tables_number   1
_chemical_formula_structural   Cu(NiC2)3
_chemical_formula_sum   'Cu2 Ni6 C12'
_cell_volume   380.73488809
_cell_formula_units_Z   2
loop_
 _symmetry_equiv_pos_site_id
 _symmetry_equiv_pos_as_xyz
  1  'x, y, z'
loop_
 _atom_site_type_symbol
 _atom_site_label
 _atom_site_symmetry_multiplicity
 _atom_site_fract_x
 _atom_site_fract_y
 _atom_site_fract_z
 _atom_site_occupancy
  Ni  Ni0  1  0.50000000  0.50000000  0.00000000  1
  Ni  Ni1  1  0.00000000  0.50000000  0.50000000  1
  Ni  Ni2  1  0.04931200  0.73504200  0.75304800  1
  Ni  Ni3  1  0.95068800  0.26495800  0.24695200  1
  Ni  Ni4  1  0.54931200  0.26495800  0.74695200  1
  Ni  Ni5  1  0.45068800  0.73504200  0.25304800  1
  Cu  Cu6  1  0.50000000  0.00000000  0.50000000  1
  Cu  Cu7  1  0.00000000  0.00000000  0.00000000  1
  C  C8  1  0.77122200  0.76793400  0.56377700  1
  C  C9  1  0.22877800  0.23206600  0.43622300  1
  C  C10  1  0.27122200  0.23206600  0.93622300  1
  C  C11  1  0.72877800  0.76793400  0.06377700  1
  C  C12  1  0.45092000  0.88210100  0.72238400  1
  C  C13  1  0.54908000  0.11789900  0.27761600  1
  C  C14  1  0.95092000  0.11789900  0.77761600  1
  C  C15  1  0.04908000  0.88210100  0.22238400  1
  C  C16  1  0.32465200  0.67639200  0.54676900  1
  C  C17  1  0.67534800  0.32360800  0.45323100  1
  C  C18  1  0.82465200  0.32360800  0.95323100  1
  C  C19  1  0.17534800  0.67639200  0.04676900  1
