# generated using pymatgen
data_Cu5NiC
_symmetry_space_group_name_H-M   'P 1'
_cell_length_a   6.38159600
_cell_length_b   10.71677600
_cell_length_c   18.87682149
_cell_angle_alpha   69.84871664
_cell_angle_beta   90.00000000
_cell_angle_gamma   90.00000000
_symmetry_Int_Tables_number   1
_chemical_formula_structural   Cu5NiC
_chemical_formula_sum   'Cu40 Ni8 C8'
_cell_volume   1211.96216519
_cell_formula_units_Z   8
loop_
 _symmetry_equiv_pos_site_id
 _symmetry_equiv_pos_as_xyz
  1  'x, y, z'
loop_
 _atom_site_type_symbol
 _atom_site_label
 _atom_site_symmetry_multiplicity
 _atom_site_fract_x
 _atom_site_fract_y
 _atom_site_fract_z
 _atom_site_occupancy
  C  C0  1  0.82063100  0.33845400  0.17177200  1
  C  C1  1  0.17936900  0.66154600  0.82822800  1
  C  C2  1  0.32063100  0.66154600  0.32822800  1
  C  C3  1  0.67936900  0.33845400  0.67177200  1
  C  C4  1  0.60280400  0.83794700  0.17087700  1
  C  C5  1  0.39719600  0.16205300  0.82912300  1
  C  C6  1  0.10280400  0.16205300  0.32912300  1
  C  C7  1  0.89719600  0.83794700  0.67087700  1
  Ni  Ni8  1  0.54397300  0.31482600  0.41936100  1
  Ni  Ni9  1  0.45602700  0.68517400  0.58063900  1
  Ni  Ni10  1  0.04397300  0.68517400  0.08063900  1
  Ni  Ni11  1  0.95602700  0.31482600  0.91936100  1
  Ni  Ni12  1  0.88398000  0.81546800  0.41912000  1
  Ni  Ni13  1  0.11602000  0.18453200  0.58088000  1
  Ni  Ni14  1  0.38398000  0.18453200  0.08088000  1
  Ni  Ni15  1  0.61602000  0.81546800  0.91912000  1
  Cu  Cu16  1  0.96158600  0.27299800  0.10674800  1
  Cu  Cu17  1  0.03841400  0.72700200  0.89325200  1
  Cu  Cu18  1  0.46158600  0.72700200  0.39325200  1
  Cu  Cu19  1  0.53841400  0.27299800  0.60674800  1
  Cu  Cu20  1  0.92761900  0.79262600  0.11854500  1
  Cu  Cu21  1  0.07238100  0.20737400  0.88145500  1
  Cu  Cu22  1  0.42761900  0.20737400  0.38145500  1
  Cu  Cu23  1  0.57238100  0.79262600  0.61854500  1
  Cu  Cu24  1  0.59628200  0.65941300  0.26539300  1
  Cu  Cu25  1  0.40371800  0.34058700  0.73460700  1
  Cu  Cu26  1  0.09628200  0.34058700  0.23460700  1
  Cu  Cu27  1  0.90371800  0.65941300  0.76539300  1
  Cu  Cu28  1  0.76048900  0.92383800  0.21986700  1
  Cu  Cu29  1  0.23951100  0.07616200  0.78013300  1
  Cu  Cu30  1  0.26048900  0.07616200  0.28013300  1
  Cu  Cu31  1  0.73951100  0.92383800  0.71986700  1
  Cu  Cu32  1  0.66089300  0.42237500  0.22135400  1
  Cu  Cu33  1  0.33910700  0.57762500  0.77864600  1
  Cu  Cu34  1  0.16089300  0.57762500  0.27864600  1
  Cu  Cu35  1  0.83910700  0.42237500  0.72135400  1
  Cu  Cu36  1  0.99627500  0.71017600  0.37913100  1
  Cu  Cu37  1  0.00372500  0.28982400  0.62086900  1
  Cu  Cu38  1  0.49627500  0.28982400  0.12086900  1
  Cu  Cu39  1  0.50372500  0.71017600  0.87913100  1
  Cu  Cu40  1  0.32721400  0.84037700  0.23399300  1
  Cu  Cu41  1  0.67278600  0.15962300  0.76600700  1
  Cu  Cu42  1  0.82721400  0.15962300  0.26600700  1
  Cu  Cu43  1  0.17278600  0.84037700  0.73399300  1
  Cu  Cu44  1  0.05352500  0.93604200  0.42463600  1
  Cu  Cu45  1  0.94647500  0.06395800  0.57536400  1
  Cu  Cu46  1  0.55352500  0.06395800  0.07536400  1
  Cu  Cu47  1  0.44647500  0.93604200  0.92463600  1
  Cu  Cu48  1  0.87193500  0.56501700  0.07551200  1
  Cu  Cu49  1  0.12806500  0.43498300  0.92448800  1
  Cu  Cu50  1  0.37193500  0.43498300  0.42448800  1
  Cu  Cu51  1  0.62806500  0.56501700  0.57551200  1
  Cu  Cu52  1  0.46008600  0.77054900  0.10716800  1
  Cu  Cu53  1  0.53991400  0.22945100  0.89283200  1
  Cu  Cu54  1  0.96008600  0.22945100  0.39283200  1
  Cu  Cu55  1  0.03991400  0.77054900  0.60716800  1
