# generated using pymatgen
data_Cu3(NiC)2
_symmetry_space_group_name_H-M   'P 1'
_cell_length_a   8.01363268
_cell_length_b   8.01363268
_cell_length_c   11.47526180
_cell_angle_alpha   54.83927102
_cell_angle_beta   54.83927102
_cell_angle_gamma   29.65908415
_symmetry_Int_Tables_number   1
_chemical_formula_structural   Cu3(NiC)2
_chemical_formula_sum   'Cu6 Ni4 C4'
_cell_volume   292.89126897
_cell_formula_units_Z   2
loop_
 _symmetry_equiv_pos_site_id
 _symmetry_equiv_pos_as_xyz
  1  'x, y, z'
loop_
 _atom_site_type_symbol
 _atom_site_label
 _atom_site_symmetry_multiplicity
 _atom_site_fract_x
 _atom_site_fract_y
 _atom_site_fract_z
 _atom_site_occupancy
  C  C0  1  0.26995800  0.26995800  0.33305100  1
  C  C1  1  0.73004200  0.73004200  0.66694900  1
  C  C2  1  0.39188200  0.39188200  0.95154700  1
  C  C3  1  0.60811800  0.60811800  0.04845300  1
  Ni  Ni4  1  0.04133300  0.04133300  0.68365100  1
  Ni  Ni5  1  0.95866700  0.95866700  0.31634900  1
  Ni  Ni6  1  0.40959700  0.40959700  0.65176000  1
  Ni  Ni7  1  0.59040300  0.59040300  0.34824000  1
  Cu  Cu8  1  0.07222400  0.07222400  0.88110500  1
  Cu  Cu9  1  0.92777600  0.92777600  0.11889500  1
  Cu  Cu10  1  0.15243000  0.15243000  0.20205900  1
  Cu  Cu11  1  0.84757000  0.84757000  0.79794100  1
  Cu  Cu12  1  0.38705300  0.38705300  0.46023900  1
  Cu  Cu13  1  0.61294700  0.61294700  0.53976100  1
