# generated using pymatgen
data_CuNiC8
_symmetry_space_group_name_H-M   'P 1'
_cell_length_a   8.52907384
_cell_length_b   8.54858930
_cell_length_c   8.51723309
_cell_angle_alpha   90.00000000
_cell_angle_beta   90.00000000
_cell_angle_gamma   90.00000000
_symmetry_Int_Tables_number   1
_chemical_formula_structural   CuNiC8
_chemical_formula_sum   'Cu4 Ni4 C32'
_cell_volume   621.00466092
_cell_formula_units_Z   4
loop_
 _symmetry_equiv_pos_site_id
 _symmetry_equiv_pos_as_xyz
  1  'x, y, z'
loop_
 _atom_site_type_symbol
 _atom_site_label
 _atom_site_symmetry_multiplicity
 _atom_site_fract_x
 _atom_site_fract_y
 _atom_site_fract_z
 _atom_site_occupancy
  Ni  Ni0  1  -0.00000000  0.00000000  0.00000000  1
  Ni  Ni1  1  0.50000000  0.50000000  0.50000000  1
  Ni  Ni2  1  0.50000000  0.00000000  0.50000000  1
  Ni  Ni3  1  -0.00000000  0.50000000  0.00000000  1
  Cu  Cu4  1  0.75000000  0.75000000  0.75000000  1
  Cu  Cu5  1  0.25000000  0.25000000  0.75000000  1
  Cu  Cu6  1  0.25000000  0.75000000  0.25000000  1
  Cu  Cu7  1  0.75000000  0.25000000  0.25000000  1
  C  C8  1  -0.00000000  0.50000000  0.50000000  1
  C  C9  1  0.50000000  0.50000000  0.00000000  1
  C  C10  1  0.50000000  0.00000000  0.00000000  1
  C  C11  1  -0.00000000  0.00000000  0.50000000  1
  C  C12  1  0.25000000  0.25000000  0.25000000  1
  C  C13  1  0.75000000  0.75000000  0.25000000  1
  C  C14  1  0.75000000  0.25000000  0.75000000  1
  C  C15  1  0.25000000  0.75000000  0.75000000  1
  C  C16  1  0.02064188  0.23321780  0.25487916  1
  C  C17  1  0.97935812  0.76678220  0.25487916  1
  C  C18  1  0.97935812  0.23321780  0.74512084  1
  C  C19  1  0.02064188  0.76678220  0.74512084  1
  C  C20  1  0.26590866  0.02097759  0.24305173  1
  C  C21  1  0.26590866  0.97902241  0.75694827  1
  C  C22  1  0.73409134  0.97902241  0.24305173  1
  C  C23  1  0.73409134  0.02097759  0.75694827  1
  C  C24  1  0.23018247  0.25561453  0.01972741  1
  C  C25  1  0.76981753  0.25561453  0.98027259  1
  C  C26  1  0.23018247  0.74438547  0.98027259  1
  C  C27  1  0.76981753  0.74438547  0.01972741  1
  C  C28  1  0.47935812  0.26678220  0.24512084  1
  C  C29  1  0.52064188  0.73321780  0.24512084  1
  C  C30  1  0.52064188  0.26678220  0.75487916  1
  C  C31  1  0.47935812  0.73321780  0.75487916  1
  C  C32  1  0.23409134  0.47902241  0.25694827  1
  C  C33  1  0.23409134  0.52097759  0.74305173  1
  C  C34  1  0.76590866  0.52097759  0.25694827  1
  C  C35  1  0.76590866  0.47902241  0.74305173  1
  C  C36  1  0.26981753  0.24438547  0.48027259  1
  C  C37  1  0.73018247  0.24438547  0.51972741  1
  C  C38  1  0.26981753  0.75561453  0.51972741  1
  C  C39  1  0.73018247  0.75561453  0.48027259  1
