# generated using pymatgen
data_Cu2NiC11
_symmetry_space_group_name_H-M   'P 1'
_cell_length_a   10.25540864
_cell_length_b   10.25540864
_cell_length_c   5.17450803
_cell_angle_alpha   84.55349251
_cell_angle_beta   84.55349251
_cell_angle_gamma   150.72787708
_symmetry_Int_Tables_number   1
_chemical_formula_structural   Cu2NiC11
_chemical_formula_sum   'Cu4 Ni2 C22'
_cell_volume   246.61322535
_cell_formula_units_Z   2
loop_
 _symmetry_equiv_pos_site_id
 _symmetry_equiv_pos_as_xyz
  1  'x, y, z'
loop_
 _atom_site_type_symbol
 _atom_site_label
 _atom_site_symmetry_multiplicity
 _atom_site_fract_x
 _atom_site_fract_y
 _atom_site_fract_z
 _atom_site_occupancy
  C  C0  1  0.85734800  0.14265200  0.50000000  1
  C  C1  1  0.28542500  0.71457500  0.50000000  1
  C  C2  1  0.71457500  0.28542500  0.50000000  1
  C  C3  1  0.14265200  0.85734800  0.50000000  1
  C  C4  1  0.57002500  0.42997500  0.50000000  1
  C  C5  1  0.00000000  0.00000000  0.50000000  1
  C  C6  1  0.42997500  0.57002500  0.50000000  1
  C  C7  1  0.50000000  0.50000000  0.00000000  1
  Ni  Ni8  1  0.92776900  0.07223100  0.00000000  1
  Ni  Ni9  1  0.07223100  0.92776900  0.00000000  1
  Cu  Cu10  1  0.35702400  0.64297600  0.00000000  1
  Cu  Cu11  1  0.78544400  0.21455600  0.00000000  1
  Cu  Cu12  1  0.21455600  0.78544400  0.00000000  1
  Cu  Cu13  1  0.64297600  0.35702400  0.00000000  1
  C  C14  1  0.62913400  0.91531200  0.23274200  1
  C  C15  1  0.05912500  0.48868500  0.22463700  1
  C  C16  1  0.48868500  0.05912500  0.22463700  1
  C  C17  1  0.91531200  0.62913400  0.23274200  1
  C  C18  1  0.31957700  0.16831200  0.21255100  1
  C  C19  1  0.78061900  0.78061900  0.23541600  1
  C  C20  1  0.16831200  0.31957700  0.21255100  1
  C  C21  1  0.08468800  0.37086600  0.76725800  1
  C  C22  1  0.51131500  0.94087500  0.77536300  1
  C  C23  1  0.94087500  0.51131500  0.77536300  1
  C  C24  1  0.37086600  0.08468800  0.76725800  1
  C  C25  1  0.83168800  0.68042300  0.78744900  1
  C  C26  1  0.21938100  0.21938100  0.76458400  1
  C  C27  1  0.68042300  0.83168800  0.78744900  1
