# generated using pymatgen
data_Cu2NiC16
_symmetry_space_group_name_H-M   'P 1'
_cell_length_a   10.18000806
_cell_length_b   10.18000806
_cell_length_c   5.14118700
_cell_angle_alpha   90.00000000
_cell_angle_beta   90.00000000
_cell_angle_gamma   90.24708111
_symmetry_Int_Tables_number   1
_chemical_formula_structural   Cu2NiC16
_chemical_formula_sum   'Cu4 Ni2 C32'
_cell_volume   532.78943746
_cell_formula_units_Z   2
loop_
 _symmetry_equiv_pos_site_id
 _symmetry_equiv_pos_as_xyz
  1  'x, y, z'
loop_
 _atom_site_type_symbol
 _atom_site_label
 _atom_site_symmetry_multiplicity
 _atom_site_fract_x
 _atom_site_fract_y
 _atom_site_fract_z
 _atom_site_occupancy
  Ni  Ni0  1  0.50000000  0.50000000  0.50000000  1
  Ni  Ni1  1  0.00000000  0.00000000  0.50000000  1
  Cu  Cu2  1  0.00000000  0.50000000  0.50000000  1
  Cu  Cu3  1  0.50000000  0.00000000  0.50000000  1
  Cu  Cu4  1  0.75000000  0.75000000  0.50000000  1
  Cu  Cu5  1  0.25000000  0.25000000  0.50000000  1
  C  C6  1  0.75144500  0.02296800  0.99852300  1
  C  C7  1  0.24855500  0.97703200  0.00147700  1
  C  C8  1  0.25144500  0.52296800  0.00147700  1
  C  C9  1  0.74855500  0.47703200  0.99852300  1
  C  C10  1  0.02296800  0.75144500  0.00147700  1
  C  C11  1  0.97703200  0.24855500  0.99852300  1
  C  C12  1  0.52296800  0.25144500  0.99852300  1
  C  C13  1  0.47703200  0.74855500  0.00147700  1
  C  C14  1  0.87071200  0.12928800  0.15672300  1
  C  C15  1  0.37375200  0.87375200  0.15898100  1
  C  C16  1  0.12624800  0.62624800  0.15898100  1
  C  C17  1  0.62928800  0.37071200  0.15672300  1
  C  C18  1  0.12928800  0.87071200  0.84327700  1
  C  C19  1  0.62624800  0.12624800  0.84101900  1
  C  C20  1  0.87375200  0.37375200  0.84101900  1
  C  C21  1  0.37071200  0.62928800  0.84327700  1
  C  C22  1  0.56371500  0.67709400  0.25520600  1
  C  C23  1  0.05867600  0.32618600  0.25519000  1
  C  C24  1  0.44132400  0.17381400  0.25519000  1
  C  C25  1  0.93628400  0.82290600  0.25520600  1
  C  C26  1  0.43628400  0.32290600  0.74479400  1
  C  C27  1  0.94132400  0.67381400  0.74481000  1
  C  C28  1  0.55867600  0.82618600  0.74481000  1
  C  C29  1  0.06371600  0.17709400  0.74479400  1
  C  C30  1  0.67709400  0.56371500  0.74479400  1
  C  C31  1  0.32618600  0.05867600  0.74481000  1
  C  C32  1  0.17381400  0.44132400  0.74481000  1
  C  C33  1  0.82290600  0.93628400  0.74479400  1
  C  C34  1  0.32290600  0.43628400  0.25520600  1
  C  C35  1  0.67381400  0.94132400  0.25519000  1
  C  C36  1  0.82618600  0.55867600  0.25519000  1
  C  C37  1  0.17709400  0.06371600  0.25520600  1
