# generated using pymatgen
data_Cu5NiC4
_symmetry_space_group_name_H-M   'P 1'
_cell_length_a   6.69431400
_cell_length_b   14.26809188
_cell_length_c   11.64394520
_cell_angle_alpha   106.34027802
_cell_angle_beta   90.00000000
_cell_angle_gamma   90.00000000
_symmetry_Int_Tables_number   1
_chemical_formula_structural   Cu5NiC4
_chemical_formula_sum   'Cu40 Ni8 C32'
_cell_volume   1067.24929458
_cell_formula_units_Z   8
loop_
 _symmetry_equiv_pos_site_id
 _symmetry_equiv_pos_as_xyz
  1  'x, y, z'
loop_
 _atom_site_type_symbol
 _atom_site_label
 _atom_site_symmetry_multiplicity
 _atom_site_fract_x
 _atom_site_fract_y
 _atom_site_fract_z
 _atom_site_occupancy
  C  C0  1  0.00000000  0.50000000  0.50000000  1
  C  C1  1  0.50000000  0.50000000  0.00000000  1
  C  C2  1  0.00000000  0.00000000  0.00000000  1
  C  C3  1  0.50000000  0.00000000  0.50000000  1
  C  C4  1  0.75070500  0.39697700  0.86548200  1
  C  C5  1  0.24929500  0.60302300  0.13451800  1
  C  C6  1  0.25070500  0.60302300  0.63451800  1
  C  C7  1  0.74929500  0.39697700  0.36548200  1
  C  C8  1  0.79832200  0.63459800  0.62812600  1
  C  C9  1  0.20167800  0.36540200  0.37187400  1
  C  C10  1  0.29832200  0.36540200  0.87187400  1
  C  C11  1  0.70167800  0.63459800  0.12812600  1
  C  C12  1  0.84047000  0.96795700  0.56791500  1
  C  C13  1  0.15953000  0.03204300  0.43208500  1
  C  C14  1  0.34047000  0.03204300  0.93208500  1
  C  C15  1  0.65953000  0.96795700  0.06791500  1
  C  C16  1  0.51551000  0.57083200  0.82707500  1
  C  C17  1  0.48449000  0.42916800  0.17292500  1
  C  C18  1  0.01551000  0.42916800  0.67292500  1
  C  C19  1  0.98449000  0.57083200  0.32707500  1
  C  C20  1  0.78275100  0.85871100  0.90009900  1
  C  C21  1  0.21724900  0.14128900  0.09990100  1
  C  C22  1  0.28275100  0.14128900  0.59990100  1
  C  C23  1  0.71724900  0.85871100  0.40009900  1
  C  C24  1  0.42595600  0.89603900  0.63403700  1
  C  C25  1  0.57404400  0.10396100  0.36596300  1
  C  C26  1  0.92595600  0.10396100  0.86596300  1
  C  C27  1  0.07404400  0.89603900  0.13403700  1
  C  C28  1  0.49708800  0.75017800  0.76575000  1
  C  C29  1  0.50291200  0.24982200  0.23425000  1
  C  C30  1  0.99708800  0.24982200  0.73425000  1
  C  C31  1  0.00291200  0.75017800  0.26575000  1
  Ni  Ni32  1  0.98388400  0.85105300  0.65365400  1
  Ni  Ni33  1  0.01611600  0.14894700  0.34634600  1
  Ni  Ni34  1  0.48388400  0.14894700  0.84634600  1
  Ni  Ni35  1  0.51611600  0.85105300  0.15365400  1
  Ni  Ni36  1  0.00178000  0.64802100  0.90640300  1
  Ni  Ni37  1  0.99822000  0.35197900  0.09359700  1
  Ni  Ni38  1  0.50178000  0.35197900  0.59359700  1
  Ni  Ni39  1  0.49822000  0.64802100  0.40640300  1
  Cu  Cu40  1  0.93026000  0.86764800  0.91138400  1
  Cu  Cu41  1  0.06974000  0.13235200  0.08861600  1
  Cu  Cu42  1  0.43026000  0.13235200  0.58861600  1
  Cu  Cu43  1  0.56974000  0.86764800  0.41138400  1
  Cu  Cu44  1  0.78372400  0.28050000  0.75120600  1
  Cu  Cu45  1  0.21627600  0.71950000  0.24879400  1
  Cu  Cu46  1  0.28372400  0.71950000  0.74879400  1
  Cu  Cu47  1  0.71627600  0.28050000  0.25120600  1
  Cu  Cu48  1  0.76482000  0.45651200  0.93508500  1
  Cu  Cu49  1  0.23518000  0.54348800  0.06491500  1
  Cu  Cu50  1  0.26482000  0.54348800  0.56491500  1
  Cu  Cu51  1  0.73518000  0.45651200  0.43508500  1
  Cu  Cu52  1  0.62508000  0.66357300  0.75839800  1
  Cu  Cu53  1  0.37492000  0.33642700  0.24160200  1
  Cu  Cu54  1  0.12508000  0.33642700  0.74160200  1
  Cu  Cu55  1  0.87492000  0.66357300  0.25839800  1
  Cu  Cu56  1  0.23845100  0.98252500  0.89816700  1
  Cu  Cu57  1  0.76154900  0.01747500  0.10183300  1
  Cu  Cu58  1  0.73845100  0.01747500  0.60183300  1
  Cu  Cu59  1  0.26154900  0.98252500  0.39816700  1
  Cu  Cu60  1  0.91914400  0.47306100  0.64837200  1
  Cu  Cu61  1  0.08085600  0.52693900  0.35162800  1
  Cu  Cu62  1  0.41914400  0.52693900  0.85162800  1
  Cu  Cu63  1  0.58085600  0.47306100  0.14837200  1
  Cu  Cu64  1  0.54466800  0.79335500  0.66575700  1
  Cu  Cu65  1  0.45533200  0.20664500  0.33424300  1
  Cu  Cu66  1  0.04466800  0.20664500  0.83424300  1
  Cu  Cu67  1  0.95533200  0.79335500  0.16575700  1
  Cu  Cu68  1  0.53142000  0.82541800  0.88086400  1
  Cu  Cu69  1  0.46858000  0.17458200  0.11913600  1
  Cu  Cu70  1  0.03142000  0.17458200  0.61913600  1
  Cu  Cu71  1  0.96858000  0.82541800  0.38086400  1
  Cu  Cu72  1  0.89499200  0.63113800  0.56198400  1
  Cu  Cu73  1  0.10500800  0.36886200  0.43801600  1
  Cu  Cu74  1  0.39499200  0.36886200  0.93801600  1
  Cu  Cu75  1  0.60500800  0.63113800  0.06198400  1
  Cu  Cu76  1  0.35230500  0.95128300  0.61602400  1
  Cu  Cu77  1  0.64769500  0.04871700  0.38397600  1
  Cu  Cu78  1  0.85230500  0.04871700  0.88397600  1
  Cu  Cu79  1  0.14769500  0.95128300  0.11602400  1
