# generated using pymatgen
data_Cu6Ni2C9
_symmetry_space_group_name_H-M   'P 1'
_cell_length_a   16.54406530
_cell_length_b   16.54406530
_cell_length_c   16.54406530
_cell_angle_alpha   60.00000000
_cell_angle_beta   60.00000000
_cell_angle_gamma   60.00000000
_symmetry_Int_Tables_number   1
_chemical_formula_structural   Cu6Ni2C9
_chemical_formula_sum   'Cu48 Ni16 C72'
_cell_volume   3201.92908209
_cell_formula_units_Z   8
loop_
 _symmetry_equiv_pos_site_id
 _symmetry_equiv_pos_as_xyz
  1  'x, y, z'
loop_
 _atom_site_type_symbol
 _atom_site_label
 _atom_site_symmetry_multiplicity
 _atom_site_fract_x
 _atom_site_fract_y
 _atom_site_fract_z
 _atom_site_occupancy
  C  C0  1  0.50000000  0.00000000  0.50000000  1
  C  C1  1  0.50000000  0.50000000  -0.00000000  1
  C  C2  1  0.00000000  0.50000000  0.50000000  1
  C  C3  1  0.50000000  0.50000000  0.50000000  1
  C  C4  1  0.00000000  0.50000000  -0.00000000  1
  C  C5  1  0.50000000  0.00000000  -0.00000000  1
  C  C6  1  0.00000000  0.00000000  0.50000000  1
  C  C7  1  0.00000000  0.00000000  -0.00000000  1
  C  C8  1  0.71071994  0.04035260  0.09671238  1
  C  C9  1  0.65221508  0.09671238  0.04035260  1
  C  C10  1  0.04035260  0.71071994  0.65221508  1
  C  C11  1  0.09671238  0.65221508  0.71071994  1
  C  C12  1  0.04035260  0.09671238  0.71071994  1
  C  C13  1  0.09671238  0.04035260  0.65221508  1
  C  C14  1  0.71071994  0.65221508  0.04035260  1
  C  C15  1  0.65221508  0.71071994  0.09671238  1
  C  C16  1  0.09671238  0.71071994  0.04035260  1
  C  C17  1  0.04035260  0.65221508  0.09671238  1
  C  C18  1  0.65221508  0.04035260  0.71071994  1
  C  C19  1  0.71071994  0.09671238  0.65221508  1
  C  C20  1  0.28928006  0.95964740  0.90328762  1
  C  C21  1  0.34778492  0.90328762  0.95964740  1
  C  C22  1  0.95964740  0.28928006  0.34778492  1
  C  C23  1  0.90328762  0.34778492  0.28928006  1
  C  C24  1  0.95964740  0.90328762  0.28928006  1
  C  C25  1  0.90328762  0.95964740  0.34778492  1
  C  C26  1  0.28928006  0.34778492  0.95964740  1
  C  C27  1  0.34778492  0.28928006  0.90328762  1
  C  C28  1  0.90328762  0.28928006  0.95964740  1
  C  C29  1  0.95964740  0.34778492  0.90328762  1
  C  C30  1  0.34778492  0.95964740  0.28928006  1
  C  C31  1  0.28928006  0.90328762  0.34778492  1
  C  C32  1  0.59671238  0.54035260  0.21071994  1
  C  C33  1  0.54035260  0.59671238  0.15221508  1
  C  C34  1  0.15221508  0.21071994  0.54035260  1
  C  C35  1  0.21071994  0.15221508  0.59671238  1
  C  C36  1  0.21071994  0.59671238  0.54035260  1
  C  C37  1  0.15221508  0.54035260  0.59671238  1
  C  C38  1  0.54035260  0.15221508  0.21071994  1
  C  C39  1  0.59671238  0.21071994  0.15221508  1
  C  C40  1  0.54035260  0.21071994  0.59671238  1
  C  C41  1  0.59671238  0.15221508  0.54035260  1
  C  C42  1  0.21071994  0.54035260  0.15221508  1
  C  C43  1  0.15221508  0.59671238  0.21071994  1
  C  C44  1  0.40328762  0.45964740  0.78928006  1
  C  C45  1  0.45964740  0.40328762  0.84778492  1
  C  C46  1  0.84778492  0.78928006  0.45964740  1
  C  C47  1  0.78928006  0.84778492  0.40328762  1
  C  C48  1  0.78928006  0.40328762  0.45964740  1
  C  C49  1  0.84778492  0.45964740  0.40328762  1
  C  C50  1  0.45964740  0.84778492  0.78928006  1
  C  C51  1  0.40328762  0.78928006  0.84778492  1
  C  C52  1  0.45964740  0.78928006  0.40328762  1
  C  C53  1  0.40328762  0.84778492  0.45964740  1
  C  C54  1  0.78928006  0.45964740  0.84778492  1
  C  C55  1  0.84778492  0.40328762  0.78928006  1
  C  C56  1  0.33998352  0.48004944  0.33998352  1
  C  C57  1  0.33998352  0.33998352  0.48004944  1
  C  C58  1  0.48004944  0.33998352  0.33998352  1
  C  C59  1  0.33998352  0.33998352  0.33998352  1
  C  C60  1  0.66001648  0.51995056  0.66001648  1
  C  C61  1  0.66001648  0.66001648  0.51995056  1
  C  C62  1  0.51995056  0.66001648  0.66001648  1
  C  C63  1  0.66001648  0.66001648  0.66001648  1
  C  C64  1  0.83998352  0.98004944  0.83998352  1
  C  C65  1  0.98004944  0.83998352  0.83998352  1
  C  C66  1  0.83998352  0.83998352  0.98004944  1
  C  C67  1  0.83998352  0.83998352  0.83998352  1
  C  C68  1  0.16001648  0.01995056  0.16001648  1
  C  C69  1  0.01995056  0.16001648  0.16001648  1
  C  C70  1  0.16001648  0.16001648  0.01995056  1
  C  C71  1  0.16001648  0.16001648  0.16001648  1
  Ni  Ni72  1  0.37500000  0.37500000  0.37500000  1
  Ni  Ni73  1  0.62500000  0.62500000  0.62500000  1
  Ni  Ni74  1  0.87500000  0.87500000  0.87500000  1
  Ni  Ni75  1  0.12500000  0.12500000  0.12500000  1
  Ni  Ni76  1  0.62500000  0.12500000  0.12500000  1
  Ni  Ni77  1  0.12500000  0.62500000  0.62500000  1
  Ni  Ni78  1  0.12500000  0.12500000  0.62500000  1
  Ni  Ni79  1  0.62500000  0.62500000  0.12500000  1
  Ni  Ni80  1  0.12500000  0.62500000  0.12500000  1
  Ni  Ni81  1  0.62500000  0.12500000  0.62500000  1
  Ni  Ni82  1  0.37500000  0.87500000  0.87500000  1
  Ni  Ni83  1  0.87500000  0.37500000  0.37500000  1
  Ni  Ni84  1  0.87500000  0.87500000  0.37500000  1
  Ni  Ni85  1  0.37500000  0.37500000  0.87500000  1
  Ni  Ni86  1  0.87500000  0.37500000  0.87500000  1
  Ni  Ni87  1  0.37500000  0.87500000  0.37500000  1
  Cu  Cu88  1  0.32347227  0.09691733  0.60653467  1
  Cu  Cu89  1  0.47307572  0.60653467  0.09691733  1
  Cu  Cu90  1  0.09691733  0.32347227  0.47307572  1
  Cu  Cu91  1  0.60653467  0.47307572  0.32347227  1
  Cu  Cu92  1  0.09691733  0.60653467  0.32347227  1
  Cu  Cu93  1  0.60653467  0.09691733  0.47307572  1
  Cu  Cu94  1  0.32347227  0.47307572  0.09691733  1
  Cu  Cu95  1  0.47307572  0.32347227  0.60653467  1
  Cu  Cu96  1  0.60653467  0.32347227  0.09691733  1
  Cu  Cu97  1  0.09691733  0.47307572  0.60653467  1
  Cu  Cu98  1  0.47307572  0.09691733  0.32347227  1
  Cu  Cu99  1  0.32347227  0.60653467  0.47307572  1
  Cu  Cu100  1  0.67652773  0.90308267  0.39346533  1
  Cu  Cu101  1  0.52692428  0.39346533  0.90308267  1
  Cu  Cu102  1  0.90308267  0.67652773  0.52692428  1
  Cu  Cu103  1  0.39346533  0.52692428  0.67652773  1
  Cu  Cu104  1  0.90308267  0.39346533  0.67652773  1
  Cu  Cu105  1  0.39346533  0.90308267  0.52692428  1
  Cu  Cu106  1  0.67652773  0.52692428  0.90308267  1
  Cu  Cu107  1  0.52692428  0.67652773  0.39346533  1
  Cu  Cu108  1  0.39346533  0.67652773  0.90308267  1
  Cu  Cu109  1  0.90308267  0.52692428  0.39346533  1
  Cu  Cu110  1  0.52692428  0.90308267  0.67652773  1
  Cu  Cu111  1  0.67652773  0.39346533  0.52692428  1
  Cu  Cu112  1  0.10653467  0.59691733  0.82347227  1
  Cu  Cu113  1  0.59691733  0.10653467  0.97307572  1
  Cu  Cu114  1  0.97307572  0.82347227  0.59691733  1
  Cu  Cu115  1  0.82347227  0.97307572  0.10653467  1
  Cu  Cu116  1  0.82347227  0.10653467  0.59691733  1
  Cu  Cu117  1  0.97307572  0.59691733  0.10653467  1
  Cu  Cu118  1  0.59691733  0.97307572  0.82347227  1
  Cu  Cu119  1  0.10653467  0.82347227  0.97307572  1
  Cu  Cu120  1  0.59691733  0.82347227  0.10653467  1
  Cu  Cu121  1  0.10653467  0.97307572  0.59691733  1
  Cu  Cu122  1  0.82347227  0.59691733  0.97307572  1
  Cu  Cu123  1  0.97307572  0.10653467  0.82347227  1
  Cu  Cu124  1  0.89346533  0.40308267  0.17652773  1
  Cu  Cu125  1  0.40308267  0.89346533  0.02692428  1
  Cu  Cu126  1  0.02692428  0.17652773  0.40308267  1
  Cu  Cu127  1  0.17652773  0.02692428  0.89346533  1
  Cu  Cu128  1  0.17652773  0.89346533  0.40308267  1
  Cu  Cu129  1  0.02692428  0.40308267  0.89346533  1
  Cu  Cu130  1  0.40308267  0.02692428  0.17652773  1
  Cu  Cu131  1  0.89346533  0.17652773  0.02692428  1
  Cu  Cu132  1  0.40308267  0.17652773  0.89346533  1
  Cu  Cu133  1  0.89346533  0.02692428  0.40308267  1
  Cu  Cu134  1  0.17652773  0.40308267  0.02692428  1
  Cu  Cu135  1  0.02692428  0.89346533  0.17652773  1
