# generated using pymatgen
data_CuNi13C6
_symmetry_space_group_name_H-M   'P 1'
_cell_length_a   12.76427183
_cell_length_b   12.76427183
_cell_length_c   12.76427183
_cell_angle_alpha   143.31321434
_cell_angle_beta   143.31321434
_cell_angle_gamma   52.85552556
_symmetry_Int_Tables_number   1
_chemical_formula_structural   CuNi13C6
_chemical_formula_sum   'Cu2 Ni26 C12'
_cell_volume   737.79695009
_cell_formula_units_Z   2
loop_
 _symmetry_equiv_pos_site_id
 _symmetry_equiv_pos_as_xyz
  1  'x, y, z'
loop_
 _atom_site_type_symbol
 _atom_site_label
 _atom_site_symmetry_multiplicity
 _atom_site_fract_x
 _atom_site_fract_y
 _atom_site_fract_z
 _atom_site_occupancy
  C  C0  1  0.60801400  0.60801400  0.00000000  1
  C  C1  1  0.10801400  0.10801400  0.00000000  1
  C  C2  1  0.39198600  0.39198600  0.00000000  1
  C  C3  1  0.89198600  0.89198600  0.00000000  1
  C  C4  1  0.47695100  0.97695100  0.82880600  1
  C  C5  1  0.14814500  0.64814500  0.17119400  1
  C  C6  1  0.97695100  0.14814500  0.50000000  1
  C  C7  1  0.64814500  0.47695100  0.50000000  1
  C  C8  1  0.52304900  0.02304900  0.17119400  1
  C  C9  1  0.85185500  0.35185500  0.82880600  1
  C  C10  1  0.02304900  0.85185500  0.50000000  1
  C  C11  1  0.35185500  0.52304900  0.50000000  1
  Ni  Ni12  1  0.50000000  0.00000000  0.50000000  1
  Ni  Ni13  1  0.00000000  0.50000000  0.50000000  1
  Ni  Ni14  1  0.56754600  0.71056600  0.27811100  1
  Ni  Ni15  1  0.43245400  0.28943400  0.72188900  1
  Ni  Ni16  1  0.06754600  0.78943400  0.85698000  1
  Ni  Ni17  1  0.93245400  0.21056600  0.14302000  1
  Ni  Ni18  1  0.28943400  0.56754600  0.85698000  1
  Ni  Ni19  1  0.71056600  0.43245400  0.14302000  1
  Ni  Ni20  1  0.21056600  0.06754600  0.27811100  1
  Ni  Ni21  1  0.78943400  0.93245400  0.72188900  1
  Ni  Ni22  1  0.61920600  0.11920600  0.85756000  1
  Ni  Ni23  1  0.26164600  0.76164600  0.14244000  1
  Ni  Ni24  1  0.11920600  0.26164600  0.50000000  1
  Ni  Ni25  1  0.76164600  0.61920600  0.50000000  1
  Ni  Ni26  1  0.38079400  0.88079400  0.14244000  1
  Ni  Ni27  1  0.73835400  0.23835400  0.85756000  1
  Ni  Ni28  1  0.88079400  0.73835400  0.50000000  1
  Ni  Ni29  1  0.23835400  0.38079400  0.50000000  1
  Ni  Ni30  1  0.79038000  0.29038000  0.27227400  1
  Ni  Ni31  1  0.01810600  0.51810600  0.72772600  1
  Ni  Ni32  1  0.29038000  0.01810600  0.50000000  1
  Ni  Ni33  1  0.51810600  0.79038000  0.50000000  1
  Ni  Ni34  1  0.20962000  0.70962000  0.72772600  1
  Ni  Ni35  1  0.98189400  0.48189400  0.27227400  1
  Ni  Ni36  1  0.70962000  0.98189400  0.50000000  1
  Ni  Ni37  1  0.48189400  0.20962000  0.50000000  1
  Cu  Cu38  1  0.25000000  0.25000000  0.00000000  1
  Cu  Cu39  1  0.75000000  0.75000000  0.00000000  1
