# generated using pymatgen
data_Cu4Ni2C7
_symmetry_space_group_name_H-M   'P 1'
_cell_length_a   7.53949608
_cell_length_b   7.53949608
_cell_length_c   15.76275000
_cell_angle_alpha   90.00000000
_cell_angle_beta   90.00000000
_cell_angle_gamma   94.79173480
_symmetry_Int_Tables_number   1
_chemical_formula_structural   Cu4Ni2C7
_chemical_formula_sum   'Cu16 Ni8 C28'
_cell_volume   892.88612501
_cell_formula_units_Z   4
loop_
 _symmetry_equiv_pos_site_id
 _symmetry_equiv_pos_as_xyz
  1  'x, y, z'
loop_
 _atom_site_type_symbol
 _atom_site_label
 _atom_site_symmetry_multiplicity
 _atom_site_fract_x
 _atom_site_fract_y
 _atom_site_fract_z
 _atom_site_occupancy
  Ni  Ni0  1  0.60910800  0.36364200  0.75459600  1
  Ni  Ni1  1  0.36364200  0.60910800  0.24540400  1
  Ni  Ni2  1  0.10910800  0.86364200  0.74540400  1
  Ni  Ni3  1  0.86364200  0.10910800  0.25459600  1
  Ni  Ni4  1  0.59708800  0.37308800  0.00796000  1
  Ni  Ni5  1  0.37308800  0.59708800  0.99204000  1
  Ni  Ni6  1  0.09708800  0.87308800  0.49204000  1
  Ni  Ni7  1  0.87308800  0.09708800  0.50796000  1
  Cu  Cu8  1  0.77317700  0.68081200  0.88221700  1
  Cu  Cu9  1  0.68081200  0.77317700  0.11778300  1
  Cu  Cu10  1  0.27317700  0.18081200  0.61778300  1
  Cu  Cu11  1  0.18081200  0.27317700  0.38221700  1
  Cu  Cu12  1  0.42083500  0.02456000  0.87641200  1
  Cu  Cu13  1  0.02456000  0.42083500  0.12358800  1
  Cu  Cu14  1  0.92083500  0.52456000  0.62358800  1
  Cu  Cu15  1  0.52456000  0.92083500  0.37641200  1
  Cu  Cu16  1  0.76834200  0.01845000  0.69995900  1
  Cu  Cu17  1  0.01845000  0.76834200  0.30004100  1
  Cu  Cu18  1  0.26834200  0.51845000  0.80004100  1
  Cu  Cu19  1  0.51845000  0.26834200  0.19995900  1
  Cu  Cu20  1  0.90346000  0.15142600  0.91798700  1
  Cu  Cu21  1  0.15142600  0.90346000  0.08201300  1
  Cu  Cu22  1  0.40346000  0.65142600  0.58201300  1
  Cu  Cu23  1  0.65142600  0.40346000  0.41798700  1
  C  C24  1  0.46998700  0.23049800  0.75861400  1
  C  C25  1  0.23049800  0.46998700  0.24138600  1
  C  C26  1  0.96998700  0.73049800  0.74138600  1
  C  C27  1  0.73049800  0.96998700  0.25861400  1
  C  C28  1  0.70837000  0.96275000  0.84092300  1
  C  C29  1  0.96275000  0.70837000  0.15907700  1
  C  C30  1  0.20837000  0.46275000  0.65907700  1
  C  C31  1  0.46275000  0.20837000  0.34092300  1
  C  C32  1  0.48051400  0.71812500  0.94614000  1
  C  C33  1  0.71812500  0.48051400  0.05386000  1
  C  C34  1  0.98051400  0.21812500  0.55386000  1
  C  C35  1  0.21812500  0.98051400  0.44614000  1
  C  C36  1  0.78215600  0.32215300  0.73772300  1
  C  C37  1  0.32215300  0.78215600  0.26227700  1
  C  C38  1  0.28215600  0.82215300  0.76227700  1
  C  C39  1  0.82215300  0.28215600  0.23772300  1
  C  C40  1  0.07086300  0.04046300  0.73429400  1
  C  C41  1  0.04046300  0.07086300  0.26570600  1
  C  C42  1  0.57086300  0.54046300  0.76570600  1
  C  C43  1  0.54046300  0.57086300  0.23429400  1
  C  C44  1  0.91022800  0.91022800  0.00000000  1
  C  C45  1  0.41022800  0.41022800  0.50000000  1
  C  C46  1  0.63579400  0.21744700  0.97017500  1
  C  C47  1  0.21744700  0.63579400  0.02982500  1
  C  C48  1  0.13579400  0.71744700  0.52982500  1
  C  C49  1  0.71744700  0.13579400  0.47017500  1
  C  C50  1  0.41906200  0.41906200  0.00000000  1
  C  C51  1  0.91906200  0.91906200  0.50000000  1
