# generated using pymatgen
data_Cu3NiC6
_symmetry_space_group_name_H-M   'P 1'
_cell_length_a   3.69927300
_cell_length_b   10.50610000
_cell_length_c   10.39104600
_cell_angle_alpha   90.00000000
_cell_angle_beta   90.00000000
_cell_angle_gamma   90.00000000
_symmetry_Int_Tables_number   1
_chemical_formula_structural   Cu3NiC6
_chemical_formula_sum   'Cu6 Ni2 C12'
_cell_volume   403.84729688
_cell_formula_units_Z   2
loop_
 _symmetry_equiv_pos_site_id
 _symmetry_equiv_pos_as_xyz
  1  'x, y, z'
loop_
 _atom_site_type_symbol
 _atom_site_label
 _atom_site_symmetry_multiplicity
 _atom_site_fract_x
 _atom_site_fract_y
 _atom_site_fract_z
 _atom_site_occupancy
  Ni  Ni0  1  0.75000000  0.47281800  0.69257700  1
  Ni  Ni1  1  0.75000000  0.02718200  0.19257700  1
  Cu  Cu2  1  0.25000000  0.50789400  0.31104000  1
  Cu  Cu3  1  0.25000000  0.99210600  0.81104100  1
  Cu  Cu4  1  0.25000000  0.17887900  0.48525900  1
  Cu  Cu5  1  0.25000000  0.32112100  0.98525900  1
  Cu  Cu6  1  0.75000000  0.81427400  0.51155000  1
  Cu  Cu7  1  0.75000000  0.68572600  0.01155000  1
  C  C8  1  0.25000000  0.29387900  0.72420000  1
  C  C9  1  0.25000000  0.20612100  0.22420000  1
  C  C10  1  0.75000000  0.69661900  0.27762300  1
  C  C11  1  0.75000000  0.80338100  0.77762300  1
  C  C12  1  0.25000000  0.62246800  0.55857800  1
  C  C13  1  0.25000000  0.87753200  0.05857800  1
  C  C14  1  0.75000000  0.37088800  0.45180000  1
  C  C15  1  0.75000000  0.12911200  0.95180000  1
  C  C16  1  0.75000000  0.05365200  0.62363900  1
  C  C17  1  0.75000000  0.44634800  0.12363900  1
  C  C18  1  0.25000000  0.94644900  0.36373200  1
  C  C19  1  0.25000000  0.55355100  0.86373200  1
