# generated using pymatgen
data_CuNiC4
_symmetry_space_group_name_H-M   'P 1'
_cell_length_a   9.78160682
_cell_length_b   9.78160682
_cell_length_c   9.78160682
_cell_angle_alpha   60.00000000
_cell_angle_beta   60.00000000
_cell_angle_gamma   60.00000000
_symmetry_Int_Tables_number   1
_chemical_formula_structural   CuNiC4
_chemical_formula_sum   'Cu4 Ni4 C16'
_cell_volume   661.78300123
_cell_formula_units_Z   4
loop_
 _symmetry_equiv_pos_site_id
 _symmetry_equiv_pos_as_xyz
  1  'x, y, z'
loop_
 _atom_site_type_symbol
 _atom_site_label
 _atom_site_symmetry_multiplicity
 _atom_site_fract_x
 _atom_site_fract_y
 _atom_site_fract_z
 _atom_site_occupancy
  C  C0  1  0.93927454  0.56072546  0.56072546  1
  C  C1  1  0.93927454  0.56072546  0.93927454  1
  C  C2  1  0.93927454  0.93927454  0.56072546  1
  C  C3  1  0.56072546  0.93927454  0.93927454  1
  C  C4  1  0.56072546  0.93927454  0.56072546  1
  C  C5  1  0.56072546  0.56072546  0.93927454  1
  C  C6  1  0.80902071  0.19097929  0.19097929  1
  C  C7  1  0.80902071  0.19097929  0.80902071  1
  C  C8  1  0.80902071  0.80902071  0.19097929  1
  C  C9  1  0.19097929  0.80902071  0.80902071  1
  C  C10  1  0.19097929  0.80902071  0.19097929  1
  C  C11  1  0.19097929  0.19097929  0.80902071  1
  C  C12  1  0.95486183  0.34837939  0.34837939  1
  C  C13  1  0.34837939  0.95486183  0.34837939  1
  C  C14  1  0.34837939  0.34837939  0.95486183  1
  C  C15  1  0.34837939  0.34837939  0.34837939  1
  Ni  Ni16  1  0.25306451  0.58231183  0.58231183  1
  Ni  Ni17  1  0.58231183  0.25306451  0.58231183  1
  Ni  Ni18  1  0.58231183  0.58231183  0.25306451  1
  Ni  Ni19  1  0.58231183  0.58231183  0.58231183  1
  Cu  Cu20  1  0.57724364  0.14091879  0.14091879  1
  Cu  Cu21  1  0.14091879  0.57724364  0.14091879  1
  Cu  Cu22  1  0.14091879  0.14091879  0.57724364  1
  Cu  Cu23  1  0.14091879  0.14091879  0.14091879  1
