# generated using pymatgen
data_Cu2Ni4C17
_symmetry_space_group_name_H-M   'P 1'
_cell_length_a   9.92325514
_cell_length_b   9.92325514
_cell_length_c   10.73231768
_cell_angle_alpha   58.02192967
_cell_angle_beta   58.02192967
_cell_angle_gamma   47.81904379
_symmetry_Int_Tables_number   1
_chemical_formula_structural   Cu2Ni4C17
_chemical_formula_sum   'Cu4 Ni8 C34'
_cell_volume   638.34034971
_cell_formula_units_Z   2
loop_
 _symmetry_equiv_pos_site_id
 _symmetry_equiv_pos_as_xyz
  1  'x, y, z'
loop_
 _atom_site_type_symbol
 _atom_site_label
 _atom_site_symmetry_multiplicity
 _atom_site_fract_x
 _atom_site_fract_y
 _atom_site_fract_z
 _atom_site_occupancy
  C  C0  1  0.25119100  0.15801800  0.53273200  1
  C  C1  1  0.84198200  0.74880900  0.96726800  1
  C  C2  1  0.15801800  0.25119100  0.03273200  1
  C  C3  1  0.64088000  0.35912000  0.25000000  1
  C  C4  1  0.74880900  0.84198200  0.46726800  1
  C  C5  1  0.35912000  0.64088000  0.75000000  1
  Ni  Ni6  1  0.08689400  0.53408500  0.66568400  1
  Ni  Ni7  1  0.53408500  0.08689400  0.16568400  1
  Ni  Ni8  1  0.24958800  0.49235800  0.13646800  1
  Ni  Ni9  1  0.49235800  0.24958800  0.63646800  1
  Ni  Ni10  1  0.46591500  0.91310600  0.83431600  1
  Ni  Ni11  1  0.75041200  0.50764200  0.86353200  1
  Ni  Ni12  1  0.50764200  0.75041200  0.36353200  1
  Ni  Ni13  1  0.91310600  0.46591500  0.33431600  1
  Cu  Cu14  1  0.21923500  0.78076500  0.25000000  1
  Cu  Cu15  1  0.78076500  0.21923500  0.75000000  1
  Cu  Cu16  1  0.00000000  0.00000000  0.00000000  1
  Cu  Cu17  1  0.00000000  0.00000000  0.50000000  1
  C  C18  1  0.33016800  0.84887600  0.50198000  1
  C  C19  1  0.89013700  0.95953400  0.74588800  1
  C  C20  1  0.60368100  0.51527700  0.83205800  1
  C  C21  1  0.95953400  0.89013700  0.24588800  1
  C  C22  1  0.94999400  0.27221300  0.47896200  1
  C  C23  1  0.48322100  0.08449000  0.80572200  1
  C  C24  1  0.51527700  0.60368100  0.33205800  1
  C  C25  1  0.72778700  0.05000600  0.02103800  1
  C  C26  1  0.51677900  0.91551000  0.19427800  1
  C  C27  1  0.70954300  0.64895300  0.40163700  1
  C  C28  1  0.10986300  0.04046600  0.25411200  1
  C  C29  1  0.05000600  0.72778700  0.52103800  1
  C  C30  1  0.91551000  0.51677900  0.69427800  1
  C  C31  1  0.84887600  0.33016800  0.00198000  1
  C  C32  1  0.64895300  0.70954300  0.90163700  1
  C  C33  1  0.27221300  0.94999400  0.97896200  1
  C  C34  1  0.47251300  0.92242100  0.67663500  1
  C  C35  1  0.29045700  0.35104700  0.59836300  1
  C  C36  1  0.07757900  0.52748700  0.82336500  1
  C  C37  1  0.35104700  0.29045700  0.09836300  1
  C  C38  1  0.08449000  0.48322100  0.30572200  1
  C  C39  1  0.04046600  0.10986300  0.75411200  1
  C  C40  1  0.92242100  0.47251300  0.17663500  1
  C  C41  1  0.39631900  0.48472300  0.16794200  1
  C  C42  1  0.52748700  0.07757900  0.32336500  1
  C  C43  1  0.48472300  0.39631900  0.66794200  1
  C  C44  1  0.15112400  0.66983200  0.99802000  1
  C  C45  1  0.66983200  0.15112400  0.49802000  1
