# generated using pymatgen
data_Cu3NiC27
_symmetry_space_group_name_H-M   'P 1'
_cell_length_a   3.75086220
_cell_length_b   6.52272669
_cell_length_c   16.57751373
_cell_angle_alpha   93.13529636
_cell_angle_beta   96.48433782
_cell_angle_gamma   89.98526110
_symmetry_Int_Tables_number   1
_chemical_formula_structural   Cu3NiC27
_chemical_formula_sum   'Cu3 Ni1 C27'
_cell_volume   402.37796836
_cell_formula_units_Z   1
loop_
 _symmetry_equiv_pos_site_id
 _symmetry_equiv_pos_as_xyz
  1  'x, y, z'
loop_
 _atom_site_type_symbol
 _atom_site_label
 _atom_site_symmetry_multiplicity
 _atom_site_fract_x
 _atom_site_fract_y
 _atom_site_fract_z
 _atom_site_occupancy
  Ni  Ni0  1  0.95095492  0.65220080  0.90064385  1
  Cu  Cu1  1  0.38207222  0.78435749  0.76739082  1
  Cu  Cu2  1  0.20010266  0.39900238  0.39865532  1
  Cu  Cu3  1  0.51569238  0.51737943  0.03308166  1
  C  C4  1  0.89483325  0.27412738  0.78963218  1
  C  C5  1  0.79502036  0.58889806  0.58832308  1
  C  C6  1  0.70115574  0.90085579  0.40151818  1
  C  C7  1  0.29707454  0.09899474  0.59125305  1
  C  C8  1  0.10592881  0.71044343  0.21134010  1
  C  C9  1  0.60564085  0.20489124  0.21078565  1
  C  C10  1  0.00501240  0.02882432  0.01231258  1
  C  C11  1  0.92662776  0.92614410  0.84571897  1
  C  C12  1  0.48312551  0.78789073  0.96401502  1
  C  C13  1  0.77265167  0.92014116  0.54306966  1
  C  C14  1  0.32128551  0.76765201  0.64013585  1
  C  C15  1  0.41930194  0.51124068  0.83589578  1
  C  C16  1  0.97898704  0.37774175  0.95530118  1
  C  C17  1  0.86789973  0.62489297  0.73496777  1
  C  C18  1  0.17742979  0.71953088  0.35461134  1
  C  C19  1  0.82334104  0.26684793  0.64584302  1
  C  C20  1  0.62891545  0.88293827  0.25795426  1
  C  C21  1  0.26994737  0.41903029  0.53914160  1
  C  C22  1  0.72336220  0.56556209  0.44643598  1
  C  C23  1  0.37457730  0.10712183  0.74459027  1
  C  C24  1  0.67773217  0.23464518  0.35451601  1
  C  C25  1  0.58044920  0.53160488  0.16069212  1
  C  C26  1  0.13136259  0.38030681  0.26203046  1
  C  C27  1  0.22416925  0.08199842  0.44691647  1
  C  C28  1  0.03310182  0.67794025  0.06612520  1
  C  C29  1  0.07743228  0.03810147  0.15574312  1
  C  C30  1  0.52792124  0.19524621  0.05555044  1
