# generated using pymatgen
data_Cu3Ni9C2
_symmetry_space_group_name_H-M   'P 1'
_cell_length_a   8.11189800
_cell_length_b   14.00482500
_cell_length_c   23.57456113
_cell_angle_alpha   54.53243605
_cell_angle_beta   90.00000000
_cell_angle_gamma   90.00000000
_symmetry_Int_Tables_number   1
_chemical_formula_structural   Cu3Ni9C2
_chemical_formula_sum   'Cu12 Ni36 C8'
_cell_volume   2181.24818636
_cell_formula_units_Z   4
loop_
 _symmetry_equiv_pos_site_id
 _symmetry_equiv_pos_as_xyz
  1  'x, y, z'
loop_
 _atom_site_type_symbol
 _atom_site_label
 _atom_site_symmetry_multiplicity
 _atom_site_fract_x
 _atom_site_fract_y
 _atom_site_fract_z
 _atom_site_occupancy
  C  C0  1  0.99419500  0.51303600  0.65562300  1
  C  C1  1  0.50580500  0.51303600  0.15562300  1
  C  C2  1  0.00580500  0.48696400  0.34437700  1
  C  C3  1  0.49419500  0.48696400  0.84437700  1
  C  C4  1  0.98086600  0.99110800  0.84511700  1
  C  C5  1  0.51913400  0.99110800  0.34511700  1
  C  C6  1  0.01913400  0.00889200  0.15488300  1
  C  C7  1  0.48086600  0.00889200  0.65488300  1
  Ni  Ni8  1  0.79316800  0.46557400  0.57560800  1
  Ni  Ni9  1  0.70683200  0.46557400  0.07560800  1
  Ni  Ni10  1  0.20683200  0.53442600  0.42439200  1
  Ni  Ni11  1  0.29316800  0.53442600  0.92439200  1
  Ni  Ni12  1  0.29171100  0.54119900  0.58474400  1
  Ni  Ni13  1  0.20828900  0.54119900  0.08474400  1
  Ni  Ni14  1  0.70828900  0.45880100  0.41525600  1
  Ni  Ni15  1  0.79171100  0.45880100  0.91525600  1
  Ni  Ni16  1  0.17227800  0.55405900  0.75433800  1
  Ni  Ni17  1  0.32772200  0.55405900  0.25433800  1
  Ni  Ni18  1  0.82772200  0.44594100  0.24566200  1
  Ni  Ni19  1  0.67227800  0.44594100  0.74566200  1
  Ni  Ni20  1  0.10077700  0.25156000  0.75039200  1
  Ni  Ni21  1  0.39922300  0.25156000  0.25039200  1
  Ni  Ni22  1  0.89922300  0.74844000  0.24960800  1
  Ni  Ni23  1  0.60077700  0.74844000  0.74960800  1
  Ni  Ni24  1  0.91001800  0.75255500  0.57790000  1
  Ni  Ni25  1  0.58998200  0.75255500  0.07790000  1
  Ni  Ni26  1  0.08998200  0.24744500  0.42210000  1
  Ni  Ni27  1  0.41001800  0.24744500  0.92210000  1
  Ni  Ni28  1  0.81487700  0.04470800  0.71358400  1
  Ni  Ni29  1  0.68512300  0.04470800  0.21358400  1
  Ni  Ni30  1  0.18512300  0.95529200  0.28641600  1
  Ni  Ni31  1  0.31487700  0.95529200  0.78641600  1
  Ni  Ni32  1  0.69305200  0.04242600  0.88903200  1
  Ni  Ni33  1  0.80694800  0.04242600  0.38903200  1
  Ni  Ni34  1  0.30694800  0.95757400  0.11096800  1
  Ni  Ni35  1  0.19305200  0.95757400  0.61096800  1
  Ni  Ni36  1  0.19734100  0.96517500  0.94805100  1
  Ni  Ni37  1  0.30265900  0.96517500  0.44805100  1
  Ni  Ni38  1  0.80265900  0.03482500  0.05194900  1
  Ni  Ni39  1  0.69734100  0.03482500  0.55194900  1
  Ni  Ni40  1  0.91583100  0.74835700  0.92150600  1
  Ni  Ni41  1  0.58416900  0.74835700  0.42150600  1
  Ni  Ni42  1  0.08416900  0.25164300  0.07849400  1
  Ni  Ni43  1  0.41583100  0.25164300  0.57849400  1
  Cu  Cu44  1  0.02447800  0.75853400  0.77508900  1
  Cu  Cu45  1  0.47552200  0.75853400  0.27508900  1
  Cu  Cu46  1  0.97552200  0.24146600  0.22491100  1
  Cu  Cu47  1  0.52447800  0.24146600  0.72491100  1
  Cu  Cu48  1  0.96925700  0.25843000  0.88975700  1
  Cu  Cu49  1  0.53074300  0.25843000  0.38975700  1
  Cu  Cu50  1  0.03074300  0.74157000  0.11024300  1
  Cu  Cu51  1  0.46925700  0.74157000  0.61024300  1
  Cu  Cu52  1  0.01964500  0.75228500  0.43556100  1
  Cu  Cu53  1  0.48035500  0.75228500  0.93556100  1
  Cu  Cu54  1  0.98035500  0.24771500  0.56443900  1
  Cu  Cu55  1  0.51964500  0.24771500  0.06443900  1
