# generated using pymatgen
data_CuNiC11
_symmetry_space_group_name_H-M   'P 1'
_cell_length_a   6.31295100
_cell_length_b   7.85935600
_cell_length_c   13.72097100
_cell_angle_alpha   90.00000000
_cell_angle_beta   90.00000000
_cell_angle_gamma   90.00000000
_symmetry_Int_Tables_number   1
_chemical_formula_structural   CuNiC11
_chemical_formula_sum   'Cu4 Ni4 C44'
_cell_volume   680.77598314
_cell_formula_units_Z   4
loop_
 _symmetry_equiv_pos_site_id
 _symmetry_equiv_pos_as_xyz
  1  'x, y, z'
loop_
 _atom_site_type_symbol
 _atom_site_label
 _atom_site_symmetry_multiplicity
 _atom_site_fract_x
 _atom_site_fract_y
 _atom_site_fract_z
 _atom_site_occupancy
  Ni  Ni0  1  0.75000000  0.85202500  0.88317100  1
  Ni  Ni1  1  0.25000000  0.14797500  0.11682900  1
  Ni  Ni2  1  0.25000000  0.35202500  0.61682900  1
  Ni  Ni3  1  0.75000000  0.64797500  0.38317100  1
  Cu  Cu4  1  0.50000000  0.50000000  0.00000000  1
  Cu  Cu5  1  0.50000000  0.00000000  0.50000000  1
  Cu  Cu6  1  0.00000000  0.00000000  0.50000000  1
  Cu  Cu7  1  0.00000000  0.50000000  0.00000000  1
  C  C8  1  0.25000000  0.84482800  0.93955800  1
  C  C9  1  0.75000000  0.15517200  0.06044200  1
  C  C10  1  0.75000000  0.34482800  0.56044200  1
  C  C11  1  0.25000000  0.65517200  0.43955800  1
  C  C12  1  0.75000000  0.88980000  0.69079600  1
  C  C13  1  0.25000000  0.11020000  0.30920400  1
  C  C14  1  0.25000000  0.38980000  0.80920400  1
  C  C15  1  0.75000000  0.61020000  0.19079600  1
  C  C16  1  0.04886100  0.10083100  0.37102900  1
  C  C17  1  0.54886100  0.89916900  0.62897100  1
  C  C18  1  0.95113900  0.60083100  0.12897100  1
  C  C19  1  0.45113900  0.39916900  0.87102900  1
  C  C20  1  0.95113900  0.89916900  0.62897100  1
  C  C21  1  0.45113900  0.10083100  0.37102900  1
  C  C22  1  0.04886100  0.39916900  0.87102900  1
  C  C23  1  0.54886100  0.60083100  0.12897100  1
  C  C24  1  0.25000000  0.83997400  0.48108100  1
  C  C25  1  0.75000000  0.16002600  0.51891900  1
  C  C26  1  0.75000000  0.33997400  0.01891900  1
  C  C27  1  0.25000000  0.66002600  0.98108100  1
  C  C28  1  0.75000000  0.66365800  0.94533700  1
  C  C29  1  0.25000000  0.33634200  0.05466300  1
  C  C30  1  0.25000000  0.16365800  0.55466300  1
  C  C31  1  0.75000000  0.83634200  0.44533700  1
  C  C32  1  0.75000000  0.72658500  0.75671500  1
  C  C33  1  0.25000000  0.27341500  0.24328500  1
  C  C34  1  0.25000000  0.22658500  0.74328500  1
  C  C35  1  0.75000000  0.77341500  0.25671500  1
  C  C36  1  0.44623000  0.63364400  0.37453500  1
  C  C37  1  0.94623000  0.36635600  0.62546500  1
  C  C38  1  0.55377000  0.13364400  0.12546500  1
  C  C39  1  0.05377000  0.86635600  0.87453500  1
  C  C40  1  0.55377000  0.36635600  0.62546500  1
  C  C41  1  0.05377000  0.63364400  0.37453500  1
  C  C42  1  0.44623000  0.86635600  0.87453500  1
  C  C43  1  0.94623000  0.13364400  0.12546500  1
  C  C44  1  0.75000000  0.47502400  0.27494300  1
  C  C45  1  0.25000000  0.52497600  0.72505700  1
  C  C46  1  0.25000000  0.97502400  0.22505700  1
  C  C47  1  0.75000000  0.02497600  0.77494300  1
  C  C48  1  0.75000000  0.47713000  0.47730600  1
  C  C49  1  0.25000000  0.52287000  0.52269400  1
  C  C50  1  0.25000000  0.97713000  0.02269400  1
  C  C51  1  0.75000000  0.02287000  0.97730600  1
