# generated using pymatgen
data_Cu(Ni3C)2
_symmetry_space_group_name_H-M   'P 1'
_cell_length_a   22.33118100
_cell_length_b   6.92448900
_cell_length_c   7.57434488
_cell_angle_alpha   65.79311170
_cell_angle_beta   90.00000000
_cell_angle_gamma   90.00000000
_symmetry_Int_Tables_number   1
_chemical_formula_structural   Cu(Ni3C)2
_chemical_formula_sum   'Cu4 Ni24 C8'
_cell_volume   1068.25039501
_cell_formula_units_Z   4
loop_
 _symmetry_equiv_pos_site_id
 _symmetry_equiv_pos_as_xyz
  1  'x, y, z'
loop_
 _atom_site_type_symbol
 _atom_site_label
 _atom_site_symmetry_multiplicity
 _atom_site_fract_x
 _atom_site_fract_y
 _atom_site_fract_z
 _atom_site_occupancy
  C  C0  1  0.42501600  0.00298500  0.34329400  1
  C  C1  1  0.07498400  0.00298500  0.84329400  1
  C  C2  1  0.57498400  0.99701500  0.65670600  1
  C  C3  1  0.92501600  0.99701500  0.15670600  1
  C  C4  1  0.35896400  0.62487000  0.82253300  1
  C  C5  1  0.14103600  0.62487000  0.32253300  1
  C  C6  1  0.64103600  0.37513000  0.17746700  1
  C  C7  1  0.85896400  0.37513000  0.67746700  1
  Ni  Ni8  1  0.46647400  0.23990700  0.04691000  1
  Ni  Ni9  1  0.03352600  0.23990700  0.54691000  1
  Ni  Ni10  1  0.53352600  0.76009300  0.95309000  1
  Ni  Ni11  1  0.96647400  0.76009300  0.45309000  1
  Ni  Ni12  1  0.52579400  0.79756400  0.46231500  1
  Ni  Ni13  1  0.97420600  0.79756400  0.96231500  1
  Ni  Ni14  1  0.47420600  0.20243600  0.53768500  1
  Ni  Ni15  1  0.02579400  0.20243600  0.03768500  1
  Ni  Ni16  1  0.33286900  0.18558600  0.32418500  1
  Ni  Ni17  1  0.16713100  0.18558600  0.82418500  1
  Ni  Ni18  1  0.66713100  0.81441400  0.67581500  1
  Ni  Ni19  1  0.83286900  0.81441400  0.17581500  1
  Ni  Ni20  1  0.38942800  0.74171800  0.24121300  1
  Ni  Ni21  1  0.11057200  0.74171800  0.74121300  1
  Ni  Ni22  1  0.61057200  0.25828200  0.75878700  1
  Ni  Ni23  1  0.88942800  0.25828200  0.25878700  1
  Ni  Ni24  1  0.28040700  0.78531100  0.81853700  1
  Ni  Ni25  1  0.21959300  0.78531100  0.31853700  1
  Ni  Ni26  1  0.71959300  0.21468900  0.18146300  1
  Ni  Ni27  1  0.78040700  0.21468900  0.68146300  1
  Ni  Ni28  1  0.32526800  0.39787300  0.73849400  1
  Ni  Ni29  1  0.17473200  0.39787300  0.23849400  1
  Ni  Ni30  1  0.67473200  0.60212700  0.26150600  1
  Ni  Ni31  1  0.82526800  0.60212700  0.76150600  1
  Cu  Cu32  1  0.39569600  0.77016700  0.66038400  1
  Cu  Cu33  1  0.10430400  0.77016700  0.16038400  1
  Cu  Cu34  1  0.60430400  0.22983300  0.33961600  1
  Cu  Cu35  1  0.89569600  0.22983300  0.83961600  1
