# generated using pymatgen
data_CuNiC10
_symmetry_space_group_name_H-M   'P 1'
_cell_length_a   10.49348338
_cell_length_b   10.49348338
_cell_length_c   5.83684700
_cell_angle_alpha   90.00000000
_cell_angle_beta   90.00000000
_cell_angle_gamma   119.99999608
_symmetry_Int_Tables_number   1
_chemical_formula_structural   CuNiC10
_chemical_formula_sum   'Cu2 Ni2 C20'
_cell_volume   556.60655436
_cell_formula_units_Z   2
loop_
 _symmetry_equiv_pos_site_id
 _symmetry_equiv_pos_as_xyz
  1  'x, y, z'
loop_
 _atom_site_type_symbol
 _atom_site_label
 _atom_site_symmetry_multiplicity
 _atom_site_fract_x
 _atom_site_fract_y
 _atom_site_fract_z
 _atom_site_occupancy
  C  C0  1  0.87857100  0.64071200  0.61676600  1
  C  C1  1  0.23785900  0.87857100  0.11676600  1
  C  C2  1  0.64071200  0.76214100  0.11676600  1
  C  C3  1  0.35928800  0.23785900  0.61676600  1
  C  C4  1  0.76214100  0.12142900  0.61676600  1
  C  C5  1  0.12142900  0.35928800  0.11676600  1
  Ni  Ni6  1  0.66666700  0.33333300  0.20522300  1
  Ni  Ni7  1  0.33333300  0.66666700  0.70522300  1
  Cu  Cu8  1  0.00000000  0.00000000  0.57127700  1
  Cu  Cu9  1  0.00000000  0.00000000  0.07127700  1
  C  C10  1  0.66666700  0.33333300  0.84268300  1
  C  C11  1  0.33333300  0.66666700  0.34268300  1
  C  C12  1  0.47458500  0.88141400  0.84798200  1
  C  C13  1  0.59317100  0.47458500  0.34798200  1
  C  C14  1  0.88141400  0.40682900  0.34798200  1
  C  C15  1  0.11858600  0.59317100  0.84798200  1
  C  C16  1  0.26522200  0.17729200  0.10322500  1
  C  C17  1  0.08793000  0.26522200  0.60322500  1
  C  C18  1  0.17729200  0.91207000  0.60322500  1
  C  C19  1  0.82270800  0.08793000  0.10322500  1
  C  C20  1  0.91207000  0.73477800  0.10322500  1
  C  C21  1  0.73477800  0.82270800  0.60322500  1
  C  C22  1  0.52541500  0.11858600  0.34798200  1
  C  C23  1  0.40682900  0.52541500  0.84798200  1
