# generated using pymatgen
data_Cu(NiC8)3
_symmetry_space_group_name_H-M   'P 1'
_cell_length_a   6.04858100
_cell_length_b   6.04858100
_cell_length_c   8.55349900
_cell_angle_alpha   90.00000000
_cell_angle_beta   90.00000000
_cell_angle_gamma   90.00000000
_symmetry_Int_Tables_number   1
_chemical_formula_structural   Cu(NiC8)3
_chemical_formula_sum   'Cu1 Ni3 C24'
_cell_volume   312.93260165
_cell_formula_units_Z   1
loop_
 _symmetry_equiv_pos_site_id
 _symmetry_equiv_pos_as_xyz
  1  'x, y, z'
loop_
 _atom_site_type_symbol
 _atom_site_label
 _atom_site_symmetry_multiplicity
 _atom_site_fract_x
 _atom_site_fract_y
 _atom_site_fract_z
 _atom_site_occupancy
  Ni  Ni0  1  0.00000000  0.00000000  0.50000000  1
  Ni  Ni1  1  0.50000000  0.00000000  0.74986500  1
  Ni  Ni2  1  0.00000000  0.50000000  0.25013500  1
  C  C3  1  0.50000000  0.74999000  0.37495100  1
  C  C4  1  0.00000000  0.25000400  0.87505600  1
  C  C5  1  0.25000400  0.00000000  0.12494400  1
  C  C6  1  0.74999000  0.50000000  0.62504900  1
  C  C7  1  0.74999600  0.00000000  0.12494400  1
  C  C8  1  0.25001000  0.50000000  0.62504900  1
  C  C9  1  0.50000000  0.25001000  0.37495100  1
  C  C10  1  0.00000000  0.74999600  0.87505600  1
  Cu  Cu11  1  0.50000000  0.50000000  0.00000000  1
  C  C12  1  0.50000000  0.27070100  0.61469200  1
  C  C13  1  0.00000000  0.77060700  0.11462600  1
  C  C14  1  0.27070100  0.50000000  0.38530800  1
  C  C15  1  0.77060700  0.00000000  0.88537400  1
  C  C16  1  0.72929900  0.50000000  0.38530800  1
  C  C17  1  0.22939300  0.00000000  0.88537400  1
  C  C18  1  0.50000000  0.72929900  0.61469200  1
  C  C19  1  0.00000000  0.22939300  0.11462600  1
  C  C20  1  0.50000000  0.22924700  0.13533500  1
  C  C21  1  0.00000000  0.72926600  0.63544100  1
  C  C22  1  0.72926600  0.00000000  0.36455900  1
  C  C23  1  0.22924700  0.50000000  0.86466500  1
  C  C24  1  0.27073400  0.00000000  0.36455900  1
  C  C25  1  0.77075300  0.50000000  0.86466500  1
  C  C26  1  0.50000000  0.77075300  0.13533500  1
  C  C27  1  0.00000000  0.27073400  0.63544100  1
