# generated using pymatgen
data_CuNiC9
_symmetry_space_group_name_H-M   'P 1'
_cell_length_a   7.55120357
_cell_length_b   7.55120357
_cell_length_c   18.49240000
_cell_angle_alpha   90.00000000
_cell_angle_beta   90.00000000
_cell_angle_gamma   119.99999626
_symmetry_Int_Tables_number   1
_chemical_formula_structural   CuNiC9
_chemical_formula_sum   'Cu6 Ni6 C54'
_cell_volume   913.17977473
_cell_formula_units_Z   6
loop_
 _symmetry_equiv_pos_site_id
 _symmetry_equiv_pos_as_xyz
  1  'x, y, z'
loop_
 _atom_site_type_symbol
 _atom_site_label
 _atom_site_symmetry_multiplicity
 _atom_site_fract_x
 _atom_site_fract_y
 _atom_site_fract_z
 _atom_site_occupancy
  C  C0  1  0.50638700  0.88744400  0.66310400  1
  C  C1  1  0.11255600  0.61894300  0.99643700  1
  C  C2  1  0.38105700  0.49361300  0.32977000  1
  C  C3  1  0.61894300  0.11255600  0.00356300  1
  C  C4  1  0.49361300  0.38105700  0.67023000  1
  C  C5  1  0.88744400  0.50638700  0.33689600  1
  C  C6  1  0.86132900  0.00000000  0.33333300  1
  C  C7  1  0.00000000  0.86132900  0.66666700  1
  C  C8  1  0.13867100  0.13867100  0.00000000  1
  C  C9  1  0.83220800  0.00000000  0.83333300  1
  C  C10  1  0.00000000  0.83220800  0.16666700  1
  C  C11  1  0.16779200  0.16779200  0.50000000  1
  Ni  Ni12  1  0.83460100  0.49603600  0.82806900  1
  Ni  Ni13  1  0.50396400  0.33856500  0.16140200  1
  Ni  Ni14  1  0.66143500  0.16539900  0.49473500  1
  Ni  Ni15  1  0.33856500  0.50396400  0.83859800  1
  Ni  Ni16  1  0.16539900  0.66143500  0.50526500  1
  Ni  Ni17  1  0.49603600  0.83460100  0.17193100  1
  Cu  Cu18  1  0.66727100  0.66727100  0.50000000  1
  Cu  Cu19  1  0.00000000  0.33272900  0.16666700  1
  Cu  Cu20  1  0.33272900  0.00000000  0.83333300  1
  Cu  Cu21  1  0.68479300  0.68479300  0.00000000  1
  Cu  Cu22  1  0.00000000  0.31520700  0.66666700  1
  Cu  Cu23  1  0.31520700  0.00000000  0.33333300  1
  C  C24  1  0.43164500  0.04778200  0.12298700  1
  C  C25  1  0.95221800  0.38386300  0.45632000  1
  C  C26  1  0.61613700  0.56835500  0.78965300  1
  C  C27  1  0.38386300  0.95221800  0.54368000  1
  C  C28  1  0.56835500  0.61613700  0.21034700  1
  C  C29  1  0.04778200  0.43164500  0.87701300  1
  C  C30  1  0.23598700  0.18890500  0.85965200  1
  C  C31  1  0.81109500  0.04708200  0.19298600  1
  C  C32  1  0.95291800  0.76401300  0.52631900  1
  C  C33  1  0.04708200  0.81109500  0.80701400  1
  C  C34  1  0.76401300  0.95291800  0.47368100  1
  C  C35  1  0.18890500  0.23598700  0.14034800  1
  C  C36  1  0.36717400  0.06658600  0.72940900  1
  C  C37  1  0.93341400  0.30058700  0.06274200  1
  C  C38  1  0.69941300  0.63282600  0.39607500  1
  C  C39  1  0.30058700  0.93341400  0.93725800  1
  C  C40  1  0.63282600  0.69941300  0.60392500  1
  C  C41  1  0.06658600  0.36717400  0.27059100  1
  C  C42  1  0.43014000  0.81089500  0.81060900  1
  C  C43  1  0.18910500  0.61924500  0.14394200  1
  C  C44  1  0.38075500  0.56986000  0.47727500  1
  C  C45  1  0.61924500  0.18910500  0.85605800  1
  C  C46  1  0.56986000  0.38075500  0.52272500  1
  C  C47  1  0.81089500  0.43014000  0.18939100  1
  C  C48  1  0.76963300  0.19873700  0.60141900  1
  C  C49  1  0.80126300  0.57089600  0.93475200  1
  C  C50  1  0.42910400  0.23036700  0.26808600  1
  C  C51  1  0.57089600  0.80126300  0.06524800  1
  C  C52  1  0.23036700  0.42910400  0.73191400  1
  C  C53  1  0.19873700  0.76963300  0.39858100  1
  C  C54  1  0.80043900  0.94662800  0.94970900  1
  C  C55  1  0.05337200  0.85381100  0.28304200  1
  C  C56  1  0.14618900  0.19956100  0.61637500  1
  C  C57  1  0.85381100  0.05337200  0.71695800  1
  C  C58  1  0.19956100  0.14618900  0.38362500  1
  C  C59  1  0.94662800  0.80043900  0.05029100  1
  C  C60  1  0.56624200  0.42205900  0.05095700  1
  C  C61  1  0.57794100  0.14418400  0.38429000  1
  C  C62  1  0.85581600  0.43375800  0.71762400  1
  C  C63  1  0.14418400  0.57794100  0.61571000  1
  C  C64  1  0.43375800  0.85581600  0.28237600  1
  C  C65  1  0.42205900  0.56624200  0.94904300  1
