# generated using pymatgen
data_Cu2NiC3
_symmetry_space_group_name_H-M   'P 1'
_cell_length_a   3.30898742
_cell_length_b   3.30898742
_cell_length_c   37.66290300
_cell_angle_alpha   90.00000000
_cell_angle_beta   90.00000000
_cell_angle_gamma   119.99998842
_symmetry_Int_Tables_number   1
_chemical_formula_structural   Cu2NiC3
_chemical_formula_sum   'Cu4 Ni2 C6'
_cell_volume   357.13688512
_cell_formula_units_Z   2
loop_
 _symmetry_equiv_pos_site_id
 _symmetry_equiv_pos_as_xyz
  1  'x, y, z'
loop_
 _atom_site_type_symbol
 _atom_site_label
 _atom_site_symmetry_multiplicity
 _atom_site_fract_x
 _atom_site_fract_y
 _atom_site_fract_z
 _atom_site_occupancy
  C  C0  1  0.33333300  0.66666700  0.41867500  1
  C  C1  1  0.33333300  0.66666700  0.52069600  1
  C  C2  1  0.00000000  0.00000000  0.09393400  1
  C  C3  1  0.33333300  0.66666700  0.28174800  1
  C  C4  1  0.00000000  0.00000000  0.46966000  1
  C  C5  1  0.33333300  0.66666700  0.65754800  1
  Ni  Ni6  1  0.00000000  0.00000000  0.32628800  1
  Ni  Ni7  1  0.00000000  0.00000000  0.23723900  1
  Cu  Cu8  1  0.00000000  0.00000000  0.69826300  1
  Cu  Cu9  1  0.33333300  0.66666700  0.05331100  1
  Cu  Cu10  1  0.33333300  0.66666700  0.13455300  1
  Cu  Cu11  1  0.00000000  0.00000000  0.61683100  1
