# generated using pymatgen
data_Cu4NiC32
_symmetry_space_group_name_H-M   'P 1'
_cell_length_a   5.34272157
_cell_length_b   7.61344949
_cell_length_c   11.30752749
_cell_angle_alpha   90.20099214
_cell_angle_beta   90.55960726
_cell_angle_gamma   90.18881103
_symmetry_Int_Tables_number   1
_chemical_formula_structural   Cu4NiC32
_chemical_formula_sum   'Cu4 Ni1 C32'
_cell_volume   459.92378507
_cell_formula_units_Z   1
loop_
 _symmetry_equiv_pos_site_id
 _symmetry_equiv_pos_as_xyz
  1  'x, y, z'
loop_
 _atom_site_type_symbol
 _atom_site_label
 _atom_site_symmetry_multiplicity
 _atom_site_fract_x
 _atom_site_fract_y
 _atom_site_fract_z
 _atom_site_occupancy
  C  C0  1  0.54467129  0.24907199  0.04842062  1
  C  C1  1  0.94379380  0.24773968  0.57158105  1
  C  C2  1  0.45594889  0.74820938  0.94809201  1
  C  C3  1  0.04690712  0.74739032  0.44863037  1
  Ni  Ni4  1  0.10148008  0.24058089  0.31503216  1
  Cu  Cu5  1  0.56026651  0.00154244  0.36092567  1
  Cu  Cu6  1  0.44759664  0.50847926  0.64126597  1
  Cu  Cu7  1  0.04761594  0.51687015  0.13570797  1
  Cu  Cu8  1  0.95330938  0.00553329  0.85895359  1
  C  C9  1  0.95298217  0.49474259  0.85932081  1
  C  C10  1  0.04544274  0.98764256  0.13121120  1
  C  C11  1  0.45553099  0.99248777  0.64399305  1
  C  C12  1  0.55938732  0.49392494  0.36474677  1
  C  C13  1  0.83891291  0.25013918  0.87981987  1
  C  C14  1  0.72617585  0.24784117  0.38072434  1
  C  C15  1  0.17883768  0.75291283  0.12085155  1
  C  C16  1  0.33289264  0.75154889  0.61223771  1
  C  C17  1  0.36469273  0.07301299  0.22067347  1
  C  C18  1  0.11917073  0.44928392  0.71602245  1
  C  C19  1  0.61983147  0.55803044  0.78643561  1
  C  C20  1  0.88210545  0.94513185  0.28300717  1
  C  C21  1  0.61877033  0.94047096  0.78604733  1
  C  C22  1  0.88355308  0.55465886  0.28634606  1
  C  C23  1  0.35911450  0.42881300  0.22418970  1
  C  C24  1  0.12384250  0.05018321  0.71376175  1
  C  C25  1  0.95225495  0.25146603  0.14622804  1
  C  C26  1  0.52793073  0.25007770  0.64253999  1
  C  C27  1  0.03979424  0.75007146  0.86174915  1
  C  C28  1  0.46800568  0.75131408  0.35944303  1
  C  C29  1  0.75849045  0.53936725  0.02739224  1
  C  C30  1  0.72626277  0.96119601  0.52462397  1
  C  C31  1  0.23619114  0.03860850  0.97514146  1
  C  C32  1  0.25455761  0.44779802  0.47095659  1
  C  C33  1  0.23310413  0.46234627  0.97933050  1
  C  C34  1  0.24940190  0.06042220  0.45767876  1
  C  C35  1  0.76104220  0.96237567  0.02325164  1
  C  C36  1  0.73013146  0.53870627  0.52699938  1
