# generated using pymatgen
data_Cu12NiC4
_symmetry_space_group_name_H-M   'P 1'
_cell_length_a   7.19883400
_cell_length_b   10.03059200
_cell_length_c   16.81212200
_cell_angle_alpha   90.00000000
_cell_angle_beta   90.00000000
_cell_angle_gamma   90.00000000
_symmetry_Int_Tables_number   1
_chemical_formula_structural   Cu12NiC4
_chemical_formula_sum   'Cu48 Ni4 C16'
_cell_volume   1213.97923331
_cell_formula_units_Z   4
loop_
 _symmetry_equiv_pos_site_id
 _symmetry_equiv_pos_as_xyz
  1  'x, y, z'
loop_
 _atom_site_type_symbol
 _atom_site_label
 _atom_site_symmetry_multiplicity
 _atom_site_fract_x
 _atom_site_fract_y
 _atom_site_fract_z
 _atom_site_occupancy
  C  C0  1  0.75000000  0.16130200  0.04298500  1
  C  C1  1  0.75000000  0.66130200  0.45701500  1
  C  C2  1  0.25000000  0.83869800  0.95701500  1
  C  C3  1  0.25000000  0.33869800  0.54298500  1
  C  C4  1  0.75000000  0.52078000  0.08348000  1
  C  C5  1  0.75000000  0.02078000  0.41652000  1
  C  C6  1  0.25000000  0.47922000  0.91652000  1
  C  C7  1  0.25000000  0.97922000  0.58348000  1
  C  C8  1  0.93986300  0.36002800  0.20011800  1
  C  C9  1  0.56013700  0.86002800  0.29988200  1
  C  C10  1  0.43986300  0.63997200  0.79988200  1
  C  C11  1  0.06013700  0.13997200  0.70011800  1
  C  C12  1  0.06013700  0.63997200  0.79988200  1
  C  C13  1  0.43986300  0.13997200  0.70011800  1
  C  C14  1  0.56013700  0.36002800  0.20011800  1
  C  C15  1  0.93986300  0.86002800  0.29988200  1
  Ni  Ni16  1  0.75000000  0.19164000  0.76684900  1
  Ni  Ni17  1  0.75000000  0.69164000  0.73315100  1
  Ni  Ni18  1  0.25000000  0.80836000  0.23315100  1
  Ni  Ni19  1  0.25000000  0.30836000  0.26684900  1
  Cu  Cu20  1  0.92695100  0.49113300  0.14875500  1
  Cu  Cu21  1  0.57304900  0.99113300  0.35124500  1
  Cu  Cu22  1  0.42695100  0.50886700  0.85124500  1
  Cu  Cu23  1  0.07304900  0.00886700  0.64875500  1
  Cu  Cu24  1  0.07304900  0.50886700  0.85124500  1
  Cu  Cu25  1  0.42695100  0.00886700  0.64875500  1
  Cu  Cu26  1  0.57304900  0.49113300  0.14875500  1
  Cu  Cu27  1  0.92695100  0.99113300  0.35124500  1
  Cu  Cu28  1  0.75000000  0.36450600  0.25296700  1
  Cu  Cu29  1  0.75000000  0.86450600  0.24703300  1
  Cu  Cu30  1  0.25000000  0.63549400  0.74703300  1
  Cu  Cu31  1  0.25000000  0.13549400  0.75296700  1
  Cu  Cu32  1  0.75000000  0.40685500  0.02602900  1
  Cu  Cu33  1  0.75000000  0.90685500  0.47397100  1
  Cu  Cu34  1  0.25000000  0.59314500  0.97397100  1
  Cu  Cu35  1  0.25000000  0.09314500  0.52602900  1
  Cu  Cu36  1  0.75000000  0.66321300  0.06443100  1
  Cu  Cu37  1  0.75000000  0.16321300  0.43556900  1
  Cu  Cu38  1  0.25000000  0.33678700  0.93556900  1
  Cu  Cu39  1  0.25000000  0.83678700  0.56443100  1
  Cu  Cu40  1  0.09670000  0.39724000  0.26513000  1
  Cu  Cu41  1  0.40330000  0.89724000  0.23487000  1
  Cu  Cu42  1  0.59670000  0.60276000  0.73487000  1
  Cu  Cu43  1  0.90330000  0.10276000  0.76513000  1
  Cu  Cu44  1  0.90330000  0.60276000  0.73487000  1
  Cu  Cu45  1  0.59670000  0.10276000  0.76513000  1
  Cu  Cu46  1  0.40330000  0.39724000  0.26513000  1
  Cu  Cu47  1  0.09670000  0.89724000  0.23487000  1
  Cu  Cu48  1  0.96439300  0.23262900  0.15768500  1
  Cu  Cu49  1  0.53560700  0.73262900  0.34231500  1
  Cu  Cu50  1  0.46439300  0.76737100  0.84231500  1
  Cu  Cu51  1  0.03560700  0.26737100  0.65768500  1
  Cu  Cu52  1  0.03560700  0.76737100  0.84231500  1
  Cu  Cu53  1  0.46439300  0.26737100  0.65768500  1
  Cu  Cu54  1  0.53560700  0.23262900  0.15768500  1
  Cu  Cu55  1  0.96439300  0.73262900  0.34231500  1
  Cu  Cu56  1  0.75000000  0.95989400  0.95207900  1
  Cu  Cu57  1  0.75000000  0.45989400  0.54792100  1
  Cu  Cu58  1  0.25000000  0.04010600  0.04792100  1
  Cu  Cu59  1  0.25000000  0.54010600  0.45207900  1
  Cu  Cu60  1  0.02583500  0.98322800  0.03903700  1
  Cu  Cu61  1  0.47416500  0.48322800  0.46096300  1
  Cu  Cu62  1  0.52583500  0.01677200  0.96096300  1
  Cu  Cu63  1  0.97416500  0.51677200  0.53903700  1
  Cu  Cu64  1  0.97416500  0.01677200  0.96096300  1
  Cu  Cu65  1  0.52583500  0.51677200  0.53903700  1
  Cu  Cu66  1  0.47416500  0.98322800  0.03903700  1
  Cu  Cu67  1  0.02583500  0.48322800  0.46096300  1
