# generated using pymatgen
data_Cu4NiC
_symmetry_space_group_name_H-M   'P 1'
_cell_length_a   8.60038175
_cell_length_b   8.60038175
_cell_length_c   4.02146800
_cell_angle_alpha   90.00000000
_cell_angle_beta   90.00000000
_cell_angle_gamma   119.99999804
_symmetry_Int_Tables_number   1
_chemical_formula_structural   Cu4NiC
_chemical_formula_sum   'Cu12 Ni3 C3'
_cell_volume   257.60288047
_cell_formula_units_Z   3
loop_
 _symmetry_equiv_pos_site_id
 _symmetry_equiv_pos_as_xyz
  1  'x, y, z'
loop_
 _atom_site_type_symbol
 _atom_site_label
 _atom_site_symmetry_multiplicity
 _atom_site_fract_x
 _atom_site_fract_y
 _atom_site_fract_z
 _atom_site_occupancy
  C  C0  1  0.33333300  0.66666700  0.00000000  1
  C  C1  1  0.66666700  0.33333300  0.00000000  1
  C  C2  1  0.00000000  0.00000000  0.00000000  1
  Ni  Ni3  1  0.50000000  0.00000000  0.50000000  1
  Ni  Ni4  1  0.00000000  0.50000000  0.50000000  1
  Ni  Ni5  1  0.50000000  0.50000000  0.50000000  1
  Cu  Cu6  1  0.32626200  0.00000000  0.00000000  1
  Cu  Cu7  1  0.67373800  0.00000000  0.00000000  1
  Cu  Cu8  1  0.00000000  0.32626200  0.00000000  1
  Cu  Cu9  1  0.00000000  0.67373800  0.00000000  1
  Cu  Cu10  1  0.67373800  0.67373800  0.00000000  1
  Cu  Cu11  1  0.32626200  0.32626200  0.00000000  1
  Cu  Cu12  1  0.16036800  0.32073600  0.50000000  1
  Cu  Cu13  1  0.83963200  0.67926400  0.50000000  1
  Cu  Cu14  1  0.67926400  0.83963200  0.50000000  1
  Cu  Cu15  1  0.32073600  0.16036800  0.50000000  1
  Cu  Cu16  1  0.16036800  0.83963200  0.50000000  1
  Cu  Cu17  1  0.83963200  0.16036800  0.50000000  1
