# generated using pymatgen
data_Cu2Ni2C5
_symmetry_space_group_name_H-M   'P 1'
_cell_length_a   3.30615200
_cell_length_b   6.35679200
_cell_length_c   12.05558000
_cell_angle_alpha   90.00000000
_cell_angle_beta   90.00000000
_cell_angle_gamma   90.00000000
_symmetry_Int_Tables_number   1
_chemical_formula_structural   Cu2Ni2C5
_chemical_formula_sum   'Cu4 Ni4 C10'
_cell_volume   253.36634523
_cell_formula_units_Z   2
loop_
 _symmetry_equiv_pos_site_id
 _symmetry_equiv_pos_as_xyz
  1  'x, y, z'
loop_
 _atom_site_type_symbol
 _atom_site_label
 _atom_site_symmetry_multiplicity
 _atom_site_fract_x
 _atom_site_fract_y
 _atom_site_fract_z
 _atom_site_occupancy
  Ni  Ni0  1  0.50000000  0.32394400  0.84268100  1
  Ni  Ni1  1  0.50000000  0.66874600  0.65484800  1
  Ni  Ni2  1  0.50000000  0.82394400  0.15731900  1
  Ni  Ni3  1  0.50000000  0.16874600  0.34515200  1
  Cu  Cu4  1  0.00000000  0.34255700  0.10366000  1
  Cu  Cu5  1  0.00000000  0.65115500  0.39713700  1
  Cu  Cu6  1  0.00000000  0.15115500  0.60286300  1
  Cu  Cu7  1  0.00000000  0.84255700  0.89634000  1
  C  C8  1  0.00000000  0.50795800  0.24609100  1
  C  C9  1  0.00000000  0.25369700  0.43063700  1
  C  C10  1  0.00000000  0.75369700  0.56936300  1
  C  C11  1  0.00000000  0.25248100  0.93412900  1
  C  C12  1  0.50000000  0.34390700  0.66625500  1
  C  C13  1  0.50000000  0.65544100  0.83382400  1
  C  C14  1  0.00000000  0.75248100  0.06587100  1
  C  C15  1  0.50000000  0.15544100  0.16617600  1
  C  C16  1  0.00000000  0.00795800  0.75390900  1
  C  C17  1  0.50000000  0.84390700  0.33374500  1
