# generated using pymatgen
data_Cu13(Ni5C12)2
_symmetry_space_group_name_H-M   'P 1'
_cell_length_a   10.68481392
_cell_length_b   10.61011153
_cell_length_c   17.67425806
_cell_angle_alpha   90.00000000
_cell_angle_beta   101.46024951
_cell_angle_gamma   90.00000000
_symmetry_Int_Tables_number   1
_chemical_formula_structural   Cu13(Ni5C12)2
_chemical_formula_sum   'Cu52 Ni40 C96'
_cell_volume   1963.73103075
_cell_formula_units_Z   4
loop_
 _symmetry_equiv_pos_site_id
 _symmetry_equiv_pos_as_xyz
  1  'x, y, z'
loop_
 _atom_site_type_symbol
 _atom_site_label
 _atom_site_symmetry_multiplicity
 _atom_site_fract_x
 _atom_site_fract_y
 _atom_site_fract_z
 _atom_site_occupancy
  C  C0  1  0.77241165  0.16519597  0.59151405  1
  C  C1  1  0.22758835  0.66519597  0.90848595  1
  C  C2  1  0.22758835  0.83480403  0.40848595  1
  C  C3  1  0.77241165  0.33480403  0.09151405  1
  Ni  Ni4  1  0.83099170  0.21140173  0.71523605  1
  Ni  Ni5  1  0.16900830  0.71140173  0.78476395  1
  Ni  Ni6  1  0.16900830  0.78859827  0.28476395  1
  Ni  Ni7  1  0.83099170  0.28859827  0.21523605  1
  Ni  Ni8  1  0.60913764  0.10081149  0.64192198  1
  Ni  Ni9  1  0.39086236  0.60081149  0.85807802  1
  Ni  Ni10  1  0.39086236  0.89918851  0.35807802  1
  Ni  Ni11  1  0.60913764  0.39918851  0.14192198  1
  Ni  Ni12  1  0.65717029  0.20947225  0.73707731  1
  Ni  Ni13  1  0.34282971  0.70947225  0.76292269  1
  Ni  Ni14  1  0.34282971  0.79052775  0.26292269  1
  Ni  Ni15  1  0.65717029  0.29052775  0.23707731  1
  Ni  Ni16  1  0.81615695  0.34106983  0.64865589  1
  Ni  Ni17  1  0.18384305  0.84106983  0.85134411  1
  Ni  Ni18  1  0.18384305  0.65893017  0.35134411  1
  Ni  Ni19  1  0.81615695  0.15893017  0.14865589  1
  Ni  Ni20  1  0.57228672  0.22298206  0.56965482  1
  Ni  Ni21  1  0.42771328  0.72298206  0.93034518  1
  Ni  Ni22  1  0.42771328  0.77701794  0.43034518  1
  Ni  Ni23  1  0.57228672  0.27701794  0.06965482  1
  Ni  Ni24  1  0.51476244  0.23469468  0.65669020  1
  Ni  Ni25  1  0.48523756  0.73469468  0.84330980  1
  Ni  Ni26  1  0.48523756  0.76530532  0.34330980  1
  Ni  Ni27  1  0.51476244  0.26530532  0.15669020  1
  Ni  Ni28  1  0.75641662  0.35417437  0.73423805  1
  Ni  Ni29  1  0.24358338  0.85417437  0.76576195  1
  Ni  Ni30  1  0.24358338  0.64582563  0.26576195  1
  Ni  Ni31  1  0.75641662  0.14582563  0.23423805  1
  Ni  Ni32  1  0.68378027  0.34527131  0.56986603  1
  Ni  Ni33  1  0.31621973  0.84527131  0.93013397  1
  Ni  Ni34  1  0.31621973  0.65472869  0.43013397  1
  Ni  Ni35  1  0.68378027  0.15472869  0.06986603  1
  Ni  Ni36  1  0.59035989  0.36046139  0.70947485  1
  Ni  Ni37  1  0.40964011  0.86046139  0.79052515  1
  Ni  Ni38  1  0.40964011  0.63953861  0.29052515  1
  Ni  Ni39  1  0.59035989  0.13953861  0.20947485  1
  Ni  Ni40  1  0.54351774  0.37027961  0.60722206  1
  Ni  Ni41  1  0.45648226  0.87027961  0.89277794  1
  Ni  Ni42  1  0.45648226  0.62972039  0.39277794  1
  Ni  Ni43  1  0.54351774  0.12972039  0.10722206  1
  C  C44  1  0.93314381  0.19564928  0.75707944  1
  C  C45  1  0.06685619  0.69564928  0.74292056  1
  C  C46  1  0.06685619  0.80435072  0.24292056  1
  C  C47  1  0.93314381  0.30435072  0.25707944  1
  C  C48  1  0.55078438  0.00368018  0.62919006  1
  C  C49  1  0.44921562  0.50368018  0.87080994  1
  C  C50  1  0.44921562  0.99631982  0.37080994  1
  C  C51  1  0.55078438  0.49631982  0.12919006  1
  C  C52  1  0.64069728  0.17338540  0.79844384  1
  C  C53  1  0.35930272  0.67338540  0.70155616  1
  C  C54  1  0.35930272  0.82661460  0.20155616  1
  C  C55  1  0.64069728  0.32661460  0.29844384  1
  C  C56  1  0.91302961  0.39439187  0.64359002  1
  C  C57  1  0.08697039  0.89439187  0.85640998  1
  C  C58  1  0.08697039  0.60560813  0.35640998  1
  C  C59  1  0.91302961  0.10560813  0.14359002  1
  C  C60  1  0.50274210  0.18849818  0.51163080  1
  C  C61  1  0.49725790  0.68849818  0.98836920  1
  C  C62  1  0.49725790  0.81150182  0.48836920  1
  C  C63  1  0.50274210  0.31150182  0.01163080  1
  C  C64  1  0.40796272  0.20755511  0.66173316  1
  C  C65  1  0.59203728  0.70755511  0.83826684  1
  C  C66  1  0.59203728  0.79244489  0.33826684  1
  C  C67  1  0.40796272  0.29244489  0.16173316  1
  C  C68  1  0.81078241  0.41470063  0.78788065  1
  C  C69  1  0.18921759  0.91470063  0.71211935  1
  C  C70  1  0.18921759  0.58529937  0.21211935  1
  C  C71  1  0.81078241  0.08529937  0.28788065  1
  C  C72  1  0.69548286  0.40399810  0.51396990  1
  C  C73  1  0.30451714  0.90399810  0.98603010  1
  C  C74  1  0.30451714  0.59600190  0.48603010  1
  C  C75  1  0.69548286  0.09600190  0.01396990  1
  C  C76  1  0.75657395  0.89110042  0.69564243  1
  C  C77  1  0.24342605  0.39110042  0.80435757  1
  C  C78  1  0.24342605  0.10889958  0.30435757  1
  C  C79  1  0.75657395  0.60889958  0.19564243  1
  C  C80  1  0.88605121  0.96786771  0.75971225  1
  C  C81  1  0.11394879  0.46786771  0.74028775  1
  C  C82  1  0.11394879  0.03213229  0.24028775  1
  C  C83  1  0.88605121  0.53213229  0.25971225  1
  C  C84  1  0.73106689  0.95891373  0.78232500  1
  C  C85  1  0.26893311  0.45891373  0.71767500  1
  C  C86  1  0.26893311  0.04108627  0.21767500  1
  C  C87  1  0.73106689  0.54108627  0.28232500  1
  C  C88  1  0.53996066  0.42388570  0.75060054  1
  C  C89  1  0.46003934  0.92388570  0.74939946  1
  C  C90  1  0.46003934  0.57611430  0.24939946  1
  C  C91  1  0.53996066  0.07611430  0.25060054  1
  C  C92  1  0.46335569  0.44308917  0.57781365  1
  C  C93  1  0.53664431  0.94308917  0.92218635  1
  C  C94  1  0.53664431  0.55691083  0.42218635  1
  C  C95  1  0.46335569  0.05691083  0.07781365  1
  C  C96  1  0.93452536  0.95107857  0.62718938  1
  C  C97  1  0.06547464  0.45107857  0.87281062  1
  C  C98  1  0.06547464  0.04892143  0.37281062  1
  C  C99  1  0.93452536  0.54892143  0.12718938  1
  C  C100  1  0.70883841  0.92609020  0.52403361  1
  C  C101  1  0.29116159  0.42609020  0.97596639  1
  C  C102  1  0.29116159  0.07390980  0.47596639  1
  C  C103  1  0.70883841  0.57390980  0.02403361  1
  C  C104  1  0.68136385  0.12983159  0.43052103  1
  C  C105  1  0.31863615  0.62983159  0.06947897  1
  C  C106  1  0.31863615  0.87016841  0.56947897  1
  C  C107  1  0.68136385  0.37016841  0.93052103  1
  C  C108  1  0.85704690  0.33399337  0.40891536  1
  C  C109  1  0.14295310  0.83399337  0.09108464  1
  C  C110  1  0.14295310  0.66600663  0.59108464  1
  C  C111  1  0.85704690  0.16600663  0.90891536  1
  C  C112  1  0.07505037  0.41887228  0.46073897  1
  C  C113  1  0.92494963  0.91887228  0.03926103  1
  C  C114  1  0.92494963  0.58112772  0.53926103  1
  C  C115  1  0.07505037  0.08112772  0.96073897  1
  C  C116  1  0.21351382  0.32377916  0.57569052  1
  C  C117  1  0.78648618  0.82377916  0.92430948  1
  C  C118  1  0.78648618  0.67622084  0.42430948  1
  C  C119  1  0.21351382  0.17622084  0.07569052  1
  C  C120  1  0.14301983  0.13666264  0.64121388  1
  C  C121  1  0.85698017  0.63666264  0.85878612  1
  C  C122  1  0.85698017  0.86333736  0.35878612  1
  C  C123  1  0.14301983  0.36333736  0.14121388  1
  C  C124  1  0.79855190  0.60318534  0.67147340  1
  C  C125  1  0.20144810  0.10318534  0.82852660  1
  C  C126  1  0.20144810  0.39681466  0.32852660  1
  C  C127  1  0.79855190  0.89681466  0.17147340  1
  C  C128  1  0.66290155  0.61023572  0.59424760  1
  C  C129  1  0.33709845  0.11023572  0.90575240  1
  C  C130  1  0.33709845  0.38976428  0.40575240  1
  C  C131  1  0.66290155  0.88976428  0.09424760  1
  C  C132  1  0.64202758  0.61617690  0.69133993  1
  C  C133  1  0.35797242  0.11617690  0.80866007  1
  C  C134  1  0.35797242  0.38382310  0.30866007  1
  C  C135  1  0.64202758  0.88382310  0.19133993  1
  Cu  Cu136  1  0.74261015  0.09532711  0.69538334  1
  Cu  Cu137  1  0.25738985  0.59532711  0.80461666  1
  Cu  Cu138  1  0.25738985  0.90467289  0.30461666  1
  Cu  Cu139  1  0.74261015  0.40467289  0.19538334  1
  Cu  Cu140  1  0.78327740  0.97117792  0.73500092  1
  Cu  Cu141  1  0.21672260  0.47117792  0.76499908  1
  Cu  Cu142  1  0.21672260  0.02882208  0.26499908  1
  Cu  Cu143  1  0.78327740  0.52882208  0.23500092  1
  Cu  Cu144  1  0.68675670  0.43051254  0.65344648  1
  Cu  Cu145  1  0.31324330  0.93051254  0.84655352  1
  Cu  Cu146  1  0.31324330  0.56948746  0.34655352  1
  Cu  Cu147  1  0.68675670  0.06948746  0.15344648  1
  Cu  Cu148  1  0.95804253  0.12866817  0.56240941  1
  Cu  Cu149  1  0.04195747  0.62866817  0.93759059  1
  Cu  Cu150  1  0.04195747  0.87133183  0.43759059  1
  Cu  Cu151  1  0.95804253  0.37133183  0.06240941  1
  Cu  Cu152  1  0.89458984  0.01703523  0.58149751  1
  Cu  Cu153  1  0.10541016  0.51703523  0.91850249  1
  Cu  Cu154  1  0.10541016  0.98296477  0.41850249  1
  Cu  Cu155  1  0.89458984  0.48296477  0.08149751  1
  Cu  Cu156  1  0.77656151  0.00360128  0.52724867  1
  Cu  Cu157  1  0.22343849  0.50360128  0.97275133  1
  Cu  Cu158  1  0.22343849  0.99639872  0.47275133  1
  Cu  Cu159  1  0.77656151  0.49639872  0.02724867  1
  Cu  Cu160  1  0.76076717  0.11157015  0.47816468  1
  Cu  Cu161  1  0.23923283  0.61157015  0.02183532  1
  Cu  Cu162  1  0.23923283  0.88842985  0.52183532  1
  Cu  Cu163  1  0.76076717  0.38842985  0.97816468  1
  Cu  Cu164  1  0.87508665  0.18716616  0.49691099  1
  Cu  Cu165  1  0.12491335  0.68716616  0.00308901  1
  Cu  Cu166  1  0.12491335  0.81283384  0.50308901  1
  Cu  Cu167  1  0.87508665  0.31283384  0.99691099  1
  Cu  Cu168  1  0.91733090  0.29411137  0.46045271  1
  Cu  Cu169  1  0.08266910  0.79411137  0.03954729  1
  Cu  Cu170  1  0.08266910  0.70588863  0.53954729  1
  Cu  Cu171  1  0.91733090  0.20588863  0.96045271  1
  Cu  Cu172  1  0.03823748  0.33950568  0.48911300  1
  Cu  Cu173  1  0.96176252  0.83950568  0.01088700  1
  Cu  Cu174  1  0.96176252  0.66049432  0.51088700  1
  Cu  Cu175  1  0.03823748  0.16049432  0.98911300  1
  Cu  Cu176  1  0.11848792  0.28436464  0.55531278  1
  Cu  Cu177  1  0.88151208  0.78436464  0.94468722  1
  Cu  Cu178  1  0.88151208  0.71563536  0.44468722  1
  Cu  Cu179  1  0.11848792  0.21563536  0.05531278  1
  Cu  Cu180  1  0.08034598  0.18127804  0.59226808  1
  Cu  Cu181  1  0.91965402  0.68127804  0.90773192  1
  Cu  Cu182  1  0.91965402  0.81872196  0.40773192  1
  Cu  Cu183  1  0.08034598  0.31872196  0.09226808  1
  Cu  Cu184  1  0.69880606  0.57357156  0.65256417  1
  Cu  Cu185  1  0.30119394  0.07357156  0.84743583  1
  Cu  Cu186  1  0.30119394  0.42642844  0.34743583  1
  Cu  Cu187  1  0.69880606  0.92642844  0.15256417  1
