# generated using pymatgen
data_Cu10NiC20
_symmetry_space_group_name_H-M   'P 1'
_cell_length_a   4.88036582
_cell_length_b   4.90373289
_cell_length_c   15.34344921
_cell_angle_alpha   89.83760205
_cell_angle_beta   89.92604353
_cell_angle_gamma   95.39063108
_symmetry_Int_Tables_number   1
_chemical_formula_structural   Cu10NiC20
_chemical_formula_sum   'Cu10 Ni1 C20'
_cell_volume   365.57367115
_cell_formula_units_Z   1
loop_
 _symmetry_equiv_pos_site_id
 _symmetry_equiv_pos_as_xyz
  1  'x, y, z'
loop_
 _atom_site_type_symbol
 _atom_site_label
 _atom_site_symmetry_multiplicity
 _atom_site_fract_x
 _atom_site_fract_y
 _atom_site_fract_z
 _atom_site_occupancy
  Ni  Ni0  1  0.99564400  0.49330800  0.30801800  1
  Cu  Cu1  1  0.99388300  0.99139400  0.99378300  1
  Cu  Cu2  1  0.99647600  0.99536100  0.19199900  1
  Cu  Cu3  1  0.99240600  0.99203000  0.41541900  1
  Cu  Cu4  1  0.03864400  0.01284600  0.61090600  1
  Cu  Cu5  1  0.02903300  0.01794900  0.79694200  1
  Cu  Cu6  1  0.49621900  0.49554700  0.10070700  1
  Cu  Cu7  1  0.49330600  0.48117000  0.49411600  1
  Cu  Cu8  1  0.49633700  0.49677400  0.29832600  1
  Cu  Cu9  1  0.44660800  0.52759300  0.70118100  1
  Cu  Cu10  1  0.49132500  0.48580400  0.90746400  1
  C  C11  1  0.20829800  0.81455000  0.69841100  1
  C  C12  1  0.28835000  0.29713700  0.00474900  1
  C  C13  1  0.24561100  0.32947900  0.19994400  1
  C  C14  1  0.25136500  0.33651100  0.39850000  1
  C  C15  1  0.30561900  0.32740700  0.59781900  1
  C  C16  1  0.31861300  0.33022200  0.80509200  1
  C  C17  1  0.70271400  0.68779300  0.00243300  1
  C  C18  1  0.74583700  0.66061000  0.19951400  1
  C  C19  1  0.74076200  0.64600000  0.40014400  1
  C  C20  1  0.20959600  0.82266500  0.09786900  1
  C  C21  1  0.21716200  0.84278400  0.29346300  1
  C  C22  1  0.23477600  0.81944800  0.50960600  1
  C  C23  1  0.20736500  0.80013900  0.90640100  1
  C  C24  1  0.71594200  0.70018100  0.60015400  1
  C  C25  1  0.70483700  0.70962700  0.80393400  1
  C  C26  1  0.78111500  0.16395900  0.09786800  1
  C  C27  1  0.77807700  0.18105900  0.51216900  1
  C  C28  1  0.77212900  0.14511700  0.29357700  1
  C  C29  1  0.79604000  0.19511700  0.90485400  1
  C  C30  1  0.80591200  0.20041600  0.69630600  1
