# generated using pymatgen
data_Cu2(NiC3)3
_symmetry_space_group_name_H-M   'P 1'
_cell_length_a   7.24421100
_cell_length_b   7.41327100
_cell_length_c   10.15319500
_cell_angle_alpha   90.00000000
_cell_angle_beta   90.00000000
_cell_angle_gamma   90.00000000
_symmetry_Int_Tables_number   1
_chemical_formula_structural   Cu2(NiC3)3
_chemical_formula_sum   'Cu4 Ni6 C18'
_cell_volume   545.26007018
_cell_formula_units_Z   2
loop_
 _symmetry_equiv_pos_site_id
 _symmetry_equiv_pos_as_xyz
  1  'x, y, z'
loop_
 _atom_site_type_symbol
 _atom_site_label
 _atom_site_symmetry_multiplicity
 _atom_site_fract_x
 _atom_site_fract_y
 _atom_site_fract_z
 _atom_site_occupancy
  C  C0  1  0.00000000  0.46903300  0.50000000  1
  C  C1  1  0.50000000  0.53096700  0.50000000  1
  Ni  Ni2  1  0.25595600  0.75354000  0.24867800  1
  Ni  Ni3  1  0.74404400  0.75354000  0.75132200  1
  Ni  Ni4  1  0.24404400  0.24646000  0.24867800  1
  Ni  Ni5  1  0.75595600  0.24646000  0.75132200  1
  Ni  Ni6  1  0.00000000  0.99632200  0.00000000  1
  Ni  Ni7  1  0.50000000  0.00367800  0.00000000  1
  Cu  Cu8  1  0.75000000  0.00000000  0.36389000  1
  Cu  Cu9  1  0.75000000  0.50000000  0.10929100  1
  Cu  Cu10  1  0.25000000  0.00000000  0.63611000  1
  Cu  Cu11  1  0.25000000  0.50000000  0.89070900  1
  C  C12  1  0.74639700  0.78396600  0.98429900  1
  C  C13  1  0.23980700  0.72973600  0.49296000  1
  C  C14  1  0.73980700  0.27026400  0.50704000  1
  C  C15  1  0.24639700  0.21603400  0.01570100  1
  C  C16  1  0.03643000  0.99552500  0.23653600  1
  C  C17  1  0.97284000  0.50442900  0.73990900  1
  C  C18  1  0.53643000  0.00447500  0.76346400  1
  C  C19  1  0.47284000  0.49557100  0.26009100  1
  C  C20  1  0.26019300  0.27026400  0.49296000  1
  C  C21  1  0.75360300  0.21603400  0.98429900  1
  C  C22  1  0.25360300  0.78396600  0.01570100  1
  C  C23  1  0.76019300  0.72973600  0.50704000  1
  C  C24  1  0.52716000  0.49557100  0.73990900  1
  C  C25  1  0.46357000  0.00447500  0.23653600  1
  C  C26  1  0.02716000  0.50442900  0.26009100  1
  C  C27  1  0.96357000  0.99552500  0.76346400  1
