# generated using pymatgen
data_CuNiC7
_symmetry_space_group_name_H-M   'P 1'
_cell_length_a   4.82770100
_cell_length_b   8.15443100
_cell_length_c   9.79644568
_cell_angle_alpha   92.11332830
_cell_angle_beta   90.00000000
_cell_angle_gamma   107.21852967
_symmetry_Int_Tables_number   1
_chemical_formula_structural   CuNiC7
_chemical_formula_sum   'Cu4 Ni4 C28'
_cell_volume   368.09940091
_cell_formula_units_Z   4
loop_
 _symmetry_equiv_pos_site_id
 _symmetry_equiv_pos_as_xyz
  1  'x, y, z'
loop_
 _atom_site_type_symbol
 _atom_site_label
 _atom_site_symmetry_multiplicity
 _atom_site_fract_x
 _atom_site_fract_y
 _atom_site_fract_z
 _atom_site_occupancy
  C  C0  1  0.00000000  0.50000000  0.00000000  1
  C  C1  1  0.50000000  0.50000000  0.50000000  1
  C  C2  1  0.85393700  0.29307500  0.73036100  1
  C  C3  1  0.56086200  0.70692500  0.76963900  1
  C  C4  1  0.14606300  0.70692500  0.26963900  1
  C  C5  1  0.43913800  0.29307500  0.23036100  1
  C  C6  1  0.28219200  0.00000000  0.75000000  1
  C  C7  1  0.71780800  0.00000000  0.25000000  1
  Ni  Ni8  1  0.32368100  0.28522100  0.91147900  1
  Ni  Ni9  1  0.03846100  0.71477900  0.58852100  1
  Ni  Ni10  1  0.67631900  0.71477900  0.08852100  1
  Ni  Ni11  1  0.96153900  0.28522100  0.41147900  1
  Cu  Cu12  1  0.41785900  0.14842400  0.58886700  1
  Cu  Cu13  1  0.26943600  0.85157600  0.91113300  1
  Cu  Cu14  1  0.58214100  0.85157600  0.41113300  1
  Cu  Cu15  1  0.73056400  0.14842400  0.08886700  1
  C  C16  1  0.15536200  0.10462800  0.84239600  1
  C  C17  1  0.05073500  0.89537200  0.65760400  1
  C  C18  1  0.84463800  0.89537200  0.15760400  1
  C  C19  1  0.94926500  0.10462800  0.34239600  1
  C  C20  1  0.65481200  0.31621700  0.90353300  1
  C  C21  1  0.33859500  0.68378300  0.59646700  1
  C  C22  1  0.34518800  0.68378300  0.09646700  1
  C  C23  1  0.66140500  0.31621700  0.40353300  1
  C  C24  1  0.21896600  0.41983400  0.83359500  1
  C  C25  1  0.79913300  0.58016600  0.66640500  1
  C  C26  1  0.78103400  0.58016600  0.16640500  1
  C  C27  1  0.20086700  0.41983400  0.33359500  1
  C  C28  1  0.22495100  0.29275800  0.06019600  1
  C  C29  1  0.93219300  0.70724200  0.43980400  1
  C  C30  1  0.77504900  0.70724200  0.93980400  1
  C  C31  1  0.06780700  0.29275800  0.56019600  1
  C  C32  1  0.51240200  0.10611200  0.66256000  1
  C  C33  1  0.40629000  0.89388800  0.83744000  1
  C  C34  1  0.48759800  0.89388800  0.33744000  1
  C  C35  1  0.59371000  0.10611200  0.16256000  1
