# generated using pymatgen
data_Cu2NiC3
_symmetry_space_group_name_H-M   'P 1'
_cell_length_a   3.30636108
_cell_length_b   3.30636108
_cell_length_c   37.62979900
_cell_angle_alpha   90.00000000
_cell_angle_beta   90.00000000
_cell_angle_gamma   120.00002159
_symmetry_Int_Tables_number   1
_chemical_formula_structural   Cu2NiC3
_chemical_formula_sum   'Cu4 Ni2 C6'
_cell_volume   356.25666308
_cell_formula_units_Z   2
loop_
 _symmetry_equiv_pos_site_id
 _symmetry_equiv_pos_as_xyz
  1  'x, y, z'
loop_
 _atom_site_type_symbol
 _atom_site_label
 _atom_site_symmetry_multiplicity
 _atom_site_fract_x
 _atom_site_fract_y
 _atom_site_fract_z
 _atom_site_occupancy
  C  C0  1  0.33333300  0.66666700  0.04311400  1
  C  C1  1  0.33333300  0.66666700  0.14462600  1
  C  C2  1  0.00000000  0.00000000  0.09386100  1
  C  C3  1  0.00000000  0.00000000  0.46965500  1
  C  C4  1  0.33333300  0.66666700  0.28186000  1
  C  C5  1  0.33333300  0.66666700  0.65754100  1
  Ni  Ni6  1  0.00000000  0.00000000  0.32666900  1
  Ni  Ni7  1  0.00000000  0.00000000  0.23701600  1
  Cu  Cu8  1  0.00000000  0.00000000  0.69829500  1
  Cu  Cu9  1  0.33333300  0.66666700  0.42901100  1
  Cu  Cu10  1  0.33333300  0.66666700  0.51033400  1
  Cu  Cu11  1  0.00000000  0.00000000  0.61676700  1
