# generated using pymatgen
data_CuNi3C53
_symmetry_space_group_name_H-M   'P 1'
_cell_length_a   11.04841286
_cell_length_b   11.04841286
_cell_length_c   11.04841317
_cell_angle_alpha   67.77465226
_cell_angle_beta   67.77465226
_cell_angle_gamma   67.77465720
_symmetry_Int_Tables_number   1
_chemical_formula_structural   CuNi3C53
_chemical_formula_sum   'Cu2 Ni6 C106'
_cell_volume   1111.32073851
_cell_formula_units_Z   2
loop_
 _symmetry_equiv_pos_site_id
 _symmetry_equiv_pos_as_xyz
  1  'x, y, z'
loop_
 _atom_site_type_symbol
 _atom_site_label
 _atom_site_symmetry_multiplicity
 _atom_site_fract_x
 _atom_site_fract_y
 _atom_site_fract_z
 _atom_site_occupancy
  C  C0  1  0.50354800  0.50354800  0.50354800  1
  C  C1  1  0.00354800  0.00354800  0.00354800  1
  Ni  Ni2  1  0.97175000  0.49253900  0.06815900  1
  Ni  Ni3  1  0.49253900  0.06815900  0.97175000  1
  Ni  Ni4  1  0.06815900  0.97175000  0.49253900  1
  Ni  Ni5  1  0.56815900  0.99253900  0.47175000  1
  Ni  Ni6  1  0.99253900  0.47175000  0.56815900  1
  Ni  Ni7  1  0.47175000  0.56815900  0.99253900  1
  Cu  Cu8  1  0.27205200  0.27205200  0.27205200  1
  Cu  Cu9  1  0.77205200  0.77205200  0.77205200  1
  C  C10  1  0.61275500  0.29531000  0.33781100  1
  C  C11  1  0.29531000  0.33781100  0.61275500  1
  C  C12  1  0.33781100  0.61275500  0.29531000  1
  C  C13  1  0.83781100  0.79531000  0.11275500  1
  C  C14  1  0.79531000  0.11275500  0.83781100  1
  C  C15  1  0.11275500  0.83781100  0.79531000  1
  C  C16  1  0.66964000  0.23930800  0.46156200  1
  C  C17  1  0.23930800  0.46156200  0.66964000  1
  C  C18  1  0.46156200  0.66964000  0.23930800  1
  C  C19  1  0.96156200  0.73930800  0.16964000  1
  C  C20  1  0.73930800  0.16964000  0.96156200  1
  C  C21  1  0.16964000  0.96156200  0.73930800  1
  C  C22  1  0.71140300  0.63447300  0.44558300  1
  C  C23  1  0.63447300  0.44558300  0.71140300  1
  C  C24  1  0.44558300  0.71140300  0.63447300  1
  C  C25  1  0.94558300  0.13447300  0.21140300  1
  C  C26  1  0.13447300  0.21140300  0.94558300  1
  C  C27  1  0.21140300  0.94558300  0.13447300  1
  C  C28  1  0.72508100  0.60894100  0.30937600  1
  C  C29  1  0.60894100  0.30937600  0.72508100  1
  C  C30  1  0.30937600  0.72508100  0.60894100  1
  C  C31  1  0.80937600  0.10894100  0.22508100  1
  C  C32  1  0.10894100  0.22508100  0.80937600  1
  C  C33  1  0.22508100  0.80937600  0.10894100  1
  C  C34  1  0.89824900  0.39261300  0.36218200  1
  C  C35  1  0.39261300  0.36218200  0.89824900  1
  C  C36  1  0.36218200  0.89824900  0.39261300  1
  C  C37  1  0.86218200  0.89261300  0.39824900  1
  C  C38  1  0.89261300  0.39824900  0.86218200  1
  C  C39  1  0.39824900  0.86218200  0.89261300  1
  C  C40  1  0.78960800  0.38268200  0.30928800  1
  C  C41  1  0.38268200  0.30928800  0.78960800  1
  C  C42  1  0.30928800  0.78960800  0.38268200  1
  C  C43  1  0.80928800  0.88268200  0.28960800  1
  C  C44  1  0.88268200  0.28960800  0.80928800  1
  C  C45  1  0.28960800  0.80928800  0.88268200  1
  C  C46  1  0.74481000  0.46644100  0.05099100  1
  C  C47  1  0.46644100  0.05099100  0.74481000  1
  C  C48  1  0.05099100  0.74481000  0.46644100  1
  C  C49  1  0.55099100  0.96644100  0.24481000  1
  C  C50  1  0.96644100  0.24481000  0.55099100  1
  C  C51  1  0.24481000  0.55099100  0.96644100  1
  C  C52  1  0.84335700  0.31139900  0.08325700  1
  C  C53  1  0.31139900  0.08325700  0.84335700  1
  C  C54  1  0.08325700  0.84335700  0.31139900  1
  C  C55  1  0.58325700  0.81139900  0.34335700  1
  C  C56  1  0.81139900  0.34335700  0.58325700  1
  C  C57  1  0.34335700  0.58325700  0.81139900  1
  C  C58  1  0.18228100  0.18228100  0.18228100  1
  C  C59  1  0.68228100  0.68228100  0.68228100  1
  C  C60  1  0.67626300  0.73457700  0.00220800  1
  C  C61  1  0.73457700  0.00220800  0.67626300  1
  C  C62  1  0.00220800  0.67626300  0.73457700  1
  C  C63  1  0.50220800  0.23457700  0.17626300  1
  C  C64  1  0.23457700  0.17626300  0.50220800  1
  C  C65  1  0.17626300  0.50220800  0.23457700  1
  C  C66  1  0.64865700  0.32361900  0.38982100  1
  C  C67  1  0.32361900  0.38982100  0.64865700  1
  C  C68  1  0.38982100  0.64865700  0.32361900  1
  C  C69  1  0.88982100  0.82361900  0.14865700  1
  C  C70  1  0.82361900  0.14865700  0.88982100  1
  C  C71  1  0.14865700  0.88982100  0.82361900  1
  C  C72  1  0.65908700  0.65000000  0.38239800  1
  C  C73  1  0.65000000  0.38239800  0.65908700  1
  C  C74  1  0.38239800  0.65908700  0.65000000  1
  C  C75  1  0.88239800  0.15000000  0.15908700  1
  C  C76  1  0.15000000  0.15908700  0.88239800  1
  C  C77  1  0.15908700  0.88239800  0.15000000  1
  C  C78  1  0.86087100  0.43025900  0.28201400  1
  C  C79  1  0.43025900  0.28201400  0.86087100  1
  C  C80  1  0.28201400  0.86087100  0.43025900  1
  C  C81  1  0.78201400  0.93025900  0.36087100  1
  C  C82  1  0.93025900  0.36087100  0.78201400  1
  C  C83  1  0.36087100  0.78201400  0.93025900  1
  C  C84  1  0.79009700  0.68064100  0.07161500  1
  C  C85  1  0.68064100  0.07161500  0.79009800  1
  C  C86  1  0.07161500  0.79009800  0.68064100  1
  C  C87  1  0.57161500  0.18064100  0.29009700  1
  C  C88  1  0.18064100  0.29009700  0.57161500  1
  C  C89  1  0.29009700  0.57161500  0.18064100  1
  C  C90  1  0.10181400  0.56403800  0.12153100  1
  C  C91  1  0.56403800  0.12153100  0.10181400  1
  C  C92  1  0.12153100  0.10181400  0.56403800  1
  C  C93  1  0.62153100  0.06403800  0.60181400  1
  C  C94  1  0.06403800  0.60181400  0.62153100  1
  C  C95  1  0.60181400  0.62153100  0.06403800  1
  C  C96  1  0.83906900  0.40932100  0.02679700  1
  C  C97  1  0.40932100  0.02679700  0.83906900  1
  C  C98  1  0.02679700  0.83906900  0.40932100  1
  C  C99  1  0.52679700  0.90932100  0.33906900  1
  C  C100  1  0.90932100  0.33906900  0.52679700  1
  C  C101  1  0.33906900  0.52679700  0.90932100  1
  C  C102  1  0.85354800  0.05514000  0.57615900  1
  C  C103  1  0.05514000  0.57615900  0.85354800  1
  C  C104  1  0.57615900  0.85354800  0.05514000  1
  C  C105  1  0.07615900  0.55514000  0.35354800  1
  C  C106  1  0.55514000  0.35354800  0.07615900  1
  C  C107  1  0.35354800  0.07615900  0.55514000  1
  C  C108  1  0.11852400  0.28792100  0.06968800  1
  C  C109  1  0.28792100  0.06968800  0.11852400  1
  C  C110  1  0.06968800  0.11852400  0.28792100  1
  C  C111  1  0.56968800  0.78792100  0.61852400  1
  C  C112  1  0.78792100  0.61852400  0.56968800  1
  C  C113  1  0.61852400  0.56968800  0.78792100  1
