# generated using pymatgen
data_CuNiC8
_symmetry_space_group_name_H-M   'P 1'
_cell_length_a   5.90095802
_cell_length_b   10.22075880
_cell_length_c   5.90095754
_cell_angle_alpha   106.77865115
_cell_angle_beta   59.99999774
_cell_angle_gamma   106.77865539
_symmetry_Int_Tables_number   1
_chemical_formula_structural   CuNiC8
_chemical_formula_sum   'Cu2 Ni2 C16'
_cell_volume   290.59124141
_cell_formula_units_Z   2
loop_
 _symmetry_equiv_pos_site_id
 _symmetry_equiv_pos_as_xyz
  1  'x, y, z'
loop_
 _atom_site_type_symbol
 _atom_site_label
 _atom_site_symmetry_multiplicity
 _atom_site_fract_x
 _atom_site_fract_y
 _atom_site_fract_z
 _atom_site_occupancy
  C  C0  1  0.37500000  0.12500000  0.37500000  1
  C  C1  1  0.87500000  0.62500000  0.87500000  1
  C  C2  1  0.12499900  0.37500000  0.12500000  1
  C  C3  1  0.62499900  0.87500000  0.62500000  1
  Ni  Ni4  1  0.50000000  0.50000000  0.50000000  1
  Ni  Ni5  1  0.00000000  0.00000000  0.00000000  1
  Cu  Cu6  1  0.74999900  0.25000000  0.75000000  1
  Cu  Cu7  1  0.24999900  0.75000000  0.25000000  1
  C  C8  1  0.10281900  0.36760600  0.63239400  1
  C  C9  1  0.60281900  0.86760600  0.13239400  1
  C  C10  1  0.86760700  0.13239400  0.39718100  1
  C  C11  1  0.36760700  0.63239400  0.89718100  1
  C  C12  1  0.63239400  0.36760600  0.10281800  1
  C  C13  1  0.13239400  0.86760600  0.60281800  1
  C  C14  1  0.63239400  0.36760600  0.63239300  1
  C  C15  1  0.13239400  0.86760600  0.13239300  1
  C  C16  1  0.39718200  0.13239400  0.86760600  1
  C  C17  1  0.89718200  0.63239400  0.36760600  1
  C  C18  1  0.86760600  0.13239300  0.86760500  1
  C  C19  1  0.36760600  0.63239300  0.36760500  1
