# generated using pymatgen
data_Cu5(Ni3C)2
_symmetry_space_group_name_H-M   'P 1'
_cell_length_a   9.24237000
_cell_length_b   6.63495200
_cell_length_c   12.02475634
_cell_angle_alpha   74.79467226
_cell_angle_beta   90.00000000
_cell_angle_gamma   90.00000000
_symmetry_Int_Tables_number   1
_chemical_formula_structural   Cu5(Ni3C)2
_chemical_formula_sum   'Cu10 Ni12 C4'
_cell_volume   711.57582284
_cell_formula_units_Z   2
loop_
 _symmetry_equiv_pos_site_id
 _symmetry_equiv_pos_as_xyz
  1  'x, y, z'
loop_
 _atom_site_type_symbol
 _atom_site_label
 _atom_site_symmetry_multiplicity
 _atom_site_fract_x
 _atom_site_fract_y
 _atom_site_fract_z
 _atom_site_occupancy
  C  C0  1  0.25000000  0.74459200  0.23910900  1
  C  C1  1  0.75000000  0.25540800  0.76089100  1
  C  C2  1  0.25000000  0.76512200  0.77462000  1
  C  C3  1  0.75000000  0.23487800  0.22538000  1
  Ni  Ni4  1  0.37968600  0.85576100  0.12996800  1
  Ni  Ni5  1  0.87968600  0.14423900  0.87003200  1
  Ni  Ni6  1  0.62031400  0.14423900  0.87003200  1
  Ni  Ni7  1  0.12031400  0.85576100  0.12996800  1
  Ni  Ni8  1  0.37930400  0.80190900  0.39258900  1
  Ni  Ni9  1  0.87930400  0.19809100  0.60741100  1
  Ni  Ni10  1  0.62069600  0.19809100  0.60741100  1
  Ni  Ni11  1  0.12069600  0.80190900  0.39258900  1
  Ni  Ni12  1  0.25000000  0.45604300  0.23150400  1
  Ni  Ni13  1  0.75000000  0.54395700  0.76849600  1
  Ni  Ni14  1  0.25000000  0.80459300  0.40049500  1
  Ni  Ni15  1  0.75000000  0.19540700  0.59950500  1
  Cu  Cu16  1  0.25000000  0.07821300  0.64008900  1
  Cu  Cu17  1  0.75000000  0.92178700  0.35991100  1
  Cu  Cu18  1  0.25000000  0.46048900  0.91851400  1
  Cu  Cu19  1  0.75000000  0.53951100  0.08148600  1
  Cu  Cu20  1  0.25000000  0.93524100  0.02768500  1
  Cu  Cu21  1  0.75000000  0.06475900  0.97231500  1
  Cu  Cu22  1  0.59669700  0.64206900  0.68532400  1
  Cu  Cu23  1  0.09669700  0.35793100  0.31467600  1
  Cu  Cu24  1  0.40330300  0.35793100  0.31467600  1
  Cu  Cu25  1  0.90330300  0.64206900  0.68532400  1
