# generated using pymatgen
data_Cu2NiC6
_symmetry_space_group_name_H-M   'P 1'
_cell_length_a   6.55802000
_cell_length_b   7.20248700
_cell_length_c   9.55503000
_cell_angle_alpha   90.00000000
_cell_angle_beta   90.00000000
_cell_angle_gamma   90.00000000
_symmetry_Int_Tables_number   1
_chemical_formula_structural   Cu2NiC6
_chemical_formula_sum   'Cu8 Ni4 C24'
_cell_volume   451.32280104
_cell_formula_units_Z   4
loop_
 _symmetry_equiv_pos_site_id
 _symmetry_equiv_pos_as_xyz
  1  'x, y, z'
loop_
 _atom_site_type_symbol
 _atom_site_label
 _atom_site_symmetry_multiplicity
 _atom_site_fract_x
 _atom_site_fract_y
 _atom_site_fract_z
 _atom_site_occupancy
  Ni  Ni0  1  0.58337000  0.98148800  0.67504000  1
  Ni  Ni1  1  0.41663000  0.48148800  0.32496000  1
  Ni  Ni2  1  0.08337000  0.48148800  0.82496000  1
  Ni  Ni3  1  0.91663000  0.98148800  0.17504000  1
  Cu  Cu4  1  0.09500700  0.74628700  0.52193500  1
  Cu  Cu5  1  0.40499300  0.74628700  0.02193500  1
  Cu  Cu6  1  0.90499300  0.24628700  0.47806500  1
  Cu  Cu7  1  0.59500700  0.24628700  0.97806500  1
  Cu  Cu8  1  0.92720500  0.52647400  0.17327800  1
  Cu  Cu9  1  0.07279500  0.02647400  0.82672200  1
  Cu  Cu10  1  0.42720500  0.02647400  0.32672200  1
  Cu  Cu11  1  0.57279500  0.52647400  0.67327800  1
  C  C12  1  0.69274700  0.74909400  0.39897000  1
  C  C13  1  0.80725300  0.74909400  0.89897000  1
  C  C14  1  0.30725300  0.24909400  0.60103000  1
  C  C15  1  0.19274700  0.24909400  0.10103000  1
  C  C16  1  0.02054000  0.75007500  0.99024000  1
  C  C17  1  0.47946000  0.75007500  0.49024000  1
  C  C18  1  0.97946000  0.25007500  0.00976000  1
  C  C19  1  0.52054000  0.25007500  0.50976000  1
  C  C20  1  0.16204800  0.74682800  0.27899700  1
  C  C21  1  0.33795200  0.74682800  0.77899700  1
  C  C22  1  0.83795200  0.24682800  0.72100300  1
  C  C23  1  0.66204800  0.24682800  0.22100300  1
  C  C24  1  0.63403000  0.75004600  0.22486200  1
  C  C25  1  0.86597000  0.75004600  0.72486200  1
  C  C26  1  0.36597000  0.25004600  0.77513800  1
  C  C27  1  0.13403000  0.25004600  0.27513800  1
  C  C28  1  0.31637100  0.05691900  0.07088300  1
  C  C29  1  0.19474500  0.44278900  0.56742000  1
  C  C30  1  0.68362900  0.55691900  0.92911700  1
  C  C31  1  0.80525500  0.94278900  0.43258000  1
  C  C32  1  0.69474500  0.94278900  0.93258000  1
  C  C33  1  0.81637100  0.55691900  0.42911700  1
  C  C34  1  0.30525500  0.44278900  0.06742000  1
  C  C35  1  0.18362900  0.05691900  0.57088300  1
