# generated using pymatgen
data_Cu4Ni8C9
_symmetry_space_group_name_H-M   'P 1'
_cell_length_a   5.56415334
_cell_length_b   5.54162876
_cell_length_c   10.69124088
_cell_angle_alpha   90.83741575
_cell_angle_beta   76.44230512
_cell_angle_gamma   58.94671581
_symmetry_Int_Tables_number   1
_chemical_formula_structural   Cu4Ni8C9
_chemical_formula_sum   'Cu4 Ni8 C9'
_cell_volume   270.88468469
_cell_formula_units_Z   1
loop_
 _symmetry_equiv_pos_site_id
 _symmetry_equiv_pos_as_xyz
  1  'x, y, z'
loop_
 _atom_site_type_symbol
 _atom_site_label
 _atom_site_symmetry_multiplicity
 _atom_site_fract_x
 _atom_site_fract_y
 _atom_site_fract_z
 _atom_site_occupancy
  C  C0  1  0.01719100  0.50131100  0.49968000  1
  C  C1  1  0.16316100  0.40521200  0.23927100  1
  C  C2  1  0.12392900  0.91793700  0.77843200  1
  C  C3  1  0.35933300  0.34980000  0.95772000  1
  C  C4  1  0.64551700  0.20050800  0.54001200  1
  C  C5  1  0.36839900  0.82601200  0.46134500  1
  C  C6  1  0.81911200  0.08476300  0.22643600  1
  C  C7  1  0.63152600  0.68048200  0.04291400  1
  C  C8  1  0.82066700  0.58797800  0.76009600  1
  Ni  Ni9  1  0.46084000  0.11054400  0.37091300  1
  Ni  Ni10  1  0.55394800  0.36429000  0.11912700  1
  Ni  Ni11  1  0.25952500  0.56713100  0.63511100  1
  Ni  Ni12  1  0.75808900  0.41659800  0.38046300  1
  Ni  Ni13  1  0.43915700  0.64344100  0.88055000  1
  Ni  Ni14  1  0.94788900  0.68032000  0.11840600  1
  Ni  Ni15  1  0.96437400  0.17875600  0.62515600  1
  Ni  Ni16  1  0.74706400  0.93908200  0.88051000  1
  Cu  Cu17  1  0.23517500  0.05135600  0.13018500  1
  Cu  Cu18  1  0.08384500  0.79876300  0.37034100  1
  Cu  Cu19  1  0.04687400  0.31573500  0.88296500  1
  Cu  Cu20  1  0.57577000  0.87512600  0.61938700  1
