# generated using pymatgen
data_Cu16Ni8C31
_symmetry_space_group_name_H-M   'P 1'
_cell_length_a   11.08433691
_cell_length_b   11.08433691
_cell_length_c   19.20355134
_cell_angle_alpha   86.01724627
_cell_angle_beta   86.01724627
_cell_angle_gamma   60.65336068
_symmetry_Int_Tables_number   1
_chemical_formula_structural   Cu16Ni8C31
_chemical_formula_sum   'Cu32 Ni16 C62'
_cell_volume   2049.94778054
_cell_formula_units_Z   2
loop_
 _symmetry_equiv_pos_site_id
 _symmetry_equiv_pos_as_xyz
  1  'x, y, z'
loop_
 _atom_site_type_symbol
 _atom_site_label
 _atom_site_symmetry_multiplicity
 _atom_site_fract_x
 _atom_site_fract_y
 _atom_site_fract_z
 _atom_site_occupancy
  C  C0  1  0.50000000  0.00000000  0.00000000  1
  C  C1  1  0.00000000  0.50000000  0.50000000  1
  C  C2  1  0.37425400  0.62574600  0.25000000  1
  C  C3  1  0.62574600  0.37425400  0.75000000  1
  C  C4  1  0.43619900  0.19532400  0.29316100  1
  C  C5  1  0.56380100  0.80467600  0.70683900  1
  C  C6  1  0.80467600  0.56380100  0.20683900  1
  C  C7  1  0.19532400  0.43619900  0.79316100  1
  C  C8  1  0.75998600  0.24001400  0.25000000  1
  C  C9  1  0.24001400  0.75998600  0.75000000  1
  C  C10  1  0.89215300  0.02817300  0.10703200  1
  C  C11  1  0.10784700  0.97182700  0.89296800  1
  C  C12  1  0.97182700  0.10784700  0.39296800  1
  C  C13  1  0.02817300  0.89215300  0.60703200  1
  C  C14  1  0.58989400  0.20399700  0.11332800  1
  C  C15  1  0.41010600  0.79600300  0.88667200  1
  C  C16  1  0.79600300  0.41010600  0.38667200  1
  C  C17  1  0.20399700  0.58989400  0.61332800  1
  C  C18  1  0.71224000  0.06904000  0.40480800  1
  C  C19  1  0.28776000  0.93096000  0.59519200  1
  C  C20  1  0.93096000  0.28776000  0.09519200  1
  C  C21  1  0.06904000  0.71224000  0.90480900  1
  C  C22  1  0.53325800  0.38922900  0.39852700  1
  C  C23  1  0.46674200  0.61077100  0.60147300  1
  C  C24  1  0.61077100  0.46674200  0.10147300  1
  C  C25  1  0.38922900  0.53325800  0.89852700  1
  C  C26  1  0.23926300  0.05736600  0.05342600  1
  C  C27  1  0.76073700  0.94263400  0.94657400  1
  C  C28  1  0.94263400  0.76073700  0.44657400  1
  C  C29  1  0.05736600  0.23926300  0.55342600  1
  C  C30  1  0.68299400  0.90978300  0.58549400  1
  C  C31  1  0.31700600  0.09021700  0.41450600  1
  C  C32  1  0.09021700  0.31700600  0.91450600  1
  C  C33  1  0.90978300  0.68299400  0.08549400  1
  C  C34  1  0.61126000  0.77534500  0.09526800  1
  C  C35  1  0.38874000  0.22465500  0.90473200  1
  C  C36  1  0.22465500  0.38874000  0.40473200  1
  C  C37  1  0.77534500  0.61126000  0.59526800  1
  C  C38  1  0.42232200  0.02204100  0.18590900  1
  C  C39  1  0.57767800  0.97795900  0.81409100  1
  C  C40  1  0.97795900  0.57767800  0.31409100  1
  C  C41  1  0.02204100  0.42232200  0.68590900  1
  C  C42  1  0.26348400  0.79958900  0.11506400  1
  C  C43  1  0.73651600  0.20041100  0.88493600  1
  C  C44  1  0.20041100  0.73651600  0.38493600  1
  C  C45  1  0.79958900  0.26348400  0.61506400  1
  C  C46  1  0.49034400  0.77777400  0.30292600  1
  C  C47  1  0.50965600  0.22222600  0.69707400  1
  C  C48  1  0.22222600  0.50965600  0.19707400  1
  C  C49  1  0.77777400  0.49034400  0.80292600  1
  C  C50  1  0.58147500  0.77837100  0.43540200  1
  C  C51  1  0.41852500  0.22162900  0.56459800  1
  C  C52  1  0.22162900  0.41852500  0.06459800  1
  C  C53  1  0.77837100  0.58147500  0.93540200  1
  C  C54  1  0.18896400  0.97587400  0.23944300  1
  C  C55  1  0.81103600  0.02412600  0.76055700  1
  C  C56  1  0.02412600  0.81103600  0.26055700  1
  C  C57  1  0.97587400  0.18896400  0.73944300  1
  C  C58  1  0.71387200  0.88820500  0.23557100  1
  C  C59  1  0.28612800  0.11179500  0.76442900  1
  C  C60  1  0.11179500  0.28612800  0.26442900  1
  C  C61  1  0.88820500  0.71387200  0.73557100  1
  Ni  Ni62  1  0.86544200  0.04855600  0.42109300  1
  Ni  Ni63  1  0.13455800  0.95144400  0.57890700  1
  Ni  Ni64  1  0.95144400  0.13455800  0.07890700  1
  Ni  Ni65  1  0.04855600  0.86544200  0.92109300  1
  Ni  Ni66  1  0.73853000  0.10181500  0.07259400  1
  Ni  Ni67  1  0.26147000  0.89818500  0.92740600  1
  Ni  Ni68  1  0.89818500  0.26147000  0.42740600  1
  Ni  Ni69  1  0.10181500  0.73853000  0.57259400  1
  Ni  Ni70  1  0.56785700  0.35350200  0.07906400  1
  Ni  Ni71  1  0.43214300  0.64649800  0.92093600  1
  Ni  Ni72  1  0.64649800  0.43214300  0.42093600  1
  Ni  Ni73  1  0.35350200  0.56785700  0.57906400  1
  Ni  Ni74  1  0.59028500  0.22608000  0.42592600  1
  Ni  Ni75  1  0.40971500  0.77392000  0.57407400  1
  Ni  Ni76  1  0.77392000  0.40971500  0.07407400  1
  Ni  Ni77  1  0.22608000  0.59028500  0.92592600  1
  Cu  Cu78  1  0.88291400  0.04811700  0.18607900  1
  Cu  Cu79  1  0.11708600  0.95188300  0.81392100  1
  Cu  Cu80  1  0.95188300  0.11708600  0.31392100  1
  Cu  Cu81  1  0.04811700  0.88291400  0.68607900  1
  Cu  Cu82  1  0.53638900  0.38067800  0.31825300  1
  Cu  Cu83  1  0.46361100  0.61932200  0.68174700  1
  Cu  Cu84  1  0.61932200  0.46361100  0.18174700  1
  Cu  Cu85  1  0.38067800  0.53638900  0.81825300  1
  Cu  Cu86  1  0.60024100  0.21039700  0.19255900  1
  Cu  Cu87  1  0.39975900  0.78960300  0.80744100  1
  Cu  Cu88  1  0.78960300  0.39975900  0.30744100  1
  Cu  Cu89  1  0.21039700  0.60024100  0.69255900  1
  Cu  Cu90  1  0.70547300  0.08308500  0.32471300  1
  Cu  Cu91  1  0.29452700  0.91691500  0.67528700  1
  Cu  Cu92  1  0.91691500  0.29452700  0.17528700  1
  Cu  Cu93  1  0.08308500  0.70547300  0.82471300  1
  Cu  Cu94  1  0.88378800  0.97969400  0.58265800  1
  Cu  Cu95  1  0.11621200  0.02030600  0.41734200  1
  Cu  Cu96  1  0.02030600  0.11621200  0.91734200  1
  Cu  Cu97  1  0.97969400  0.88378800  0.08265800  1
  Cu  Cu98  1  0.68851600  0.96042900  0.44356100  1
  Cu  Cu99  1  0.31148400  0.03957100  0.55643900  1
  Cu  Cu100  1  0.03957100  0.31148400  0.05643900  1
  Cu  Cu101  1  0.96042900  0.68851600  0.94356100  1
  Cu  Cu102  1  0.48194200  0.16736700  0.09528200  1
  Cu  Cu103  1  0.51805800  0.83263300  0.90471800  1
  Cu  Cu104  1  0.83263300  0.51805800  0.40471800  1
  Cu  Cu105  1  0.16736700  0.48194200  0.59528200  1
  Cu  Cu106  1  0.51682000  0.60813700  0.06989700  1
  Cu  Cu107  1  0.48318000  0.39186300  0.93010300  1
  Cu  Cu108  1  0.39186300  0.48318000  0.43010300  1
  Cu  Cu109  1  0.60813700  0.51682000  0.56989700  1
