# generated using pymatgen
data_Cu13NiC6
_symmetry_space_group_name_H-M   'P 1'
_cell_length_a   7.50588604
_cell_length_b   7.50588604
_cell_length_c   4.92665100
_cell_angle_alpha   90.00000000
_cell_angle_beta   90.00000000
_cell_angle_gamma   120.00000035
_symmetry_Int_Tables_number   1
_chemical_formula_structural   Cu13NiC6
_chemical_formula_sum   'Cu13 Ni1 C6'
_cell_volume   240.37337491
_cell_formula_units_Z   1
loop_
 _symmetry_equiv_pos_site_id
 _symmetry_equiv_pos_as_xyz
  1  'x, y, z'
loop_
 _atom_site_type_symbol
 _atom_site_label
 _atom_site_symmetry_multiplicity
 _atom_site_fract_x
 _atom_site_fract_y
 _atom_site_fract_z
 _atom_site_occupancy
  Ni  Ni0  1  0.66666700  0.33333300  0.40853900  1
  Cu  Cu1  1  0.87703900  0.12296100  0.45241300  1
  Cu  Cu2  1  0.24592100  0.12296100  0.45241300  1
  Cu  Cu3  1  0.87703900  0.75407900  0.45241300  1
  Cu  Cu4  1  0.78611000  0.21389000  0.95170500  1
  Cu  Cu5  1  0.42778000  0.21389000  0.95170500  1
  Cu  Cu6  1  0.78611000  0.57222000  0.95170500  1
  Cu  Cu7  1  0.00000000  0.00000000  0.90906300  1
  Cu  Cu8  1  0.45690000  0.54310000  0.25079000  1
  Cu  Cu9  1  0.08619900  0.54310000  0.25079000  1
  Cu  Cu10  1  0.45690000  0.91380100  0.25079000  1
  Cu  Cu11  1  0.21076400  0.78923600  0.75070300  1
  Cu  Cu12  1  0.57847100  0.78923600  0.75070300  1
  Cu  Cu13  1  0.21076400  0.42152900  0.75070300  1
  C  C14  1  0.14316300  0.85683700  0.16110600  1
  C  C15  1  0.71367400  0.85683700  0.16110600  1
  C  C16  1  0.14316300  0.28632600  0.16110600  1
  C  C17  1  0.52575800  0.47424200  0.65286100  1
  C  C18  1  0.94848400  0.47424200  0.65286100  1
  C  C19  1  0.52575800  0.05151600  0.65286100  1
