# generated using pymatgen
data_CuNiC16
_symmetry_space_group_name_H-M   'P 1'
_cell_length_a   6.15485582
_cell_length_b   6.15485582
_cell_length_c   7.40850818
_cell_angle_alpha   90.00000000
_cell_angle_beta   90.00000000
_cell_angle_gamma   106.01424357
_symmetry_Int_Tables_number   1
_chemical_formula_structural   CuNiC16
_chemical_formula_sum   'Cu1 Ni1 C16'
_cell_volume   269.75977853
_cell_formula_units_Z   1
loop_
 _symmetry_equiv_pos_site_id
 _symmetry_equiv_pos_as_xyz
  1  'x, y, z'
loop_
 _atom_site_type_symbol
 _atom_site_label
 _atom_site_symmetry_multiplicity
 _atom_site_fract_x
 _atom_site_fract_y
 _atom_site_fract_z
 _atom_site_occupancy
  Ni  Ni0  1  0.97850535  0.02149465  0.50000000  1
  Cu  Cu1  1  0.43257609  0.56742391  -0.00000000  1
  C  C2  1  0.47497664  0.05207953  0.25448466  1
  C  C3  1  0.47497664  0.05207953  0.74551534  1
  C  C4  1  0.94792047  0.52502336  0.74551534  1
  C  C5  1  0.94792047  0.52502336  0.25448466  1
  C  C6  1  0.33308016  0.24739478  0.23556352  1
  C  C7  1  0.75260522  0.66691984  0.23556352  1
  C  C8  1  0.75260522  0.66691984  0.76443648  1
  C  C9  1  0.33308016  0.24739478  0.76443648  1
  C  C10  1  0.24276120  0.75723880  0.21626793  1
  C  C11  1  0.78072354  0.21927646  0.28287770  1
  C  C12  1  0.78072354  0.21927646  0.71712230  1
  C  C13  1  0.24276120  0.75723880  0.78373207  1
  C  C14  1  0.53891433  -0.00370154  -0.00000000  1
  C  C15  1  0.44391000  0.97174176  0.50000000  1
  C  C16  1  0.00370154  0.46108567  -0.00000000  1
  C  C17  1  0.02825824  0.55609000  0.50000000  1
