# generated using pymatgen
data_CuNiC8
_symmetry_space_group_name_H-M   'P 1'
_cell_length_a   8.12165172
_cell_length_b   8.04551196
_cell_length_c   8.08207616
_cell_angle_alpha   90.00000000
_cell_angle_beta   90.00000000
_cell_angle_gamma   90.00000000
_symmetry_Int_Tables_number   1
_chemical_formula_structural   CuNiC8
_chemical_formula_sum   'Cu4 Ni4 C32'
_cell_volume   528.10585827
_cell_formula_units_Z   4
loop_
 _symmetry_equiv_pos_site_id
 _symmetry_equiv_pos_as_xyz
  1  'x, y, z'
loop_
 _atom_site_type_symbol
 _atom_site_label
 _atom_site_symmetry_multiplicity
 _atom_site_fract_x
 _atom_site_fract_y
 _atom_site_fract_z
 _atom_site_occupancy
  C  C0  1  -0.00000000  0.50000000  0.50000000  1
  C  C1  1  0.50000000  -0.00000000  0.50000000  1
  C  C2  1  0.50000000  0.50000000  0.00000000  1
  C  C3  1  0.50000000  -0.00000000  -0.00000000  1
  C  C4  1  0.00000000  0.50000000  0.00000000  1
  C  C5  1  -0.00000000  -0.00000000  0.50000000  1
  C  C6  1  -0.00000000  -0.00000000  0.00000000  1
  C  C7  1  0.50000000  0.50000000  0.50000000  1
  Ni  Ni8  1  0.25180863  0.24957623  0.25005255  1
  Ni  Ni9  1  0.74819137  0.75042377  0.25005255  1
  Ni  Ni10  1  0.74819137  0.24957623  0.74994745  1
  Ni  Ni11  1  0.25180863  0.75042377  0.74994745  1
  Cu  Cu12  1  0.74857293  0.75038366  0.74971700  1
  Cu  Cu13  1  0.25142707  0.24961634  0.74971700  1
  Cu  Cu14  1  0.25142707  0.75038366  0.25028300  1
  Cu  Cu15  1  0.74857293  0.24961634  0.25028300  1
  C  C16  1  0.99632446  0.22885389  0.26697546  1
  C  C17  1  0.00367554  0.77114611  0.26697546  1
  C  C18  1  0.00367554  0.22885389  0.73302454  1
  C  C19  1  0.99632446  0.77114611  0.73302454  1
  C  C20  1  0.26445830  0.99584885  0.23064834  1
  C  C21  1  0.26445830  0.00415115  0.76935166  1
  C  C22  1  0.73554170  0.00415115  0.23064834  1
  C  C23  1  0.73554170  0.99584885  0.76935166  1
  C  C24  1  0.22637188  0.26903705  0.99609366  1
  C  C25  1  0.77362812  0.26903705  0.00390634  1
  C  C26  1  0.22637188  0.73096295  0.00390634  1
  C  C27  1  0.77362812  0.73096295  0.99609366  1
  C  C28  1  0.50349127  0.26980670  0.23427906  1
  C  C29  1  0.49650873  0.73019330  0.23427906  1
  C  C30  1  0.49650873  0.26980670  0.76572094  1
  C  C31  1  0.50349127  0.73019330  0.76572094  1
  C  C32  1  0.23196976  0.50423925  0.26753645  1
  C  C33  1  0.23196976  0.49576075  0.73246355  1
  C  C34  1  0.76803024  0.49576075  0.26753645  1
  C  C35  1  0.76803024  0.50423925  0.73246355  1
  C  C36  1  0.26795056  0.23333127  0.50385651  1
  C  C37  1  0.73204944  0.23333127  0.49614349  1
  C  C38  1  0.26795056  0.76666873  0.49614349  1
  C  C39  1  0.73204944  0.76666873  0.50385651  1
