# generated using pymatgen
data_Cu4Ni4C5
_symmetry_space_group_name_H-M   'P 1'
_cell_length_a   3.62046300
_cell_length_b   6.46396000
_cell_length_c   6.93538786
_cell_angle_alpha   66.84359405
_cell_angle_beta   90.00000000
_cell_angle_gamma   90.00000000
_symmetry_Int_Tables_number   1
_chemical_formula_structural   Cu4Ni4C5
_chemical_formula_sum   'Cu4 Ni4 C5'
_cell_volume   149.22942602
_cell_formula_units_Z   1
loop_
 _symmetry_equiv_pos_site_id
 _symmetry_equiv_pos_as_xyz
  1  'x, y, z'
loop_
 _atom_site_type_symbol
 _atom_site_label
 _atom_site_symmetry_multiplicity
 _atom_site_fract_x
 _atom_site_fract_y
 _atom_site_fract_z
 _atom_site_occupancy
  C  C0  1  0.50000000  0.36251600  0.36558000  1
  C  C1  1  0.00000000  0.62300300  0.57682100  1
  C  C2  1  0.50000000  0.64484400  0.84966700  1
  C  C3  1  0.00000000  0.13006900  0.78585700  1
  C  C4  1  0.50000000  0.88089000  0.21124900  1
  Ni  Ni5  1  0.50000000  0.07856700  0.86423300  1
  Ni  Ni6  1  0.50000000  0.69930000  0.46785700  1
  Ni  Ni7  1  0.00000000  0.30028100  0.53015300  1
  Ni  Ni8  1  0.00000000  0.91842900  0.14326200  1
  Cu  Cu9  1  0.50000000  0.14517100  0.25933000  1
  Cu  Cu10  1  0.50000000  0.62458900  0.12192200  1
  Cu  Cu11  1  0.00000000  0.40081800  0.85578000  1
  Cu  Cu12  1  0.00000000  0.84086600  0.74432700  1
