# generated using pymatgen
data_CuNiC8
_symmetry_space_group_name_H-M   'P 1'
_cell_length_a   8.47082348
_cell_length_b   8.50514062
_cell_length_c   8.46021757
_cell_angle_alpha   90.00000000
_cell_angle_beta   90.00000000
_cell_angle_gamma   90.00000000
_symmetry_Int_Tables_number   1
_chemical_formula_structural   CuNiC8
_chemical_formula_sum   'Cu4 Ni4 C32'
_cell_volume   609.52098450
_cell_formula_units_Z   4
loop_
 _symmetry_equiv_pos_site_id
 _symmetry_equiv_pos_as_xyz
  1  'x, y, z'
loop_
 _atom_site_type_symbol
 _atom_site_label
 _atom_site_symmetry_multiplicity
 _atom_site_fract_x
 _atom_site_fract_y
 _atom_site_fract_z
 _atom_site_occupancy
  Ni  Ni0  1  0.50000000  -0.00000000  0.50000000  1
  Ni  Ni1  1  0.50000000  0.50000000  -0.00000000  1
  Ni  Ni2  1  -0.00000000  0.50000000  -0.00000000  1
  Ni  Ni3  1  -0.00000000  -0.00000000  0.50000000  1
  Cu  Cu4  1  -0.00000000  0.50000000  0.50000000  1
  Cu  Cu5  1  0.50000000  -0.00000000  -0.00000000  1
  Cu  Cu6  1  -0.00000000  -0.00000000  -0.00000000  1
  Cu  Cu7  1  0.50000000  0.50000000  0.50000000  1
  C  C8  1  0.75000000  0.75000000  0.75000000  1
  C  C9  1  0.25000000  0.25000000  0.75000000  1
  C  C10  1  0.25000000  0.75000000  0.25000000  1
  C  C11  1  0.75000000  0.25000000  0.25000000  1
  C  C12  1  0.25000000  0.25000000  0.25000000  1
  C  C13  1  0.75000000  0.75000000  0.25000000  1
  C  C14  1  0.75000000  0.25000000  0.75000000  1
  C  C15  1  0.25000000  0.75000000  0.75000000  1
  C  C16  1  0.02263732  0.22152919  0.27371950  1
  C  C17  1  0.97736268  0.77847081  0.27371950  1
  C  C18  1  0.97736268  0.22152919  0.72628050  1
  C  C19  1  0.02263732  0.77847081  0.72628050  1
  C  C20  1  0.27664190  0.02170915  0.20900007  1
  C  C21  1  0.27664190  0.97829085  0.79099993  1
  C  C22  1  0.72335810  0.97829085  0.20900007  1
  C  C23  1  0.72335810  0.02170915  0.79099993  1
  C  C24  1  0.21985014  0.26840575  0.02312302  1
  C  C25  1  0.78014986  0.26840575  0.97687698  1
  C  C26  1  0.21985014  0.73159425  0.97687698  1
  C  C27  1  0.78014986  0.73159425  0.02312302  1
  C  C28  1  0.47736268  0.27847081  0.22628050  1
  C  C29  1  0.52263732  0.72152919  0.22628050  1
  C  C30  1  0.52263732  0.27847081  0.77371950  1
  C  C31  1  0.47736268  0.72152919  0.77371950  1
  C  C32  1  0.22335810  0.47829085  0.29099993  1
  C  C33  1  0.22335810  0.52170915  0.70900007  1
  C  C34  1  0.77664190  0.52170915  0.29099993  1
  C  C35  1  0.77664190  0.47829085  0.70900007  1
  C  C36  1  0.28014986  0.23159425  0.47687698  1
  C  C37  1  0.71985014  0.23159425  0.52312302  1
  C  C38  1  0.28014986  0.76840575  0.52312302  1
  C  C39  1  0.71985014  0.76840575  0.47687698  1
