# generated using pymatgen
data_Cu3(NiC2)2
_symmetry_space_group_name_H-M   'P 1'
_cell_length_a   9.39164667
_cell_length_b   9.39164667
_cell_length_c   9.39164667
_cell_angle_alpha   155.10861068
_cell_angle_beta   155.10861068
_cell_angle_gamma   35.49022690
_symmetry_Int_Tables_number   1
_chemical_formula_structural   Cu3(NiC2)2
_chemical_formula_sum   'Cu3 Ni2 C4'
_cell_volume   146.57713907
_cell_formula_units_Z   1
loop_
 _symmetry_equiv_pos_site_id
 _symmetry_equiv_pos_as_xyz
  1  'x, y, z'
loop_
 _atom_site_type_symbol
 _atom_site_label
 _atom_site_symmetry_multiplicity
 _atom_site_fract_x
 _atom_site_fract_y
 _atom_site_fract_z
 _atom_site_occupancy
  C  C0  1  0.31745000  0.31745000  0.00000000  1
  C  C1  1  0.68255000  0.68255000  0.00000000  1
  C  C2  1  0.50000000  0.00000000  0.50000000  1
  C  C3  1  0.00000000  0.50000000  0.50000000  1
  Ni  Ni4  1  0.90285800  0.90285800  0.00000000  1
  Ni  Ni5  1  0.09714200  0.09714200  0.00000000  1
  Cu  Cu6  1  0.25000000  0.75000000  0.50000000  1
  Cu  Cu7  1  0.75000000  0.25000000  0.50000000  1
  Cu  Cu8  1  0.50000000  0.50000000  0.00000000  1
