# generated using pymatgen
data_Cu8NiC
_symmetry_space_group_name_H-M   'P 1'
_cell_length_a   17.63378800
_cell_length_b   7.20892600
_cell_length_c   12.02524687
_cell_angle_alpha   59.03691841
_cell_angle_beta   90.00000000
_cell_angle_gamma   90.00000000
_symmetry_Int_Tables_number   1
_chemical_formula_structural   Cu8NiC
_chemical_formula_sum   'Cu64 Ni8 C8'
_cell_volume   1310.82223302
_cell_formula_units_Z   8
loop_
 _symmetry_equiv_pos_site_id
 _symmetry_equiv_pos_as_xyz
  1  'x, y, z'
loop_
 _atom_site_type_symbol
 _atom_site_label
 _atom_site_symmetry_multiplicity
 _atom_site_fract_x
 _atom_site_fract_y
 _atom_site_fract_z
 _atom_site_occupancy
  C  C0  1  0.30377900  0.94985500  0.87658400  1
  C  C1  1  0.19622100  0.94985500  0.37658400  1
  C  C2  1  0.69622100  0.05014500  0.12341600  1
  C  C3  1  0.80377900  0.05014500  0.62341600  1
  C  C4  1  0.50000000  0.00000000  0.50000000  1
  C  C5  1  0.00000000  0.00000000  0.00000000  1
  C  C6  1  0.50000000  0.50000000  0.50000000  1
  C  C7  1  0.00000000  0.50000000  0.00000000  1
  Ni  Ni8  1  0.35352600  0.16777800  0.58649700  1
  Ni  Ni9  1  0.14647400  0.16777800  0.08649700  1
  Ni  Ni10  1  0.64647400  0.83222200  0.41350300  1
  Ni  Ni11  1  0.85352600  0.83222200  0.91350300  1
  Ni  Ni12  1  0.44177400  0.13103900  0.19661000  1
  Ni  Ni13  1  0.05822600  0.13103900  0.69661000  1
  Ni  Ni14  1  0.55822600  0.86896100  0.80339000  1
  Ni  Ni15  1  0.94177400  0.86896100  0.30339000  1
  Cu  Cu16  1  0.39255000  0.07561900  0.51477500  1
  Cu  Cu17  1  0.10745000  0.07561900  0.01477500  1
  Cu  Cu18  1  0.60745000  0.92438100  0.48522500  1
  Cu  Cu19  1  0.89255000  0.92438100  0.98522500  1
  Cu  Cu20  1  0.32768900  0.97426600  0.71175400  1
  Cu  Cu21  1  0.17231100  0.97426600  0.21175400  1
  Cu  Cu22  1  0.67231100  0.02573400  0.28824600  1
  Cu  Cu23  1  0.82768900  0.02573400  0.78824600  1
  Cu  Cu24  1  0.40507200  0.29759900  0.61764500  1
  Cu  Cu25  1  0.09492800  0.29759900  0.11764500  1
  Cu  Cu26  1  0.59492800  0.70240100  0.38235500  1
  Cu  Cu27  1  0.90507200  0.70240100  0.88235500  1
  Cu  Cu28  1  0.28899000  0.30399400  0.50949700  1
  Cu  Cu29  1  0.21101000  0.30399400  0.00949700  1
  Cu  Cu30  1  0.71101000  0.69600600  0.49050300  1
  Cu  Cu31  1  0.78899000  0.69600600  0.99050300  1
  Cu  Cu32  1  0.37039500  0.02293600  0.23532900  1
  Cu  Cu33  1  0.12960500  0.02293600  0.73532900  1
  Cu  Cu34  1  0.62960500  0.97706400  0.76467100  1
  Cu  Cu35  1  0.87039500  0.97706400  0.26467100  1
  Cu  Cu36  1  0.48792200  0.15091600  0.29029400  1
  Cu  Cu37  1  0.01207800  0.15091600  0.79029400  1
  Cu  Cu38  1  0.51207800  0.84908400  0.70970600  1
  Cu  Cu39  1  0.98792200  0.84908400  0.20970600  1
  Cu  Cu40  1  0.38064300  0.48413900  0.12065900  1
  Cu  Cu41  1  0.11935700  0.48413900  0.62065900  1
  Cu  Cu42  1  0.61935700  0.51586100  0.87934100  1
  Cu  Cu43  1  0.88064300  0.51586100  0.37934100  1
  Cu  Cu44  1  0.47447300  0.20571800  0.07228100  1
  Cu  Cu45  1  0.02552700  0.20571800  0.57228100  1
  Cu  Cu46  1  0.52552700  0.79428200  0.92771900  1
  Cu  Cu47  1  0.97447300  0.79428200  0.42771900  1
  Cu  Cu48  1  0.46800000  0.72149700  0.52338800  1
  Cu  Cu49  1  0.03200000  0.72149700  0.02338800  1
  Cu  Cu50  1  0.53200000  0.27850300  0.47661200  1
  Cu  Cu51  1  0.96800000  0.27850300  0.97661200  1
  Cu  Cu52  1  0.37447400  0.58719800  0.00092600  1
  Cu  Cu53  1  0.12552600  0.58719800  0.50092600  1
  Cu  Cu54  1  0.62552600  0.41280200  0.99907400  1
  Cu  Cu55  1  0.87447400  0.41280200  0.49907400  1
  Cu  Cu56  1  0.27087100  0.69912800  0.17888700  1
  Cu  Cu57  1  0.22912900  0.69912800  0.67888700  1
  Cu  Cu58  1  0.72912900  0.30087200  0.82111300  1
  Cu  Cu59  1  0.77087100  0.30087200  0.32111300  1
  Cu  Cu60  1  0.26520900  0.20910700  0.87297500  1
  Cu  Cu61  1  0.23479100  0.20910700  0.37297500  1
  Cu  Cu62  1  0.73479100  0.79089300  0.12702500  1
  Cu  Cu63  1  0.76520900  0.79089300  0.62702500  1
  Cu  Cu64  1  0.45410300  0.55590200  0.35001500  1
  Cu  Cu65  1  0.04589700  0.55590200  0.85001500  1
  Cu  Cu66  1  0.54589700  0.44409800  0.64998500  1
  Cu  Cu67  1  0.95410300  0.44409800  0.14998500  1
  Cu  Cu68  1  0.27526200  0.75583600  0.44898900  1
  Cu  Cu69  1  0.22473800  0.75583600  0.94898900  1
  Cu  Cu70  1  0.72473800  0.24416400  0.55101100  1
  Cu  Cu71  1  0.77526200  0.24416400  0.05101100  1
  Cu  Cu72  1  0.29343400  0.62250800  0.69797600  1
  Cu  Cu73  1  0.20656600  0.62250800  0.19797600  1
  Cu  Cu74  1  0.70656600  0.37749200  0.30202400  1
  Cu  Cu75  1  0.79343400  0.37749200  0.80202400  1
  Cu  Cu76  1  0.38219500  0.10138100  0.90732500  1
  Cu  Cu77  1  0.11780500  0.10138100  0.40732500  1
  Cu  Cu78  1  0.61780500  0.89861900  0.09267500  1
  Cu  Cu79  1  0.88219500  0.89861900  0.59267500  1
