# generated using pymatgen
data_CuNi3C16
_symmetry_space_group_name_H-M   'P 1'
_cell_length_a   7.81597500
_cell_length_b   7.87447200
_cell_length_c   7.91822748
_cell_angle_alpha   89.96498531
_cell_angle_beta   90.00000000
_cell_angle_gamma   90.00000000
_symmetry_Int_Tables_number   1
_chemical_formula_structural   CuNi3C16
_chemical_formula_sum   'Cu2 Ni6 C32'
_cell_volume   487.34049241
_cell_formula_units_Z   2
loop_
 _symmetry_equiv_pos_site_id
 _symmetry_equiv_pos_as_xyz
  1  'x, y, z'
loop_
 _atom_site_type_symbol
 _atom_site_label
 _atom_site_symmetry_multiplicity
 _atom_site_fract_x
 _atom_site_fract_y
 _atom_site_fract_z
 _atom_site_occupancy
  Ni  Ni0  1  0.75028700  0.74844500  0.74767700  1
  Ni  Ni1  1  0.24971300  0.74844500  0.74767700  1
  Ni  Ni2  1  0.74999000  0.74851800  0.25247000  1
  Ni  Ni3  1  0.25001000  0.74851800  0.25247000  1
  Ni  Ni4  1  0.75030200  0.25144900  0.25255000  1
  Ni  Ni5  1  0.24969800  0.25144900  0.25255000  1
  Cu  Cu6  1  0.75017000  0.25193600  0.74670100  1
  Cu  Cu7  1  0.24983000  0.25193600  0.74670100  1
  C  C8  1  0.00000000  0.00079600  0.99917600  1
  C  C9  1  0.50000000  0.00041200  0.99952800  1
  C  C10  1  0.00000000  0.49950400  0.99928400  1
  C  C11  1  0.00000000  0.00039900  0.50040000  1
  C  C12  1  0.50000000  0.00052600  0.50060000  1
  C  C13  1  0.50000000  0.49944300  0.99952400  1
  C  C14  1  0.00000000  0.49952800  0.50042700  1
  C  C15  1  0.50000000  0.49951300  0.50051600  1
  C  C16  1  0.00000000  0.74789500  0.00080100  1
  C  C17  1  0.50000000  0.74781900  0.99842200  1
  C  C18  1  0.00000000  0.75008000  0.50041200  1
  C  C19  1  0.50000000  0.74946900  0.50009800  1
  C  C20  1  0.00000000  0.25222200  0.99552700  1
  C  C21  1  0.50000000  0.25203400  0.99773500  1
  C  C22  1  0.00000000  0.24987600  0.50358900  1
  C  C23  1  0.50000000  0.25052400  0.50392500  1
  C  C24  1  0.00000000  0.00504500  0.74790800  1
  C  C25  1  0.50000000  0.00232000  0.74709900  1
  C  C26  1  0.00000000  0.99874800  0.25179700  1
  C  C27  1  0.50000000  0.00161600  0.25316500  1
  C  C28  1  0.00000000  0.49604600  0.74543700  1
  C  C29  1  0.50000000  0.49608300  0.74947200  1
  C  C30  1  0.00000000  0.49984000  0.25452500  1
  C  C31  1  0.50000000  0.49990800  0.25063900  1
  C  C32  1  0.75011900  0.00174200  0.99833200  1
  C  C33  1  0.24988100  0.00174200  0.99833200  1
  C  C34  1  0.75011500  0.00197800  0.50203800  1
  C  C35  1  0.24988500  0.00197800  0.50203800  1
  C  C36  1  0.74901600  0.49818400  0.99814900  1
  C  C37  1  0.25098400  0.49818400  0.99814900  1
  C  C38  1  0.74950800  0.49792600  0.50208000  1
  C  C39  1  0.25049200  0.49792600  0.50208000  1
