# generated using pymatgen
data_Cu2NiC33
_symmetry_space_group_name_H-M   'P 1'
_cell_length_a   8.50450198
_cell_length_b   8.50450198
_cell_length_c   8.50450115
_cell_angle_alpha   61.14813231
_cell_angle_beta   61.14813231
_cell_angle_gamma   61.14813315
_symmetry_Int_Tables_number   1
_chemical_formula_structural   Cu2NiC33
_chemical_formula_sum   'Cu2 Ni1 C33'
_cell_volume   446.17922067
_cell_formula_units_Z   1
loop_
 _symmetry_equiv_pos_site_id
 _symmetry_equiv_pos_as_xyz
  1  'x, y, z'
loop_
 _atom_site_type_symbol
 _atom_site_label
 _atom_site_symmetry_multiplicity
 _atom_site_fract_x
 _atom_site_fract_y
 _atom_site_fract_z
 _atom_site_occupancy
  Ni  Ni0  1  0.85601900  0.85601900  0.85601900  1
  C  C1  1  0.35642000  0.35642000  0.35642000  1
  C  C2  1  0.14258800  0.14258800  0.14258800  1
  C  C3  1  0.64392300  0.64392300  0.64392300  1
  Cu  Cu4  1  0.99762600  0.99762600  0.99762600  1
  Cu  Cu5  1  0.49939100  0.49939100  0.49939100  1
  C  C6  1  0.45205700  0.75183200  0.04606100  1
  C  C7  1  0.75183200  0.04606100  0.45205700  1
  C  C8  1  0.04606100  0.45205700  0.75183200  1
  C  C9  1  0.95800200  0.54135900  0.25408200  1
  C  C10  1  0.25408200  0.95800200  0.54135900  1
  C  C11  1  0.54135900  0.25408200  0.95800200  1
  C  C12  1  0.69156600  0.87918100  0.49484100  1
  C  C13  1  0.87918100  0.49484100  0.69156600  1
  C  C14  1  0.49484100  0.69156600  0.87918100  1
  C  C15  1  0.25345400  0.91295100  0.05969800  1
  C  C16  1  0.60262200  0.81236200  0.02062200  1
  C  C17  1  0.42737700  0.58772500  0.24147800  1
  C  C18  1  0.91295100  0.05969800  0.25345400  1
  C  C19  1  0.58772500  0.24147800  0.42737700  1
  C  C20  1  0.99763200  0.38080700  0.18778300  1
  C  C21  1  0.24147800  0.42737700  0.58772500  1
  C  C22  1  0.95182600  0.73486300  0.09937200  1
  C  C23  1  0.18778300  0.99763200  0.38080700  1
  C  C24  1  0.81236200  0.02062200  0.60262200  1
  C  C25  1  0.05969800  0.25345400  0.91295100  1
  C  C26  1  0.76148900  0.55301200  0.41704000  1
  C  C27  1  0.02062200  0.60262200  0.81236200  1
  C  C28  1  0.41704000  0.76148900  0.55301200  1
  C  C29  1  0.09937200  0.95182600  0.73486300  1
  C  C30  1  0.55301200  0.41704000  0.76148900  1
  C  C31  1  0.38080700  0.18778300  0.99763200  1
  C  C32  1  0.73486300  0.09937200  0.95182600  1
  C  C33  1  0.48812300  0.33148300  0.11330800  1
  C  C34  1  0.11330800  0.48812300  0.33148300  1
  C  C35  1  0.33148300  0.11330800  0.48812300  1
