# generated using pymatgen
data_Cu(NiC5)2
_symmetry_space_group_name_H-M   'P 1'
_cell_length_a   3.91579100
_cell_length_b   3.94672900
_cell_length_c   11.96047800
_cell_angle_alpha   90.00000000
_cell_angle_beta   90.00000000
_cell_angle_gamma   90.00000000
_symmetry_Int_Tables_number   1
_chemical_formula_structural   Cu(NiC5)2
_chemical_formula_sum   'Cu1 Ni2 C10'
_cell_volume   184.84399542
_cell_formula_units_Z   1
loop_
 _symmetry_equiv_pos_site_id
 _symmetry_equiv_pos_as_xyz
  1  'x, y, z'
loop_
 _atom_site_type_symbol
 _atom_site_label
 _atom_site_symmetry_multiplicity
 _atom_site_fract_x
 _atom_site_fract_y
 _atom_site_fract_z
 _atom_site_occupancy
  Ni  Ni0  1  0.50000000  0.50000000  0.18386000  1
  Ni  Ni1  1  0.50000000  0.50000000  0.81614000  1
  Cu  Cu2  1  0.50000000  0.50000000  0.50000000  1
  C  C3  1  0.00000000  0.00000000  0.00000000  1
  C  C4  1  0.00000000  0.00000000  0.35652300  1
  C  C5  1  0.00000000  0.00000000  0.64347700  1
  C  C6  1  0.50000000  0.00000000  0.37172200  1
  C  C7  1  0.50000000  0.00000000  0.62827800  1
  C  C8  1  0.00000000  0.00000000  0.15056100  1
  C  C9  1  0.00000000  0.00000000  0.84943900  1
  C  C10  1  0.00000000  0.50000000  0.37184500  1
  C  C11  1  0.00000000  0.50000000  0.62815500  1
  C  C12  1  0.00000000  0.50000000  0.00000000  1
