# generated using pymatgen
data_Cu(NiC)3
_symmetry_space_group_name_H-M   'P 1'
_cell_length_a   4.42324200
_cell_length_b   11.91199400
_cell_length_c   21.04938000
_cell_angle_alpha   90.00000000
_cell_angle_beta   90.00000000
_cell_angle_gamma   90.00000000
_symmetry_Int_Tables_number   1
_chemical_formula_structural   Cu(NiC)3
_chemical_formula_sum   'Cu4 Ni12 C12'
_cell_volume   1109.08408949
_cell_formula_units_Z   4
loop_
 _symmetry_equiv_pos_site_id
 _symmetry_equiv_pos_as_xyz
  1  'x, y, z'
loop_
 _atom_site_type_symbol
 _atom_site_label
 _atom_site_symmetry_multiplicity
 _atom_site_fract_x
 _atom_site_fract_y
 _atom_site_fract_z
 _atom_site_occupancy
  C  C0  1  0.25000000  0.67323500  0.99017400  1
  C  C1  1  0.75000000  0.32676500  0.00982600  1
  C  C2  1  0.75000000  0.82676500  0.49017400  1
  C  C3  1  0.25000000  0.17323500  0.50982600  1
  C  C4  1  0.25000000  0.54638700  0.10365000  1
  C  C5  1  0.75000000  0.45361300  0.89635000  1
  C  C6  1  0.75000000  0.95361300  0.60365000  1
  C  C7  1  0.25000000  0.04638700  0.39635000  1
  C  C8  1  0.25000000  0.66081600  0.63381600  1
  C  C9  1  0.75000000  0.33918400  0.36618400  1
  C  C10  1  0.75000000  0.83918400  0.13381600  1
  C  C11  1  0.25000000  0.16081600  0.86618400  1
  Ni  Ni12  1  0.25000000  0.72880000  0.19460500  1
  Ni  Ni13  1  0.75000000  0.27120000  0.80539500  1
  Ni  Ni14  1  0.75000000  0.77120000  0.69460500  1
  Ni  Ni15  1  0.25000000  0.22880000  0.30539500  1
  Ni  Ni16  1  0.25000000  0.66949700  0.49871500  1
  Ni  Ni17  1  0.75000000  0.33050300  0.50128500  1
  Ni  Ni18  1  0.75000000  0.83050300  0.99871500  1
  Ni  Ni19  1  0.25000000  0.16949700  0.00128500  1
  Ni  Ni20  1  0.25000000  0.59679600  0.86135600  1
  Ni  Ni21  1  0.75000000  0.40320400  0.13864400  1
  Ni  Ni22  1  0.75000000  0.90320400  0.36135600  1
  Ni  Ni23  1  0.25000000  0.09679600  0.63864400  1
  Cu  Cu24  1  0.25000000  0.95505700  0.83197200  1
  Cu  Cu25  1  0.75000000  0.04494300  0.16802800  1
  Cu  Cu26  1  0.75000000  0.54494300  0.33197200  1
  Cu  Cu27  1  0.25000000  0.45505700  0.66802800  1
