# generated using pymatgen
data_Cu6NiC
_symmetry_space_group_name_H-M   'P 1'
_cell_length_a   7.73517804
_cell_length_b   12.26365740
_cell_length_c   19.78612654
_cell_angle_alpha   90.00000000
_cell_angle_beta   90.00000000
_cell_angle_gamma   90.00000000
_symmetry_Int_Tables_number   1
_chemical_formula_structural   Cu6NiC
_chemical_formula_sum   'Cu144 Ni24 C24'
_cell_volume   1876.94309528
_cell_formula_units_Z   24
loop_
 _symmetry_equiv_pos_site_id
 _symmetry_equiv_pos_as_xyz
  1  'x, y, z'
loop_
 _atom_site_type_symbol
 _atom_site_label
 _atom_site_symmetry_multiplicity
 _atom_site_fract_x
 _atom_site_fract_y
 _atom_site_fract_z
 _atom_site_occupancy
  C  C0  1  0.53270840  0.40750821  0.35436644  1
  C  C1  1  0.03270840  0.09249179  0.64563356  1
  C  C2  1  0.46729160  0.90750821  0.14563356  1
  C  C3  1  0.96729160  0.59249179  0.85436644  1
  C  C4  1  0.46729160  0.59249179  0.64563356  1
  C  C5  1  0.96729160  0.90750821  0.35436644  1
  C  C6  1  0.53270840  0.09249179  0.85436644  1
  C  C7  1  0.03270840  0.40750821  0.14563356  1
  Ni  Ni8  1  0.20612513  0.60088781  0.74670582  1
  Ni  Ni9  1  0.70612513  0.89911219  0.25329418  1
  Ni  Ni10  1  0.79387487  0.10088781  0.75329418  1
  Ni  Ni11  1  0.29387487  0.39911219  0.24670582  1
  Ni  Ni12  1  0.79387487  0.39911219  0.25329418  1
  Ni  Ni13  1  0.29387487  0.10088781  0.74670582  1
  Ni  Ni14  1  0.20612513  0.89911219  0.24670582  1
  Ni  Ni15  1  0.70612513  0.60088781  0.75329418  1
  Ni  Ni16  1  0.23907982  0.61735318  0.55385189  1
  Ni  Ni17  1  0.73907982  0.88264682  0.44614811  1
  Ni  Ni18  1  0.76092018  0.11735318  0.94614811  1
  Ni  Ni19  1  0.26092018  0.38264682  0.05385189  1
  Ni  Ni20  1  0.76092018  0.38264682  0.44614811  1
  Ni  Ni21  1  0.26092018  0.11735318  0.55385189  1
  Ni  Ni22  1  0.23907982  0.88264682  0.05385189  1
  Ni  Ni23  1  0.73907982  0.61735318  0.94614811  1
  Ni  Ni24  1  0.47179771  0.61215526  0.35704100  1
  Ni  Ni25  1  0.97179771  0.88784474  0.64295900  1
  Ni  Ni26  1  0.52820229  0.11215526  0.14295900  1
  Ni  Ni27  1  0.02820229  0.38784474  0.85704100  1
  Ni  Ni28  1  0.52820229  0.38784474  0.64295900  1
  Ni  Ni29  1  0.02820229  0.11215526  0.35704100  1
  Ni  Ni30  1  0.47179771  0.88784474  0.85704100  1
  Ni  Ni31  1  0.97179771  0.61215526  0.14295900  1
  Cu  Cu32  1  0.84812532  0.31620486  0.65535943  1
  Cu  Cu33  1  0.34812532  0.18379514  0.34464057  1
  Cu  Cu34  1  0.15187468  0.81620486  0.84464057  1
  Cu  Cu35  1  0.65187468  0.68379514  0.15535943  1
  Cu  Cu36  1  0.15187468  0.68379514  0.34464057  1
  Cu  Cu37  1  0.65187468  0.81620486  0.65535943  1
  Cu  Cu38  1  0.84812532  0.18379514  0.15535943  1
  Cu  Cu39  1  0.34812532  0.31620486  0.84464057  1
  Cu  Cu40  1  0.05300202  0.34491772  0.64333592  1
  Cu  Cu41  1  0.55300202  0.15508228  0.35666408  1
  Cu  Cu42  1  0.94699798  0.84491772  0.85666408  1
  Cu  Cu43  1  0.44699798  0.65508228  0.14333592  1
  Cu  Cu44  1  0.94699798  0.65508228  0.35666408  1
  Cu  Cu45  1  0.44699798  0.84491772  0.64333592  1
  Cu  Cu46  1  0.05300202  0.15508228  0.14333592  1
  Cu  Cu47  1  0.55300202  0.34491772  0.85666408  1
  Cu  Cu48  1  0.98419860  0.31087413  0.71833418  1
  Cu  Cu49  1  0.48419860  0.18912587  0.28166582  1
  Cu  Cu50  1  0.01580140  0.81087413  0.78166582  1
  Cu  Cu51  1  0.51580140  0.68912587  0.21833418  1
  Cu  Cu52  1  0.01580140  0.68912587  0.28166582  1
  Cu  Cu53  1  0.51580140  0.81087413  0.71833418  1
  Cu  Cu54  1  0.98419860  0.18912587  0.21833418  1
  Cu  Cu55  1  0.48419860  0.31087413  0.78166582  1
  Cu  Cu56  1  0.16399392  0.79466326  0.47254725  1
  Cu  Cu57  1  0.66399392  0.70533674  0.52745275  1
  Cu  Cu58  1  0.83600608  0.29466326  0.02745275  1
  Cu  Cu59  1  0.33600608  0.20533674  0.97254725  1
  Cu  Cu60  1  0.83600608  0.20533674  0.52745275  1
  Cu  Cu61  1  0.33600608  0.29466326  0.47254725  1
  Cu  Cu62  1  0.16399392  0.70533674  0.97254725  1
  Cu  Cu63  1  0.66399392  0.79466326  0.02745275  1
  Cu  Cu64  1  0.20799265  0.92484359  0.47554919  1
  Cu  Cu65  1  0.70799265  0.57515641  0.52445081  1
  Cu  Cu66  1  0.79200735  0.42484359  0.02445081  1
  Cu  Cu67  1  0.29200735  0.07515641  0.97554919  1
  Cu  Cu68  1  0.79200735  0.07515641  0.52445081  1
  Cu  Cu69  1  0.29200735  0.42484359  0.47554919  1
  Cu  Cu70  1  0.20799265  0.57515641  0.97554919  1
  Cu  Cu71  1  0.70799265  0.92484359  0.02445081  1
  Cu  Cu72  1  0.31351791  0.84520212  0.42361503  1
  Cu  Cu73  1  0.81351791  0.65479788  0.57638497  1
  Cu  Cu74  1  0.68648209  0.34520212  0.07638497  1
  Cu  Cu75  1  0.18648209  0.15479788  0.92361503  1
  Cu  Cu76  1  0.68648209  0.15479788  0.57638497  1
  Cu  Cu77  1  0.18648209  0.34520212  0.42361503  1
  Cu  Cu78  1  0.31351791  0.65479788  0.92361503  1
  Cu  Cu79  1  0.81351791  0.84520212  0.07638497  1
  Cu  Cu80  1  0.04877930  0.60223027  0.73886213  1
  Cu  Cu81  1  0.54877930  0.89776973  0.26113787  1
  Cu  Cu82  1  0.95122070  0.10223027  0.76113787  1
  Cu  Cu83  1  0.45122070  0.39776973  0.23886213  1
  Cu  Cu84  1  0.95122070  0.39776973  0.26113787  1
  Cu  Cu85  1  0.45122070  0.10223027  0.73886213  1
  Cu  Cu86  1  0.04877930  0.89776973  0.23886213  1
  Cu  Cu87  1  0.54877930  0.60223027  0.76113787  1
  Cu  Cu88  1  0.26145028  0.51621161  0.72186884  1
  Cu  Cu89  1  0.76145028  0.98378839  0.27813116  1
  Cu  Cu90  1  0.73854972  0.01621161  0.77813116  1
  Cu  Cu91  1  0.23854972  0.48378839  0.22186884  1
  Cu  Cu92  1  0.73854972  0.48378839  0.27813116  1
  Cu  Cu93  1  0.23854972  0.01621161  0.72186884  1
  Cu  Cu94  1  0.26145028  0.98378839  0.22186884  1
  Cu  Cu95  1  0.76145028  0.51621161  0.77813116  1
  Cu  Cu96  1  0.24801976  0.60258223  0.80660760  1
  Cu  Cu97  1  0.74801976  0.89741777  0.19339240  1
  Cu  Cu98  1  0.75198024  0.10258223  0.69339240  1
  Cu  Cu99  1  0.25198024  0.39741777  0.30660760  1
  Cu  Cu100  1  0.75198024  0.39741777  0.19339240  1
  Cu  Cu101  1  0.25198024  0.10258223  0.80660760  1
  Cu  Cu102  1  0.24801976  0.89741777  0.30660760  1
  Cu  Cu103  1  0.74801976  0.60258223  0.69339240  1
  Cu  Cu104  1  0.26422339  0.68281188  0.71910811  1
  Cu  Cu105  1  0.76422339  0.81718812  0.28089189  1
  Cu  Cu106  1  0.73577661  0.18281188  0.78089189  1
  Cu  Cu107  1  0.23577661  0.31718812  0.21910811  1
  Cu  Cu108  1  0.73577661  0.31718812  0.28089189  1
  Cu  Cu109  1  0.23577661  0.18281188  0.71910811  1
  Cu  Cu110  1  0.26422339  0.81718812  0.21910811  1
  Cu  Cu111  1  0.76422339  0.68281188  0.78089189  1
  Cu  Cu112  1  0.36089801  0.56130906  0.53322762  1
  Cu  Cu113  1  0.86089801  0.93869094  0.46677238  1
  Cu  Cu114  1  0.63910199  0.06130906  0.96677238  1
  Cu  Cu115  1  0.13910199  0.43869094  0.03322762  1
  Cu  Cu116  1  0.63910199  0.43869094  0.46677238  1
  Cu  Cu117  1  0.13910199  0.06130906  0.53322762  1
  Cu  Cu118  1  0.36089801  0.93869094  0.03322762  1
  Cu  Cu119  1  0.86089801  0.56130906  0.96677238  1
  Cu  Cu120  1  0.18011095  0.57202056  0.60458803  1
  Cu  Cu121  1  0.68011095  0.92797944  0.39541197  1
  Cu  Cu122  1  0.81988905  0.07202056  0.89541197  1
  Cu  Cu123  1  0.31988905  0.42797944  0.10458803  1
  Cu  Cu124  1  0.81988905  0.42797944  0.39541197  1
  Cu  Cu125  1  0.31988905  0.07202056  0.60458803  1
  Cu  Cu126  1  0.18011095  0.92797944  0.10458803  1
  Cu  Cu127  1  0.68011095  0.57202056  0.89541197  1
  Cu  Cu128  1  0.12901544  0.62838802  0.51093443  1
  Cu  Cu129  1  0.62901544  0.87161198  0.48906557  1
  Cu  Cu130  1  0.87098456  0.12838802  0.98906557  1
  Cu  Cu131  1  0.37098456  0.37161198  0.01093443  1
  Cu  Cu132  1  0.87098456  0.37161198  0.48906557  1
  Cu  Cu133  1  0.37098456  0.12838802  0.51093443  1
  Cu  Cu134  1  0.12901544  0.87161198  0.01093443  1
  Cu  Cu135  1  0.62901544  0.62838802  0.98906557  1
  Cu  Cu136  1  0.29997224  0.70584029  0.57179106  1
  Cu  Cu137  1  0.79997224  0.79415971  0.42820894  1
  Cu  Cu138  1  0.70002776  0.20584029  0.92820894  1
  Cu  Cu139  1  0.20002776  0.29415971  0.07179106  1
  Cu  Cu140  1  0.70002776  0.29415971  0.42820894  1
  Cu  Cu141  1  0.20002776  0.20584029  0.57179106  1
  Cu  Cu142  1  0.29997224  0.79415971  0.07179106  1
  Cu  Cu143  1  0.79997224  0.70584029  0.92820894  1
  Cu  Cu144  1  0.61469222  0.59481464  0.38228917  1
  Cu  Cu145  1  0.11469222  0.90518536  0.61771083  1
  Cu  Cu146  1  0.38530778  0.09481464  0.11771083  1
  Cu  Cu147  1  0.88530778  0.40518536  0.88228917  1
  Cu  Cu148  1  0.38530778  0.40518536  0.61771083  1
  Cu  Cu149  1  0.88530778  0.09481464  0.38228917  1
  Cu  Cu150  1  0.61469222  0.90518536  0.88228917  1
  Cu  Cu151  1  0.11469222  0.59481464  0.11771083  1
  Cu  Cu152  1  0.43751629  0.70823106  0.35693362  1
  Cu  Cu153  1  0.93751629  0.79176894  0.64306638  1
  Cu  Cu154  1  0.56248371  0.20823106  0.14306638  1
  Cu  Cu155  1  0.06248371  0.29176894  0.85693362  1
  Cu  Cu156  1  0.56248371  0.29176894  0.64306638  1
  Cu  Cu157  1  0.06248371  0.20823106  0.35693362  1
  Cu  Cu158  1  0.43751629  0.79176894  0.85693362  1
  Cu  Cu159  1  0.93751629  0.70823106  0.14306638  1
  Cu  Cu160  1  0.36374632  0.55893900  0.38920972  1
  Cu  Cu161  1  0.86374632  0.94106100  0.61079028  1
  Cu  Cu162  1  0.63625368  0.05893900  0.11079028  1
  Cu  Cu163  1  0.13625368  0.44106100  0.88920972  1
  Cu  Cu164  1  0.63625368  0.44106100  0.61079028  1
  Cu  Cu165  1  0.13625368  0.05893900  0.38920972  1
  Cu  Cu166  1  0.36374632  0.94106100  0.88920972  1
  Cu  Cu167  1  0.86374632  0.55893900  0.11079028  1
  Cu  Cu168  1  0.47297555  0.57518473  0.29904653  1
  Cu  Cu169  1  0.97297555  0.92481527  0.70095347  1
  Cu  Cu170  1  0.52702445  0.07518473  0.20095347  1
  Cu  Cu171  1  0.02702445  0.42481527  0.79904653  1
  Cu  Cu172  1  0.52702445  0.42481527  0.70095347  1
  Cu  Cu173  1  0.02702445  0.07518473  0.29904653  1
  Cu  Cu174  1  0.47297555  0.92481527  0.79904653  1
  Cu  Cu175  1  0.97297555  0.57518473  0.20095347  1
  C  C176  1  0.97109220  0.29258105  0.66804658  1
  C  C177  1  0.47109220  0.20741895  0.33195342  1
  C  C178  1  0.02890780  0.79258105  0.83195342  1
  C  C179  1  0.52890780  0.70741895  0.16804658  1
  C  C180  1  0.02890780  0.70741895  0.33195342  1
  C  C181  1  0.52890780  0.79258105  0.66804658  1
  C  C182  1  0.97109220  0.20741895  0.16804658  1
  C  C183  1  0.47109220  0.29258105  0.83195342  1
  C  C184  1  0.19266907  0.86070366  0.44282697  1
  C  C185  1  0.69266907  0.63929634  0.55717303  1
  C  C186  1  0.80733093  0.36070366  0.05717303  1
  C  C187  1  0.30733093  0.13929634  0.94282697  1
  C  C188  1  0.80733093  0.13929634  0.55717303  1
  C  C189  1  0.30733093  0.36070366  0.44282697  1
  C  C190  1  0.19266907  0.63929634  0.94282697  1
  C  C191  1  0.69266907  0.86070366  0.05717303  1
