# generated using pymatgen
data_Cu3NiC2
_symmetry_space_group_name_H-M   'P 1'
_cell_length_a   8.55751200
_cell_length_b   8.55751200
_cell_length_c   20.29680600
_cell_angle_alpha   90.00000000
_cell_angle_beta   90.00000000
_cell_angle_gamma   90.00000000
_symmetry_Int_Tables_number   1
_chemical_formula_structural   Cu3NiC2
_chemical_formula_sum   'Cu24 Ni8 C16'
_cell_volume   1486.35563624
_cell_formula_units_Z   8
loop_
 _symmetry_equiv_pos_site_id
 _symmetry_equiv_pos_as_xyz
  1  'x, y, z'
loop_
 _atom_site_type_symbol
 _atom_site_label
 _atom_site_symmetry_multiplicity
 _atom_site_fract_x
 _atom_site_fract_y
 _atom_site_fract_z
 _atom_site_occupancy
  C  C0  1  0.50000000  0.50000000  0.24558300  1
  C  C1  1  0.50000000  0.50000000  0.74558300  1
  C  C2  1  0.00000000  0.00000000  0.39942300  1
  C  C3  1  0.00000000  0.00000000  0.89942300  1
  C  C4  1  0.00000000  0.00000000  0.60105100  1
  C  C5  1  0.00000000  0.00000000  0.10105100  1
  C  C6  1  0.50000000  0.50000000  0.44923000  1
  C  C7  1  0.50000000  0.50000000  0.94923000  1
  C  C8  1  0.00000000  0.50000000  0.08893500  1
  C  C9  1  0.50000000  0.00000000  0.08893500  1
  C  C10  1  0.00000000  0.50000000  0.58893500  1
  C  C11  1  0.50000000  0.00000000  0.58893500  1
  C  C12  1  0.00000000  0.50000000  0.91187500  1
  C  C13  1  0.50000000  0.00000000  0.91187500  1
  C  C14  1  0.00000000  0.50000000  0.41187500  1
  C  C15  1  0.50000000  0.00000000  0.41187500  1
  Ni  Ni16  1  0.99847100  0.68296300  0.24966500  1
  Ni  Ni17  1  0.00152900  0.31703700  0.24966500  1
  Ni  Ni18  1  0.31703700  0.99847100  0.24966500  1
  Ni  Ni19  1  0.68296300  0.00152900  0.24966500  1
  Ni  Ni20  1  0.00152900  0.68296300  0.74966500  1
  Ni  Ni21  1  0.99847100  0.31703700  0.74966500  1
  Ni  Ni22  1  0.68296300  0.99847100  0.74966500  1
  Ni  Ni23  1  0.31703700  0.00152900  0.74966500  1
  Cu  Cu24  1  0.33338500  0.15286000  0.49987600  1
  Cu  Cu25  1  0.66661500  0.84714000  0.49987600  1
  Cu  Cu26  1  0.84714000  0.33338500  0.49987600  1
  Cu  Cu27  1  0.15286000  0.66661500  0.49987600  1
  Cu  Cu28  1  0.66661500  0.15286000  0.99987600  1
  Cu  Cu29  1  0.33338500  0.84714000  0.99987600  1
  Cu  Cu30  1  0.15286000  0.33338500  0.99987600  1
  Cu  Cu31  1  0.84714000  0.66661500  0.99987600  1
  Cu  Cu32  1  0.32335400  0.81637100  0.34422400  1
  Cu  Cu33  1  0.67664600  0.18362900  0.34422400  1
  Cu  Cu34  1  0.18362900  0.32335400  0.34422400  1
  Cu  Cu35  1  0.81637100  0.67664600  0.34422400  1
  Cu  Cu36  1  0.67664600  0.81637100  0.84422400  1
  Cu  Cu37  1  0.32335400  0.18362900  0.84422400  1
  Cu  Cu38  1  0.81637100  0.32335400  0.84422400  1
  Cu  Cu39  1  0.18362900  0.67664600  0.84422400  1
  Cu  Cu40  1  0.67772500  0.18239400  0.65623300  1
  Cu  Cu41  1  0.32227500  0.81760600  0.65623300  1
  Cu  Cu42  1  0.81760600  0.67772500  0.65623300  1
  Cu  Cu43  1  0.18239400  0.32227500  0.65623300  1
  Cu  Cu44  1  0.32227500  0.18239400  0.15623300  1
  Cu  Cu45  1  0.67772500  0.81760600  0.15623300  1
  Cu  Cu46  1  0.18239400  0.67772500  0.15623300  1
  Cu  Cu47  1  0.81760600  0.32227500  0.15623300  1
