# generated using pymatgen
data_Cu17(Ni2C)5
_symmetry_space_group_name_H-M   'P 1'
_cell_length_a   10.63197544
_cell_length_b   10.63197544
_cell_length_c   10.63197544
_cell_angle_alpha   104.81612484
_cell_angle_beta   104.81612484
_cell_angle_gamma   119.24626179
_symmetry_Int_Tables_number   1
_chemical_formula_structural   Cu17(Ni2C)5
_chemical_formula_sum   'Cu17 Ni10 C5'
_cell_volume   904.66963489
_cell_formula_units_Z   1
loop_
 _symmetry_equiv_pos_site_id
 _symmetry_equiv_pos_as_xyz
  1  'x, y, z'
loop_
 _atom_site_type_symbol
 _atom_site_label
 _atom_site_symmetry_multiplicity
 _atom_site_fract_x
 _atom_site_fract_y
 _atom_site_fract_z
 _atom_site_occupancy
  C  C0  1  0.98603700  0.20951600  0.22348000  1
  C  C1  1  0.98603700  0.76255700  0.77652000  1
  C  C2  1  0.20951600  0.98603700  0.22348000  1
  C  C3  1  0.76255700  0.98603700  0.77652000  1
  C  C4  1  0.12859000  0.12859000  0.00000000  1
  Ni  Ni5  1  0.11561200  0.11561200  0.18857900  1
  Ni  Ni6  1  0.92703300  0.92703300  0.81142100  1
  Ni  Ni7  1  0.11561200  0.92703300  0.00000000  1
  Ni  Ni8  1  0.92703300  0.11561200  0.00000000  1
  Ni  Ni9  1  0.49847800  0.49847800  0.49519500  1
  Ni  Ni10  1  0.00328300  0.00328300  0.50480500  1
  Ni  Ni11  1  0.49847800  0.00328300  0.00000000  1
  Ni  Ni12  1  0.00328300  0.49847800  0.00000000  1
  Ni  Ni13  1  0.74987500  0.24987500  0.50000000  1
  Ni  Ni14  1  0.24987500  0.74987500  0.50000000  1
  Cu  Cu15  1  0.21686200  0.43756800  0.22070500  1
  Cu  Cu16  1  0.21686200  0.99615700  0.77929500  1
  Cu  Cu17  1  0.43756800  0.21686200  0.22070500  1
  Cu  Cu18  1  0.99615700  0.21686200  0.77929500  1
  Cu  Cu19  1  0.77311900  0.56950100  0.79638200  1
  Cu  Cu20  1  0.77311900  0.97673600  0.20361800  1
  Cu  Cu21  1  0.56950100  0.77311900  0.79638200  1
  Cu  Cu22  1  0.97673600  0.77311900  0.20361800  1
  Cu  Cu23  1  0.13129300  0.33406100  0.47478000  1
  Cu  Cu24  1  0.85928100  0.65651200  0.52522000  1
  Cu  Cu25  1  0.13129300  0.65651200  0.79723100  1
  Cu  Cu26  1  0.85928100  0.33406100  0.20276900  1
  Cu  Cu27  1  0.33406100  0.85928100  0.20276900  1
  Cu  Cu28  1  0.65651200  0.13129300  0.79723100  1
  Cu  Cu29  1  0.33406100  0.13129300  0.47478000  1
  Cu  Cu30  1  0.65651200  0.85928100  0.52522000  1
  Cu  Cu31  1  0.34868000  0.34868000  0.00000000  1
