# generated using pymatgen
data_Cu3Ni3C34
_symmetry_space_group_name_H-M   'P 1'
_cell_length_a   12.56505257
_cell_length_b   12.56505257
_cell_length_c   12.56505257
_cell_angle_alpha   90.00000000
_cell_angle_beta   90.00000000
_cell_angle_gamma   90.00000000
_symmetry_Int_Tables_number   1
_chemical_formula_structural   Cu3Ni3C34
_chemical_formula_sum   'Cu12 Ni12 C136'
_cell_volume   1983.77736136
_cell_formula_units_Z   4
loop_
 _symmetry_equiv_pos_site_id
 _symmetry_equiv_pos_as_xyz
  1  'x, y, z'
loop_
 _atom_site_type_symbol
 _atom_site_label
 _atom_site_symmetry_multiplicity
 _atom_site_fract_x
 _atom_site_fract_y
 _atom_site_fract_z
 _atom_site_occupancy
  C  C0  1  0.37527183  0.37527183  0.37527183  1
  C  C1  1  0.12472817  0.62472817  0.87527183  1
  C  C2  1  0.62472817  0.87527183  0.12472817  1
  C  C3  1  0.87527183  0.12472817  0.62472817  1
  C  C4  1  0.65936846  0.65936846  0.65936846  1
  C  C5  1  0.84063154  0.34063154  0.15936846  1
  C  C6  1  0.34063154  0.15936846  0.84063154  1
  C  C7  1  0.15936846  0.84063154  0.34063154  1
  C  C8  1  0.09141566  0.09141566  0.09141566  1
  C  C9  1  0.40858434  0.90858434  0.59141566  1
  C  C10  1  0.90858434  0.59141566  0.40858434  1
  C  C11  1  0.59141566  0.40858434  0.90858434  1
  Ni  Ni12  1  0.18513814  0.56504624  0.37447787  1
  Ni  Ni13  1  0.31486186  0.43495376  0.87447787  1
  Ni  Ni14  1  0.81486186  0.06504624  0.12552213  1
  Ni  Ni15  1  0.37447787  0.18513814  0.56504624  1
  Ni  Ni16  1  0.68513814  0.93495376  0.62552213  1
  Ni  Ni17  1  0.87447787  0.31486186  0.43495376  1
  Ni  Ni18  1  0.12552213  0.81486186  0.06504624  1
  Ni  Ni19  1  0.62552213  0.68513814  0.93495376  1
  Ni  Ni20  1  0.56504624  0.37447787  0.18513814  1
  Ni  Ni21  1  0.06504624  0.12552213  0.81486186  1
  Ni  Ni22  1  0.93495376  0.62552213  0.68513814  1
  Ni  Ni23  1  0.43495376  0.87447787  0.31486186  1
  Cu  Cu24  1  0.12494276  0.13661407  0.38620868  1
  Cu  Cu25  1  0.37505724  0.86338593  0.88620868  1
  Cu  Cu26  1  0.87505724  0.63661407  0.11379132  1
  Cu  Cu27  1  0.38620868  0.12494276  0.13661407  1
  Cu  Cu28  1  0.62494276  0.36338593  0.61379132  1
  Cu  Cu29  1  0.88620868  0.37505724  0.86338593  1
  Cu  Cu30  1  0.11379132  0.87505724  0.63661407  1
  Cu  Cu31  1  0.61379132  0.62494276  0.36338593  1
  Cu  Cu32  1  0.13661407  0.38620868  0.12494276  1
  Cu  Cu33  1  0.63661407  0.11379132  0.87505724  1
  Cu  Cu34  1  0.36338593  0.61379132  0.62494276  1
  Cu  Cu35  1  0.86338593  0.88620868  0.37505724  1
  C  C36  1  0.08897250  0.35544002  0.33796034  1
  C  C37  1  0.41102750  0.64455998  0.83796034  1
  C  C38  1  0.91102750  0.85544002  0.16203966  1
  C  C39  1  0.33796034  0.08897250  0.35544002  1
  C  C40  1  0.58897250  0.14455998  0.66203966  1
  C  C41  1  0.83796034  0.41102750  0.64455998  1
  C  C42  1  0.16203966  0.91102750  0.85544002  1
  C  C43  1  0.66203966  0.58897250  0.14455998  1
  C  C44  1  0.35544002  0.33796034  0.08897250  1
  C  C45  1  0.85544002  0.16203966  0.91102750  1
  C  C46  1  0.14455998  0.66203966  0.58897250  1
  C  C47  1  0.64455998  0.83796034  0.41102750  1
  C  C48  1  0.08820551  0.60545197  0.16047864  1
  C  C49  1  0.41179449  0.39454803  0.66047864  1
  C  C50  1  0.91179449  0.10545197  0.33952136  1
  C  C51  1  0.16047864  0.08820551  0.60545197  1
  C  C52  1  0.58820551  0.89454803  0.83952136  1
  C  C53  1  0.66047864  0.41179449  0.39454803  1
  C  C54  1  0.33952136  0.91179449  0.10545197  1
  C  C55  1  0.83952136  0.58820551  0.89454803  1
  C  C56  1  0.60545197  0.16047864  0.08820551  1
  C  C57  1  0.10545197  0.33952136  0.91179449  1
  C  C58  1  0.89454803  0.83952136  0.58820551  1
  C  C59  1  0.39454803  0.66047864  0.41179449  1
  C  C60  1  0.07751893  0.11542905  0.68881656  1
  C  C61  1  0.42248107  0.88457095  0.18881656  1
  C  C62  1  0.92248107  0.61542905  0.81118344  1
  C  C63  1  0.68881656  0.07751893  0.11542905  1
  C  C64  1  0.57751893  0.38457095  0.31118344  1
  C  C65  1  0.18881656  0.42248107  0.88457095  1
  C  C66  1  0.81118344  0.92248107  0.61542905  1
  C  C67  1  0.31118344  0.57751893  0.38457095  1
  C  C68  1  0.11542905  0.68881656  0.07751893  1
  C  C69  1  0.61542905  0.81118344  0.92248107  1
  C  C70  1  0.38457095  0.31118344  0.57751893  1
  C  C71  1  0.88457095  0.18881656  0.42248107  1
  C  C72  1  0.13670814  0.62713878  0.26994505  1
  C  C73  1  0.36329186  0.37286122  0.76994505  1
  C  C74  1  0.86329186  0.12713878  0.23005495  1
  C  C75  1  0.26994505  0.13670814  0.62713878  1
  C  C76  1  0.63670814  0.87286122  0.73005495  1
  C  C77  1  0.76994505  0.36329186  0.37286122  1
  C  C78  1  0.23005495  0.86329186  0.12713878  1
  C  C79  1  0.73005495  0.63670814  0.87286122  1
  C  C80  1  0.62713878  0.26994505  0.13670814  1
  C  C81  1  0.12713878  0.23005495  0.86329186  1
  C  C82  1  0.87286122  0.73005495  0.63670814  1
  C  C83  1  0.37286122  0.76994505  0.36329186  1
  C  C84  1  0.17124240  0.43923964  0.36511123  1
  C  C85  1  0.32875760  0.56076036  0.86511123  1
  C  C86  1  0.82875760  0.93923964  0.13488877  1
  C  C87  1  0.36511123  0.17124240  0.43923964  1
  C  C88  1  0.67124240  0.06076036  0.63488877  1
  C  C89  1  0.86511123  0.32875760  0.56076036  1
  C  C90  1  0.13488877  0.82875760  0.93923964  1
  C  C91  1  0.63488877  0.67124240  0.06076036  1
  C  C92  1  0.43923964  0.36511123  0.17124240  1
  C  C93  1  0.93923964  0.13488877  0.82875760  1
  C  C94  1  0.06076036  0.63488877  0.67124240  1
  C  C95  1  0.56076036  0.86511123  0.32875760  1
  C  C96  1  0.03579274  0.10058966  0.31839186  1
  C  C97  1  0.46420726  0.89941034  0.81839186  1
  C  C98  1  0.96420726  0.60058966  0.18160814  1
  C  C99  1  0.31839186  0.03579274  0.10058966  1
  C  C100  1  0.53579274  0.39941034  0.68160814  1
  C  C101  1  0.81839186  0.46420726  0.89941034  1
  C  C102  1  0.18160814  0.96420726  0.60058966  1
  C  C103  1  0.68160814  0.53579274  0.39941034  1
  C  C104  1  0.10058966  0.31839186  0.03579274  1
  C  C105  1  0.60058966  0.18160814  0.96420726  1
  C  C106  1  0.39941034  0.68160814  0.53579274  1
  C  C107  1  0.89941034  0.81839186  0.46420726  1
  C  C108  1  0.14492626  0.25019847  0.37129231  1
  C  C109  1  0.35507374  0.74980153  0.87129231  1
  C  C110  1  0.85507374  0.75019847  0.12870769  1
  C  C111  1  0.37129231  0.14492626  0.25019847  1
  C  C112  1  0.64492626  0.24980153  0.62870769  1
  C  C113  1  0.87129231  0.35507374  0.74980153  1
  C  C114  1  0.12870769  0.85507374  0.75019847  1
  C  C115  1  0.62870769  0.64492626  0.24980153  1
  C  C116  1  0.25019847  0.37129231  0.14492626  1
  C  C117  1  0.75019847  0.12870769  0.85507374  1
  C  C118  1  0.24980153  0.62870769  0.64492626  1
  C  C119  1  0.74980153  0.87129231  0.35507374  1
  C  C120  1  0.87397636  0.87397636  0.87397636  1
  C  C121  1  0.62602364  0.12602364  0.37397636  1
  C  C122  1  0.12602364  0.37397636  0.62602364  1
  C  C123  1  0.37397636  0.62602364  0.12602364  1
  C  C124  1  0.12332640  0.61495265  0.47891092  1
  C  C125  1  0.37667360  0.38504735  0.97891092  1
  C  C126  1  0.87667360  0.11495265  0.02108908  1
  C  C127  1  0.47891092  0.12332640  0.61495265  1
  C  C128  1  0.62332640  0.88504735  0.52108908  1
  C  C129  1  0.97891092  0.37667360  0.38504735  1
  C  C130  1  0.02108908  0.87667360  0.11495265  1
  C  C131  1  0.52108908  0.62332640  0.88504735  1
  C  C132  1  0.61495265  0.47891092  0.12332640  1
  C  C133  1  0.11495265  0.02108908  0.87667360  1
  C  C134  1  0.88504735  0.52108908  0.62332640  1
  C  C135  1  0.38504735  0.97891092  0.37667360  1
  C  C136  1  0.06916858  0.34899470  0.21377508  1
  C  C137  1  0.43083142  0.65100530  0.71377508  1
  C  C138  1  0.93083142  0.84899470  0.28622492  1
  C  C139  1  0.21377508  0.06916858  0.34899470  1
  C  C140  1  0.56916858  0.15100530  0.78622492  1
  C  C141  1  0.71377508  0.43083142  0.65100530  1
  C  C142  1  0.28622492  0.93083142  0.84899470  1
  C  C143  1  0.78622492  0.56916858  0.15100530  1
  C  C144  1  0.34899470  0.21377508  0.06916858  1
  C  C145  1  0.84899470  0.28622492  0.93083142  1
  C  C146  1  0.15100530  0.78622492  0.56916858  1
  C  C147  1  0.65100530  0.71377508  0.43083142  1
  C  C148  1  0.10511030  0.12002700  0.49967810  1
  C  C149  1  0.39488970  0.87997300  0.99967810  1
  C  C150  1  0.89488970  0.62002700  0.00032190  1
  C  C151  1  0.49967810  0.10511030  0.12002700  1
  C  C152  1  0.60511030  0.37997300  0.50032190  1
  C  C153  1  0.99967810  0.39488970  0.87997300  1
  C  C154  1  0.00032190  0.89488970  0.62002700  1
  C  C155  1  0.50032190  0.60511030  0.37997300  1
  C  C156  1  0.12002700  0.49967810  0.10511030  1
  C  C157  1  0.62002700  0.00032190  0.89488970  1
  C  C158  1  0.37997300  0.50032190  0.60511030  1
  C  C159  1  0.87997300  0.99967810  0.39488970  1
