# generated using pymatgen
data_CuNiC
_symmetry_space_group_name_H-M   'P 1'
_cell_length_a   6.60424500
_cell_length_b   6.60424500
_cell_length_c   6.60424500
_cell_angle_alpha   90.00000000
_cell_angle_beta   90.00000000
_cell_angle_gamma   90.00000000
_symmetry_Int_Tables_number   1
_chemical_formula_structural   CuNiC
_chemical_formula_sum   'Cu4 Ni4 C4'
_cell_volume   288.05109347
_cell_formula_units_Z   4
loop_
 _symmetry_equiv_pos_site_id
 _symmetry_equiv_pos_as_xyz
  1  'x, y, z'
loop_
 _atom_site_type_symbol
 _atom_site_label
 _atom_site_symmetry_multiplicity
 _atom_site_fract_x
 _atom_site_fract_y
 _atom_site_fract_z
 _atom_site_occupancy
  Ni  Ni0  1  0.13019900  0.86980100  0.36980100  1
  Ni  Ni1  1  0.86980100  0.36980100  0.13019900  1
  Ni  Ni2  1  0.36980100  0.13019900  0.86980100  1
  Ni  Ni3  1  0.63019900  0.63019900  0.63019900  1
  Cu  Cu4  1  0.87254800  0.12745200  0.62745200  1
  Cu  Cu5  1  0.12745200  0.62745200  0.87254800  1
  Cu  Cu6  1  0.62745200  0.87254800  0.12745200  1
  Cu  Cu7  1  0.37254800  0.37254800  0.37254800  1
  C  C8  1  0.49410600  0.50589400  0.00589400  1
  C  C9  1  0.50589400  0.00589400  0.49410600  1
  C  C10  1  0.00589400  0.49410600  0.50589400  1
  C  C11  1  0.99410600  0.99410600  0.99410600  1
