# generated using pymatgen
data_CuNi14C
_symmetry_space_group_name_H-M   'P 1'
_cell_length_a   6.35302091
_cell_length_b   6.35302040
_cell_length_c   10.43339395
_cell_angle_alpha   90.00000000
_cell_angle_beta   90.00000000
_cell_angle_gamma   120.00000269
_symmetry_Int_Tables_number   1
_chemical_formula_structural   CuNi14C
_chemical_formula_sum   'Cu1 Ni14 C1'
_cell_volume   364.68404289
_cell_formula_units_Z   1
loop_
 _symmetry_equiv_pos_site_id
 _symmetry_equiv_pos_as_xyz
  1  'x, y, z'
loop_
 _atom_site_type_symbol
 _atom_site_label
 _atom_site_symmetry_multiplicity
 _atom_site_fract_x
 _atom_site_fract_y
 _atom_site_fract_z
 _atom_site_occupancy
  Ni  Ni0  1  0.17245087  0.83622493  0.12500000  1
  Ni  Ni1  1  0.16436997  0.83218449  0.62500000  1
  Ni  Ni2  1  0.66377507  0.32754913  0.12500000  1
  Ni  Ni3  1  0.66781551  0.33563003  0.62500000  1
  Ni  Ni4  1  0.66377507  0.83622493  0.12500000  1
  Ni  Ni5  1  0.66781551  0.83218449  0.62500000  1
  Ni  Ni6  1  0.32887985  0.17112015  0.37138328  1
  Ni  Ni7  1  0.32887985  0.17112015  0.87861672  1
  Ni  Ni8  1  0.32887985  0.65776070  0.37138328  1
  Ni  Ni9  1  0.32887985  0.65776070  0.87861672  1
  Ni  Ni10  1  0.84223930  0.17112015  0.37138328  1
  Ni  Ni11  1  0.84223930  0.17112015  0.87861672  1
  Ni  Ni12  1  0.83333300  0.66666700  0.36764976  1
  Ni  Ni13  1  0.83333300  0.66666700  0.88235024  1
  C  C14  1  0.16666700  0.33333300  0.12500000  1
  Cu  Cu15  1  0.16666700  0.33333300  0.62500000  1
