# generated using pymatgen
data_CuNi6C5
_symmetry_space_group_name_H-M   'P 1'
_cell_length_a   9.37577720
_cell_length_b   9.37577720
_cell_length_c   6.74455000
_cell_angle_alpha   90.00000000
_cell_angle_beta   90.00000000
_cell_angle_gamma   119.99999433
_symmetry_Int_Tables_number   1
_chemical_formula_structural   CuNi6C5
_chemical_formula_sum   'Cu2 Ni12 C10'
_cell_volume   513.45003970
_cell_formula_units_Z   2
loop_
 _symmetry_equiv_pos_site_id
 _symmetry_equiv_pos_as_xyz
  1  'x, y, z'
loop_
 _atom_site_type_symbol
 _atom_site_label
 _atom_site_symmetry_multiplicity
 _atom_site_fract_x
 _atom_site_fract_y
 _atom_site_fract_z
 _atom_site_occupancy
  C  C0  1  0.80283100  0.19716900  0.32812900  1
  C  C1  1  0.39433800  0.19716900  0.32812900  1
  C  C2  1  0.80283100  0.60566200  0.32812900  1
  C  C3  1  0.19716900  0.80283100  0.82812900  1
  C  C4  1  0.60566200  0.80283100  0.82812900  1
  C  C5  1  0.19716900  0.39433800  0.82812900  1
  C  C6  1  0.33333300  0.66666700  0.30374300  1
  C  C7  1  0.66666700  0.33333300  0.80374300  1
  C  C8  1  0.00000000  0.00000000  0.49777600  1
  C  C9  1  0.00000000  0.00000000  0.99777600  1
  Ni  Ni10  1  0.12289600  0.87710400  0.23094400  1
  Ni  Ni11  1  0.75420700  0.87710400  0.23094400  1
  Ni  Ni12  1  0.12289600  0.24579300  0.23094400  1
  Ni  Ni13  1  0.87710400  0.12289600  0.73094400  1
  Ni  Ni14  1  0.24579300  0.12289600  0.73094400  1
  Ni  Ni15  1  0.87710400  0.75420700  0.73094400  1
  Ni  Ni16  1  0.53135800  0.46864200  0.05290100  1
  Ni  Ni17  1  0.93728400  0.46864200  0.05290100  1
  Ni  Ni18  1  0.53135800  0.06271600  0.05290100  1
  Ni  Ni19  1  0.46864200  0.53135800  0.55290100  1
  Ni  Ni20  1  0.06271600  0.53135800  0.55290100  1
  Ni  Ni21  1  0.46864200  0.93728400  0.55290100  1
  Cu  Cu22  1  0.33333300  0.66666700  0.95483300  1
  Cu  Cu23  1  0.66666700  0.33333300  0.45483300  1
