# generated using pymatgen
data_CuNiC
_symmetry_space_group_name_H-M   'P 1'
_cell_length_a   3.25717896
_cell_length_b   3.25717896
_cell_length_c   36.87161900
_cell_angle_alpha   90.00000000
_cell_angle_beta   90.00000000
_cell_angle_gamma   120.00001948
_symmetry_Int_Tables_number   1
_chemical_formula_structural   CuNiC
_chemical_formula_sum   'Cu4 Ni4 C4'
_cell_volume   338.77081991
_cell_formula_units_Z   4
loop_
 _symmetry_equiv_pos_site_id
 _symmetry_equiv_pos_as_xyz
  1  'x, y, z'
loop_
 _atom_site_type_symbol
 _atom_site_label
 _atom_site_symmetry_multiplicity
 _atom_site_fract_x
 _atom_site_fract_y
 _atom_site_fract_z
 _atom_site_occupancy
  C  C0  1  0.33333300  0.66666700  0.09392300  1
  C  C1  1  0.66666700  0.33333300  0.90607700  1
  C  C2  1  0.33333300  0.66666700  0.71817900  1
  C  C3  1  0.66666700  0.33333300  0.28182100  1
  Ni  Ni4  1  0.33333300  0.66666700  0.32809400  1
  Ni  Ni5  1  0.66666700  0.33333300  0.67190600  1
  Ni  Ni6  1  0.66666700  0.33333300  0.76447000  1
  Ni  Ni7  1  0.33333300  0.66666700  0.23553000  1
  Cu  Cu8  1  0.33333300  0.66666700  0.94790200  1
  Cu  Cu9  1  0.66666700  0.33333300  0.05209800  1
  Cu  Cu10  1  0.66666700  0.33333300  0.13575300  1
  Cu  Cu11  1  0.33333300  0.66666700  0.86424700  1
