# generated using pymatgen
data_CuNiC14
_symmetry_space_group_name_H-M   'P 1'
_cell_length_a   6.45426608
_cell_length_b   6.45426608
_cell_length_c   9.35045200
_cell_angle_alpha   90.00000000
_cell_angle_beta   90.00000000
_cell_angle_gamma   111.98755247
_symmetry_Int_Tables_number   1
_chemical_formula_structural   CuNiC14
_chemical_formula_sum   'Cu1 Ni1 C14'
_cell_volume   361.18549753
_cell_formula_units_Z   1
loop_
 _symmetry_equiv_pos_site_id
 _symmetry_equiv_pos_as_xyz
  1  'x, y, z'
loop_
 _atom_site_type_symbol
 _atom_site_label
 _atom_site_symmetry_multiplicity
 _atom_site_fract_x
 _atom_site_fract_y
 _atom_site_fract_z
 _atom_site_occupancy
  C  C0  1  0.84634300  0.15365700  0.00000000  1
  C  C1  1  0.34900000  0.65100000  0.00000000  1
  C  C2  1  0.36240700  0.10319200  0.50000000  1
  C  C3  1  0.36019000  0.18027100  0.00000000  1
  C  C4  1  0.89680800  0.63759300  0.50000000  1
  C  C5  1  0.81972900  0.63981000  0.00000000  1
  C  C6  1  0.12361700  0.31110000  0.28050000  1
  C  C7  1  0.12361700  0.31110000  0.71950000  1
  C  C8  1  0.68890000  0.87638300  0.28050000  1
  C  C9  1  0.68890000  0.87638300  0.71950000  1
  C  C10  1  0.66277000  0.33723000  0.27029900  1
  C  C11  1  0.66277000  0.33723000  0.72970100  1
  C  C12  1  0.16035600  0.83964400  0.23605000  1
  C  C13  1  0.16035600  0.83964400  0.76395000  1
  Ni  Ni14  1  0.36847900  0.63152100  0.50000000  1
  Cu  Cu15  1  0.72575700  0.27424300  0.50000000  1
