# generated using pymatgen
data_Cu4NiC14
_symmetry_space_group_name_H-M   'P 1'
_cell_length_a   9.09028400
_cell_length_b   9.75030000
_cell_length_c   21.46503900
_cell_angle_alpha   90.00000000
_cell_angle_beta   90.00000000
_cell_angle_gamma   90.00000000
_symmetry_Int_Tables_number   1
_chemical_formula_structural   Cu4NiC14
_chemical_formula_sum   'Cu32 Ni8 C112'
_cell_volume   1902.51071766
_cell_formula_units_Z   8
loop_
 _symmetry_equiv_pos_site_id
 _symmetry_equiv_pos_as_xyz
  1  'x, y, z'
loop_
 _atom_site_type_symbol
 _atom_site_label
 _atom_site_symmetry_multiplicity
 _atom_site_fract_x
 _atom_site_fract_y
 _atom_site_fract_z
 _atom_site_occupancy
  C  C0  1  0.47930700  0.63689100  0.03727800  1
  C  C1  1  0.52069300  0.13689100  0.96272200  1
  C  C2  1  0.47930700  0.13689100  0.46272200  1
  C  C3  1  0.52069300  0.63689100  0.53727800  1
  C  C4  1  0.53675500  0.75830300  0.83558500  1
  C  C5  1  0.46324500  0.25830300  0.16441500  1
  C  C6  1  0.53675500  0.25830300  0.66441500  1
  C  C7  1  0.46324500  0.75830300  0.33558500  1
  C  C8  1  0.12772000  0.59185500  0.94357000  1
  C  C9  1  0.87228000  0.09185500  0.05643000  1
  C  C10  1  0.12772000  0.09185500  0.55643000  1
  C  C11  1  0.87228000  0.59185500  0.44357000  1
  C  C12  1  0.17307800  0.76777900  0.92679600  1
  C  C13  1  0.82692200  0.26777900  0.07320400  1
  C  C14  1  0.17307800  0.26777900  0.57320400  1
  C  C15  1  0.82692200  0.76777900  0.42679600  1
  C  C16  1  0.16202400  0.64586700  0.86418800  1
  C  C17  1  0.83797600  0.14586700  0.13581200  1
  C  C18  1  0.16202400  0.14586700  0.63581200  1
  C  C19  1  0.83797600  0.64586700  0.36418800  1
  C  C20  1  0.52028300  0.43557300  0.89037900  1
  C  C21  1  0.47971700  0.93557300  0.10962100  1
  C  C22  1  0.52028300  0.93557300  0.60962100  1
  C  C23  1  0.47971700  0.43557300  0.39037900  1
  C  C24  1  0.34540900  0.44182600  0.85246600  1
  C  C25  1  0.65459100  0.94182600  0.14753400  1
  C  C26  1  0.34540900  0.94182600  0.64753400  1
  C  C27  1  0.65459100  0.44182600  0.35246600  1
  C  C28  1  0.79333600  0.70193300  0.12991800  1
  C  C29  1  0.20666400  0.20193300  0.87008200  1
  C  C30  1  0.79333600  0.20193300  0.37008200  1
  C  C31  1  0.20666400  0.70193300  0.62991800  1
  C  C32  1  0.88782400  0.69881300  0.05674700  1
  C  C33  1  0.11217600  0.19881300  0.94325300  1
  C  C34  1  0.88782400  0.19881300  0.44325300  1
  C  C35  1  0.11217600  0.69881300  0.55674700  1
  C  C36  1  0.89934500  0.84853400  0.10438500  1
  C  C37  1  0.10065500  0.34853400  0.89561500  1
  C  C38  1  0.89934500  0.34853400  0.39561500  1
  C  C39  1  0.10065500  0.84853400  0.60438500  1
  C  C40  1  0.32198100  0.72449800  0.17550600  1
  C  C41  1  0.67801900  0.22449800  0.82449400  1
  C  C42  1  0.32198100  0.22449800  0.32449400  1
  C  C43  1  0.67801900  0.72449800  0.67550600  1
  C  C44  1  0.49917000  0.65213500  0.19285500  1
  C  C45  1  0.50083000  0.15213500  0.80714500  1
  C  C46  1  0.49917000  0.15213500  0.30714500  1
  C  C47  1  0.50083000  0.65213500  0.69285500  1
  C  C48  1  0.87617000  0.74519700  0.74382200  1
  C  C49  1  0.12383000  0.24519700  0.25617800  1
  C  C50  1  0.87617000  0.24519700  0.75617800  1
  C  C51  1  0.12383000  0.74519700  0.24382200  1
  C  C52  1  0.89262300  0.66672100  0.81873100  1
  C  C53  1  0.10737700  0.16672100  0.18126900  1
  C  C54  1  0.89262300  0.16672100  0.68126900  1
  C  C55  1  0.10737700  0.66672100  0.31873100  1
  C  C56  1  0.94360300  0.57232200  0.75078900  1
  C  C57  1  0.05639700  0.07232200  0.24921100  1
  C  C58  1  0.94360300  0.07232200  0.74921100  1
  C  C59  1  0.05639700  0.57232200  0.25078900  1
  C  C60  1  0.12473500  0.60520500  0.10607200  1
  C  C61  1  0.87526500  0.10520500  0.89392800  1
  C  C62  1  0.12473500  0.10520500  0.39392800  1
  C  C63  1  0.87526500  0.60520500  0.60607200  1
  C  C64  1  0.14592900  0.43439000  0.07614700  1
  C  C65  1  0.85407100  0.93439000  0.92385300  1
  C  C66  1  0.14592900  0.93439000  0.42385300  1
  C  C67  1  0.85407100  0.43439000  0.57614700  1
  C  C68  1  0.10577100  0.45912300  0.15705800  1
  C  C69  1  0.89422900  0.95912300  0.84294200  1
  C  C70  1  0.10577100  0.95912300  0.34294200  1
  C  C71  1  0.89422900  0.45912300  0.65705800  1
  C  C72  1  0.40251100  0.45352900  0.89710300  1
  C  C73  1  0.59748900  0.95352900  0.10289700  1
  C  C74  1  0.40251100  0.95352900  0.60289700  1
  C  C75  1  0.59748900  0.45352900  0.39710300  1
  C  C76  1  0.38065200  0.63172500  0.19040800  1
  C  C77  1  0.61934800  0.13172500  0.80959200  1
  C  C78  1  0.38065200  0.13172500  0.30959200  1
  C  C79  1  0.61934800  0.63172500  0.69040800  1
  C  C80  1  0.19105000  0.66074700  0.91329200  1
  C  C81  1  0.80895000  0.16074700  0.08670800  1
  C  C82  1  0.19105000  0.16074700  0.58670800  1
  C  C83  1  0.80895000  0.66074700  0.41329200  1
  C  C84  1  0.82821200  0.76361600  0.09000400  1
  C  C85  1  0.17178800  0.26361600  0.90999600  1
  C  C86  1  0.82821200  0.26361600  0.40999600  1
  C  C87  1  0.17178800  0.76361600  0.59000400  1
  C  C88  1  0.86704400  0.64846400  0.76955400  1
  C  C89  1  0.13295600  0.14846400  0.23044600  1
  C  C90  1  0.86704400  0.14846400  0.73044600  1
  C  C91  1  0.13295600  0.64846400  0.26955400  1
  C  C92  1  0.16352700  0.50123600  0.11650600  1
  C  C93  1  0.83647300  0.00123600  0.88349400  1
  C  C94  1  0.16352700  0.00123600  0.38349400  1
  C  C95  1  0.83647300  0.50123600  0.61650600  1
  C  C96  1  0.38642400  0.63118500  0.92196500  1
  C  C97  1  0.61357600  0.13118500  0.07803500  1
  C  C98  1  0.38642400  0.13118500  0.57803500  1
  C  C99  1  0.61357600  0.63118500  0.42196500  1
  C  C100  1  0.67072800  0.82979000  0.04756700  1
  C  C101  1  0.32927200  0.32979000  0.95243300  1
  C  C102  1  0.67072800  0.32979000  0.45243300  1
  C  C103  1  0.32927200  0.82979000  0.54756700  1
  C  C104  1  0.36069600  0.50443900  0.12846600  1
  C  C105  1  0.63930400  0.00443900  0.87153400  1
  C  C106  1  0.36069600  0.00443900  0.37153400  1
  C  C107  1  0.63930400  0.50443900  0.62846600  1
  C  C108  1  0.67917200  0.58538100  0.76813000  1
  C  C109  1  0.32082800  0.08538100  0.23187000  1
  C  C110  1  0.67917200  0.08538100  0.73187000  1
  C  C111  1  0.32082800  0.58538100  0.26813000  1
  Ni  Ni112  1  0.78298200  0.46398300  0.95845000  1
  Ni  Ni113  1  0.21701800  0.96398300  0.04155000  1
  Ni  Ni114  1  0.78298200  0.96398300  0.54155000  1
  Ni  Ni115  1  0.21701800  0.46398300  0.45845000  1
  Ni  Ni116  1  0.25786300  0.94709600  0.78062500  1
  Ni  Ni117  1  0.74213700  0.44709600  0.21937500  1
  Ni  Ni118  1  0.25786300  0.44709600  0.71937500  1
  Ni  Ni119  1  0.74213700  0.94709600  0.28062500  1
  Cu  Cu120  1  0.25342600  0.07543300  0.74576700  1
  Cu  Cu121  1  0.74657400  0.57543300  0.25423300  1
  Cu  Cu122  1  0.25342600  0.57543300  0.75423300  1
  Cu  Cu123  1  0.74657400  0.07543300  0.24576700  1
  Cu  Cu124  1  0.28871600  0.97399900  0.84641600  1
  Cu  Cu125  1  0.71128400  0.47399900  0.15358400  1
  Cu  Cu126  1  0.28871600  0.47399900  0.65358400  1
  Cu  Cu127  1  0.71128400  0.97399900  0.34641600  1
  Cu  Cu128  1  0.37916900  0.86197800  0.75495900  1
  Cu  Cu129  1  0.62083100  0.36197800  0.24504100  1
  Cu  Cu130  1  0.37916900  0.36197800  0.74504100  1
  Cu  Cu131  1  0.62083100  0.86197800  0.25495900  1
  Cu  Cu132  1  0.92094800  0.45696500  0.99265000  1
  Cu  Cu133  1  0.07905200  0.95696500  0.00735000  1
  Cu  Cu134  1  0.92094800  0.95696500  0.50735000  1
  Cu  Cu135  1  0.07905200  0.45696500  0.49265000  1
  Cu  Cu136  1  0.11882200  0.87435900  0.77437400  1
  Cu  Cu137  1  0.88117800  0.37435900  0.22562600  1
  Cu  Cu138  1  0.11882200  0.37435900  0.72562600  1
  Cu  Cu139  1  0.88117800  0.87435900  0.27437400  1
  Cu  Cu140  1  0.65925700  0.43652200  0.00121900  1
  Cu  Cu141  1  0.34074300  0.93652200  0.99878100  1
  Cu  Cu142  1  0.65925700  0.93652200  0.49878100  1
  Cu  Cu143  1  0.34074300  0.43652200  0.50121900  1
  Cu  Cu144  1  0.76463600  0.60105900  0.93123900  1
  Cu  Cu145  1  0.23536400  0.10105900  0.06876100  1
  Cu  Cu146  1  0.76463600  0.10105900  0.56876100  1
  Cu  Cu147  1  0.23536400  0.60105900  0.43123900  1
  Cu  Cu148  1  0.78102800  0.36067900  0.90878700  1
  Cu  Cu149  1  0.21897200  0.86067900  0.09121300  1
  Cu  Cu150  1  0.78102800  0.86067900  0.59121300  1
  Cu  Cu151  1  0.21897200  0.36067900  0.40878700  1
