# generated using pymatgen
data_CuNiC5
_symmetry_space_group_name_H-M   'P 1'
_cell_length_a   9.07157970
_cell_length_b   9.07157970
_cell_length_c   9.07157928
_cell_angle_alpha   90.55971960
_cell_angle_beta   90.55971960
_cell_angle_gamma   90.55972480
_symmetry_Int_Tables_number   1
_chemical_formula_structural   CuNiC5
_chemical_formula_sum   'Cu6 Ni6 C30'
_cell_volume   746.42497147
_cell_formula_units_Z   6
loop_
 _symmetry_equiv_pos_site_id
 _symmetry_equiv_pos_as_xyz
  1  'x, y, z'
loop_
 _atom_site_type_symbol
 _atom_site_label
 _atom_site_symmetry_multiplicity
 _atom_site_fract_x
 _atom_site_fract_y
 _atom_site_fract_z
 _atom_site_occupancy
  Ni  Ni0  1  0.50155700  0.74878900  0.99584600  1
  Ni  Ni1  1  0.99584600  0.50155700  0.74878900  1
  Ni  Ni2  1  0.74878900  0.99584600  0.50155700  1
  Ni  Ni3  1  0.00155700  0.49584600  0.24878900  1
  Ni  Ni4  1  0.24878900  0.00155700  0.49584600  1
  Ni  Ni5  1  0.49584600  0.24878900  0.00155700  1
  Cu  Cu6  1  0.35223200  0.64958000  0.35184300  1
  Cu  Cu7  1  0.64958000  0.35184300  0.35223200  1
  Cu  Cu8  1  0.35184300  0.35223200  0.64958000  1
  Cu  Cu9  1  0.14958000  0.85223200  0.85184300  1
  Cu  Cu10  1  0.85184300  0.14958000  0.85223200  1
  Cu  Cu11  1  0.85223200  0.85184300  0.14958000  1
  C  C12  1  0.99859700  0.74883300  0.50044700  1
  C  C13  1  0.50044700  0.99859700  0.74883300  1
  C  C14  1  0.74883300  0.50044700  0.99859700  1
  C  C15  1  0.49859700  0.00044700  0.24883300  1
  C  C16  1  0.24883300  0.49859700  0.00044700  1
  C  C17  1  0.00044700  0.24883300  0.49859700  1
  C  C18  1  0.65066400  0.63991800  0.94781100  1
  C  C19  1  0.94781100  0.65066400  0.63991800  1
  C  C20  1  0.63991800  0.94781100  0.65066400  1
  C  C21  1  0.35060700  0.64099200  0.05581800  1
  C  C22  1  0.05592900  0.64993700  0.35923000  1
  C  C23  1  0.36271200  0.94006600  0.35136200  1
  C  C24  1  0.64993700  0.35923000  0.05592900  1
  C  C25  1  0.94006600  0.35136200  0.36271200  1
  C  C26  1  0.64099200  0.05581800  0.35060700  1
  C  C27  1  0.35136200  0.36271200  0.94006600  1
  C  C28  1  0.05581800  0.35060700  0.64099200  1
  C  C29  1  0.35923000  0.05592900  0.64993700  1
  C  C30  1  0.14993700  0.55592900  0.85923000  1
  C  C31  1  0.44006600  0.86271200  0.85136200  1
  C  C32  1  0.14099200  0.85060700  0.55581800  1
  C  C33  1  0.85136200  0.44006600  0.86271200  1
  C  C34  1  0.55581800  0.14099200  0.85060700  1
  C  C35  1  0.85923000  0.14993700  0.55592900  1
  C  C36  1  0.15066400  0.44781100  0.13991800  1
  C  C37  1  0.44781100  0.13991800  0.15066400  1
  C  C38  1  0.13991800  0.15066400  0.44781100  1
  C  C39  1  0.85060700  0.55581800  0.14099200  1
  C  C40  1  0.55592900  0.85923000  0.14993700  1
  C  C41  1  0.86271200  0.85136200  0.44006600  1
