# generated using pymatgen
data_Cu4Ni2C3
_symmetry_space_group_name_H-M   'P 1'
_cell_length_a   4.55083053
_cell_length_b   4.55083053
_cell_length_c   22.21838800
_cell_angle_alpha   90.00000000
_cell_angle_beta   90.00000000
_cell_angle_gamma   120.00000770
_symmetry_Int_Tables_number   1
_chemical_formula_structural   Cu4Ni2C3
_chemical_formula_sum   'Cu8 Ni4 C6'
_cell_volume   398.49646249
_cell_formula_units_Z   2
loop_
 _symmetry_equiv_pos_site_id
 _symmetry_equiv_pos_as_xyz
  1  'x, y, z'
loop_
 _atom_site_type_symbol
 _atom_site_label
 _atom_site_symmetry_multiplicity
 _atom_site_fract_x
 _atom_site_fract_y
 _atom_site_fract_z
 _atom_site_occupancy
  C  C0  1  0.33333300  0.66666700  0.25000000  1
  C  C1  1  0.66666700  0.33333300  0.75000000  1
  C  C2  1  0.33333300  0.66666700  0.39226000  1
  C  C3  1  0.66666700  0.33333300  0.60774000  1
  C  C4  1  0.66666700  0.33333300  0.89226000  1
  C  C5  1  0.33333300  0.66666700  0.10774000  1
  Ni  Ni6  1  0.33333300  0.66666700  0.84544700  1
  Ni  Ni7  1  0.66666700  0.33333300  0.15455300  1
  Ni  Ni8  1  0.66666700  0.33333300  0.34544700  1
  Ni  Ni9  1  0.33333300  0.66666700  0.65455300  1
  Cu  Cu10  1  0.33333300  0.66666700  0.97071400  1
  Cu  Cu11  1  0.66666700  0.33333300  0.02928600  1
  Cu  Cu12  1  0.66666700  0.33333300  0.47071400  1
  Cu  Cu13  1  0.33333300  0.66666700  0.52928600  1
  Cu  Cu14  1  0.00000000  0.00000000  0.31659100  1
  Cu  Cu15  1  0.00000000  0.00000000  0.68340900  1
  Cu  Cu16  1  0.00000000  0.00000000  0.81659100  1
  Cu  Cu17  1  0.00000000  0.00000000  0.18340900  1
