# generated using pymatgen
data_Cu9Ni3C7
_symmetry_space_group_name_H-M   'P 1'
_cell_length_a   13.17568100
_cell_length_b   13.17568100
_cell_length_c   13.17568100
_cell_angle_alpha   90.00000000
_cell_angle_beta   90.00000000
_cell_angle_gamma   90.00000000
_symmetry_Int_Tables_number   1
_chemical_formula_structural   Cu9Ni3C7
_chemical_formula_sum   'Cu72 Ni24 C56'
_cell_volume   2287.27937792
_cell_formula_units_Z   8
loop_
 _symmetry_equiv_pos_site_id
 _symmetry_equiv_pos_as_xyz
  1  'x, y, z'
loop_
 _atom_site_type_symbol
 _atom_site_label
 _atom_site_symmetry_multiplicity
 _atom_site_fract_x
 _atom_site_fract_y
 _atom_site_fract_z
 _atom_site_occupancy
  C  C0  1  0.50000000  0.00000000  0.00000000  1
  C  C1  1  0.50000000  0.50000000  0.50000000  1
  C  C2  1  0.00000000  0.00000000  0.50000000  1
  C  C3  1  0.00000000  0.50000000  0.00000000  1
  C  C4  1  0.00000000  0.00000000  0.00000000  1
  C  C5  1  0.00000000  0.50000000  0.50000000  1
  C  C6  1  0.50000000  0.00000000  0.50000000  1
  C  C7  1  0.50000000  0.50000000  0.00000000  1
  Ni  Ni8  1  0.73837800  0.04100500  0.21424300  1
  Ni  Ni9  1  0.26162200  0.54100500  0.28575700  1
  Ni  Ni10  1  0.76162200  0.95899500  0.71424300  1
  Ni  Ni11  1  0.23837800  0.45899500  0.78575700  1
  Ni  Ni12  1  0.21424300  0.73837800  0.04100500  1
  Ni  Ni13  1  0.28575700  0.26162200  0.54100500  1
  Ni  Ni14  1  0.71424300  0.76162200  0.95899500  1
  Ni  Ni15  1  0.78575700  0.23837800  0.45899500  1
  Ni  Ni16  1  0.04100500  0.21424300  0.73837800  1
  Ni  Ni17  1  0.54100500  0.28575700  0.26162200  1
  Ni  Ni18  1  0.95899500  0.71424300  0.76162200  1
  Ni  Ni19  1  0.45899500  0.78575700  0.23837800  1
  Ni  Ni20  1  0.26162200  0.95899500  0.78575700  1
  Ni  Ni21  1  0.73837800  0.45899500  0.71424300  1
  Ni  Ni22  1  0.23837800  0.04100500  0.28575700  1
  Ni  Ni23  1  0.76162200  0.54100500  0.21424300  1
  Ni  Ni24  1  0.78575700  0.26162200  0.95899500  1
  Ni  Ni25  1  0.71424300  0.73837800  0.45899500  1
  Ni  Ni26  1  0.28575700  0.23837800  0.04100500  1
  Ni  Ni27  1  0.21424300  0.76162200  0.54100500  1
  Ni  Ni28  1  0.95899500  0.78575700  0.26162200  1
  Ni  Ni29  1  0.45899500  0.71424300  0.73837800  1
  Ni  Ni30  1  0.04100500  0.28575700  0.23837800  1
  Ni  Ni31  1  0.54100500  0.21424300  0.76162200  1
  Cu  Cu32  1  0.75851200  0.03679300  0.11186800  1
  Cu  Cu33  1  0.24148800  0.53679300  0.38813200  1
  Cu  Cu34  1  0.74148800  0.96320700  0.61186800  1
  Cu  Cu35  1  0.25851200  0.46320700  0.88813200  1
  Cu  Cu36  1  0.11186800  0.75851200  0.03679300  1
  Cu  Cu37  1  0.38813200  0.24148800  0.53679300  1
  Cu  Cu38  1  0.61186800  0.74148800  0.96320700  1
  Cu  Cu39  1  0.88813200  0.25851200  0.46320700  1
  Cu  Cu40  1  0.03679300  0.11186800  0.75851200  1
  Cu  Cu41  1  0.53679300  0.38813200  0.24148800  1
  Cu  Cu42  1  0.96320700  0.61186800  0.74148800  1
  Cu  Cu43  1  0.46320700  0.88813200  0.25851200  1
  Cu  Cu44  1  0.24148800  0.96320700  0.88813200  1
  Cu  Cu45  1  0.75851200  0.46320700  0.61186800  1
  Cu  Cu46  1  0.25851200  0.03679300  0.38813200  1
  Cu  Cu47  1  0.74148800  0.53679300  0.11186800  1
  Cu  Cu48  1  0.88813200  0.24148800  0.96320700  1
  Cu  Cu49  1  0.61186800  0.75851200  0.46320700  1
  Cu  Cu50  1  0.38813200  0.25851200  0.03679300  1
  Cu  Cu51  1  0.11186800  0.74148800  0.53679300  1
  Cu  Cu52  1  0.96320700  0.88813200  0.24148800  1
  Cu  Cu53  1  0.46320700  0.61186800  0.75851200  1
  Cu  Cu54  1  0.03679300  0.38813200  0.25851200  1
  Cu  Cu55  1  0.53679300  0.11186800  0.74148800  1
  Cu  Cu56  1  0.82086100  0.06757900  0.26729400  1
  Cu  Cu57  1  0.17913900  0.56757900  0.23270600  1
  Cu  Cu58  1  0.67913900  0.93242100  0.76729400  1
  Cu  Cu59  1  0.32086100  0.43242100  0.73270600  1
  Cu  Cu60  1  0.26729400  0.82086100  0.06757900  1
  Cu  Cu61  1  0.23270600  0.17913900  0.56757900  1
  Cu  Cu62  1  0.76729400  0.67913900  0.93242100  1
  Cu  Cu63  1  0.73270600  0.32086100  0.43242100  1
  Cu  Cu64  1  0.06757900  0.26729400  0.82086100  1
  Cu  Cu65  1  0.56757900  0.23270600  0.17913900  1
  Cu  Cu66  1  0.93242100  0.76729400  0.67913900  1
  Cu  Cu67  1  0.43242100  0.73270600  0.32086100  1
  Cu  Cu68  1  0.17913900  0.93242100  0.73270600  1
  Cu  Cu69  1  0.82086100  0.43242100  0.76729400  1
  Cu  Cu70  1  0.32086100  0.06757900  0.23270600  1
  Cu  Cu71  1  0.67913900  0.56757900  0.26729400  1
  Cu  Cu72  1  0.73270600  0.17913900  0.93242100  1
  Cu  Cu73  1  0.76729400  0.82086100  0.43242100  1
  Cu  Cu74  1  0.23270600  0.32086100  0.06757900  1
  Cu  Cu75  1  0.26729400  0.67913900  0.56757900  1
  Cu  Cu76  1  0.93242100  0.73270600  0.17913900  1
  Cu  Cu77  1  0.43242100  0.76729400  0.82086100  1
  Cu  Cu78  1  0.06757900  0.23270600  0.32086100  1
  Cu  Cu79  1  0.56757900  0.26729400  0.67913900  1
  Cu  Cu80  1  0.64479800  0.02186800  0.25243700  1
  Cu  Cu81  1  0.35520200  0.52186800  0.24756300  1
  Cu  Cu82  1  0.85520200  0.97813200  0.75243700  1
  Cu  Cu83  1  0.14479800  0.47813200  0.74756300  1
  Cu  Cu84  1  0.25243700  0.64479800  0.02186800  1
  Cu  Cu85  1  0.24756300  0.35520200  0.52186800  1
  Cu  Cu86  1  0.75243700  0.85520200  0.97813200  1
  Cu  Cu87  1  0.74756300  0.14479800  0.47813200  1
  Cu  Cu88  1  0.02186800  0.25243700  0.64479800  1
  Cu  Cu89  1  0.52186800  0.24756300  0.35520200  1
  Cu  Cu90  1  0.97813200  0.75243700  0.85520200  1
  Cu  Cu91  1  0.47813200  0.74756300  0.14479800  1
  Cu  Cu92  1  0.35520200  0.97813200  0.74756300  1
  Cu  Cu93  1  0.64479800  0.47813200  0.75243700  1
  Cu  Cu94  1  0.14479800  0.02186800  0.24756300  1
  Cu  Cu95  1  0.85520200  0.52186800  0.25243700  1
  Cu  Cu96  1  0.74756300  0.35520200  0.97813200  1
  Cu  Cu97  1  0.75243700  0.64479800  0.47813200  1
  Cu  Cu98  1  0.24756300  0.14479800  0.02186800  1
  Cu  Cu99  1  0.25243700  0.85520200  0.52186800  1
  Cu  Cu100  1  0.97813200  0.74756300  0.35520200  1
  Cu  Cu101  1  0.47813200  0.75243700  0.64479800  1
  Cu  Cu102  1  0.02186800  0.24756300  0.14479800  1
  Cu  Cu103  1  0.52186800  0.25243700  0.85520200  1
  C  C104  1  0.87589300  0.05922600  0.92448300  1
  C  C105  1  0.12410700  0.55922600  0.57551700  1
  C  C106  1  0.62410700  0.94077400  0.42448300  1
  C  C107  1  0.37589300  0.44077400  0.07551700  1
  C  C108  1  0.92448300  0.87589300  0.05922600  1
  C  C109  1  0.57551700  0.12410700  0.55922600  1
  C  C110  1  0.42448300  0.62410700  0.94077400  1
  C  C111  1  0.07551700  0.37589300  0.44077400  1
  C  C112  1  0.05922600  0.92448300  0.87589300  1
  C  C113  1  0.55922600  0.57551700  0.12410700  1
  C  C114  1  0.94077400  0.42448300  0.62410700  1
  C  C115  1  0.44077400  0.07551700  0.37589300  1
  C  C116  1  0.12410700  0.94077400  0.07551700  1
  C  C117  1  0.87589300  0.44077400  0.42448300  1
  C  C118  1  0.37589300  0.05922600  0.57551700  1
  C  C119  1  0.62410700  0.55922600  0.92448300  1
  C  C120  1  0.07551700  0.12410700  0.94077400  1
  C  C121  1  0.42448300  0.87589300  0.44077400  1
  C  C122  1  0.57551700  0.37589300  0.05922600  1
  C  C123  1  0.92448300  0.62410700  0.55922600  1
  C  C124  1  0.94077400  0.07551700  0.12410700  1
  C  C125  1  0.44077400  0.42448300  0.87589300  1
  C  C126  1  0.05922600  0.57551700  0.37589300  1
  C  C127  1  0.55922600  0.92448300  0.62410700  1
  C  C128  1  0.47022400  0.94143500  0.14139900  1
  C  C129  1  0.52977600  0.44143500  0.35860100  1
  C  C130  1  0.02977600  0.05856500  0.64139900  1
  C  C131  1  0.97022400  0.55856500  0.85860100  1
  C  C132  1  0.14139900  0.47022400  0.94143500  1
  C  C133  1  0.35860100  0.52977600  0.44143500  1
  C  C134  1  0.64139900  0.02977600  0.05856500  1
  C  C135  1  0.85860100  0.97022400  0.55856500  1
  C  C136  1  0.94143500  0.14139900  0.47022400  1
  C  C137  1  0.44143500  0.35860100  0.52977600  1
  C  C138  1  0.05856500  0.64139900  0.02977600  1
  C  C139  1  0.55856500  0.85860100  0.97022400  1
  C  C140  1  0.52977600  0.05856500  0.85860100  1
  C  C141  1  0.47022400  0.55856500  0.64139900  1
  C  C142  1  0.97022400  0.94143500  0.35860100  1
  C  C143  1  0.02977600  0.44143500  0.14139900  1
  C  C144  1  0.85860100  0.52977600  0.05856500  1
  C  C145  1  0.64139900  0.47022400  0.55856500  1
  C  C146  1  0.35860100  0.97022400  0.94143500  1
  C  C147  1  0.14139900  0.02977600  0.44143500  1
  C  C148  1  0.05856500  0.85860100  0.52977600  1
  C  C149  1  0.55856500  0.64139900  0.47022400  1
  C  C150  1  0.94143500  0.35860100  0.97022400  1
  C  C151  1  0.44143500  0.14139900  0.02977600  1
