# generated using pymatgen
data_Cu11Ni4C3
_symmetry_space_group_name_H-M   'P 1'
_cell_length_a   7.72177700
_cell_length_b   8.53061429
_cell_length_c   8.94411861
_cell_angle_alpha   93.90825688
_cell_angle_beta   91.98716595
_cell_angle_gamma   95.95114070
_symmetry_Int_Tables_number   1
_chemical_formula_structural   Cu11Ni4C3
_chemical_formula_sum   'Cu22 Ni8 C6'
_cell_volume   584.10709665
_cell_formula_units_Z   2
loop_
 _symmetry_equiv_pos_site_id
 _symmetry_equiv_pos_as_xyz
  1  'x, y, z'
loop_
 _atom_site_type_symbol
 _atom_site_label
 _atom_site_symmetry_multiplicity
 _atom_site_fract_x
 _atom_site_fract_y
 _atom_site_fract_z
 _atom_site_occupancy
  C  C0  1  0.19872800  0.92715900  0.67223300  1
  C  C1  1  0.80127200  0.07284100  0.32776700  1
  C  C2  1  0.29702600  0.24995500  0.32219000  1
  C  C3  1  0.70297400  0.75004500  0.67781000  1
  C  C4  1  0.52107500  0.36030800  0.61973900  1
  C  C5  1  0.47892500  0.63969200  0.38026100  1
  Ni  Ni6  1  0.01716500  0.49370900  0.24805900  1
  Ni  Ni7  1  0.98283500  0.50629100  0.75194100  1
  Ni  Ni8  1  0.96450800  0.71800200  0.17977800  1
  Ni  Ni9  1  0.03549200  0.28199800  0.82022200  1
  Ni  Ni10  1  0.87826200  0.54403900  0.14685400  1
  Ni  Ni11  1  0.12173800  0.45596100  0.85314600  1
  Ni  Ni12  1  0.90829500  0.34426000  0.71531800  1
  Ni  Ni13  1  0.09170500  0.65574000  0.28468200  1
  Cu  Cu14  1  0.51778300  0.23228300  0.41891200  1
  Cu  Cu15  1  0.48221700  0.76771700  0.58108800  1
  Cu  Cu16  1  0.33467900  0.44819800  0.54549100  1
  Cu  Cu17  1  0.66532100  0.55180200  0.45450900  1
  Cu  Cu18  1  0.78564400  0.27658700  0.63043400  1
  Cu  Cu19  1  0.21435600  0.72341300  0.36956600  1
  Cu  Cu20  1  0.37750100  0.47147800  0.25473600  1
  Cu  Cu21  1  0.62249900  0.52852200  0.74526400  1
  Cu  Cu22  1  0.30180000  0.13931800  0.15427700  1
  Cu  Cu23  1  0.69820000  0.86068200  0.84572300  1
  Cu  Cu24  1  0.75460200  0.48041300  0.07159300  1
  Cu  Cu25  1  0.24539800  0.51958700  0.92840700  1
  Cu  Cu26  1  0.04584000  0.35816100  0.28161000  1
  Cu  Cu27  1  0.95416000  0.64183900  0.71839000  1
  Cu  Cu28  1  0.15782500  0.13554300  0.43355900  1
  Cu  Cu29  1  0.84217500  0.86445700  0.56644100  1
  Cu  Cu30  1  0.93806600  0.84424000  0.13539800  1
  Cu  Cu31  1  0.06193400  0.15576000  0.86460200  1
  Cu  Cu32  1  0.43349700  0.22366400  0.73681400  1
  Cu  Cu33  1  0.56650300  0.77633600  0.26318600  1
  Cu  Cu34  1  0.62902200  0.15780800  0.04684300  1
  Cu  Cu35  1  0.37097800  0.84219200  0.95315700  1
