# generated using pymatgen
data_CuNiC3
_symmetry_space_group_name_H-M   'P 1'
_cell_length_a   5.11989200
_cell_length_b   5.29657500
_cell_length_c   7.48331900
_cell_angle_alpha   90.00000000
_cell_angle_beta   90.00000000
_cell_angle_gamma   90.00000000
_symmetry_Int_Tables_number   1
_chemical_formula_structural   CuNiC3
_chemical_formula_sum   'Cu4 Ni4 C12'
_cell_volume   202.93183622
_cell_formula_units_Z   4
loop_
 _symmetry_equiv_pos_site_id
 _symmetry_equiv_pos_as_xyz
  1  'x, y, z'
loop_
 _atom_site_type_symbol
 _atom_site_label
 _atom_site_symmetry_multiplicity
 _atom_site_fract_x
 _atom_site_fract_y
 _atom_site_fract_z
 _atom_site_occupancy
  Ni  Ni0  1  0.00000000  0.50000000  0.00000000  1
  Ni  Ni1  1  0.00000000  0.50000000  0.50000000  1
  Ni  Ni2  1  0.50000000  0.00000000  0.00000000  1
  Ni  Ni3  1  0.50000000  0.00000000  0.50000000  1
  Cu  Cu4  1  0.01761300  0.94517000  0.75000000  1
  Cu  Cu5  1  0.48238700  0.44517000  0.75000000  1
  Cu  Cu6  1  0.51761300  0.55483000  0.25000000  1
  Cu  Cu7  1  0.98238700  0.05483000  0.25000000  1
  C  C8  1  0.10989900  0.45748700  0.25000000  1
  C  C9  1  0.19840400  0.20104600  0.55830400  1
  C  C10  1  0.19840400  0.20104600  0.94169600  1
  C  C11  1  0.30159600  0.70104600  0.55830400  1
  C  C12  1  0.30159600  0.70104600  0.94169600  1
  C  C13  1  0.39010100  0.95748700  0.25000000  1
  C  C14  1  0.60989900  0.04251300  0.75000000  1
  C  C15  1  0.69840400  0.29895400  0.05830400  1
  C  C16  1  0.69840400  0.29895400  0.44169600  1
  C  C17  1  0.80159600  0.79895400  0.05830400  1
  C  C18  1  0.80159600  0.79895400  0.44169600  1
  C  C19  1  0.89010100  0.54251300  0.75000000  1
