# generated using pymatgen
data_CuNi3C2
_symmetry_space_group_name_H-M   'P 1'
_cell_length_a   8.96586591
_cell_length_b   8.96586591
_cell_length_c   8.67099619
_cell_angle_alpha   88.84894308
_cell_angle_beta   88.84894308
_cell_angle_gamma   131.56332660
_symmetry_Int_Tables_number   1
_chemical_formula_structural   CuNi3C2
_chemical_formula_sum   'Cu2 Ni6 C4'
_cell_volume   520.91048926
_cell_formula_units_Z   2
loop_
 _symmetry_equiv_pos_site_id
 _symmetry_equiv_pos_as_xyz
  1  'x, y, z'
loop_
 _atom_site_type_symbol
 _atom_site_label
 _atom_site_symmetry_multiplicity
 _atom_site_fract_x
 _atom_site_fract_y
 _atom_site_fract_z
 _atom_site_occupancy
  C  C0  1  0.34565600  0.47157100  0.07824500  1
  C  C1  1  0.23573000  0.76315700  0.58174900  1
  C  C2  1  0.47157100  0.34565600  0.57824500  1
  C  C3  1  0.76315700  0.23573000  0.08174900  1
  Ni  Ni4  1  0.90612900  0.73423600  0.48068400  1
  Ni  Ni5  1  0.73423600  0.90612900  0.98068400  1
  Ni  Ni6  1  0.14254800  0.57098900  0.90108800  1
  Ni  Ni7  1  0.57098900  0.14254800  0.40108800  1
  Ni  Ni8  1  0.51653400  0.31365100  0.91870900  1
  Ni  Ni9  1  0.31365100  0.51653400  0.41870900  1
  Cu  Cu10  1  0.97387800  0.13132200  0.21052600  1
  Cu  Cu11  1  0.13132200  0.97387800  0.71052600  1
