# generated using pymatgen
data_Cu7NiC32
_symmetry_space_group_name_H-M   'P 1'
_cell_length_a   7.64752247
_cell_length_b   7.64752247
_cell_length_c   7.64752200
_cell_angle_alpha   90.00110721
_cell_angle_beta   90.00110721
_cell_angle_gamma   90.00110192
_symmetry_Int_Tables_number   1
_chemical_formula_structural   Cu7NiC32
_chemical_formula_sum   'Cu7 Ni1 C32'
_cell_volume   447.26226494
_cell_formula_units_Z   1
loop_
 _symmetry_equiv_pos_site_id
 _symmetry_equiv_pos_as_xyz
  1  'x, y, z'
loop_
 _atom_site_type_symbol
 _atom_site_label
 _atom_site_symmetry_multiplicity
 _atom_site_fract_x
 _atom_site_fract_y
 _atom_site_fract_z
 _atom_site_occupancy
  Ni  Ni0  1  0.75011500  0.75011500  0.75011500  1
  Cu  Cu1  1  0.24994600  0.24994600  0.75011100  1
  Cu  Cu2  1  0.75005300  0.24996400  0.75005300  1
  Cu  Cu3  1  0.24986200  0.24986200  0.24986200  1
  Cu  Cu4  1  0.75011100  0.24994600  0.24994600  1
  Cu  Cu5  1  0.24996400  0.75005300  0.75005300  1
  Cu  Cu6  1  0.24994600  0.75011100  0.24994600  1
  Cu  Cu7  1  0.75005300  0.75005300  0.24996400  1
  C  C8  1  0.49941900  0.00054700  0.00054700  1
  C  C9  1  0.00054700  0.00054700  0.49941900  1
  C  C10  1  0.49944700  0.00061300  0.49944700  1
  C  C11  1  0.00054700  0.49941900  0.00054700  1
  C  C12  1  0.49944700  0.49944700  0.00061300  1
  C  C13  1  0.00061300  0.49944700  0.49944700  1
  C  C14  1  0.49948600  0.49948600  0.49948600  1
  C  C15  1  0.00052900  0.00052900  0.00052900  1
  C  C16  1  0.00052300  0.25294800  0.00052300  1
  C  C17  1  0.49964800  0.25052500  0.00036900  1
  C  C18  1  0.00036900  0.25052500  0.49964800  1
  C  C19  1  0.49966200  0.25025900  0.49966200  1
  C  C20  1  0.00263500  0.74697600  0.00263500  1
  C  C21  1  0.49720100  0.74940600  0.00282900  1
  C  C22  1  0.00282900  0.74940600  0.49720100  1
  C  C23  1  0.49716900  0.74980000  0.49716900  1
  C  C24  1  0.00263500  0.00263500  0.74697600  1
  C  C25  1  0.49720100  0.00282900  0.74940600  1
  C  C26  1  0.00052300  0.00052300  0.25294800  1
  C  C27  1  0.49964800  0.00036900  0.25052500  1
  C  C28  1  0.00282900  0.49720100  0.74940600  1
  C  C29  1  0.49716900  0.49716900  0.74980000  1
  C  C30  1  0.00036900  0.49964800  0.25052500  1
  C  C31  1  0.49966200  0.49966200  0.25025900  1
  C  C32  1  0.25294800  0.00052300  0.00052300  1
  C  C33  1  0.74697600  0.00263500  0.00263500  1
  C  C34  1  0.25052500  0.00036900  0.49964800  1
  C  C35  1  0.74940600  0.00282900  0.49720100  1
  C  C36  1  0.25052500  0.49964800  0.00036900  1
  C  C37  1  0.74940600  0.49720100  0.00282900  1
  C  C38  1  0.25025900  0.49966200  0.49966200  1
  C  C39  1  0.74980000  0.49716900  0.49716900  1
