# generated using pymatgen
data_Cu(Ni2C)3
_symmetry_space_group_name_H-M   'P 1'
_cell_length_a   7.44999950
_cell_length_b   7.44999950
_cell_length_c   7.44999950
_cell_angle_alpha   120.76760084
_cell_angle_beta   118.92930480
_cell_angle_gamma   90.27002712
_symmetry_Int_Tables_number   1
_chemical_formula_structural   Cu(Ni2C)3
_chemical_formula_sum   'Cu2 Ni12 C6'
_cell_volume   292.95657575
_cell_formula_units_Z   2
loop_
 _symmetry_equiv_pos_site_id
 _symmetry_equiv_pos_as_xyz
  1  'x, y, z'
loop_
 _atom_site_type_symbol
 _atom_site_label
 _atom_site_symmetry_multiplicity
 _atom_site_fract_x
 _atom_site_fract_y
 _atom_site_fract_z
 _atom_site_occupancy
  C  C0  1  0.00000000  0.00000000  0.00000000  1
  C  C1  1  0.50000000  0.00000000  0.50000000  1
  C  C2  1  0.50000000  0.00000000  0.00000000  1
  C  C3  1  0.50000000  0.50000000  0.50000000  1
  C  C4  1  0.50000000  0.50000000  0.00000000  1
  C  C5  1  0.00000000  0.50000000  0.50000000  1
  Ni  Ni6  1  0.19731100  0.94731100  0.25000000  1
  Ni  Ni7  1  0.57436900  0.32436900  0.25000000  1
  Ni  Ni8  1  0.18459600  0.91797300  0.86140400  1
  Ni  Ni9  1  0.55657000  0.32319200  0.63859600  1
  Ni  Ni10  1  0.55657000  0.91797300  0.23337800  1
  Ni  Ni11  1  0.18459600  0.32319200  0.26662200  1
  Ni  Ni12  1  0.80268900  0.05268900  0.75000000  1
  Ni  Ni13  1  0.42563100  0.67563100  0.75000000  1
  Ni  Ni14  1  0.81540400  0.08202700  0.13859600  1
  Ni  Ni15  1  0.44343000  0.67680800  0.36140400  1
  Ni  Ni16  1  0.44343000  0.08202700  0.76662200  1
  Ni  Ni17  1  0.81540400  0.67680800  0.73337800  1
  Cu  Cu18  1  0.86660500  0.61660500  0.25000000  1
  Cu  Cu19  1  0.13339500  0.38339500  0.75000000  1
