# generated using pymatgen
data_CuNiC9
_symmetry_space_group_name_H-M   'P 1'
_cell_length_a   8.56148200
_cell_length_b   7.11496100
_cell_length_c   9.19380238
_cell_angle_alpha   66.93272657
_cell_angle_beta   90.00000000
_cell_angle_gamma   90.00000000
_symmetry_Int_Tables_number   1
_chemical_formula_structural   CuNiC9
_chemical_formula_sum   'Cu4 Ni4 C36'
_cell_volume   515.25939074
_cell_formula_units_Z   4
loop_
 _symmetry_equiv_pos_site_id
 _symmetry_equiv_pos_as_xyz
  1  'x, y, z'
loop_
 _atom_site_type_symbol
 _atom_site_label
 _atom_site_symmetry_multiplicity
 _atom_site_fract_x
 _atom_site_fract_y
 _atom_site_fract_z
 _atom_site_occupancy
  Ni  Ni0  1  0.07381300  0.23550200  0.39015600  1
  Ni  Ni1  1  0.92618700  0.76449800  0.60984400  1
  Ni  Ni2  1  0.57381300  0.76449800  0.10984400  1
  Ni  Ni3  1  0.42618700  0.23550200  0.89015600  1
  Cu  Cu4  1  0.94316500  0.69808700  0.18354600  1
  Cu  Cu5  1  0.44316500  0.30191300  0.31645400  1
  Cu  Cu6  1  0.55683500  0.69808700  0.68354600  1
  Cu  Cu7  1  0.05683500  0.30191300  0.81645400  1
  C  C8  1  0.73345600  0.06143600  0.75755400  1
  C  C9  1  0.22413500  0.53262400  0.03026000  1
  C  C10  1  0.76654400  0.06143600  0.25755400  1
  C  C11  1  0.27586500  0.53262400  0.53026000  1
  C  C12  1  0.23345600  0.93856400  0.74244600  1
  C  C13  1  0.72413500  0.46737600  0.46974000  1
  C  C14  1  0.77586500  0.46737600  0.96974000  1
  C  C15  1  0.26654400  0.93856400  0.24244600  1
  C  C16  1  0.17583700  0.74850700  0.89850400  1
  C  C17  1  0.61127200  0.11132200  0.31170500  1
  C  C18  1  0.88872800  0.11132200  0.81170500  1
  C  C19  1  0.38440300  0.54916100  0.10072300  1
  C  C20  1  0.82416300  0.25149300  0.10149600  1
  C  C21  1  0.10000400  0.97359400  0.62314500  1
  C  C22  1  0.61559700  0.45083900  0.89927700  1
  C  C23  1  0.09097600  0.48900600  0.15193800  1
  C  C24  1  0.27107600  0.37870100  0.45076900  1
  C  C25  1  0.89999600  0.02640600  0.37685500  1
  C  C26  1  0.39999600  0.97359400  0.12314500  1
  C  C27  1  0.76082800  0.88385500  0.20102100  1
  C  C28  1  0.26082800  0.11614500  0.29897900  1
  C  C29  1  0.32416300  0.74850700  0.39850400  1
  C  C30  1  0.60000400  0.02640600  0.87685500  1
  C  C31  1  0.11127200  0.88867800  0.18829500  1
  C  C32  1  0.23917200  0.11614500  0.79897900  1
  C  C33  1  0.90902400  0.51099400  0.84806200  1
  C  C34  1  0.22892400  0.37870100  0.95076900  1
  C  C35  1  0.77107600  0.62129900  0.04923100  1
  C  C36  1  0.88440300  0.45083900  0.39927700  1
  C  C37  1  0.40902400  0.48900600  0.65193800  1
  C  C38  1  0.59097600  0.51099400  0.34806200  1
  C  C39  1  0.38872800  0.88867800  0.68829500  1
  C  C40  1  0.73917200  0.88385500  0.70102100  1
  C  C41  1  0.11559700  0.54916100  0.60072300  1
  C  C42  1  0.72892400  0.62129900  0.54923100  1
  C  C43  1  0.67583700  0.25149300  0.60149600  1
