# generated using pymatgen
data_CuNi3C10
_symmetry_space_group_name_H-M   'P 1'
_cell_length_a   6.68106164
_cell_length_b   6.68106164
_cell_length_c   9.76666600
_cell_angle_alpha   90.00000000
_cell_angle_beta   90.00000000
_cell_angle_gamma   119.99999643
_symmetry_Int_Tables_number   1
_chemical_formula_structural   CuNi3C10
_chemical_formula_sum   'Cu2 Ni6 C20'
_cell_volume   377.54431964
_cell_formula_units_Z   2
loop_
 _symmetry_equiv_pos_site_id
 _symmetry_equiv_pos_as_xyz
  1  'x, y, z'
loop_
 _atom_site_type_symbol
 _atom_site_label
 _atom_site_symmetry_multiplicity
 _atom_site_fract_x
 _atom_site_fract_y
 _atom_site_fract_z
 _atom_site_occupancy
  C  C0  1  0.66666700  0.33333300  0.00000000  1
  C  C1  1  0.66666700  0.33333300  0.50000000  1
  Ni  Ni2  1  0.21746900  0.94118500  0.25000000  1
  Ni  Ni3  1  0.21746900  0.27628400  0.75000000  1
  Ni  Ni4  1  0.72371600  0.94118500  0.75000000  1
  Ni  Ni5  1  0.05881500  0.78253100  0.75000000  1
  Ni  Ni6  1  0.05881500  0.27628400  0.25000000  1
  Ni  Ni7  1  0.72371600  0.78253100  0.25000000  1
  Cu  Cu8  1  0.33333300  0.66666700  0.00000000  1
  Cu  Cu9  1  0.33333300  0.66666700  0.50000000  1
  C  C10  1  0.07597200  0.66295500  0.61852800  1
  C  C11  1  0.58698300  0.92402800  0.61852800  1
  C  C12  1  0.33704500  0.41301700  0.61852800  1
  C  C13  1  0.33704500  0.92402800  0.38147200  1
  C  C14  1  0.24119600  0.19112500  0.25000000  1
  C  C15  1  0.94992900  0.75880400  0.25000000  1
  C  C16  1  0.80887500  0.05007100  0.25000000  1
  C  C17  1  0.80887500  0.75880400  0.75000000  1
  C  C18  1  0.94992900  0.19112500  0.75000000  1
  C  C19  1  0.24119600  0.05007100  0.75000000  1
  C  C20  1  0.33704500  0.92402800  0.11852700  1
  C  C21  1  0.58698300  0.66295500  0.38147200  1
  C  C22  1  0.07597200  0.41301700  0.38147200  1
  C  C23  1  0.07597200  0.41301700  0.11852700  1
  C  C24  1  0.58698300  0.66295500  0.11852700  1
  C  C25  1  0.07597200  0.66295500  0.88147200  1
  C  C26  1  0.58698300  0.92402800  0.88147200  1
  C  C27  1  0.33704500  0.41301700  0.88147200  1
