# generated using pymatgen
data_Cu12Ni36C25
_symmetry_space_group_name_H-M   'P 1'
_cell_length_a   10.51454682
_cell_length_b   14.04011533
_cell_length_c   21.69389172
_cell_angle_alpha   90.00000000
_cell_angle_beta   90.00000000
_cell_angle_gamma   90.00000000
_symmetry_Int_Tables_number   1
_chemical_formula_structural   Cu12Ni36C25
_chemical_formula_sum   'Cu48 Ni144 C100'
_cell_volume   3202.57052732
_cell_formula_units_Z   4
loop_
 _symmetry_equiv_pos_site_id
 _symmetry_equiv_pos_as_xyz
  1  'x, y, z'
loop_
 _atom_site_type_symbol
 _atom_site_label
 _atom_site_symmetry_multiplicity
 _atom_site_fract_x
 _atom_site_fract_y
 _atom_site_fract_z
 _atom_site_occupancy
  C  C0  1  0.25567710  0.13154321  0.91533787  1
  C  C1  1  0.74432290  0.63154321  0.08466213  1
  C  C2  1  0.75567710  0.63154321  0.58466213  1
  C  C3  1  0.24432290  0.13154321  0.41533787  1
  C  C4  1  0.32550613  0.22181076  0.77854422  1
  C  C5  1  0.67449387  0.72181076  0.22145578  1
  C  C6  1  0.82550613  0.72181076  0.72145578  1
  C  C7  1  0.17449387  0.22181076  0.27854422  1
  C  C8  1  0.32968553  0.43864942  0.83862503  1
  C  C9  1  0.67031447  0.93864942  0.16137497  1
  C  C10  1  0.82968553  0.93864942  0.66137497  1
  C  C11  1  0.17031447  0.43864942  0.33862503  1
  C  C12  1  0.26015223  0.34890091  0.97587790  1
  C  C13  1  0.73984777  0.84890091  0.02412210  1
  C  C14  1  0.76015223  0.84890091  0.52412210  1
  C  C15  1  0.23984777  0.34890091  0.47587790  1
  C  C16  1  0.51141219  0.26867541  0.89873105  1
  C  C17  1  0.48858781  0.76867541  0.10126895  1
  C  C18  1  0.01141219  0.76867541  0.60126895  1
  C  C19  1  0.98858781  0.26867541  0.39873105  1
  C  C20  1  0.08035718  0.30204301  0.85623005  1
  C  C21  1  0.91964282  0.80204301  0.14376995  1
  C  C22  1  0.58035718  0.80204301  0.64376995  1
  C  C23  1  0.41964282  0.30204301  0.35623005  1
  Ni  Ni24  1  0.02029498  0.32085914  0.71418275  1
  Ni  Ni25  1  0.97970502  0.82085914  0.28581725  1
  Ni  Ni26  1  0.52029498  0.82085914  0.78581725  1
  Ni  Ni27  1  0.47970502  0.32085914  0.21418275  1
  Ni  Ni28  1  0.11192055  0.22365297  0.68379942  1
  Ni  Ni29  1  0.88807945  0.72365297  0.31620058  1
  Ni  Ni30  1  0.61192055  0.72365297  0.81620058  1
  Ni  Ni31  1  0.38807945  0.22365297  0.18379942  1
  Ni  Ni32  1  0.97330575  0.20015422  0.72928021  1
  Ni  Ni33  1  0.02669425  0.70015422  0.27071979  1
  Ni  Ni34  1  0.47330575  0.70015422  0.77071979  1
  Ni  Ni35  1  0.52669425  0.20015422  0.22928021  1
  Ni  Ni36  1  0.62766621  0.07791259  0.92101355  1
  Ni  Ni37  1  0.37233379  0.57791259  0.07898645  1
  Ni  Ni38  1  0.12766621  0.57791259  0.57898645  1
  Ni  Ni39  1  0.87233379  0.07791259  0.42101355  1
  Ni  Ni40  1  0.49744960  0.00595533  0.94727824  1
  Ni  Ni41  1  0.50255040  0.50595533  0.05272176  1
  Ni  Ni42  1  0.99744960  0.50595533  0.55272176  1
  Ni  Ni43  1  0.00255040  0.00595533  0.44727824  1
  Ni  Ni44  1  0.51461309  0.03275145  0.86658189  1
  Ni  Ni45  1  0.48538691  0.53275145  0.13341811  1
  Ni  Ni46  1  0.01461309  0.53275145  0.63341811  1
  Ni  Ni47  1  0.98538691  0.03275145  0.36658189  1
  Ni  Ni48  1  0.70237399  0.23204260  0.79555296  1
  Ni  Ni49  1  0.29762601  0.73204260  0.20444704  1
  Ni  Ni50  1  0.20237399  0.73204260  0.70444704  1
  Ni  Ni51  1  0.79762601  0.23204260  0.29555296  1
  Ni  Ni52  1  0.60105420  0.21260739  0.72968186  1
  Ni  Ni53  1  0.39894580  0.71260739  0.27031814  1
  Ni  Ni54  1  0.10105420  0.71260739  0.77031814  1
  Ni  Ni55  1  0.89894580  0.21260739  0.22968186  1
  Ni  Ni56  1  0.61075100  0.32840309  0.76463682  1
  Ni  Ni57  1  0.38924900  0.82840309  0.23536318  1
  Ni  Ni58  1  0.11075100  0.82840309  0.73536318  1
  Ni  Ni59  1  0.88924900  0.32840309  0.26463682  1
  Ni  Ni60  1  0.69358605  0.44008718  0.88762482  1
  Ni  Ni61  1  0.30641395  0.94008718  0.11237518  1
  Ni  Ni62  1  0.19358605  0.94008718  0.61237518  1
  Ni  Ni63  1  0.80641395  0.44008718  0.38762482  1
  Ni  Ni64  1  0.58651321  0.53358442  0.86428961  1
  Ni  Ni65  1  0.41348679  0.03358442  0.13571039  1
  Ni  Ni66  1  0.08651321  0.03358442  0.63571039  1
  Ni  Ni67  1  0.91348679  0.53358442  0.36428961  1
  Ni  Ni68  1  0.57618276  0.48320728  0.94047079  1
  Ni  Ni69  1  0.42381724  0.98320728  0.05952921  1
  Ni  Ni70  1  0.07618276  0.98320728  0.55952921  1
  Ni  Ni71  1  0.92381724  0.48320728  0.44047079  1
  Ni  Ni72  1  0.61217451  0.29594133  0.03161804  1
  Ni  Ni73  1  0.38782549  0.79594133  0.96838196  1
  Ni  Ni74  1  0.11217451  0.79594133  0.46838196  1
  Ni  Ni75  1  0.88782549  0.29594133  0.53161804  1
  Ni  Ni76  1  0.46790109  0.32328813  0.07261964  1
  Ni  Ni77  1  0.53209891  0.82328813  0.92738036  1
  Ni  Ni78  1  0.96790109  0.82328813  0.42738036  1
  Ni  Ni79  1  0.03209891  0.32328813  0.57261964  1
  Ni  Ni80  1  0.49061308  0.20702344  0.03963668  1
  Ni  Ni81  1  0.50938692  0.70702344  0.96036332  1
  Ni  Ni82  1  0.99061308  0.70702344  0.46036332  1
  Ni  Ni83  1  0.00938692  0.20702344  0.53963668  1
  Ni  Ni84  1  0.12334291  0.03580541  0.79102267  1
  Ni  Ni85  1  0.87665709  0.53580541  0.20897733  1
  Ni  Ni86  1  0.62334291  0.53580541  0.70897733  1
  Ni  Ni87  1  0.37665709  0.03580541  0.29102267  1
  Ni  Ni88  1  0.26827918  0.00928208  0.75167101  1
  Ni  Ni89  1  0.73172082  0.50928208  0.24832899  1
  Ni  Ni90  1  0.76827918  0.50928208  0.74832899  1
  Ni  Ni91  1  0.23172082  0.00928208  0.25167101  1
  Ni  Ni92  1  0.23697723  0.95810901  0.82638746  1
  Ni  Ni93  1  0.76302277  0.45810901  0.17361254  1
  Ni  Ni94  1  0.73697723  0.45810901  0.67361254  1
  Ni  Ni95  1  0.26302277  0.95810901  0.32638746  1
  Ni  Ni96  1  0.17662988  0.09836732  0.04927152  1
  Ni  Ni97  1  0.82337012  0.59836732  0.95072848  1
  Ni  Ni98  1  0.67662988  0.59836732  0.45072848  1
  Ni  Ni99  1  0.32337012  0.09836732  0.54927152  1
  Ni  Ni100  1  0.20219532  0.21005653  0.08794751  1
  Ni  Ni101  1  0.79780468  0.71005653  0.91205249  1
  Ni  Ni102  1  0.70219532  0.71005653  0.41205249  1
  Ni  Ni103  1  0.29780468  0.21005653  0.58794751  1
  Ni  Ni104  1  0.06409667  0.19315671  0.04156343  1
  Ni  Ni105  1  0.93590333  0.69315671  0.95843657  1
  Ni  Ni106  1  0.56409667  0.69315671  0.45843657  1
  Ni  Ni107  1  0.43590333  0.19315671  0.54156343  1
  Ni  Ni108  1  0.92661593  0.10521675  0.84670169  1
  Ni  Ni109  1  0.07338407  0.60521675  0.15329831  1
  Ni  Ni110  1  0.42661593  0.60521675  0.65329831  1
  Ni  Ni111  1  0.57338407  0.10521675  0.34670169  1
  Ni  Ni112  1  0.98786827  0.04779924  0.91451159  1
  Ni  Ni113  1  0.01213173  0.54779924  0.08548841  1
  Ni  Ni114  1  0.48786827  0.54779924  0.58548841  1
  Ni  Ni115  1  0.51213173  0.04779924  0.41451159  1
  Ni  Ni116  1  0.89094694  0.15297379  0.92111945  1
  Ni  Ni117  1  0.10905306  0.65297379  0.07888055  1
  Ni  Ni118  1  0.39094694  0.65297379  0.57888055  1
  Ni  Ni119  1  0.60905306  0.15297379  0.42111945  1
  Ni  Ni120  1  0.32169503  0.47671888  0.70386815  1
  Ni  Ni121  1  0.67830497  0.97671888  0.29613185  1
  Ni  Ni122  1  0.82169503  0.97671888  0.79613185  1
  Ni  Ni123  1  0.17830497  0.47671888  0.20386815  1
  Ni  Ni124  1  0.40997533  0.38011727  0.67043406  1
  Ni  Ni125  1  0.59002467  0.88011727  0.32956594  1
  Ni  Ni126  1  0.90997533  0.88011727  0.82956594  1
  Ni  Ni127  1  0.09002467  0.38011727  0.17043406  1
  Ni  Ni128  1  0.24297749  0.36959037  0.68028330  1
  Ni  Ni129  1  0.75702251  0.86959037  0.31971670  1
  Ni  Ni130  1  0.74297749  0.86959037  0.81971670  1
  Ni  Ni131  1  0.25702251  0.36959037  0.18028330  1
  Ni  Ni132  1  0.12500119  0.54614497  0.93873717  1
  Ni  Ni133  1  0.87499881  0.04614497  0.06126283  1
  Ni  Ni134  1  0.62500119  0.04614497  0.56126283  1
  Ni  Ni135  1  0.37499881  0.54614497  0.43873717  1
  Ni  Ni136  1  0.25313482  0.57889522  0.98868702  1
  Ni  Ni137  1  0.74686518  0.07889522  0.01131298  1
  Ni  Ni138  1  0.75313482  0.07889522  0.51131298  1
  Ni  Ni139  1  0.24686518  0.57889522  0.48868702  1
  Ni  Ni140  1  0.25709082  0.61197779  0.90867798  1
  Ni  Ni141  1  0.74290918  0.11197779  0.09132202  1
  Ni  Ni142  1  0.75709082  0.11197779  0.59132202  1
  Ni  Ni143  1  0.24290918  0.61197779  0.40867798  1
  Ni  Ni144  1  0.95877301  0.49041283  0.82413850  1
  Ni  Ni145  1  0.04122699  0.99041283  0.17586150  1
  Ni  Ni146  1  0.45877301  0.99041283  0.67586150  1
  Ni  Ni147  1  0.54122699  0.49041283  0.32413850  1
  Ni  Ni148  1  0.09185770  0.56915282  0.81718692  1
  Ni  Ni149  1  0.90814230  0.06915282  0.18281308  1
  Ni  Ni150  1  0.59185770  0.06915282  0.68281308  1
  Ni  Ni151  1  0.40814230  0.56915282  0.31718692  1
  Ni  Ni152  1  0.04712777  0.49505781  0.75366940  1
  Ni  Ni153  1  0.95287223  0.99505781  0.24633060  1
  Ni  Ni154  1  0.54712777  0.99505781  0.74633060  1
  Ni  Ni155  1  0.45287223  0.49505781  0.25366940  1
  Ni  Ni156  1  0.92534749  0.29893311  0.98989669  1
  Ni  Ni157  1  0.07465251  0.79893311  0.01010331  1
  Ni  Ni158  1  0.42534749  0.79893311  0.51010331  1
  Ni  Ni159  1  0.57465251  0.29893311  0.48989669  1
  Ni  Ni160  1  0.99354547  0.40753907  0.01825648  1
  Ni  Ni161  1  0.00645453  0.90753907  0.98174352  1
  Ni  Ni162  1  0.49354547  0.90753907  0.48174352  1
  Ni  Ni163  1  0.50645453  0.40753907  0.51825648  1
  Ni  Ni164  1  0.89804362  0.40793526  0.94959726  1
  Ni  Ni165  1  0.10195638  0.90793526  0.05040274  1
  Ni  Ni166  1  0.39804362  0.90793526  0.55040274  1
  Ni  Ni167  1  0.60195638  0.40793526  0.44959726  1
  Cu  Cu168  1  0.05492656  0.24816126  0.72320218  1
  Cu  Cu169  1  0.94507344  0.74816126  0.27679782  1
  Cu  Cu170  1  0.55492656  0.74816126  0.77679782  1
  Cu  Cu171  1  0.44507344  0.24816126  0.22320218  1
  Cu  Cu172  1  0.52727900  0.06016292  0.91376244  1
  Cu  Cu173  1  0.47272100  0.56016292  0.08623756  1
  Cu  Cu174  1  0.02727900  0.56016292  0.58623756  1
  Cu  Cu175  1  0.97272100  0.06016292  0.41376244  1
  Cu  Cu176  1  0.61201089  0.25114823  0.77344539  1
  Cu  Cu177  1  0.38798911  0.75114823  0.22655461  1
  Cu  Cu178  1  0.11201089  0.75114823  0.72655461  1
  Cu  Cu179  1  0.88798911  0.25114823  0.27344539  1
  Cu  Cu180  1  0.59638170  0.46810908  0.89165026  1
  Cu  Cu181  1  0.40361830  0.96810908  0.10834974  1
  Cu  Cu182  1  0.09638170  0.96810908  0.60834974  1
  Cu  Cu183  1  0.90361830  0.46810908  0.39165026  1
  Cu  Cu184  1  0.50906679  0.28371885  0.03371171  1
  Cu  Cu185  1  0.49093321  0.78371885  0.96628829  1
  Cu  Cu186  1  0.00906679  0.78371885  0.46628829  1
  Cu  Cu187  1  0.99093321  0.28371885  0.53371171  1
  Cu  Cu188  1  0.22580469  0.02191794  0.79732870  1
  Cu  Cu189  1  0.77419531  0.52191794  0.20267130  1
  Cu  Cu190  1  0.72580469  0.52191794  0.70267130  1
  Cu  Cu191  1  0.27419531  0.02191794  0.29732870  1
  Cu  Cu192  1  0.16620132  0.17615384  0.04570950  1
  Cu  Cu193  1  0.83379868  0.67615384  0.95429050  1
  Cu  Cu194  1  0.66620132  0.67615384  0.45429050  1
  Cu  Cu195  1  0.33379868  0.17615384  0.54570950  1
  Cu  Cu196  1  0.96387632  0.11664169  0.89348431  1
  Cu  Cu197  1  0.03612368  0.61664169  0.10651569  1
  Cu  Cu198  1  0.46387632  0.61664169  0.60651569  1
  Cu  Cu199  1  0.53612368  0.11664169  0.39348431  1
  Cu  Cu200  1  0.33017509  0.39880851  0.70095145  1
  Cu  Cu201  1  0.66982491  0.89880851  0.29904855  1
  Cu  Cu202  1  0.83017509  0.89880851  0.79904855  1
  Cu  Cu203  1  0.16982491  0.39880851  0.20095145  1
  Cu  Cu204  1  0.22891844  0.55612110  0.94160308  1
  Cu  Cu205  1  0.77108156  0.05612110  0.05839692  1
  Cu  Cu206  1  0.72891844  0.05612110  0.55839692  1
  Cu  Cu207  1  0.27108156  0.55612110  0.44160308  1
  Cu  Cu208  1  0.05392231  0.49912750  0.80425315  1
  Cu  Cu209  1  0.94607769  0.99912750  0.19574685  1
  Cu  Cu210  1  0.55392231  0.99912750  0.69574685  1
  Cu  Cu211  1  0.44607769  0.49912750  0.30425315  1
  Cu  Cu212  1  0.96798636  0.36753683  0.97657775  1
  Cu  Cu213  1  0.03201364  0.86753683  0.02342225  1
  Cu  Cu214  1  0.46798636  0.86753683  0.52342225  1
  Cu  Cu215  1  0.53201364  0.36753683  0.47657775  1
  C  C216  1  0.66075470  0.25642236  0.91445059  1
  C  C217  1  0.33924530  0.75642236  0.08554941  1
  C  C218  1  0.16075470  0.75642236  0.58554941  1
  C  C219  1  0.83924530  0.25642236  0.41445059  1
  C  C220  1  0.23358351  0.02509452  0.94429391  1
  C  C221  1  0.76641649  0.52509452  0.05570609  1
  C  C222  1  0.73358351  0.52509452  0.55570609  1
  C  C223  1  0.26641649  0.02509452  0.44429391  1
  C  C224  1  0.35045469  0.17424264  0.71050928  1
  C  C225  1  0.64954531  0.67424264  0.28949072  1
  C  C226  1  0.85045469  0.67424264  0.78949072  1
  C  C227  1  0.14954531  0.17424264  0.21050928  1
  C  C228  1  0.35962892  0.54461910  0.81031907  1
  C  C229  1  0.64037108  0.04461910  0.18968093  1
  C  C230  1  0.85962892  0.04461910  0.68968093  1
  C  C231  1  0.14037108  0.54461910  0.31031907  1
  C  C232  1  0.24147195  0.39616154  0.04424650  1
  C  C233  1  0.75852805  0.89616154  0.95575350  1
  C  C234  1  0.74147195  0.89616154  0.45575350  1
  C  C235  1  0.25852805  0.39616154  0.54424650  1
  C  C236  1  0.93008417  0.31465058  0.84128722  1
  C  C237  1  0.06991583  0.81465058  0.15871278  1
  C  C238  1  0.43008417  0.81465058  0.65871278  1
  C  C239  1  0.56991583  0.31465058  0.34128722  1
  C  C240  1  0.45121678  0.14385391  0.92294149  1
  C  C241  1  0.54878322  0.64385391  0.07705851  1
  C  C242  1  0.95121678  0.64385391  0.57705851  1
  C  C243  1  0.04878322  0.14385391  0.42294149  1
  C  C244  1  0.50932186  0.22475674  0.81362050  1
  C  C245  1  0.49067814  0.72475674  0.18637950  1
  C  C246  1  0.00932186  0.72475674  0.68637950  1
  C  C247  1  0.99067814  0.22475674  0.31362050  1
  C  C248  1  0.50985875  0.39812300  0.86776967  1
  C  C249  1  0.49014125  0.89812300  0.13223033  1
  C  C250  1  0.00985875  0.89812300  0.63223033  1
  C  C251  1  0.99014125  0.39812300  0.36776967  1
  C  C252  1  0.45313726  0.31804799  0.97763577  1
  C  C253  1  0.54686274  0.81804799  0.02236423  1
  C  C254  1  0.95313726  0.81804799  0.52236423  1
  C  C255  1  0.04686274  0.31804799  0.47763577  1
  C  C256  1  0.29018783  0.09969259  0.82620273  1
  C  C257  1  0.70981217  0.59969259  0.17379727  1
  C  C258  1  0.79018783  0.59969259  0.67379727  1
  C  C259  1  0.20981217  0.09969259  0.32620273  1
  C  C260  1  0.23770993  0.20897402  0.99390496  1
  C  C261  1  0.76229007  0.70897402  0.00609504  1
  C  C262  1  0.73770993  0.70897402  0.50609504  1
  C  C263  1  0.26229007  0.20897402  0.49390496  1
  C  C264  1  0.07613756  0.17436582  0.89110158  1
  C  C265  1  0.92386244  0.67436582  0.10889842  1
  C  C266  1  0.57613756  0.67436582  0.60889842  1
  C  C267  1  0.42386244  0.17436582  0.39110158  1
  C  C268  1  0.35387620  0.36093973  0.76102719  1
  C  C269  1  0.64612380  0.86093973  0.23897281  1
  C  C270  1  0.85387620  0.86093973  0.73897281  1
  C  C271  1  0.14612380  0.36093973  0.26102719  1
  C  C272  1  0.13264986  0.24620769  0.77750807  1
  C  C273  1  0.86735014  0.74620769  0.22249193  1
  C  C274  1  0.63264986  0.74620769  0.72249193  1
  C  C275  1  0.36735014  0.24620769  0.27750807  1
  C  C276  1  0.29697950  0.47083338  0.92758368  1
  C  C277  1  0.70302050  0.97083338  0.07241632  1
  C  C278  1  0.79697950  0.97083338  0.57241632  1
  C  C279  1  0.20302050  0.47083338  0.42758368  1
  C  C280  1  0.13634571  0.42588328  0.82681884  1
  C  C281  1  0.86365429  0.92588328  0.17318116  1
  C  C282  1  0.63634571  0.92588328  0.67318116  1
  C  C283  1  0.36365429  0.42588328  0.32681884  1
  C  C284  1  0.08007819  0.35343664  0.94018749  1
  C  C285  1  0.91992181  0.85343664  0.05981251  1
  C  C286  1  0.58007819  0.85343664  0.55981251  1
  C  C287  1  0.41992181  0.35343664  0.44018749  1
  C  C288  1  0.28777885  0.28594119  0.87663441  1
  C  C289  1  0.71222115  0.78594119  0.12336559  1
  C  C290  1  0.78777885  0.78594119  0.62336559  1
  C  C291  1  0.21222115  0.28594119  0.37663441  1
