# generated using pymatgen
data_Cu2Ni2C5
_symmetry_space_group_name_H-M   'P 1'
_cell_length_a   5.20077100
_cell_length_b   5.20077100
_cell_length_c   7.19864000
_cell_angle_alpha   90.00000000
_cell_angle_beta   90.00000000
_cell_angle_gamma   90.00000000
_symmetry_Int_Tables_number   1
_chemical_formula_structural   Cu2Ni2C5
_chemical_formula_sum   'Cu4 Ni4 C10'
_cell_volume   194.70895145
_cell_formula_units_Z   2
loop_
 _symmetry_equiv_pos_site_id
 _symmetry_equiv_pos_as_xyz
  1  'x, y, z'
loop_
 _atom_site_type_symbol
 _atom_site_label
 _atom_site_symmetry_multiplicity
 _atom_site_fract_x
 _atom_site_fract_y
 _atom_site_fract_z
 _atom_site_occupancy
  C  C0  1  0.50000000  0.00000000  0.25631000  1
  C  C1  1  0.00000000  0.50000000  0.75631000  1
  Ni  Ni2  1  0.75181500  0.50000000  0.10718200  1
  Ni  Ni3  1  0.24818500  0.50000000  0.10718200  1
  Ni  Ni4  1  0.50000000  0.75181500  0.60718200  1
  Ni  Ni5  1  0.50000000  0.24818500  0.60718200  1
  C  C6  1  0.33585000  0.50000000  0.40517400  1
  C  C7  1  0.66415000  0.50000000  0.40517400  1
  C  C8  1  0.50000000  0.33585000  0.90517400  1
  C  C9  1  0.50000000  0.66415000  0.90517400  1
  C  C10  1  0.18354400  0.00000000  0.59390800  1
  C  C11  1  0.81645600  0.00000000  0.59390800  1
  C  C12  1  0.00000000  0.18354400  0.09390800  1
  C  C13  1  0.00000000  0.81645600  0.09390800  1
  Cu  Cu14  1  0.74773000  0.00000000  0.89058100  1
  Cu  Cu15  1  0.25227000  0.00000000  0.89058100  1
  Cu  Cu16  1  0.00000000  0.74773000  0.39058100  1
  Cu  Cu17  1  0.00000000  0.25227000  0.39058100  1
