# generated using pymatgen
data_CuNiC3
_symmetry_space_group_name_H-M   'P 1'
_cell_length_a   9.95723919
_cell_length_b   9.96595265
_cell_length_c   10.00374561
_cell_angle_alpha   89.27478509
_cell_angle_beta   87.93391509
_cell_angle_gamma   92.19663767
_symmetry_Int_Tables_number   1
_chemical_formula_structural   CuNiC3
_chemical_formula_sum   'Cu16 Ni16 C48'
_cell_volume   991.23311879
_cell_formula_units_Z   16
loop_
 _symmetry_equiv_pos_site_id
 _symmetry_equiv_pos_as_xyz
  1  'x, y, z'
loop_
 _atom_site_type_symbol
 _atom_site_label
 _atom_site_symmetry_multiplicity
 _atom_site_fract_x
 _atom_site_fract_y
 _atom_site_fract_z
 _atom_site_occupancy
  Ni  Ni0  1  0.64827400  0.25604800  0.73380600  1
  Ni  Ni1  1  0.54526500  0.12174200  0.95345600  1
  Ni  Ni2  1  0.71593800  0.14955400  0.42974200  1
  Ni  Ni3  1  0.23968800  0.17355500  0.12504200  1
  Ni  Ni4  1  0.88903400  0.37634600  0.46392000  1
  Ni  Ni5  1  0.37234300  0.69714500  0.42348500  1
  Ni  Ni6  1  0.20330700  0.96281300  0.80713100  1
  Ni  Ni7  1  0.35853700  0.24646900  0.66899700  1
  Ni  Ni8  1  0.21779700  0.01137200  0.39876300  1
  Ni  Ni9  1  0.52713100  0.37066200  0.38738100  1
  Ni  Ni10  1  0.48945900  0.81207300  0.83530600  1
  Ni  Ni11  1  0.04345600  0.67080000  0.68994400  1
  Ni  Ni12  1  0.83943900  0.46088200  0.74858700  1
  Ni  Ni13  1  0.92836900  0.16983800  0.92905000  1
  Ni  Ni14  1  0.91425800  0.97824600  0.37685900  1
  Ni  Ni15  1  0.72781700  0.75964000  0.60392500  1
  Cu  Cu16  1  0.44056100  0.41923200  0.98409100  1
  Cu  Cu17  1  0.51078600  0.67649500  0.12573200  1
  Cu  Cu18  1  0.93151500  0.09505900  0.61465100  1
  Cu  Cu19  1  0.71083900  0.82696800  0.24682300  1
  Cu  Cu20  1  0.30117800  0.47811200  0.22053600  1
  Cu  Cu21  1  0.74715900  0.90985500  0.93323600  1
  Cu  Cu22  1  0.87378600  0.62919800  0.02317600  1
  Cu  Cu23  1  0.22223300  0.67328100  0.99583100  1
  Cu  Cu24  1  0.99113400  0.66311100  0.40855400  1
  Cu  Cu25  1  0.69776900  0.34524900  0.14603100  1
  Cu  Cu26  1  0.04390600  0.39463400  0.14338200  1
  Cu  Cu27  1  0.51811100  0.04220500  0.24891000  1
  Cu  Cu28  1  0.17516400  0.46081000  0.48750600  1
  Cu  Cu29  1  0.04817600  0.90112200  0.09370900  1
  Cu  Cu30  1  0.52134600  0.52399600  0.69082000  1
  Cu  Cu31  1  0.16506400  0.41008200  0.82102000  1
  C  C32  1  0.30430200  0.87917000  0.43684500  1
  C  C33  1  0.27905500  0.13476700  0.48975500  1
  C  C34  1  0.37172900  0.39859000  0.79756900  1
  C  C35  1  0.77888500  0.98811900  0.54197100  1
  C  C36  1  0.72499100  0.34281700  0.35913600  1
  C  C37  1  0.64385500  0.40289300  0.84076800  1
  C  C38  1  0.73724000  0.01446000  0.28827300  1
  C  C39  1  0.03319000  0.71085400  0.09125800  1
  C  C40  1  0.97501800  0.35194700  0.84977100  1
  C  C41  1  0.52831900  0.17607700  0.40159400  1
  C  C42  1  0.85939800  0.45685400  0.10259800  1
  C  C43  1  0.71803500  0.73377400  0.07688400  1
  C  C44  1  0.36432800  0.48815400  0.40716500  1
  C  C45  1  0.45246200  0.65345700  0.92636000  1
  C  C46  1  0.66257700  0.83114800  0.77046900  1
  C  C47  1  0.03115700  0.46616000  0.34597300  1
  C  C48  1  0.71032000  0.56730700  0.64141700  1
  C  C49  1  0.36106900  0.89132700  0.75123000  1
  C  C50  1  0.07956300  0.20851200  0.05098900  1
  C  C51  1  0.17807900  0.65165300  0.50974400  1
  C  C52  1  0.10123700  0.84624400  0.73889100  1
  C  C53  1  0.50598400  0.14485600  0.75259800  1
  C  C54  1  0.53535500  0.78330800  0.31091300  1
  C  C55  1  0.97384100  0.49313600  0.59943900  1
  C  C56  1  0.73407500  0.14490400  0.86542200  1
  C  C57  1  0.99555900  0.07271500  0.78129500  1
  C  C58  1  0.80224200  0.27565900  0.62621600  1
  C  C59  1  0.21027800  0.91082100  0.98194800  1
  C  C60  1  0.31618000  0.04471400  0.23683200  1
  C  C61  1  0.61503500  0.16798700  0.11993600  1
  C  C62  1  0.51764000  0.45226000  0.17648600  1
  C  C63  1  0.17012500  0.59671800  0.81457800  1
  C  C64  1  0.19368600  0.34340300  0.63063100  1
  C  C65  1  0.52313600  0.35474400  0.58862000  1
  C  C66  1  0.92043700  0.18373300  0.42734100  1
  C  C67  1  0.07852900  0.99126800  0.25966700  1
  C  C68  1  0.38149200  0.21077600  0.01503800  1
  C  C69  1  0.91329200  0.75238300  0.57739300  1
  C  C70  1  0.48366100  0.68134500  0.59218000  1
  C  C71  1  0.87035100  0.78927700  0.32703400  1
  C  C72  1  0.90133900  0.98669500  0.02354600  1
  C  C73  1  0.06165600  0.98499300  0.50141400  1
  C  C74  1  0.24010500  0.29993700  0.25482800  1
  C  C75  1  0.89610700  0.62744000  0.83303200  1
  C  C76  1  0.22553300  0.46477500  0.04452100  1
  C  C77  1  0.24708700  0.12881800  0.78511600  1
  C  C78  1  0.53668800  0.92804400  0.98004600  1
  C  C79  1  0.31642300  0.66568300  0.21343400  1
