# generated using pymatgen
data_CuNi2C7
_symmetry_space_group_name_H-M   'P 1'
_cell_length_a   6.13693241
_cell_length_b   6.13693241
_cell_length_c   6.20929437
_cell_angle_alpha   60.14432794
_cell_angle_beta   60.14432794
_cell_angle_gamma   60.12485201
_symmetry_Int_Tables_number   1
_chemical_formula_structural   CuNi2C7
_chemical_formula_sum   'Cu1 Ni2 C7'
_cell_volume   165.87609759
_cell_formula_units_Z   1
loop_
 _symmetry_equiv_pos_site_id
 _symmetry_equiv_pos_as_xyz
  1  'x, y, z'
loop_
 _atom_site_type_symbol
 _atom_site_label
 _atom_site_symmetry_multiplicity
 _atom_site_fract_x
 _atom_site_fract_y
 _atom_site_fract_z
 _atom_site_occupancy
  Ni  Ni0  1  0.24809000  0.24809000  0.25887200  1
  Ni  Ni1  1  0.75191000  0.75191000  0.74112800  1
  Cu  Cu2  1  0.00000000  0.00000000  0.00000000  1
  C  C3  1  0.50000000  0.50000000  0.50000000  1
  C  C4  1  0.23107700  0.69381100  0.31145300  1
  C  C5  1  0.30618900  0.76892300  0.68854700  1
  C  C6  1  0.76892300  0.30618900  0.68854700  1
  C  C7  1  0.69381100  0.23107700  0.31145300  1
  C  C8  1  0.27289400  0.27289400  0.79525200  1
  C  C9  1  0.72710600  0.72710600  0.20474800  1
