# generated using pymatgen
data_CuNiC
_symmetry_space_group_name_H-M   'P 1'
_cell_length_a   3.25322346
_cell_length_b   3.25322346
_cell_length_c   40.14898800
_cell_angle_alpha   90.00000000
_cell_angle_beta   90.00000000
_cell_angle_gamma   119.99998894
_symmetry_Int_Tables_number   1
_chemical_formula_structural   CuNiC
_chemical_formula_sum   'Cu4 Ni4 C4'
_cell_volume   367.98750532
_cell_formula_units_Z   4
loop_
 _symmetry_equiv_pos_site_id
 _symmetry_equiv_pos_as_xyz
  1  'x, y, z'
loop_
 _atom_site_type_symbol
 _atom_site_label
 _atom_site_symmetry_multiplicity
 _atom_site_fract_x
 _atom_site_fract_y
 _atom_site_fract_z
 _atom_site_occupancy
  C  C0  1  0.00000000  0.00000000  0.09347600  1
  C  C1  1  0.00000000  0.00000000  0.46959100  1
  C  C2  1  0.33333300  0.66666700  0.28188000  1
  C  C3  1  0.33333300  0.66666700  0.65795000  1
  Ni  Ni4  1  0.00000000  0.00000000  0.32443600  1
  Ni  Ni5  1  0.33333300  0.66666700  0.05121100  1
  Ni  Ni6  1  0.33333300  0.66666700  0.13574400  1
  Ni  Ni7  1  0.00000000  0.00000000  0.23935100  1
  Cu  Cu8  1  0.00000000  0.00000000  0.69662900  1
  Cu  Cu9  1  0.33333300  0.66666700  0.43095500  1
  Cu  Cu10  1  0.33333300  0.66666700  0.50822200  1
  Cu  Cu11  1  0.00000000  0.00000000  0.61930200  1
