# generated using pymatgen
data_CuNi2C7
_symmetry_space_group_name_H-M   'P 1'
_cell_length_a   7.70289900
_cell_length_b   5.27749200
_cell_length_c   5.28007381
_cell_angle_alpha   89.82436023
_cell_angle_beta   90.00000000
_cell_angle_gamma   90.00000000
_symmetry_Int_Tables_number   1
_chemical_formula_structural   CuNi2C7
_chemical_formula_sum   'Cu2 Ni4 C14'
_cell_volume   214.64448779
_cell_formula_units_Z   2
loop_
 _symmetry_equiv_pos_site_id
 _symmetry_equiv_pos_as_xyz
  1  'x, y, z'
loop_
 _atom_site_type_symbol
 _atom_site_label
 _atom_site_symmetry_multiplicity
 _atom_site_fract_x
 _atom_site_fract_y
 _atom_site_fract_z
 _atom_site_occupancy
  Ni  Ni0  1  0.25000000  0.48790200  0.45121500  1
  Ni  Ni1  1  0.75000000  0.51209800  0.54878500  1
  Ni  Ni2  1  0.25000000  0.97786100  0.98194200  1
  Ni  Ni3  1  0.75000000  0.02213900  0.01805800  1
  C  C4  1  0.50000000  0.50000000  0.00000000  1
  C  C5  1  0.00000000  0.50000000  0.00000000  1
  Cu  Cu6  1  0.50000000  0.00000000  0.50000000  1
  Cu  Cu7  1  0.00000000  0.00000000  0.50000000  1
  C  C8  1  0.56521000  0.67992100  0.32544600  1
  C  C9  1  0.93352400  0.83041700  0.82486200  1
  C  C10  1  0.06521000  0.32007900  0.67455400  1
  C  C11  1  0.43352400  0.16958300  0.17513800  1
  C  C12  1  0.56647600  0.83041700  0.82486200  1
  C  C13  1  0.06647600  0.16958300  0.17513800  1
  C  C14  1  0.75000000  0.13077400  0.41930200  1
  C  C15  1  0.93479000  0.67992100  0.32544600  1
  C  C16  1  0.25000000  0.60845100  0.08342500  1
  C  C17  1  0.43479000  0.32007900  0.67455400  1
  C  C18  1  0.25000000  0.86922600  0.58069800  1
  C  C19  1  0.75000000  0.39154900  0.91657500  1
