# generated using pymatgen
data_CuNi4C5
_symmetry_space_group_name_H-M   'P 1'
_cell_length_a   6.16001900
_cell_length_b   11.30662500
_cell_length_c   12.31145700
_cell_angle_alpha   90.00000000
_cell_angle_beta   90.00000000
_cell_angle_gamma   90.00000000
_symmetry_Int_Tables_number   1
_chemical_formula_structural   CuNi4C5
_chemical_formula_sum   'Cu8 Ni32 C40'
_cell_volume   857.48097424
_cell_formula_units_Z   8
loop_
 _symmetry_equiv_pos_site_id
 _symmetry_equiv_pos_as_xyz
  1  'x, y, z'
loop_
 _atom_site_type_symbol
 _atom_site_label
 _atom_site_symmetry_multiplicity
 _atom_site_fract_x
 _atom_site_fract_y
 _atom_site_fract_z
 _atom_site_occupancy
  C  C0  1  0.80666100  0.44682800  0.37051900  1
  C  C1  1  0.69333900  0.94682800  0.62948100  1
  C  C2  1  0.30666100  0.55317200  0.12948100  1
  C  C3  1  0.19333900  0.05317200  0.87051900  1
  C  C4  1  0.19333900  0.55317200  0.62948100  1
  C  C5  1  0.30666100  0.05317200  0.37051900  1
  C  C6  1  0.69333900  0.44682800  0.87051900  1
  C  C7  1  0.80666100  0.94682800  0.12948100  1
  C  C8  1  0.76559700  0.15242200  0.31898100  1
  C  C9  1  0.73440300  0.65242200  0.68101900  1
  C  C10  1  0.26559700  0.84757800  0.18101900  1
  C  C11  1  0.23440300  0.34757800  0.81898100  1
  C  C12  1  0.23440300  0.84757800  0.68101900  1
  C  C13  1  0.26559700  0.34757800  0.31898100  1
  C  C14  1  0.73440300  0.15242200  0.81898100  1
  C  C15  1  0.76559700  0.65242200  0.18101900  1
  C  C16  1  0.91516800  0.36466700  0.12700200  1
  C  C17  1  0.58483200  0.86466700  0.87299800  1
  C  C18  1  0.41516800  0.63533300  0.37299800  1
  C  C19  1  0.08483200  0.13533300  0.62700200  1
  C  C20  1  0.08483200  0.63533300  0.87299800  1
  C  C21  1  0.41516800  0.13533300  0.12700200  1
  C  C22  1  0.58483200  0.36466700  0.62700200  1
  C  C23  1  0.91516800  0.86466700  0.37299800  1
  C  C24  1  0.71684300  0.20952900  0.51286500  1
  C  C25  1  0.78315700  0.70952900  0.48713500  1
  C  C26  1  0.21684300  0.79047100  0.98713500  1
  C  C27  1  0.28315700  0.29047100  0.01286500  1
  C  C28  1  0.28315700  0.79047100  0.48713500  1
  C  C29  1  0.21684300  0.29047100  0.51286500  1
  C  C30  1  0.78315700  0.20952900  0.01286500  1
  C  C31  1  0.71684300  0.70952900  0.98713500  1
  C  C32  1  0.60540000  0.27298300  0.18456600  1
  C  C33  1  0.89460000  0.77298300  0.81543400  1
  C  C34  1  0.10540000  0.72701700  0.31543400  1
  C  C35  1  0.39460000  0.22701700  0.68456600  1
  C  C36  1  0.39460000  0.72701700  0.81543400  1
  C  C37  1  0.10540000  0.22701700  0.18456600  1
  C  C38  1  0.89460000  0.27298300  0.68456600  1
  C  C39  1  0.60540000  0.77298300  0.31543400  1
  Ni  Ni40  1  0.86850600  0.16614700  0.38137500  1
  Ni  Ni41  1  0.63149400  0.66614700  0.61862500  1
  Ni  Ni42  1  0.36850600  0.83385300  0.11862500  1
  Ni  Ni43  1  0.13149400  0.33385300  0.88137500  1
  Ni  Ni44  1  0.13149400  0.83385300  0.61862500  1
  Ni  Ni45  1  0.36850600  0.33385300  0.38137500  1
  Ni  Ni46  1  0.63149400  0.16614700  0.88137500  1
  Ni  Ni47  1  0.86850600  0.66614700  0.11862500  1
  Ni  Ni48  1  0.78273300  0.35496200  0.07898000  1
  Ni  Ni49  1  0.71726700  0.85496200  0.92102000  1
  Ni  Ni50  1  0.28273300  0.64503800  0.42102000  1
  Ni  Ni51  1  0.21726700  0.14503800  0.57898000  1
  Ni  Ni52  1  0.21726700  0.64503800  0.92102000  1
  Ni  Ni53  1  0.28273300  0.14503800  0.07898000  1
  Ni  Ni54  1  0.71726700  0.35496200  0.57898000  1
  Ni  Ni55  1  0.78273300  0.85496200  0.42102000  1
  Ni  Ni56  1  0.72956000  0.13250400  0.47340100  1
  Ni  Ni57  1  0.77044000  0.63250400  0.52659900  1
  Ni  Ni58  1  0.22956000  0.86749600  0.02659900  1
  Ni  Ni59  1  0.27044000  0.36749600  0.97340100  1
  Ni  Ni60  1  0.27044000  0.86749600  0.52659900  1
  Ni  Ni61  1  0.22956000  0.36749600  0.47340100  1
  Ni  Ni62  1  0.77044000  0.13250400  0.97340100  1
  Ni  Ni63  1  0.72956000  0.63250400  0.02659900  1
  Ni  Ni64  1  0.60954000  0.35860800  0.16078500  1
  Ni  Ni65  1  0.89046000  0.85860800  0.83921500  1
  Ni  Ni66  1  0.10954000  0.64139200  0.33921500  1
  Ni  Ni67  1  0.39046000  0.14139200  0.66078500  1
  Ni  Ni68  1  0.39046000  0.64139200  0.83921500  1
  Ni  Ni69  1  0.10954000  0.14139200  0.16078500  1
  Ni  Ni70  1  0.89046000  0.35860800  0.66078500  1
  Ni  Ni71  1  0.60954000  0.85860800  0.33921500  1
  Cu  Cu72  1  0.59812500  0.13809100  0.21775900  1
  Cu  Cu73  1  0.90187500  0.63809100  0.78224100  1
  Cu  Cu74  1  0.09812500  0.86190900  0.28224100  1
  Cu  Cu75  1  0.40187500  0.36190900  0.71775900  1
  Cu  Cu76  1  0.40187500  0.86190900  0.78224100  1
  Cu  Cu77  1  0.09812500  0.36190900  0.21775900  1
  Cu  Cu78  1  0.90187500  0.13809100  0.71775900  1
  Cu  Cu79  1  0.59812500  0.63809100  0.28224100  1
