# generated using pymatgen
data_Cu13(NiC2)2
_symmetry_space_group_name_H-M   'P 1'
_cell_length_a   7.97707500
_cell_length_b   9.90753483
_cell_length_c   14.59598124
_cell_angle_alpha   90.99938443
_cell_angle_beta   100.06157550
_cell_angle_gamma   109.44685506
_symmetry_Int_Tables_number   1
_chemical_formula_structural   Cu13(NiC2)2
_chemical_formula_sum   'Cu52 Ni8 C16'
_cell_volume   1067.46998954
_cell_formula_units_Z   4
loop_
 _symmetry_equiv_pos_site_id
 _symmetry_equiv_pos_as_xyz
  1  'x, y, z'
loop_
 _atom_site_type_symbol
 _atom_site_label
 _atom_site_symmetry_multiplicity
 _atom_site_fract_x
 _atom_site_fract_y
 _atom_site_fract_z
 _atom_site_occupancy
  C  C0  1  0.94726500  0.54979000  0.10381800  1
  C  C1  1  0.05273500  0.45021000  0.89618200  1
  C  C2  1  0.04013000  0.98044000  0.12449900  1
  C  C3  1  0.95987000  0.01956000  0.87550100  1
  C  C4  1  0.03105100  0.47441800  0.38354500  1
  C  C5  1  0.96894900  0.52558200  0.61645500  1
  C  C6  1  0.93458200  0.04647900  0.38543000  1
  C  C7  1  0.06541800  0.95352100  0.61457000  1
  C  C8  1  0.01345400  0.24733900  0.06507500  1
  C  C9  1  0.98654600  0.75266100  0.93492500  1
  C  C10  1  0.97734600  0.29309200  0.23188600  1
  C  C11  1  0.02265400  0.70690800  0.76811400  1
  C  C12  1  0.00644300  0.80097300  0.26546400  1
  C  C13  1  0.99355700  0.19902700  0.73453600  1
  C  C14  1  0.97864600  0.73767600  0.43227000  1
  C  C15  1  0.02135400  0.26232400  0.56773000  1
  Ni  Ni16  1  0.57726600  0.44009300  0.08890300  1
  Ni  Ni17  1  0.42273400  0.55990700  0.91109700  1
  Ni  Ni18  1  0.41470200  0.09045900  0.16592900  1
  Ni  Ni19  1  0.58529800  0.90954100  0.83407100  1
  Ni  Ni20  1  0.40834600  0.57069600  0.41080800  1
  Ni  Ni21  1  0.59165400  0.42930400  0.58919200  1
  Ni  Ni22  1  0.56025000  0.95641300  0.35217800  1
  Ni  Ni23  1  0.43975000  0.04358700  0.64782200  1
  Cu  Cu24  1  0.98920700  0.20829800  0.15713000  1
  Cu  Cu25  1  0.01079300  0.79170200  0.84287000  1
  Cu  Cu26  1  0.01596700  0.37617900  0.03462300  1
  Cu  Cu27  1  0.98403300  0.62382100  0.96537700  1
  Cu  Cu28  1  0.03137600  0.13757500  0.01454400  1
  Cu  Cu29  1  0.96862400  0.86242500  0.98545600  1
  Cu  Cu30  1  0.98319800  0.43337500  0.22574500  1
  Cu  Cu31  1  0.01680200  0.56662500  0.77425500  1
  Cu  Cu32  1  0.96588200  0.24191900  0.31769900  1
  Cu  Cu33  1  0.03411800  0.75808100  0.68230100  1
  Cu  Cu34  1  0.99229400  0.70787300  0.33805600  1
  Cu  Cu35  1  0.00770600  0.29212700  0.66194400  1
  Cu  Cu36  1  0.02946100  0.75931700  0.17966600  1
  Cu  Cu37  1  0.97053900  0.24068300  0.82033400  1
  Cu  Cu38  1  0.99411000  0.93547700  0.27271100  1
  Cu  Cu39  1  0.00589000  0.06452300  0.72728900  1
  Cu  Cu40  1  0.97528600  0.62427800  0.48461200  1
  Cu  Cu41  1  0.02471400  0.37572200  0.51538800  1
  Cu  Cu42  1  0.97650600  0.86649100  0.46426300  1
  Cu  Cu43  1  0.02349400  0.13350900  0.53573700  1
  Cu  Cu44  1  0.41303700  0.39132900  0.08450800  1
  Cu  Cu45  1  0.58696300  0.60867100  0.91549200  1
  Cu  Cu46  1  0.66291700  0.37573700  0.04721200  1
  Cu  Cu47  1  0.33708300  0.62426300  0.95278800  1
  Cu  Cu48  1  0.67827400  0.56033400  0.13571600  1
  Cu  Cu49  1  0.32172600  0.43966600  0.86428400  1
  Cu  Cu50  1  0.58133500  0.13744800  0.18637700  1
  Cu  Cu51  1  0.41866500  0.86255200  0.81362300  1
  Cu  Cu52  1  0.31558900  0.14023400  0.20746700  1
  Cu  Cu53  1  0.68441100  0.85976600  0.79253300  1
  Cu  Cu54  1  0.32733200  0.98785800  0.10186200  1
  Cu  Cu55  1  0.67266800  0.01214200  0.89813800  1
  Cu  Cu56  1  0.30954200  0.45078400  0.36488400  1
  Cu  Cu57  1  0.69045800  0.54921600  0.63511600  1
  Cu  Cu58  1  0.57533600  0.61235400  0.42577800  1
  Cu  Cu59  1  0.42466400  0.38764600  0.57422200  1
  Cu  Cu60  1  0.32077200  0.64483500  0.44099500  1
  Cu  Cu61  1  0.67922800  0.35516500  0.55900500  1
  Cu  Cu62  1  0.39440300  0.92089600  0.33488800  1
  Cu  Cu63  1  0.60559700  0.07910400  0.66511200  1
  Cu  Cu64  1  0.66089300  0.05551200  0.41614900  1
  Cu  Cu65  1  0.33910700  0.94448800  0.58385100  1
  Cu  Cu66  1  0.64668700  0.89735000  0.30706700  1
  Cu  Cu67  1  0.35331300  0.10265000  0.69293300  1
  Cu  Cu68  1  0.27056100  0.63618700  0.15078600  1
  Cu  Cu69  1  0.72943900  0.36381300  0.84921400  1
  Cu  Cu70  1  0.71668200  0.90335400  0.09484800  1
  Cu  Cu71  1  0.28331800  0.09664600  0.90515200  1
  Cu  Cu72  1  0.70782600  0.39627600  0.34426200  1
  Cu  Cu73  1  0.29217400  0.60372400  0.65573800  1
  Cu  Cu74  1  0.26172600  0.13554000  0.41739900  1
  Cu  Cu75  1  0.73827400  0.86446000  0.58260100  1
