# generated using pymatgen
data_Cu8Ni2C57
_symmetry_space_group_name_H-M   'P 1'
_cell_length_a   6.95013500
_cell_length_b   12.75057700
_cell_length_c   13.88527548
_cell_angle_alpha   62.66836067
_cell_angle_beta   75.50650959
_cell_angle_gamma   90.00000000
_symmetry_Int_Tables_number   1
_chemical_formula_structural   Cu8Ni2C57
_chemical_formula_sum   'Cu8 Ni2 C57'
_cell_volume   1048.84639575
_cell_formula_units_Z   1
loop_
 _symmetry_equiv_pos_site_id
 _symmetry_equiv_pos_as_xyz
  1  'x, y, z'
loop_
 _atom_site_type_symbol
 _atom_site_label
 _atom_site_symmetry_multiplicity
 _atom_site_fract_x
 _atom_site_fract_y
 _atom_site_fract_z
 _atom_site_occupancy
  Ni  Ni0  1  0.50000000  0.25000000  0.00000000  1
  Ni  Ni1  1  0.50000000  0.75000000  0.00000000  1
  Cu  Cu2  1  0.29712100  0.54712100  0.40575700  1
  Cu  Cu3  1  0.70287900  0.95287900  0.59424300  1
  Cu  Cu4  1  0.70334400  0.45334400  0.59331200  1
  Cu  Cu5  1  0.29665600  0.04665600  0.40668800  1
  Cu  Cu6  1  0.13883200  0.38883200  0.72233600  1
  Cu  Cu7  1  0.86116800  0.11116800  0.27766400  1
  Cu  Cu8  1  0.86735900  0.61735900  0.26528200  1
  Cu  Cu9  1  0.13264100  0.88264100  0.73471800  1
  C  C10  1  0.81457900  0.62139500  0.75264700  1
  C  C11  1  0.18542100  0.37404200  0.24735300  1
  C  C12  1  0.43277400  0.12595800  0.75264700  1
  C  C13  1  0.56722600  0.87860500  0.24735300  1
  C  C14  1  0.37717600  0.71390700  0.56975400  1
  C  C15  1  0.62282400  0.28366200  0.43024600  1
  C  C16  1  0.05307000  0.21633800  0.56975400  1
  C  C17  1  0.94693000  0.78609300  0.43024600  1
  C  C18  1  0.21390700  0.56884700  0.90083200  1
  C  C19  1  0.78609300  0.46967900  0.09916800  1
  C  C20  1  0.88526100  0.03032100  0.90083200  1
  C  C21  1  0.11473900  0.93115300  0.09916800  1
  C  C22  1  0.00000000  0.25000000  0.00000000  1
  C  C23  1  0.37456000  0.56668900  0.56743900  1
  C  C24  1  0.62544000  0.13412800  0.43256100  1
  C  C25  1  0.05800100  0.36587200  0.56743900  1
  C  C26  1  0.94199900  0.93331100  0.43256100  1
  C  C27  1  0.62836300  0.43277900  0.42831800  1
  C  C28  1  0.37163700  0.86109700  0.57168200  1
  C  C29  1  0.94331800  0.63890300  0.42831800  1
  C  C30  1  0.05668200  0.06722100  0.57168200  1
  C  C31  1  0.81850300  0.76815400  0.75278400  1
  C  C32  1  0.18149700  0.52093800  0.24721600  1
  C  C33  1  0.42871300  0.97906200  0.75278400  1
  C  C34  1  0.57128700  0.73184600  0.24721600  1
  C  C35  1  0.18131800  0.22692300  0.24835200  1
  C  C36  1  0.81868200  0.47527500  0.75164800  1
  C  C37  1  0.57033000  0.02472500  0.24835200  1
  C  C38  1  0.42967000  0.27307700  0.75164800  1
  C  C39  1  0.11849600  0.46812600  0.06091200  1
  C  C40  1  0.88150400  0.52903800  0.93908800  1
  C  C41  1  0.82059100  0.97096200  0.06091200  1
  C  C42  1  0.17940900  0.03187400  0.93908800  1
  C  C43  1  0.48044600  0.55948200  0.87108800  1
  C  C44  1  0.51955400  0.43057000  0.12891200  1
  C  C45  1  0.64846600  0.06943000  0.87108800  1
  C  C46  1  0.35153400  0.94051800  0.12891200  1
  C  C47  1  0.04296200  0.70693600  0.58660400  1
  C  C48  1  0.95703800  0.29354000  0.41339600  1
  C  C49  1  0.37043400  0.20646000  0.58660400  1
  C  C50  1  0.62956600  0.79306400  0.41339600  1
  C  C51  1  0.18600400  0.37788300  0.90754300  1
  C  C52  1  0.81399600  0.28542500  0.09245700  1
  C  C53  1  0.90645300  0.21457500  0.90754300  1
  C  C54  1  0.09354700  0.12211700  0.09245700  1
  C  C55  1  0.79583000  0.60272700  0.10610200  1
  C  C56  1  0.20417000  0.70883000  0.89389800  1
  C  C57  1  0.09806800  0.79117000  0.10610200  1
  C  C58  1  0.90193200  0.89727300  0.89389800  1
  C  C59  1  0.64482600  0.68511600  0.62883700  1
  C  C60  1  0.35517400  0.31395300  0.37116300  1
  C  C61  1  0.72633700  0.18604700  0.62883700  1
  C  C62  1  0.27366300  0.81488400  0.37116300  1
  C  C63  1  0.17596700  0.61117000  0.75682600  1
  C  C64  1  0.82403300  0.36799600  0.24317400  1
  C  C65  1  0.06720700  0.13200400  0.75682600  1
  C  C66  1  0.93279300  0.88883000  0.24317400  1
