# generated using pymatgen
data_Cu8Ni6C5
_symmetry_space_group_name_H-M   'P 1'
_cell_length_a   5.50088559
_cell_length_b   7.56047136
_cell_length_c   12.10652800
_cell_angle_alpha   90.00000000
_cell_angle_beta   90.00000000
_cell_angle_gamma   95.82643743
_symmetry_Int_Tables_number   1
_chemical_formula_structural   Cu8Ni6C5
_chemical_formula_sum   'Cu16 Ni12 C10'
_cell_volume   500.90077532
_cell_formula_units_Z   2
loop_
 _symmetry_equiv_pos_site_id
 _symmetry_equiv_pos_as_xyz
  1  'x, y, z'
loop_
 _atom_site_type_symbol
 _atom_site_label
 _atom_site_symmetry_multiplicity
 _atom_site_fract_x
 _atom_site_fract_y
 _atom_site_fract_z
 _atom_site_occupancy
  C  C0  1  0.71349900  0.54861100  0.86545100  1
  C  C1  1  0.28650100  0.45138900  0.13454900  1
  C  C2  1  0.28650100  0.95138900  0.36545100  1
  C  C3  1  0.71349900  0.04861100  0.63454900  1
  C  C4  1  0.50000000  0.00000000  0.00000000  1
  C  C5  1  0.50000000  0.50000000  0.50000000  1
  C  C6  1  0.82459500  0.62032000  0.21969200  1
  C  C7  1  0.17540500  0.37968000  0.78030800  1
  C  C8  1  0.17540500  0.87968000  0.71969200  1
  C  C9  1  0.82459500  0.12032000  0.28030800  1
  Ni  Ni10  1  0.79217400  0.00514700  0.93897700  1
  Ni  Ni11  1  0.20782600  0.99485300  0.06102300  1
  Ni  Ni12  1  0.20782600  0.49485300  0.43897700  1
  Ni  Ni13  1  0.79217400  0.50514700  0.56102300  1
  Ni  Ni14  1  0.43204900  0.68814000  0.58120700  1
  Ni  Ni15  1  0.56795100  0.31186000  0.41879300  1
  Ni  Ni16  1  0.56795100  0.81186000  0.08120700  1
  Ni  Ni17  1  0.43204900  0.18814000  0.91879300  1
  Ni  Ni18  1  0.21468600  0.84322000  0.80658300  1
  Ni  Ni19  1  0.78531400  0.15678000  0.19341700  1
  Ni  Ni20  1  0.78531400  0.65678000  0.30658300  1
  Ni  Ni21  1  0.21468600  0.34322000  0.69341700  1
  Cu  Cu22  1  0.89564800  0.55340400  0.76530000  1
  Cu  Cu23  1  0.10435200  0.44659600  0.23470000  1
  Cu  Cu24  1  0.10435200  0.94659600  0.26530000  1
  Cu  Cu25  1  0.89564800  0.05340400  0.73470000  1
  Cu  Cu26  1  0.79892300  0.71367700  0.94278500  1
  Cu  Cu27  1  0.20107700  0.28632400  0.05721500  1
  Cu  Cu28  1  0.20107700  0.78632300  0.44278500  1
  Cu  Cu29  1  0.79892300  0.21367600  0.55721500  1
  Cu  Cu30  1  0.73772200  0.87415100  0.56656800  1
  Cu  Cu31  1  0.26227800  0.12584900  0.43343200  1
  Cu  Cu32  1  0.26227800  0.62584900  0.06656800  1
  Cu  Cu33  1  0.73772200  0.37415100  0.93343200  1
  Cu  Cu34  1  0.45259600  0.56884000  0.82076400  1
  Cu  Cu35  1  0.54740400  0.43116000  0.17923600  1
  Cu  Cu36  1  0.54740400  0.93116000  0.32076400  1
  Cu  Cu37  1  0.45259600  0.06884000  0.67923600  1
