# generated using pymatgen
data_Cu9(NiC8)2
_symmetry_space_group_name_H-M   'P 1'
_cell_length_a   5.59781600
_cell_length_b   9.47636300
_cell_length_c   9.89692100
_cell_angle_alpha   90.00000000
_cell_angle_beta   90.00000000
_cell_angle_gamma   90.00000000
_symmetry_Int_Tables_number   1
_chemical_formula_structural   Cu9(NiC8)2
_chemical_formula_sum   'Cu18 Ni4 C32'
_cell_volume   525.00133907
_cell_formula_units_Z   2
loop_
 _symmetry_equiv_pos_site_id
 _symmetry_equiv_pos_as_xyz
  1  'x, y, z'
loop_
 _atom_site_type_symbol
 _atom_site_label
 _atom_site_symmetry_multiplicity
 _atom_site_fract_x
 _atom_site_fract_y
 _atom_site_fract_z
 _atom_site_occupancy
  C  C0  1  0.00827800  0.50000000  0.50000000  1
  C  C1  1  0.00827800  0.00000000  0.00000000  1
  C  C2  1  0.04949500  0.13783400  0.61147800  1
  C  C3  1  0.04949500  0.86216600  0.38852200  1
  C  C4  1  0.04949500  0.36216600  0.11147800  1
  C  C5  1  0.04949500  0.63783400  0.88852200  1
  Ni  Ni6  1  0.79945900  0.34961200  0.82765100  1
  Ni  Ni7  1  0.79945900  0.65038800  0.17234900  1
  Ni  Ni8  1  0.79945900  0.15038800  0.32765100  1
  Ni  Ni9  1  0.79945900  0.84961200  0.67234900  1
  Cu  Cu10  1  0.41980200  0.76266500  0.52432000  1
  Cu  Cu11  1  0.41980200  0.23733500  0.47568000  1
  Cu  Cu12  1  0.41980200  0.73733500  0.02432000  1
  Cu  Cu13  1  0.41980200  0.26266500  0.97568000  1
  Cu  Cu14  1  0.42930300  0.70747700  0.36866500  1
  Cu  Cu15  1  0.42930300  0.29252300  0.63133500  1
  Cu  Cu16  1  0.42930300  0.79252300  0.86866500  1
  Cu  Cu17  1  0.42930300  0.20747700  0.13133500  1
  Cu  Cu18  1  0.40215300  0.65311600  0.72030100  1
  Cu  Cu19  1  0.40215300  0.34688400  0.27969900  1
  Cu  Cu20  1  0.40215300  0.84688400  0.22030100  1
  Cu  Cu21  1  0.40215300  0.15311600  0.77969900  1
  Cu  Cu22  1  0.38209500  0.50937200  0.23189700  1
  Cu  Cu23  1  0.38209500  0.49062800  0.76810300  1
  Cu  Cu24  1  0.38209500  0.99062800  0.73189700  1
  Cu  Cu25  1  0.38209500  0.00937200  0.26810300  1
  Cu  Cu26  1  0.36672700  0.00000000  0.50000000  1
  Cu  Cu27  1  0.36672700  0.50000000  0.00000000  1
  C  C28  1  0.82444900  0.48754500  0.17763300  1
  C  C29  1  0.82444900  0.51245500  0.82236700  1
  C  C30  1  0.82444900  0.01245500  0.67763300  1
  C  C31  1  0.82444900  0.98754500  0.32236700  1
  C  C32  1  0.86436100  0.20915500  0.46910500  1
  C  C33  1  0.86436100  0.79084500  0.53089500  1
  C  C34  1  0.86436100  0.29084500  0.96910500  1
  C  C35  1  0.86436100  0.70915500  0.03089500  1
  C  C36  1  0.96433600  0.28614100  0.71920400  1
  C  C37  1  0.96433600  0.71385900  0.28079600  1
  C  C38  1  0.96433600  0.21385900  0.21920400  1
  C  C39  1  0.96433600  0.78614100  0.78079600  1
  C  C40  1  0.53161600  0.31453200  0.79960000  1
  C  C41  1  0.53161600  0.68546800  0.20040000  1
  C  C42  1  0.53161600  0.18546800  0.29960000  1
  C  C43  1  0.53161600  0.81453200  0.70040000  1
  C  C44  1  0.32233400  0.26994200  0.55334600  1
  C  C45  1  0.32233400  0.73005800  0.44665400  1
  C  C46  1  0.32233400  0.23005800  0.05334600  1
  C  C47  1  0.32233400  0.76994200  0.94665400  1
  C  C48  1  0.28701500  0.07541000  0.75680700  1
  C  C49  1  0.28701500  0.92459000  0.24319300  1
  C  C50  1  0.28701500  0.42459000  0.25680700  1
  C  C51  1  0.28701500  0.57541000  0.74319300  1
  C  C52  1  0.19304500  0.00000000  0.50000000  1
  C  C53  1  0.19304500  0.50000000  0.00000000  1
