# generated using pymatgen
data_Cu4NiC11
_symmetry_space_group_name_H-M   'P 1'
_cell_length_a   7.31339500
_cell_length_b   7.31339500
_cell_length_c   14.92495000
_cell_angle_alpha   90.00000000
_cell_angle_beta   90.00000000
_cell_angle_gamma   90.00000000
_symmetry_Int_Tables_number   1
_chemical_formula_structural   Cu4NiC11
_chemical_formula_sum   'Cu16 Ni4 C44'
_cell_volume   798.27209112
_cell_formula_units_Z   4
loop_
 _symmetry_equiv_pos_site_id
 _symmetry_equiv_pos_as_xyz
  1  'x, y, z'
loop_
 _atom_site_type_symbol
 _atom_site_label
 _atom_site_symmetry_multiplicity
 _atom_site_fract_x
 _atom_site_fract_y
 _atom_site_fract_z
 _atom_site_occupancy
  C  C0  1  0.25000000  0.75000000  0.50000000  1
  C  C1  1  0.75000000  0.25000000  0.50000000  1
  C  C2  1  0.75000000  0.25000000  0.00000000  1
  C  C3  1  0.25000000  0.75000000  0.00000000  1
  Ni  Ni4  1  0.25000000  0.25000000  0.57117300  1
  Ni  Ni5  1  0.75000000  0.75000000  0.92882700  1
  Ni  Ni6  1  0.75000000  0.75000000  0.42882700  1
  Ni  Ni7  1  0.25000000  0.25000000  0.07117300  1
  Cu  Cu8  1  0.91379200  0.49209400  0.64476300  1
  Cu  Cu9  1  0.58620800  0.00790600  0.64476300  1
  Cu  Cu10  1  0.99209400  0.41379200  0.85523700  1
  Cu  Cu11  1  0.49209400  0.58620800  0.64476300  1
  Cu  Cu12  1  0.00790600  0.91379200  0.64476300  1
  Cu  Cu13  1  0.08620800  0.99209400  0.85523700  1
  Cu  Cu14  1  0.41379200  0.50790600  0.85523700  1
  Cu  Cu15  1  0.50790600  0.08620800  0.85523700  1
  Cu  Cu16  1  0.08620800  0.50790600  0.35523700  1
  Cu  Cu17  1  0.41379200  0.99209400  0.35523700  1
  Cu  Cu18  1  0.00790600  0.58620800  0.14476300  1
  Cu  Cu19  1  0.50790600  0.41379200  0.35523700  1
  Cu  Cu20  1  0.99209400  0.08620800  0.35523700  1
  Cu  Cu21  1  0.91379200  0.00790600  0.14476300  1
  Cu  Cu22  1  0.58620800  0.49209400  0.14476300  1
  Cu  Cu23  1  0.49209400  0.91379200  0.14476300  1
  C  C24  1  0.98468900  0.33695300  0.57572700  1
  C  C25  1  0.51531100  0.16304700  0.57572700  1
  C  C26  1  0.83695300  0.48468900  0.92427300  1
  C  C27  1  0.33695300  0.51531100  0.57572700  1
  C  C28  1  0.16304700  0.98468900  0.57572700  1
  C  C29  1  0.01531100  0.83695300  0.92427300  1
  C  C30  1  0.48468900  0.66304700  0.92427300  1
  C  C31  1  0.66304700  0.01531100  0.92427300  1
  C  C32  1  0.01531100  0.66304700  0.42427300  1
  C  C33  1  0.48468900  0.83695300  0.42427300  1
  C  C34  1  0.16304700  0.51531100  0.07572700  1
  C  C35  1  0.66304700  0.48468900  0.42427300  1
  C  C36  1  0.83695300  0.01531100  0.42427300  1
  C  C37  1  0.98468900  0.16304700  0.07572700  1
  C  C38  1  0.51531100  0.33695300  0.07572700  1
  C  C39  1  0.00058200  0.30612700  0.37571000  1
  C  C40  1  0.33695300  0.98468900  0.07572700  1
  C  C41  1  0.50058200  0.80612700  0.62429100  1
  C  C42  1  0.19387300  0.49941800  0.87570900  1
  C  C43  1  0.69387300  0.50058200  0.62429100  1
  C  C44  1  0.80612700  0.99941800  0.62429100  1
  C  C45  1  0.00058200  0.19387300  0.87570900  1
  C  C46  1  0.49941800  0.30612700  0.87570900  1
  C  C47  1  0.30612700  0.00058200  0.87570900  1
  C  C48  1  0.44768300  0.94768300  0.25000000  1
  C  C49  1  0.55231700  0.44768300  0.25000000  1
  C  C50  1  0.94768300  0.05231800  0.25000000  1
  C  C51  1  0.05231800  0.55231700  0.25000000  1
  C  C52  1  0.55231700  0.05231800  0.75000000  1
  C  C53  1  0.44768300  0.55231700  0.75000000  1
  C  C54  1  0.05231800  0.94768300  0.75000000  1
  C  C55  1  0.94768300  0.44768300  0.75000000  1
  C  C56  1  0.69387300  0.99941800  0.12429100  1
  C  C57  1  0.50058200  0.69387300  0.12429100  1
  C  C58  1  0.99941800  0.80612700  0.12429100  1
  C  C59  1  0.19387300  0.00058200  0.37571000  1
  C  C60  1  0.30612700  0.49941800  0.37571000  1
  C  C61  1  0.80612700  0.50058200  0.12429100  1
  C  C62  1  0.49941800  0.19387300  0.37571000  1
  C  C63  1  0.99941800  0.69387300  0.62429100  1
