# generated using pymatgen
data_Cu4NiC25
_symmetry_space_group_name_H-M   'P 1'
_cell_length_a   6.95339081
_cell_length_b   6.95744377
_cell_length_c   10.63478450
_cell_angle_alpha   90.64238008
_cell_angle_beta   89.27008903
_cell_angle_gamma   120.17692592
_symmetry_Int_Tables_number   1
_chemical_formula_structural   Cu4NiC25
_chemical_formula_sum   'Cu4 Ni1 C25'
_cell_volume   444.72001521
_cell_formula_units_Z   1
loop_
 _symmetry_equiv_pos_site_id
 _symmetry_equiv_pos_as_xyz
  1  'x, y, z'
loop_
 _atom_site_type_symbol
 _atom_site_label
 _atom_site_symmetry_multiplicity
 _atom_site_fract_x
 _atom_site_fract_y
 _atom_site_fract_z
 _atom_site_occupancy
  Ni  Ni0  1  0.25125323  0.75242616  0.03547561  1
  Cu  Cu1  1  0.50128219  0.00467991  0.50068136  1
  Cu  Cu2  1  0.00825147  0.99253280  0.00125160  1
  Cu  Cu3  1  0.99526828  0.49832242  0.50070868  1
  Cu  Cu4  1  0.49849579  0.50102794  0.50593217  1
  C  C5  1  0.34244390  0.65998426  0.26167080  1
  C  C6  1  0.66012301  0.33755044  0.73762103  1
  C  C7  1  0.15647616  0.32915941  0.80464225  1
  C  C8  1  0.99731790  0.00210701  0.50070857  1
  C  C9  1  0.15049522  0.84636337  0.78631528  1
  C  C10  1  0.67077204  0.84228518  0.80484329  1
  C  C11  1  0.32880780  0.16862489  0.20642613  1
  C  C12  1  0.84425771  0.15771403  0.19539107  1
  C  C13  1  0.83225894  0.67086186  0.20643687  1
  C  C14  1  0.46481814  0.89931745  0.18631722  1
  C  C15  1  0.46991694  0.52951999  0.21583293  1
  C  C16  1  0.32276347  0.67581714  0.86500390  1
  C  C17  1  0.52873912  0.07944295  0.78687619  1
  C  C18  1  0.10219231  0.53989517  0.18737233  1
  C  C19  1  0.84530461  0.15584603  0.39762559  1
  C  C20  1  0.91907755  0.46917909  0.78560182  1
  C  C21  1  0.15199540  0.32048364  0.59973332  1
  C  C22  1  0.52923615  0.46942295  0.78229032  1
  C  C23  1  0.66158855  0.33407993  0.58073841  1
  C  C24  1  0.84350123  0.68421233  0.40566816  1
  C  C25  1  0.67409859  0.32634803  0.19121601  1
  C  C26  1  0.31405464  0.15650923  0.40554538  1
  C  C27  1  0.33471346  0.67046204  0.41429470  1
  C  C28  1  0.16044813  0.83753866  0.59048816  1
  C  C29  1  0.68079005  0.84754570  0.60015285  1
