# generated using pymatgen
data_Cu5Ni2C25
_symmetry_space_group_name_H-M   'P 1'
_cell_length_a   5.75164700
_cell_length_b   6.68080252
_cell_length_c   7.75413315
_cell_angle_alpha   85.22408213
_cell_angle_beta   79.65438931
_cell_angle_gamma   77.68324238
_symmetry_Int_Tables_number   1
_chemical_formula_structural   Cu5Ni2C25
_chemical_formula_sum   'Cu5 Ni2 C25'
_cell_volume   286.05338580
_cell_formula_units_Z   1
loop_
 _symmetry_equiv_pos_site_id
 _symmetry_equiv_pos_as_xyz
  1  'x, y, z'
loop_
 _atom_site_type_symbol
 _atom_site_label
 _atom_site_symmetry_multiplicity
 _atom_site_fract_x
 _atom_site_fract_y
 _atom_site_fract_z
 _atom_site_occupancy
  C  C0  1  0.81148100  0.61600000  0.13793500  1
  C  C1  1  0.93983600  0.88008500  0.37725600  1
  C  C2  1  0.68885600  0.36995200  0.87211200  1
  C  C3  1  0.56343300  0.13132900  0.61571300  1
  C  C4  1  0.43279300  0.87546100  0.37996700  1
  C  C5  1  0.31163900  0.62166700  0.13423800  1
  C  C6  1  0.18858900  0.37412700  0.87539400  1
  C  C7  1  0.06586600  0.13225100  0.60731800  1
  C  C8  1  0.12492100  0.25024200  0.25236100  1
  Ni  Ni9  1  0.99922200  0.00421900  0.00314600  1
  Ni  Ni10  1  0.49607600  0.00257500  0.00361600  1
  Cu  Cu11  1  0.25405000  0.49302400  0.49456700  1
  Cu  Cu12  1  0.37473400  0.75005200  0.74737000  1
  Cu  Cu13  1  0.62462000  0.24801500  0.25193600  1
  Cu  Cu14  1  0.75479400  0.49214000  0.49507300  1
  Cu  Cu15  1  0.87395300  0.74633900  0.74315900  1
  C  C16  1  0.72800400  0.92972700  0.16339300  1
  C  C17  1  0.82727900  0.20099800  0.42827400  1
  C  C18  1  0.57745300  0.71210000  0.92600400  1
  C  C19  1  0.47061900  0.44787300  0.67530100  1
  C  C20  1  0.35901700  0.20215100  0.42693100  1
  C  C21  1  0.22289600  0.94008300  0.16580700  1
  C  C22  1  0.09409600  0.71246600  0.92389800  1
  C  C23  1  0.96862600  0.44847700  0.68756000  1
  C  C24  1  0.89780900  0.28160100  0.07039800  1
  C  C25  1  0.02449400  0.56729300  0.33321000  1
  C  C26  1  0.77817700  0.04847300  0.83176700  1
  C  C27  1  0.65076600  0.80858000  0.57972200  1
  C  C28  1  0.53228900  0.55927100  0.31432900  1
  C  C29  1  0.42554300  0.28084000  0.06885000  1
  C  C30  1  0.27371300  0.06430200  0.83718700  1
  C  C31  1  0.16435600  0.80828800  0.57621000  1
