# generated using pymatgen
data_Cu5NiC3
_symmetry_space_group_name_H-M   'P 1'
_cell_length_a   8.70033300
_cell_length_b   9.21325900
_cell_length_c   9.31271700
_cell_angle_alpha   90.00000000
_cell_angle_beta   90.00000000
_cell_angle_gamma   90.00000000
_symmetry_Int_Tables_number   1
_chemical_formula_structural   Cu5NiC3
_chemical_formula_sum   'Cu20 Ni4 C12'
_cell_volume   746.49269288
_cell_formula_units_Z   4
loop_
 _symmetry_equiv_pos_site_id
 _symmetry_equiv_pos_as_xyz
  1  'x, y, z'
loop_
 _atom_site_type_symbol
 _atom_site_label
 _atom_site_symmetry_multiplicity
 _atom_site_fract_x
 _atom_site_fract_y
 _atom_site_fract_z
 _atom_site_occupancy
  C  C0  1  0.96419000  0.25000000  0.75000000  1
  C  C1  1  0.53581000  0.75000000  0.75000000  1
  C  C2  1  0.03581000  0.75000000  0.25000000  1
  C  C3  1  0.46419000  0.25000000  0.25000000  1
  C  C4  1  0.75000000  0.50000000  0.02457000  1
  C  C5  1  0.75000000  0.00000000  0.47543000  1
  C  C6  1  0.25000000  0.50000000  0.97543000  1
  C  C7  1  0.25000000  0.00000000  0.52457000  1
  C  C8  1  0.75000000  0.50000000  0.47906500  1
  C  C9  1  0.75000000  0.00000000  0.02093500  1
  C  C10  1  0.25000000  0.50000000  0.52093500  1
  C  C11  1  0.25000000  0.00000000  0.97906500  1
  Ni  Ni12  1  0.48710200  0.25000000  0.75000000  1
  Ni  Ni13  1  0.01289800  0.75000000  0.75000000  1
  Ni  Ni14  1  0.51289800  0.75000000  0.25000000  1
  Ni  Ni15  1  0.98710200  0.25000000  0.25000000  1
  Cu  Cu16  1  0.27638800  0.25000000  0.75000000  1
  Cu  Cu17  1  0.22361200  0.75000000  0.75000000  1
  Cu  Cu18  1  0.72361200  0.75000000  0.25000000  1
  Cu  Cu19  1  0.77638800  0.25000000  0.25000000  1
  Cu  Cu20  1  0.54051700  0.05425400  0.77589300  1
  Cu  Cu21  1  0.95948300  0.94574600  0.77589300  1
  Cu  Cu22  1  0.54051700  0.44574600  0.72410700  1
  Cu  Cu23  1  0.95948300  0.55425400  0.72410700  1
  Cu  Cu24  1  0.45948300  0.94574600  0.22410700  1
  Cu  Cu25  1  0.04051700  0.05425400  0.22410700  1
  Cu  Cu26  1  0.45948300  0.55425400  0.27589300  1
  Cu  Cu27  1  0.04051700  0.44574600  0.27589300  1
  Cu  Cu28  1  0.51954900  0.27637800  0.94812000  1
  Cu  Cu29  1  0.98045100  0.72362200  0.94812000  1
  Cu  Cu30  1  0.51954900  0.22362200  0.55188000  1
  Cu  Cu31  1  0.98045100  0.77637800  0.55188000  1
  Cu  Cu32  1  0.48045100  0.72362200  0.05188000  1
  Cu  Cu33  1  0.01954900  0.27637800  0.05188000  1
  Cu  Cu34  1  0.48045100  0.77637800  0.44812000  1
  Cu  Cu35  1  0.01954900  0.22362200  0.44812000  1
