# generated using pymatgen
data_CuNiC8
_symmetry_space_group_name_H-M   'P 1'
_cell_length_a   8.50927686
_cell_length_b   8.52224338
_cell_length_c   8.47541748
_cell_angle_alpha   90.00000000
_cell_angle_beta   90.00000000
_cell_angle_gamma   90.00000000
_symmetry_Int_Tables_number   1
_chemical_formula_structural   CuNiC8
_chemical_formula_sum   'Cu4 Ni4 C32'
_cell_volume   614.62141296
_cell_formula_units_Z   4
loop_
 _symmetry_equiv_pos_site_id
 _symmetry_equiv_pos_as_xyz
  1  'x, y, z'
loop_
 _atom_site_type_symbol
 _atom_site_label
 _atom_site_symmetry_multiplicity
 _atom_site_fract_x
 _atom_site_fract_y
 _atom_site_fract_z
 _atom_site_occupancy
  C  C0  1  -0.00000000  0.00000000  -0.00000000  1
  C  C1  1  0.50000000  0.50000000  0.50000000  1
  C  C2  1  0.50000000  0.00000000  0.50000000  1
  C  C3  1  -0.00000000  0.50000000  -0.00000000  1
  Ni  Ni4  1  -0.00000000  0.50000000  0.50000000  1
  Ni  Ni5  1  0.50000000  0.50000000  -0.00000000  1
  Ni  Ni6  1  0.50000000  0.00000000  -0.00000000  1
  Ni  Ni7  1  0.00000000  0.00000000  0.50000000  1
  Cu  Cu8  1  0.75000000  0.75000000  0.75000000  1
  Cu  Cu9  1  0.25000000  0.25000000  0.75000000  1
  Cu  Cu10  1  0.25000000  0.75000000  0.25000000  1
  Cu  Cu11  1  0.75000000  0.25000000  0.25000000  1
  C  C12  1  0.25000000  0.25000000  0.25000000  1
  C  C13  1  0.75000000  0.75000000  0.25000000  1
  C  C14  1  0.75000000  0.25000000  0.75000000  1
  C  C15  1  0.25000000  0.75000000  0.75000000  1
  C  C16  1  0.01319923  0.23141093  0.26071069  1
  C  C17  1  0.98680077  0.76858907  0.26071069  1
  C  C18  1  0.98680077  0.23141093  0.73928931  1
  C  C19  1  0.01319923  0.76858907  0.73928931  1
  C  C20  1  0.26761065  0.01355877  0.23216270  1
  C  C21  1  0.26761065  0.98644123  0.76783730  1
  C  C22  1  0.73238935  0.98644123  0.23216270  1
  C  C23  1  0.73238935  0.01355877  0.76783730  1
  C  C24  1  0.22837726  0.26501102  0.01301696  1
  C  C25  1  0.77162274  0.26501102  0.98698304  1
  C  C26  1  0.22837726  0.73498898  0.98698304  1
  C  C27  1  0.77162274  0.73498898  0.01301696  1
  C  C28  1  0.48680077  0.26858907  0.23928931  1
  C  C29  1  0.51319923  0.73141093  0.23928931  1
  C  C30  1  0.51319923  0.26858907  0.76071069  1
  C  C31  1  0.48680077  0.73141093  0.76071069  1
  C  C32  1  0.23238935  0.48644123  0.26783730  1
  C  C33  1  0.23238935  0.51355877  0.73216270  1
  C  C34  1  0.76761065  0.51355877  0.26783730  1
  C  C35  1  0.76761065  0.48644123  0.73216270  1
  C  C36  1  0.27162274  0.23498898  0.48698304  1
  C  C37  1  0.72837726  0.23498898  0.51301696  1
  C  C38  1  0.27162274  0.76501102  0.51301696  1
  C  C39  1  0.72837726  0.76501102  0.48698304  1
