# generated using pymatgen
data_Cu3NiC2
_symmetry_space_group_name_H-M   'P 1'
_cell_length_a   10.79977289
_cell_length_b   10.79977289
_cell_length_c   11.73541932
_cell_angle_alpha   89.96503714
_cell_angle_beta   89.96503714
_cell_angle_gamma   28.10067637
_symmetry_Int_Tables_number   1
_chemical_formula_structural   Cu3NiC2
_chemical_formula_sum   'Cu12 Ni4 C8'
_cell_volume   644.71716817
_cell_formula_units_Z   4
loop_
 _symmetry_equiv_pos_site_id
 _symmetry_equiv_pos_as_xyz
  1  'x, y, z'
loop_
 _atom_site_type_symbol
 _atom_site_label
 _atom_site_symmetry_multiplicity
 _atom_site_fract_x
 _atom_site_fract_y
 _atom_site_fract_z
 _atom_site_occupancy
  C  C0  1  0.53411900  0.33300300  0.09210800  1
  C  C1  1  0.68048400  0.46422200  0.41453500  1
  C  C2  1  0.46422200  0.68048400  0.91453500  1
  C  C3  1  0.33300300  0.53411900  0.59210800  1
  Ni  Ni4  1  0.83652700  0.79076800  0.34351100  1
  Ni  Ni5  1  0.20870900  0.16144200  0.16300900  1
  Ni  Ni6  1  0.16144200  0.20870900  0.66300900  1
  Ni  Ni7  1  0.79076800  0.83652700  0.84351100  1
  Cu  Cu8  1  0.34297800  0.29281200  0.37518400  1
  Cu  Cu9  1  0.68302500  0.68785900  0.12534400  1
  Cu  Cu10  1  0.68785900  0.68302500  0.62534400  1
  Cu  Cu11  1  0.29281200  0.34297800  0.87518400  1
  Cu  Cu12  1  0.83194200  0.76870300  0.13746800  1
  Cu  Cu13  1  0.23396700  0.17071300  0.36959700  1
  Cu  Cu14  1  0.17071300  0.23396700  0.86959700  1
  Cu  Cu15  1  0.76870300  0.83194300  0.63746800  1
  Cu  Cu16  1  0.92431700  0.93629900  0.33367900  1
  Cu  Cu17  1  0.10036500  0.03373800  0.16358300  1
  Cu  Cu18  1  0.03373800  0.10036500  0.66358300  1
  Cu  Cu19  1  0.93629900  0.92431700  0.83367900  1
  C  C20  1  0.28114800  0.60611700  0.85864900  1
  C  C21  1  0.60611700  0.28114800  0.35864900  1
  C  C22  1  0.19030700  0.90543500  0.53993400  1
  C  C23  1  0.90543500  0.19030700  0.03993400  1
