# generated using pymatgen
data_Cu3(Ni2C)2
_symmetry_space_group_name_H-M   'P 1'
_cell_length_a   7.58445800
_cell_length_b   11.31630300
_cell_length_c   11.71350900
_cell_angle_alpha   90.00000000
_cell_angle_beta   90.00000000
_cell_angle_gamma   90.00000000
_symmetry_Int_Tables_number   1
_chemical_formula_structural   Cu3(Ni2C)2
_chemical_formula_sum   'Cu12 Ni16 C8'
_cell_volume   1005.34734117
_cell_formula_units_Z   4
loop_
 _symmetry_equiv_pos_site_id
 _symmetry_equiv_pos_as_xyz
  1  'x, y, z'
loop_
 _atom_site_type_symbol
 _atom_site_label
 _atom_site_symmetry_multiplicity
 _atom_site_fract_x
 _atom_site_fract_y
 _atom_site_fract_z
 _atom_site_occupancy
  Ni  Ni0  1  0.58497600  0.25000000  0.82457700  1
  Ni  Ni1  1  0.08497600  0.25000000  0.67542300  1
  Ni  Ni2  1  0.41502400  0.75000000  0.17542300  1
  Ni  Ni3  1  0.91502400  0.75000000  0.32457700  1
  Ni  Ni4  1  0.74891000  0.25000000  0.47248900  1
  Ni  Ni5  1  0.24891000  0.25000000  0.02751100  1
  Ni  Ni6  1  0.25109000  0.75000000  0.52751100  1
  Ni  Ni7  1  0.75109000  0.75000000  0.97248900  1
  Ni  Ni8  1  0.66249700  0.44658100  0.09675500  1
  Ni  Ni9  1  0.16249700  0.05341900  0.40324500  1
  Ni  Ni10  1  0.33750300  0.94658100  0.90324500  1
  Ni  Ni11  1  0.83750300  0.55341900  0.59675500  1
  Ni  Ni12  1  0.33750300  0.55341900  0.90324500  1
  Ni  Ni13  1  0.83750300  0.94658100  0.59675500  1
  Ni  Ni14  1  0.66249700  0.05341900  0.09675500  1
  Ni  Ni15  1  0.16249700  0.44658100  0.40324500  1
  Cu  Cu16  1  0.94485600  0.25000000  0.26021400  1
  Cu  Cu17  1  0.44485600  0.25000000  0.23978600  1
  Cu  Cu18  1  0.05514400  0.75000000  0.73978600  1
  Cu  Cu19  1  0.55514400  0.75000000  0.76021400  1
  Cu  Cu20  1  0.60412600  0.55921800  0.35821400  1
  Cu  Cu21  1  0.10412600  0.94078200  0.14178600  1
  Cu  Cu22  1  0.39587400  0.05921800  0.64178600  1
  Cu  Cu23  1  0.89587400  0.44078200  0.85821400  1
  Cu  Cu24  1  0.39587400  0.44078200  0.64178600  1
  Cu  Cu25  1  0.89587400  0.05921800  0.85821400  1
  Cu  Cu26  1  0.60412600  0.94078200  0.35821400  1
  Cu  Cu27  1  0.10412600  0.55921800  0.14178600  1
  C  C28  1  0.54649100  0.62236500  0.04133000  1
  C  C29  1  0.04649100  0.87763500  0.45867000  1
  C  C30  1  0.45350900  0.12236500  0.95867000  1
  C  C31  1  0.95350900  0.37763500  0.54133000  1
  C  C32  1  0.45350900  0.37763500  0.95867000  1
  C  C33  1  0.95350900  0.12236500  0.54133000  1
  C  C34  1  0.54649100  0.87763500  0.04133000  1
  C  C35  1  0.04649100  0.62236500  0.45867000  1
