# generated using pymatgen
data_Cu2(NiC10)3
_symmetry_space_group_name_H-M   'P 1'
_cell_length_a   5.77251200
_cell_length_b   11.05436400
_cell_length_c   13.47440968
_cell_angle_alpha   79.20769922
_cell_angle_beta   90.00000000
_cell_angle_gamma   90.00000000
_symmetry_Int_Tables_number   1
_chemical_formula_structural   Cu2(NiC10)3
_chemical_formula_sum   'Cu4 Ni6 C60'
_cell_volume   844.61344179
_cell_formula_units_Z   2
loop_
 _symmetry_equiv_pos_site_id
 _symmetry_equiv_pos_as_xyz
  1  'x, y, z'
loop_
 _atom_site_type_symbol
 _atom_site_label
 _atom_site_symmetry_multiplicity
 _atom_site_fract_x
 _atom_site_fract_y
 _atom_site_fract_z
 _atom_site_occupancy
  C  C0  1  0.01646900  0.76813000  0.36047700  1
  C  C1  1  0.03374400  0.24593900  0.93466200  1
  C  C2  1  0.46625600  0.24593900  0.43466200  1
  C  C3  1  0.48353100  0.76813000  0.86047700  1
  C  C4  1  0.51646900  0.23187000  0.13952300  1
  C  C5  1  0.53374400  0.75406100  0.56533800  1
  C  C6  1  0.96625600  0.75406100  0.06533800  1
  C  C7  1  0.98353100  0.23187000  0.63952300  1
  Ni  Ni8  1  0.00000000  0.50000000  0.50000000  1
  Ni  Ni9  1  0.24542000  0.50000000  0.23880900  1
  Ni  Ni10  1  0.25458000  0.50000000  0.73880900  1
  Ni  Ni11  1  0.50000000  0.50000000  0.00000000  1
  Ni  Ni12  1  0.74542000  0.50000000  0.26119100  1
  Ni  Ni13  1  0.75458000  0.50000000  0.76119100  1
  Cu  Cu14  1  0.00000000  0.50000000  0.00000000  1
  Cu  Cu15  1  0.00000000  0.00000000  0.50000000  1
  Cu  Cu16  1  0.50000000  0.00000000  0.00000000  1
  Cu  Cu17  1  0.50000000  0.50000000  0.50000000  1
  C  C18  1  0.00374800  0.95623500  0.85727700  1
  C  C19  1  0.00167400  0.77103000  0.69931800  1
  C  C20  1  0.49832600  0.77103000  0.19931800  1
  C  C21  1  0.49625200  0.95623500  0.35727700  1
  C  C22  1  0.50374800  0.04376500  0.64272300  1
  C  C23  1  0.50167400  0.22897000  0.80068200  1
  C  C24  1  0.99832600  0.22897000  0.30068200  1
  C  C25  1  0.99625200  0.04376500  0.14272300  1
  C  C26  1  0.99506600  0.49221200  0.65373100  1
  C  C27  1  0.98628100  0.89762000  0.18310200  1
  C  C28  1  0.01664700  0.47662100  0.84725200  1
  C  C29  1  0.04637200  0.17341400  0.41749600  1
  C  C30  1  0.04314800  0.87912800  0.76513900  1
  C  C31  1  0.21509500  0.90288500  0.93725000  1
  C  C32  1  0.22636400  0.31508600  0.25951700  1
  C  C33  1  0.23956600  0.68585200  0.71881800  1
  C  C34  1  0.23123700  0.36934300  0.52482000  1
  C  C35  1  0.23785700  0.09526100  0.08530100  1
  C  C36  1  0.24146000  0.62917500  0.47979300  1
  C  C37  1  0.25854000  0.62917500  0.97979300  1
  C  C38  1  0.26214300  0.09526100  0.58530100  1
  C  C39  1  0.26876300  0.36934300  0.02482000  1
  C  C40  1  0.26043400  0.68585200  0.21881800  1
  C  C41  1  0.27363600  0.31508600  0.75951700  1
  C  C42  1  0.28490500  0.90288500  0.43725000  1
  C  C43  1  0.45685200  0.87912800  0.26513900  1
  C  C44  1  0.45362800  0.17341400  0.91749600  1
  C  C45  1  0.48335300  0.47662100  0.34725200  1
  C  C46  1  0.51371900  0.89762000  0.68310200  1
  C  C47  1  0.50493400  0.49221200  0.15373100  1
  C  C48  1  0.49506600  0.50778800  0.84626900  1
  C  C49  1  0.48628100  0.10238000  0.31689800  1
  C  C50  1  0.51664700  0.52337900  0.65274800  1
  C  C51  1  0.54637200  0.82658600  0.08250400  1
  C  C52  1  0.54314800  0.12087200  0.73486100  1
  C  C53  1  0.71509500  0.09711500  0.56275000  1
  C  C54  1  0.72636400  0.68491400  0.24048300  1
  C  C55  1  0.73956600  0.31414800  0.78118200  1
  C  C56  1  0.73123700  0.63065700  0.97518000  1
  C  C57  1  0.73785700  0.90473900  0.41469900  1
  C  C58  1  0.74146000  0.37082500  0.02020700  1
  C  C59  1  0.75854000  0.37082500  0.52020700  1
  C  C60  1  0.76214300  0.90473900  0.91469900  1
  C  C61  1  0.76876300  0.63065700  0.47518000  1
  C  C62  1  0.76043400  0.31414800  0.28118200  1
  C  C63  1  0.77363600  0.68491400  0.74048300  1
  C  C64  1  0.78490500  0.09711500  0.06275000  1
  C  C65  1  0.95685200  0.12087200  0.23486100  1
  C  C66  1  0.95362800  0.82658600  0.58250400  1
  C  C67  1  0.98335300  0.52337900  0.15274800  1
  C  C68  1  0.01371900  0.10238000  0.81689800  1
  C  C69  1  0.00493400  0.50778800  0.34626900  1
