# generated using pymatgen
data_CuNi2C5
_symmetry_space_group_name_H-M   'P 1'
_cell_length_a   5.35166900
_cell_length_b   5.35166900
_cell_length_c   6.45714418
_cell_angle_alpha   114.48148321
_cell_angle_beta   114.48148321
_cell_angle_gamma   90.00000000
_symmetry_Int_Tables_number   1
_chemical_formula_structural   CuNi2C5
_chemical_formula_sum   'Cu2 Ni4 C10'
_cell_volume   149.84828810
_cell_formula_units_Z   2
loop_
 _symmetry_equiv_pos_site_id
 _symmetry_equiv_pos_as_xyz
  1  'x, y, z'
loop_
 _atom_site_type_symbol
 _atom_site_label
 _atom_site_symmetry_multiplicity
 _atom_site_fract_x
 _atom_site_fract_y
 _atom_site_fract_z
 _atom_site_occupancy
  C  C0  1  0.02851200  0.52851200  0.71933500  1
  C  C1  1  0.69082400  0.19082400  0.71933500  1
  C  C2  1  0.19082400  0.02851200  0.71933500  1
  C  C3  1  0.52851200  0.69082400  0.71933500  1
  C  C4  1  0.97148800  0.47148800  0.28066500  1
  C  C5  1  0.30917600  0.80917600  0.28066500  1
  C  C6  1  0.80917600  0.97148800  0.28066500  1
  C  C7  1  0.47148800  0.30917600  0.28066500  1
  C  C8  1  0.50000000  0.50000000  0.00000000  1
  C  C9  1  0.00000000  0.00000000  0.00000000  1
  Ni  Ni10  1  0.37873800  0.87873800  0.00000000  1
  Ni  Ni11  1  0.62126200  0.12126200  0.00000000  1
  Ni  Ni12  1  0.12126200  0.37873800  0.00000000  1
  Ni  Ni13  1  0.87873800  0.62126200  0.00000000  1
  Cu  Cu14  1  0.25000000  0.25000000  0.50000000  1
  Cu  Cu15  1  0.75000000  0.75000000  0.50000000  1
