# generated using pymatgen
data_CuNi3C4
_symmetry_space_group_name_H-M   'P 1'
_cell_length_a   3.36430647
_cell_length_b   3.36430647
_cell_length_c   11.02406700
_cell_angle_alpha   90.00000000
_cell_angle_beta   90.00000000
_cell_angle_gamma   120.00000916
_symmetry_Int_Tables_number   1
_chemical_formula_structural   CuNi3C4
_chemical_formula_sum   'Cu1 Ni3 C4'
_cell_volume   108.05964493
_cell_formula_units_Z   1
loop_
 _symmetry_equiv_pos_site_id
 _symmetry_equiv_pos_as_xyz
  1  'x, y, z'
loop_
 _atom_site_type_symbol
 _atom_site_label
 _atom_site_symmetry_multiplicity
 _atom_site_fract_x
 _atom_site_fract_y
 _atom_site_fract_z
 _atom_site_occupancy
  Ni  Ni0  1  0.66666700  0.33333300  0.25053800  1
  Ni  Ni1  1  0.00000000  0.00000000  0.01382600  1
  Ni  Ni2  1  0.00000000  0.00000000  0.48705800  1
  Cu  Cu3  1  0.66666700  0.33333300  0.75532000  1
  C  C4  1  0.66666700  0.33333300  0.95891100  1
  C  C5  1  0.66666700  0.33333300  0.43189500  1
  C  C6  1  0.00000000  0.00000000  0.66682000  1
  C  C7  1  0.00000000  0.00000000  0.19563200  1
