# generated using pymatgen
data_Cu8Ni7C37
_symmetry_space_group_name_H-M   'P 1'
_cell_length_a   10.89694809
_cell_length_b   18.70351051
_cell_length_c   34.38687356
_cell_angle_alpha   94.02592594
_cell_angle_beta   90.00000000
_cell_angle_gamma   90.00000000
_symmetry_Int_Tables_number   1
_chemical_formula_structural   Cu8Ni7C37
_chemical_formula_sum   'Cu32 Ni28 C148'
_cell_volume   6991.13527210
_cell_formula_units_Z   4
loop_
 _symmetry_equiv_pos_site_id
 _symmetry_equiv_pos_as_xyz
  1  'x, y, z'
loop_
 _atom_site_type_symbol
 _atom_site_label
 _atom_site_symmetry_multiplicity
 _atom_site_fract_x
 _atom_site_fract_y
 _atom_site_fract_z
 _atom_site_occupancy
  C  C0  1  0.75314835  0.87152588  0.48997006  1
  C  C1  1  0.25314835  0.62847412  0.01002994  1
  C  C2  1  0.24685165  0.12847412  0.51002994  1
  C  C3  1  0.74685165  0.37152588  0.98997006  1
  C  C4  1  0.25720885  0.66649972  0.22343767  1
  C  C5  1  0.75720885  0.83350028  0.27656233  1
  C  C6  1  0.74279115  0.33350028  0.77656233  1
  C  C7  1  0.24279115  0.16649972  0.72343767  1
  C  C8  1  0.62719223  0.47635803  0.33593749  1
  C  C9  1  0.12719223  0.02364197  0.16406251  1
  C  C10  1  0.37280777  0.52364197  0.66406251  1
  C  C11  1  0.87280777  0.97635803  0.83593749  1
  C  C12  1  0.75904363  0.56181223  0.43399261  1
  C  C13  1  0.25904363  0.93818777  0.06600739  1
  C  C14  1  0.24095637  0.43818777  0.56600739  1
  C  C15  1  0.74095637  0.06181223  0.93399261  1
  C  C16  1  0.06291764  0.25954050  0.08218670  1
  C  C17  1  0.56291764  0.24045950  0.41781330  1
  C  C18  1  0.93708236  0.74045950  0.91781330  1
  C  C19  1  0.43708236  0.75954050  0.58218670  1
  C  C20  1  0.43156906  0.26715082  0.08317574  1
  C  C21  1  0.93156906  0.23284918  0.41682426  1
  C  C22  1  0.56843094  0.73284918  0.91682426  1
  C  C23  1  0.06843094  0.76715082  0.58317574  1
  C  C24  1  0.24321364  0.36573459  0.24196004  1
  C  C25  1  0.74321364  0.13426541  0.25803996  1
  C  C26  1  0.75678636  0.63426541  0.75803996  1
  C  C27  1  0.25678636  0.86573459  0.74196004  1
  C  C28  1  0.08584549  0.44993682  0.33339896  1
  C  C29  1  0.58584549  0.05006318  0.16660104  1
  C  C30  1  0.91415451  0.55006318  0.66660104  1
  C  C31  1  0.41415451  0.94993682  0.83339896  1
  Ni  Ni32  1  0.26254074  0.87034216  0.37850191  1
  Ni  Ni33  1  0.76254074  0.62965784  0.12149809  1
  Ni  Ni34  1  0.73745926  0.12965784  0.62149809  1
  Ni  Ni35  1  0.23745926  0.37034216  0.87850191  1
  Ni  Ni36  1  0.06956588  0.97597020  0.29214625  1
  Ni  Ni37  1  0.56956588  0.52402980  0.20785375  1
  Ni  Ni38  1  0.93043412  0.02402980  0.70785375  1
  Ni  Ni39  1  0.43043412  0.47597020  0.79214625  1
  Ni  Ni40  1  0.25708267  0.09292759  0.38000572  1
  Ni  Ni41  1  0.75708267  0.40707241  0.11999428  1
  Ni  Ni42  1  0.74291733  0.90707241  0.61999428  1
  Ni  Ni43  1  0.24291733  0.59292759  0.88000572  1
  Ni  Ni44  1  0.43933544  0.98112407  0.29019714  1
  Ni  Ni45  1  0.93933544  0.51887593  0.20980286  1
  Ni  Ni46  1  0.56066456  0.01887593  0.70980286  1
  Ni  Ni47  1  0.06066456  0.48112407  0.79019714  1
  Ni  Ni48  1  0.44512541  0.72673720  0.44923704  1
  Ni  Ni49  1  0.94512541  0.77326280  0.05076296  1
  Ni  Ni50  1  0.55487459  0.27326280  0.55076296  1
  Ni  Ni51  1  0.05487459  0.22673720  0.94923704  1
  Ni  Ni52  1  0.25486499  0.65463857  0.35112439  1
  Ni  Ni53  1  0.75486499  0.84536143  0.14887561  1
  Ni  Ni54  1  0.74513501  0.34536143  0.64887561  1
  Ni  Ni55  1  0.24513501  0.15463857  0.85112439  1
  Ni  Ni56  1  0.06607147  0.72996309  0.44943791  1
  Ni  Ni57  1  0.56607147  0.77003691  0.05056209  1
  Ni  Ni58  1  0.93392853  0.27003691  0.55056209  1
  Ni  Ni59  1  0.43392853  0.22996309  0.94943791  1
  Cu  Cu60  1  0.25893519  0.86343565  0.29211115  1
  Cu  Cu61  1  0.75893519  0.63656435  0.20788885  1
  Cu  Cu62  1  0.74106481  0.13656435  0.70788885  1
  Cu  Cu63  1  0.24106481  0.36343565  0.79211115  1
  Cu  Cu64  1  0.25007951  0.09068773  0.29392157  1
  Cu  Cu65  1  0.75007951  0.40931227  0.20607843  1
  Cu  Cu66  1  0.74992049  0.90931227  0.70607843  1
  Cu  Cu67  1  0.24992049  0.59068773  0.79392157  1
  Cu  Cu68  1  0.05608314  0.99122719  0.37517653  1
  Cu  Cu69  1  0.55608314  0.50877281  0.12482347  1
  Cu  Cu70  1  0.94391686  0.00877281  0.62482347  1
  Cu  Cu71  1  0.44391686  0.49122719  0.87517653  1
  Cu  Cu72  1  0.46407834  0.99485733  0.37229323  1
  Cu  Cu73  1  0.96407834  0.50514267  0.12770677  1
  Cu  Cu74  1  0.53592166  0.00514267  0.62770677  1
  Cu  Cu75  1  0.03592166  0.49485733  0.87229323  1
  Cu  Cu76  1  0.45584533  0.75524745  0.36662292  1
  Cu  Cu77  1  0.95584533  0.74475255  0.13337708  1
  Cu  Cu78  1  0.54415467  0.24475255  0.63337708  1
  Cu  Cu79  1  0.04415467  0.25524745  0.86662292  1
  Cu  Cu80  1  0.25247771  0.61849481  0.43249931  1
  Cu  Cu81  1  0.75247771  0.88150519  0.06750069  1
  Cu  Cu82  1  0.74752229  0.38150519  0.56750069  1
  Cu  Cu83  1  0.24752229  0.11849481  0.93249931  1
  Cu  Cu84  1  0.25772856  0.82790337  0.47036301  1
  Cu  Cu85  1  0.75772856  0.67209663  0.02963699  1
  Cu  Cu86  1  0.74227144  0.17209663  0.52963699  1
  Cu  Cu87  1  0.24227144  0.32790337  0.97036301  1
  Cu  Cu88  1  0.06235817  0.75990207  0.36641473  1
  Cu  Cu89  1  0.56235817  0.74009793  0.13358527  1
  Cu  Cu90  1  0.93764183  0.24009793  0.63358527  1
  Cu  Cu91  1  0.43764183  0.25990207  0.86641473  1
  C  C92  1  0.75492660  0.77049769  0.51710061  1
  C  C93  1  0.25492660  0.72950231  0.98289939  1
  C  C94  1  0.24507340  0.22950231  0.48289939  1
  C  C95  1  0.74507340  0.27049769  0.01710061  1
  C  C96  1  0.91803559  0.88072218  0.45227577  1
  C  C97  1  0.41803559  0.61927782  0.04772423  1
  C  C98  1  0.08196441  0.11927782  0.54772423  1
  C  C99  1  0.58196441  0.38072218  0.95227577  1
  C  C100  1  0.59055062  0.87875833  0.45108277  1
  C  C101  1  0.09055062  0.62124167  0.04891723  1
  C  C102  1  0.40944938  0.12124167  0.54891723  1
  C  C103  1  0.90944938  0.37875833  0.95108277  1
  C  C104  1  0.74864359  0.96580206  0.53331466  1
  C  C105  1  0.24864359  0.53419794  0.96668534  1
  C  C106  1  0.25135641  0.03419794  0.46668534  1
  C  C107  1  0.75135641  0.46580206  0.03331466  1
  C  C108  1  0.41813976  0.66238542  0.26266649  1
  C  C109  1  0.91813976  0.83761458  0.23733351  1
  C  C110  1  0.58186024  0.33761458  0.73733351  1
  C  C111  1  0.08186024  0.16238542  0.76266649  1
  C  C112  1  0.26389452  0.76092522  0.19030703  1
  C  C113  1  0.76389452  0.73907478  0.30969297  1
  C  C114  1  0.73610548  0.23907478  0.80969297  1
  C  C115  1  0.23610548  0.26092522  0.69030703  1
  C  C116  1  0.25675311  0.56791382  0.18372618  1
  C  C117  1  0.75675311  0.93208618  0.31627382  1
  C  C118  1  0.74324689  0.43208618  0.81627382  1
  C  C119  1  0.24324689  0.06791382  0.68372618  1
  C  C120  1  0.09116029  0.66719661  0.26033199  1
  C  C121  1  0.59116029  0.83280339  0.23966801  1
  C  C122  1  0.90883971  0.33280339  0.73966801  1
  C  C123  1  0.40883971  0.16719661  0.76033199  1
  C  C124  1  0.75683125  0.46042327  0.38796209  1
  C  C125  1  0.25683125  0.03957673  0.11203791  1
  C  C126  1  0.24316875  0.53957673  0.61203791  1
  C  C127  1  0.74316875  0.96042327  0.88796209  1
  C  C128  1  0.71998744  0.54502380  0.29539842  1
  C  C129  1  0.21998744  0.95497620  0.20460158  1
  C  C130  1  0.28001256  0.45497620  0.70460158  1
  C  C131  1  0.78001256  0.04502380  0.79539842  1
  C  C132  1  0.47279655  0.53499915  0.36413835  1
  C  C133  1  0.97279655  0.96500085  0.13586165  1
  C  C134  1  0.52720345  0.46500085  0.63586165  1
  C  C135  1  0.02720345  0.03499915  0.86413835  1
  C  C136  1  0.58352067  0.37367269  0.30731263  1
  C  C137  1  0.08352067  0.12632731  0.19268737  1
  C  C138  1  0.41647933  0.62632731  0.69268737  1
  C  C139  1  0.91647933  0.87367269  0.80731263  1
  C  C140  1  0.75183029  0.65915582  0.40253203  1
  C  C141  1  0.25183029  0.84084418  0.09746797  1
  C  C142  1  0.24816971  0.34084418  0.59746797  1
  C  C143  1  0.74816971  0.15915582  0.90253203  1
  C  C144  1  0.59977953  0.55035961  0.47043321  1
  C  C145  1  0.09977953  0.94964039  0.02956679  1
  C  C146  1  0.40022047  0.44964039  0.52956679  1
  C  C147  1  0.90022047  0.05035961  0.97043321  1
  C  C148  1  0.93607672  0.54927628  0.46159057  1
  C  C149  1  0.43607672  0.95072372  0.03840943  1
  C  C150  1  0.06392328  0.45072372  0.53840943  1
  C  C151  1  0.56392328  0.04927628  0.96159057  1
  C  C152  1  0.24643060  0.26576191  0.11819824  1
  C  C153  1  0.74643060  0.23423809  0.38180176  1
  C  C154  1  0.75356940  0.73423809  0.88180176  1
  C  C155  1  0.25356940  0.76576191  0.61819824  1
  C  C156  1  0.04610595  0.36080478  0.05474268  1
  C  C157  1  0.54610595  0.13919522  0.44525732  1
  C  C158  1  0.95389405  0.63919522  0.94525732  1
  C  C159  1  0.45389405  0.86080478  0.55474268  1
  C  C160  1  0.08217582  0.16733999  0.04034885  1
  C  C161  1  0.58217582  0.33266001  0.45965115  1
  C  C162  1  0.91782418  0.83266001  0.95965115  1
  C  C163  1  0.41782418  0.66733999  0.54034885  1
  C  C164  1  0.92145161  0.24998757  0.12593223  1
  C  C165  1  0.42145161  0.25001243  0.37406777  1
  C  C166  1  0.07854839  0.75001243  0.87406777  1
  C  C167  1  0.57854839  0.74998757  0.62593223  1
  C  C168  1  0.56781490  0.26776796  0.12960641  1
  C  C169  1  0.06781490  0.23223204  0.37039359  1
  C  C170  1  0.43218510  0.73223204  0.87039359  1
  C  C171  1  0.93218510  0.76776796  0.62960641  1
  C  C172  1  0.42942297  0.17245397  0.04269894  1
  C  C173  1  0.92942297  0.32754603  0.45730106  1
  C  C174  1  0.57057703  0.82754603  0.95730106  1
  C  C175  1  0.07057703  0.67245397  0.54269894  1
  C  C176  1  0.43834099  0.36699868  0.05430566  1
  C  C177  1  0.93834099  0.13300132  0.44569434  1
  C  C178  1  0.56165901  0.63300132  0.94569434  1
  C  C179  1  0.06165901  0.86699868  0.55430566  1
  C  C180  1  0.22630278  0.47171186  0.28163702  1
  C  C181  1  0.72630278  0.02828814  0.21836298  1
  C  C182  1  0.77369722  0.52828814  0.71836298  1
  C  C183  1  0.27369722  0.97171186  0.78163702  1
  C  C184  1  0.08239483  0.36376790  0.20333154  1
  C  C185  1  0.58239483  0.13623210  0.29666846  1
  C  C186  1  0.91760517  0.63623210  0.79666846  1
  C  C187  1  0.41760517  0.86376790  0.70333154  1
  C  C188  1  0.40795258  0.37711723  0.20606891  1
  C  C189  1  0.90795258  0.12288277  0.29393109  1
  C  C190  1  0.59204742  0.62288277  0.79393109  1
  C  C191  1  0.09204742  0.87711723  0.70606891  1
  C  C192  1  0.25352557  0.28158597  0.28119236  1
  C  C193  1  0.75352557  0.21841403  0.21880764  1
  C  C194  1  0.74647443  0.71841403  0.71880764  1
  C  C195  1  0.24647443  0.78158597  0.78119236  1
  C  C196  1  0.01651731  0.56062420  0.34680469  1
  C  C197  1  0.51651731  0.93937580  0.15319531  1
  C  C198  1  0.98348269  0.43937580  0.65319531  1
  C  C199  1  0.48348269  0.06062420  0.84680469  1
  C  C200  1  0.94845098  0.38216243  0.30481822  1
  C  C201  1  0.44845098  0.11783757  0.19518178  1
  C  C202  1  0.05154902  0.61783757  0.69518178  1
  C  C203  1  0.55154902  0.88216243  0.80481822  1
  C  C204  1  0.19288965  0.41718022  0.38109071  1
  C  C205  1  0.69288965  0.08281978  0.11890929  1
  C  C206  1  0.80711035  0.58281978  0.61890929  1
  C  C207  1  0.30711035  0.91718022  0.88109071  1
