# generated using pymatgen
data_Cu3(NiC7)2
_symmetry_space_group_name_H-M   'P 1'
_cell_length_a   9.78354446
_cell_length_b   9.78354446
_cell_length_c   9.81104815
_cell_angle_alpha   83.94759010
_cell_angle_beta   83.94759010
_cell_angle_gamma   140.37477188
_symmetry_Int_Tables_number   1
_chemical_formula_structural   Cu3(NiC7)2
_chemical_formula_sum   'Cu6 Ni4 C28'
_cell_volume   569.20236155
_cell_formula_units_Z   2
loop_
 _symmetry_equiv_pos_site_id
 _symmetry_equiv_pos_as_xyz
  1  'x, y, z'
loop_
 _atom_site_type_symbol
 _atom_site_label
 _atom_site_symmetry_multiplicity
 _atom_site_fract_x
 _atom_site_fract_y
 _atom_site_fract_z
 _atom_site_occupancy
  C  C0  1  0.24228700  0.03472000  0.44447200  1
  C  C1  1  0.03472000  0.24228700  0.94447200  1
  Ni  Ni2  1  0.18086300  0.62239000  0.41652000  1
  Ni  Ni3  1  0.62239000  0.18086300  0.91652000  1
  Ni  Ni4  1  0.36927900  0.30996400  0.06014200  1
  Ni  Ni5  1  0.30996400  0.36927900  0.56014200  1
  Cu  Cu6  1  0.63776500  0.88081100  0.49465400  1
  Cu  Cu7  1  0.88081100  0.63776500  0.99465400  1
  Cu  Cu8  1  0.13143800  0.30598800  0.29580000  1
  Cu  Cu9  1  0.30598800  0.13143800  0.79580000  1
  Cu  Cu10  1  0.20721400  0.87850300  0.17751900  1
  Cu  Cu11  1  0.87850300  0.20721400  0.67751900  1
  C  C12  1  0.40121800  0.95078600  0.06767500  1
  C  C13  1  0.95078600  0.40121800  0.56767500  1
  C  C14  1  0.15869300  0.77533300  0.34408400  1
  C  C15  1  0.77533300  0.15869300  0.84408400  1
  C  C16  1  0.28404100  0.09719400  0.18584100  1
  C  C17  1  0.09719400  0.28404100  0.68584100  1
  C  C18  1  0.65935700  0.56207000  0.02325600  1
  C  C19  1  0.56207000  0.65935700  0.52325600  1
  C  C20  1  0.20224400  0.31650900  0.13205100  1
  C  C21  1  0.31650900  0.20224400  0.63205100  1
  C  C22  1  0.23898200  0.28437800  0.40190600  1
  C  C23  1  0.28437800  0.23898200  0.90190600  1
  C  C24  1  0.85662300  0.07228000  0.35427900  1
  C  C25  1  0.07228000  0.85662300  0.85427900  1
  C  C26  1  0.20515200  0.52008300  0.29569100  1
  C  C27  1  0.52008300  0.20515200  0.79569100  1
  C  C28  1  0.97038700  0.69694500  0.13582500  1
  C  C29  1  0.69694500  0.97038700  0.63582500  1
  C  C30  1  0.43405200  0.81542200  0.46521900  1
  C  C31  1  0.81542200  0.43405200  0.96521900  1
  C  C32  1  0.65207900  0.28405900  0.38461800  1
  C  C33  1  0.28405900  0.65207900  0.88461800  1
  C  C34  1  0.69200200  0.81943000  0.05616200  1
  C  C35  1  0.81943000  0.69200200  0.55616200  1
  C  C36  1  0.83913600  0.26852300  0.12318400  1
  C  C37  1  0.26852300  0.83913600  0.62318400  1
