# generated using pymatgen
data_Cu3Ni27C19
_symmetry_space_group_name_H-M   'P 1'
_cell_length_a   16.12647634
_cell_length_b   16.12647634
_cell_length_c   16.12647607
_cell_angle_alpha   113.93674120
_cell_angle_beta   113.93674120
_cell_angle_gamma   113.93673584
_symmetry_Int_Tables_number   1
_chemical_formula_structural   Cu3Ni27C19
_chemical_formula_sum   'Cu6 Ni54 C38'
_cell_volume   2559.92125725
_cell_formula_units_Z   2
loop_
 _symmetry_equiv_pos_site_id
 _symmetry_equiv_pos_as_xyz
  1  'x, y, z'
loop_
 _atom_site_type_symbol
 _atom_site_label
 _atom_site_symmetry_multiplicity
 _atom_site_fract_x
 _atom_site_fract_y
 _atom_site_fract_z
 _atom_site_occupancy
  C  C0  1  0.36941900  0.88414600  0.49429200  1
  C  C1  1  0.70443400  0.22154500  0.83071600  1
  C  C2  1  0.03955400  0.55634600  0.16486500  1
  C  C3  1  0.22154500  0.83071600  0.70443400  1
  C  C4  1  0.55634600  0.16486500  0.03955400  1
  C  C5  1  0.88414600  0.49429200  0.36941900  1
  C  C6  1  0.16486500  0.03955400  0.55634600  1
  C  C7  1  0.49429200  0.36941900  0.88414600  1
  C  C8  1  0.83071600  0.70443400  0.22154500  1
  C  C9  1  0.96813500  0.45249700  0.84226100  1
  C  C10  1  0.29765200  0.78182600  0.17318200  1
  C  C11  1  0.63138600  0.11374600  0.50505300  1
  C  C12  1  0.11374600  0.50505300  0.63138600  1
  C  C13  1  0.45249700  0.84226100  0.96813500  1
  C  C14  1  0.78182600  0.17318200  0.29765200  1
  C  C15  1  0.17318200  0.29765200  0.78182600  1
  C  C16  1  0.50505300  0.63138600  0.11374600  1
  C  C17  1  0.84226100  0.96813500  0.45249700  1
  C  C18  1  0.15452300  0.15452300  0.15452300  1
  C  C19  1  0.64939300  0.64939300  0.64939300  1
  C  C20  1  0.69403800  0.93747300  0.64252900  1
  C  C21  1  0.35688500  0.59139600  0.30048400  1
  C  C22  1  0.01539700  0.26171400  0.96678900  1
  C  C23  1  0.59139600  0.30048400  0.35688500  1
  C  C24  1  0.26171400  0.96678900  0.01539700  1
  C  C25  1  0.93747300  0.64252900  0.69403800  1
  C  C26  1  0.96678900  0.01539700  0.26171400  1
  C  C27  1  0.64252900  0.69403800  0.93747300  1
  C  C28  1  0.30048400  0.35688500  0.59139600  1
  C  C29  1  0.97396400  0.73962300  0.03054300  1
  C  C30  1  0.64662100  0.40102800  0.69552800  1
  C  C31  1  0.32080500  0.07664900  0.37140900  1
  C  C32  1  0.07664900  0.37140900  0.32080500  1
  C  C33  1  0.73962300  0.03054300  0.97396400  1
  C  C34  1  0.40102800  0.69552800  0.64662100  1
  C  C35  1  0.69552800  0.64662100  0.40102800  1
  C  C36  1  0.37140900  0.32080500  0.07664900  1
  C  C37  1  0.03054300  0.97396400  0.73962300  1
  Ni  Ni38  1  0.23936500  0.63622900  0.37424600  1
  Ni  Ni39  1  0.57249100  0.97317200  0.70861000  1
  Ni  Ni40  1  0.90567000  0.30741700  0.04351200  1
  Ni  Ni41  1  0.97317200  0.70861000  0.57249100  1
  Ni  Ni42  1  0.30741700  0.04351200  0.90567000  1
  Ni  Ni43  1  0.63622900  0.37424600  0.23936500  1
  Ni  Ni44  1  0.04351200  0.90567000  0.30741700  1
  Ni  Ni45  1  0.37424600  0.23936500  0.63622900  1
  Ni  Ni46  1  0.70861000  0.57249100  0.97317200  1
  Ni  Ni47  1  0.09389100  0.69700700  0.95918800  1
  Ni  Ni48  1  0.43125000  0.03045500  0.29451600  1
  Ni  Ni49  1  0.76542600  0.36343100  0.62781500  1
  Ni  Ni50  1  0.36343100  0.62781500  0.76542600  1
  Ni  Ni51  1  0.69700700  0.95918800  0.09389100  1
  Ni  Ni52  1  0.03045500  0.29451600  0.43125000  1
  Ni  Ni53  1  0.29451600  0.43125000  0.03045500  1
  Ni  Ni54  1  0.62781500  0.76542600  0.36343100  1
  Ni  Ni55  1  0.95918800  0.09389100  0.69700700  1
  Ni  Ni56  1  0.14580100  0.53330900  0.08087100  1
  Ni  Ni57  1  0.47631500  0.86399900  0.41047100  1
  Ni  Ni58  1  0.81057200  0.19875000  0.74618800  1
  Ni  Ni59  1  0.19875000  0.74618800  0.81057200  1
  Ni  Ni60  1  0.53330900  0.08087100  0.14580100  1
  Ni  Ni61  1  0.86399900  0.41047100  0.47631500  1
  Ni  Ni62  1  0.41047100  0.47631500  0.86399900  1
  Ni  Ni63  1  0.74618800  0.81057200  0.19875000  1
  Ni  Ni64  1  0.08087100  0.14580100  0.53330900  1
  Ni  Ni65  1  0.19103700  0.80448500  0.25651300  1
  Ni  Ni66  1  0.52514500  0.13641000  0.58964100  1
  Ni  Ni67  1  0.85992600  0.47130700  0.92478600  1
  Ni  Ni68  1  0.13641000  0.58964100  0.52514500  1
  Ni  Ni69  1  0.47130700  0.92478600  0.85992600  1
  Ni  Ni70  1  0.80448500  0.25651300  0.19103700  1
  Ni  Ni71  1  0.92478600  0.85992600  0.47130700  1
  Ni  Ni72  1  0.25651300  0.19103700  0.80448500  1
  Ni  Ni73  1  0.58964100  0.52514500  0.13641000  1
  Ni  Ni74  1  0.51610600  0.70481000  0.53944200  1
  Ni  Ni75  1  0.85148400  0.03577700  0.87212000  1
  Ni  Ni76  1  0.18090200  0.36137100  0.20194300  1
  Ni  Ni77  1  0.03577700  0.87212000  0.85148400  1
  Ni  Ni78  1  0.36137100  0.20194300  0.18090200  1
  Ni  Ni79  1  0.70481000  0.53944200  0.51610600  1
  Ni  Ni80  1  0.20194300  0.18090200  0.36137100  1
  Ni  Ni81  1  0.53944200  0.51610600  0.70481000  1
  Ni  Ni82  1  0.87212000  0.85148400  0.03577700  1
  Ni  Ni83  1  0.81498000  0.63411200  0.79307000  1
  Ni  Ni84  1  0.15554600  0.96839000  0.13322900  1
  Ni  Ni85  1  0.48805400  0.30364400  0.46717600  1
  Ni  Ni86  1  0.30364400  0.46717600  0.48805400  1
  Ni  Ni87  1  0.63411200  0.79307000  0.81498000  1
  Ni  Ni88  1  0.96839000  0.13322900  0.15554600  1
  Ni  Ni89  1  0.13322900  0.15554600  0.96839000  1
  Ni  Ni90  1  0.46717600  0.48805400  0.30364400  1
  Ni  Ni91  1  0.79307000  0.81498000  0.63411200  1
  Cu  Cu92  1  0.25213600  0.58499500  0.91876600  1
  Cu  Cu93  1  0.58499500  0.91876600  0.25213600  1
  Cu  Cu94  1  0.91876600  0.25213600  0.58499500  1
  Cu  Cu95  1  0.08681300  0.75336300  0.42021900  1
  Cu  Cu96  1  0.42021900  0.08681300  0.75336300  1
  Cu  Cu97  1  0.75336300  0.42021900  0.08681300  1
