# generated using pymatgen
data_Cu2NiC7
_symmetry_space_group_name_H-M   'P 1'
_cell_length_a   8.65729050
_cell_length_b   8.65729050
_cell_length_c   8.80688689
_cell_angle_alpha   90.00000000
_cell_angle_beta   90.00000000
_cell_angle_gamma   90.00000000
_symmetry_Int_Tables_number   1
_chemical_formula_structural   Cu2NiC7
_chemical_formula_sum   'Cu8 Ni4 C28'
_cell_volume   660.06453676
_cell_formula_units_Z   4
loop_
 _symmetry_equiv_pos_site_id
 _symmetry_equiv_pos_as_xyz
  1  'x, y, z'
loop_
 _atom_site_type_symbol
 _atom_site_label
 _atom_site_symmetry_multiplicity
 _atom_site_fract_x
 _atom_site_fract_y
 _atom_site_fract_z
 _atom_site_occupancy
  Ni  Ni0  1  0.50000000  -0.00000000  0.50000000  1
  Ni  Ni1  1  0.00000000  0.50000000  -0.00000000  1
  Ni  Ni2  1  0.50000000  0.50000000  -0.00000000  1
  Ni  Ni3  1  0.50000000  0.50000000  0.50000000  1
  Cu  Cu4  1  0.75516479  0.75516479  0.75000000  1
  Cu  Cu5  1  0.24483521  0.75516479  0.75000000  1
  Cu  Cu6  1  0.75516479  0.75516479  0.25000000  1
  Cu  Cu7  1  0.24483521  0.75516479  0.25000000  1
  Cu  Cu8  1  0.75516479  0.24483521  0.75000000  1
  Cu  Cu9  1  0.24483521  0.24483521  0.75000000  1
  Cu  Cu10  1  0.75516479  0.24483521  0.25000000  1
  Cu  Cu11  1  0.24483521  0.24483521  0.25000000  1
  C  C12  1  0.00000000  -0.00000000  -0.00000000  1
  C  C13  1  0.50000000  -0.00000000  -0.00000000  1
  C  C14  1  0.00000000  -0.00000000  0.50000000  1
  C  C15  1  0.00000000  0.50000000  0.50000000  1
  C  C16  1  0.00000000  0.78930411  0.83156077  1
  C  C17  1  0.50000000  0.76188667  0.71187651  1
  C  C18  1  0.00000000  0.78930411  0.16843923  1
  C  C19  1  0.50000000  0.76188667  0.28812349  1
  C  C20  1  0.00000000  0.21069589  0.83156077  1
  C  C21  1  0.50000000  0.23811333  0.71187651  1
  C  C22  1  0.00000000  0.21069589  0.16843923  1
  C  C23  1  0.50000000  0.23811333  0.28812349  1
  C  C24  1  0.78930411  -0.00000000  0.66843923  1
  C  C25  1  0.21069589  -0.00000000  0.66843923  1
  C  C26  1  0.78930411  -0.00000000  0.33156077  1
  C  C27  1  0.21069589  -0.00000000  0.33156077  1
  C  C28  1  0.76188667  0.50000000  0.78812349  1
  C  C29  1  0.23811333  0.50000000  0.78812349  1
  C  C30  1  0.76188667  0.50000000  0.21187651  1
  C  C31  1  0.23811333  0.50000000  0.21187651  1
  C  C32  1  0.70078539  0.82336655  -0.00000000  1
  C  C33  1  0.29921461  0.82336655  -0.00000000  1
  C  C34  1  0.82336655  0.70078539  0.50000000  1
  C  C35  1  0.17663345  0.70078539  0.50000000  1
  C  C36  1  0.70078539  0.17663345  -0.00000000  1
  C  C37  1  0.29921461  0.17663345  -0.00000000  1
  C  C38  1  0.82336655  0.29921461  0.50000000  1
  C  C39  1  0.17663345  0.29921461  0.50000000  1
