# generated using pymatgen
data_Cu11(NiC6)2
_symmetry_space_group_name_H-M   'P 1'
_cell_length_a   9.62913200
_cell_length_b   9.62913200
_cell_length_c   10.53381500
_cell_angle_alpha   90.00000000
_cell_angle_beta   90.00000000
_cell_angle_gamma   90.00000000
_symmetry_Int_Tables_number   1
_chemical_formula_structural   Cu11(NiC6)2
_chemical_formula_sum   'Cu44 Ni8 C48'
_cell_volume   976.69725526
_cell_formula_units_Z   4
loop_
 _symmetry_equiv_pos_site_id
 _symmetry_equiv_pos_as_xyz
  1  'x, y, z'
loop_
 _atom_site_type_symbol
 _atom_site_label
 _atom_site_symmetry_multiplicity
 _atom_site_fract_x
 _atom_site_fract_y
 _atom_site_fract_z
 _atom_site_occupancy
  C  C0  1  0.63376800  0.33323000  0.47623900  1
  C  C1  1  0.36623200  0.66677000  0.97623900  1
  C  C2  1  0.83323000  0.86623200  0.22623900  1
  C  C3  1  0.16677000  0.13376800  0.72623900  1
  C  C4  1  0.66677000  0.36623200  0.02376100  1
  C  C5  1  0.33323000  0.63376800  0.52376100  1
  C  C6  1  0.86623200  0.83323000  0.77376100  1
  C  C7  1  0.13376800  0.16677000  0.27376100  1
  C  C8  1  0.48091200  0.13552300  0.60484900  1
  C  C9  1  0.51908800  0.86447700  0.10484900  1
  C  C10  1  0.63552300  0.01908800  0.35484900  1
  C  C11  1  0.36447700  0.98091200  0.85484900  1
  C  C12  1  0.86447700  0.51908800  0.89515100  1
  C  C13  1  0.13552300  0.48091200  0.39515100  1
  C  C14  1  0.01908800  0.63552300  0.64515100  1
  C  C15  1  0.98091200  0.36447700  0.14515100  1
  C  C16  1  0.64216700  0.10261800  0.62941400  1
  C  C17  1  0.35783300  0.89738200  0.12941400  1
  C  C18  1  0.60261800  0.85783300  0.37941400  1
  C  C19  1  0.39738200  0.14216700  0.87941400  1
  C  C20  1  0.89738200  0.35783300  0.87058600  1
  C  C21  1  0.10261800  0.64216700  0.37058600  1
  C  C22  1  0.85783300  0.60261800  0.62058600  1
  C  C23  1  0.14216700  0.39738200  0.12058600  1
  C  C24  1  0.72902400  0.44485000  0.71454700  1
  C  C25  1  0.27097600  0.55515000  0.21454700  1
  C  C26  1  0.94485000  0.77097600  0.46454700  1
  C  C27  1  0.05515000  0.22902400  0.96454700  1
  C  C28  1  0.55515000  0.27097600  0.78545300  1
  C  C29  1  0.44485000  0.72902400  0.28545300  1
  C  C30  1  0.77097600  0.94485000  0.53545300  1
  C  C31  1  0.22902400  0.05515000  0.03545300  1
  C  C32  1  0.87812800  0.04583100  0.60660500  1
  C  C33  1  0.12187200  0.95416900  0.10660500  1
  C  C34  1  0.54583100  0.62187200  0.35660500  1
  C  C35  1  0.45416900  0.37812800  0.85660500  1
  C  C36  1  0.95416900  0.12187200  0.89339500  1
  C  C37  1  0.04583100  0.87812800  0.39339500  1
  C  C38  1  0.62187200  0.54583100  0.64339500  1
  C  C39  1  0.37812800  0.45416900  0.14339500  1
  C  C40  1  0.86867900  0.14309400  0.32584500  1
  C  C41  1  0.13132100  0.85690600  0.82584500  1
  C  C42  1  0.64309400  0.63132100  0.07584500  1
  C  C43  1  0.35690600  0.36867900  0.57584500  1
  C  C44  1  0.85690600  0.13132100  0.17415500  1
  C  C45  1  0.14309400  0.86867900  0.67415500  1
  C  C46  1  0.63132100  0.64309400  0.92415500  1
  C  C47  1  0.36867900  0.35690600  0.42415500  1
  Ni  Ni48  1  0.96218900  0.29550900  0.52445400  1
  Ni  Ni49  1  0.03781100  0.70449100  0.02445400  1
  Ni  Ni50  1  0.79550900  0.53781100  0.27445400  1
  Ni  Ni51  1  0.20449100  0.46218900  0.77445400  1
  Ni  Ni52  1  0.70449100  0.03781100  0.97554600  1
  Ni  Ni53  1  0.29550900  0.96218900  0.47554600  1
  Ni  Ni54  1  0.53781100  0.79550900  0.72554600  1
  Ni  Ni55  1  0.46218900  0.20449100  0.22554600  1
  Cu  Cu56  1  0.57260200  0.18737600  0.33028000  1
  Cu  Cu57  1  0.42739800  0.81262400  0.83028000  1
  Cu  Cu58  1  0.68737600  0.92739800  0.08028000  1
  Cu  Cu59  1  0.31262400  0.07260200  0.58028000  1
  Cu  Cu60  1  0.81262400  0.42739800  0.16972000  1
  Cu  Cu61  1  0.18737600  0.57260200  0.66972000  1
  Cu  Cu62  1  0.92739800  0.68737600  0.91972000  1
  Cu  Cu63  1  0.07260200  0.31262400  0.41972000  1
  Cu  Cu64  1  0.83102600  0.24128300  0.45381500  1
  Cu  Cu65  1  0.16897400  0.75871700  0.95381500  1
  Cu  Cu66  1  0.74128300  0.66897400  0.20381500  1
  Cu  Cu67  1  0.25871700  0.33102600  0.70381500  1
  Cu  Cu68  1  0.75871700  0.16897400  0.04618500  1
  Cu  Cu69  1  0.24128300  0.83102600  0.54618500  1
  Cu  Cu70  1  0.66897400  0.74128300  0.79618500  1
  Cu  Cu71  1  0.33102600  0.25871700  0.29618500  1
  Cu  Cu72  1  0.66386800  0.49705300  0.35196500  1
  Cu  Cu73  1  0.33613200  0.50294700  0.85196500  1
  Cu  Cu74  1  0.99705300  0.83613200  0.10196500  1
  Cu  Cu75  1  0.00294700  0.16386800  0.60196500  1
  Cu  Cu76  1  0.50294700  0.33613200  0.14803500  1
  Cu  Cu77  1  0.49705300  0.66386800  0.64803500  1
  Cu  Cu78  1  0.83613200  0.99705300  0.89803500  1
  Cu  Cu79  1  0.16386800  0.00294700  0.39803500  1
  Cu  Cu80  1  0.57389200  0.17910800  0.62374200  1
  Cu  Cu81  1  0.42610800  0.82089200  0.12374200  1
  Cu  Cu82  1  0.67910800  0.92610800  0.37374200  1
  Cu  Cu83  1  0.32089200  0.07389200  0.87374200  1
  Cu  Cu84  1  0.82089200  0.42610800  0.87625800  1
  Cu  Cu85  1  0.17910800  0.57389200  0.37625800  1
  Cu  Cu86  1  0.92610800  0.67910800  0.62625800  1
  Cu  Cu87  1  0.07389200  0.32089200  0.12625800  1
  Cu  Cu88  1  0.69826100  0.47558600  0.62968600  1
  Cu  Cu89  1  0.30173900  0.52441400  0.12968600  1
  Cu  Cu90  1  0.97558600  0.80173900  0.37968600  1
  Cu  Cu91  1  0.02441400  0.19826100  0.87968600  1
  Cu  Cu92  1  0.52441400  0.30173900  0.87031400  1
  Cu  Cu93  1  0.47558600  0.69826100  0.37031400  1
  Cu  Cu94  1  0.80173900  0.97558600  0.62031400  1
  Cu  Cu95  1  0.19826100  0.02441400  0.12031400  1
  Cu  Cu96  1  0.90788400  0.09211600  0.25000000  1
  Cu  Cu97  1  0.09211600  0.90788400  0.75000000  1
  Cu  Cu98  1  0.59211600  0.59211600  0.00000000  1
  Cu  Cu99  1  0.40788400  0.40788400  0.50000000  1
