# generated using pymatgen
data_Cu(NiC)2
_symmetry_space_group_name_H-M   'P 1'
_cell_length_a   8.85125500
_cell_length_b   8.87132033
_cell_length_c   8.89195725
_cell_angle_alpha   109.58615886
_cell_angle_beta   109.33020749
_cell_angle_gamma   109.32674474
_symmetry_Int_Tables_number   1
_chemical_formula_structural   Cu(NiC)2
_chemical_formula_sum   'Cu8 Ni16 C16'
_cell_volume   538.61339324
_cell_formula_units_Z   8
loop_
 _symmetry_equiv_pos_site_id
 _symmetry_equiv_pos_as_xyz
  1  'x, y, z'
loop_
 _atom_site_type_symbol
 _atom_site_label
 _atom_site_symmetry_multiplicity
 _atom_site_fract_x
 _atom_site_fract_y
 _atom_site_fract_z
 _atom_site_occupancy
  C  C0  1  0.51248000  0.50028500  0.49987000  1
  C  C1  1  0.21325300  0.45535700  0.25158900  1
  C  C2  1  0.96766400  0.25489200  0.78357200  1
  C  C3  1  0.47144100  0.24788500  0.28089500  1
  C  C4  1  0.28866800  0.03152300  0.75755400  1
  C  C5  1  0.00383400  0.49999400  0.98977100  1
  C  C6  1  0.24130000  0.78550200  0.46495300  1
  C  C7  1  0.49167900  0.00039500  0.00289000  1
  C  C8  1  0.99264600  0.00249600  0.49775500  1
  C  C9  1  0.75763200  0.71108700  0.02952400  1
  C  C10  1  0.74341300  0.20480800  0.53859900  1
  C  C11  1  0.25119900  0.28945800  0.97131100  1
  C  C12  1  0.71824800  0.96964600  0.24756400  1
  C  C13  1  0.02956300  0.75600100  0.21020600  1
  C  C14  1  0.53538700  0.74696700  0.71886200  1
  C  C15  1  0.78547500  0.54510000  0.74827600  1
  Ni  Ni16  1  0.76841200  0.73790900  0.27164800  1
  Ni  Ni17  1  0.54615100  0.27596500  0.48637000  1
  Ni  Ni18  1  0.24224400  0.22801300  0.22973100  1
  Ni  Ni19  1  0.50685100  0.03851500  0.23067800  1
  Ni  Ni20  1  0.00885500  0.23965400  0.53585900  1
  Ni  Ni21  1  0.03536200  0.77374000  0.95070600  1
  Ni  Ni22  1  0.96646700  0.22562700  0.04248300  1
  Ni  Ni23  1  0.72600600  0.45563500  0.03604000  1
  Ni  Ni24  1  0.04900100  0.53293400  0.72457600  1
  Ni  Ni25  1  0.99397600  0.76457500  0.46294700  1
  Ni  Ni26  1  0.76135900  0.77504400  0.77257500  1
  Ni  Ni27  1  0.77011600  0.01156500  0.45399100  1
  Ni  Ni28  1  0.26174300  0.03287400  0.01191400  1
  Ni  Ni29  1  0.49099500  0.95779300  0.77472300  1
  Ni  Ni30  1  0.27196600  0.54614600  0.96984800  1
  Ni  Ni31  1  0.53609500  0.48780400  0.73339500  1
  Cu  Cu32  1  0.27617200  0.72634800  0.23573500  1
  Cu  Cu33  1  0.22735400  0.26289500  0.72505000  1
  Cu  Cu34  1  0.46034100  0.51486400  0.26473600  1
  Cu  Cu35  1  0.22715100  0.98399300  0.54902500  1
  Cu  Cu36  1  0.72377300  0.26660300  0.77250600  1
  Cu  Cu37  1  0.95791300  0.47011200  0.27418600  1
  Cu  Cu38  1  0.73709100  0.96686700  0.98565400  1
  Cu  Cu39  1  0.45072600  0.72312400  0.51243200  1
