# generated using pymatgen
data_CuNiC7
_symmetry_space_group_name_H-M   'P 1'
_cell_length_a   3.97661371
_cell_length_b   3.97661371
_cell_length_c   7.78664800
_cell_angle_alpha   89.99999480
_cell_angle_beta   89.99999480
_cell_angle_gamma   89.98567550
_symmetry_Int_Tables_number   1
_chemical_formula_structural   CuNiC7
_chemical_formula_sum   'Cu1 Ni1 C7'
_cell_volume   123.13381648
_cell_formula_units_Z   1
loop_
 _symmetry_equiv_pos_site_id
 _symmetry_equiv_pos_as_xyz
  1  'x, y, z'
loop_
 _atom_site_type_symbol
 _atom_site_label
 _atom_site_symmetry_multiplicity
 _atom_site_fract_x
 _atom_site_fract_y
 _atom_site_fract_z
 _atom_site_occupancy
  Ni  Ni0  1  0.00000000  0.50000000  0.99996600  1
  Cu  Cu1  1  0.00000000  0.50000000  0.50000300  1
  C  C2  1  0.50000000  0.00000000  0.26711300  1
  C  C3  1  0.50000000  0.00000000  0.73295200  1
  C  C4  1  0.50000000  0.00000000  0.99999500  1
  C  C5  1  0.00000000  0.00000000  0.31837900  1
  C  C6  1  0.50000000  0.50000000  0.31837900  1
  C  C7  1  0.00000000  0.00000000  0.68160700  1
  C  C8  1  0.50000000  0.50000000  0.68160700  1
