# generated using pymatgen
data_CuNiC14
_symmetry_space_group_name_H-M   'P 1'
_cell_length_a   5.99616500
_cell_length_b   5.85074939
_cell_length_c   5.85074989
_cell_angle_alpha   120.00000720
_cell_angle_beta   90.00000000
_cell_angle_gamma   90.00000000
_symmetry_Int_Tables_number   1
_chemical_formula_structural   CuNiC14
_chemical_formula_sum   'Cu1 Ni1 C14'
_cell_volume   177.75720130
_cell_formula_units_Z   1
loop_
 _symmetry_equiv_pos_site_id
 _symmetry_equiv_pos_as_xyz
  1  'x, y, z'
loop_
 _atom_site_type_symbol
 _atom_site_label
 _atom_site_symmetry_multiplicity
 _atom_site_fract_x
 _atom_site_fract_y
 _atom_site_fract_z
 _atom_site_occupancy
  Ni  Ni0  1  0.89839500  0.33333300  0.66666700  1
  Cu  Cu1  1  0.04632300  0.00000000  0.00000000  1
  C  C2  1  0.70102700  0.82330900  0.31578800  1
  C  C3  1  0.70102700  0.49247900  0.17669100  1
  C  C4  1  0.27216600  0.53159500  0.68186100  1
  C  C5  1  0.70102700  0.68421200  0.50752100  1
  C  C6  1  0.27216600  0.31813900  0.84973400  1
  C  C7  1  0.27216600  0.15026600  0.46840500  1
  C  C8  1  0.65122100  0.66666700  0.33333300  1
  C  C9  1  0.23564700  0.33333300  0.66666700  1
  C  C10  1  0.80540200  0.67800400  0.75006500  1
  C  C11  1  0.80540200  0.07206100  0.32199600  1
  C  C12  1  0.26712500  0.95183700  0.24641500  1
  C  C13  1  0.80540200  0.24993500  0.92793900  1
  C  C14  1  0.26712500  0.75358500  0.70542200  1
  C  C15  1  0.26712500  0.29457800  0.04816300  1
