# generated using pymatgen
data_Cu(Ni2C5)2
_symmetry_space_group_name_H-M   'P 1'
_cell_length_a   8.79602200
_cell_length_b   11.41846200
_cell_length_c   13.86369500
_cell_angle_alpha   90.00000000
_cell_angle_beta   90.00000000
_cell_angle_gamma   90.00000000
_symmetry_Int_Tables_number   1
_chemical_formula_structural   Cu(Ni2C5)2
_chemical_formula_sum   'Cu8 Ni32 C80'
_cell_volume   1392.42853027
_cell_formula_units_Z   8
loop_
 _symmetry_equiv_pos_site_id
 _symmetry_equiv_pos_as_xyz
  1  'x, y, z'
loop_
 _atom_site_type_symbol
 _atom_site_label
 _atom_site_symmetry_multiplicity
 _atom_site_fract_x
 _atom_site_fract_y
 _atom_site_fract_z
 _atom_site_occupancy
  C  C0  1  0.33823300  0.27482700  0.64696300  1
  C  C1  1  0.83823300  0.22517300  0.35303700  1
  C  C2  1  0.66176700  0.77482700  0.85303700  1
  C  C3  1  0.16176700  0.72517300  0.14696300  1
  C  C4  1  0.66176700  0.72517300  0.35303700  1
  C  C5  1  0.16176700  0.77482700  0.64696300  1
  C  C6  1  0.33823300  0.22517300  0.14696300  1
  C  C7  1  0.83823300  0.27482700  0.85303700  1
  C  C8  1  0.00037800  0.47436500  0.67458200  1
  C  C9  1  0.50037800  0.02563500  0.32541800  1
  C  C10  1  0.99962200  0.97436500  0.82541800  1
  C  C11  1  0.49962200  0.52563500  0.17458200  1
  C  C12  1  0.99962200  0.52563500  0.32541800  1
  C  C13  1  0.49962200  0.97436500  0.67458200  1
  C  C14  1  0.00037800  0.02563500  0.17458200  1
  C  C15  1  0.50037800  0.47436500  0.82541800  1
  C  C16  1  0.75268900  0.30600700  0.59750800  1
  C  C17  1  0.25268900  0.19399300  0.40249200  1
  C  C18  1  0.24731100  0.80600700  0.90249200  1
  C  C19  1  0.74731100  0.69399300  0.09750800  1
  C  C20  1  0.24731100  0.69399300  0.40249200  1
  C  C21  1  0.74731100  0.80600700  0.59750800  1
  C  C22  1  0.75268900  0.19399300  0.09750800  1
  C  C23  1  0.25268900  0.30600700  0.90249200  1
  Ni  Ni24  1  0.75141700  0.51297500  0.62231000  1
  Ni  Ni25  1  0.25141700  0.98702500  0.37769000  1
  Ni  Ni26  1  0.24858300  0.01297500  0.87769000  1
  Ni  Ni27  1  0.74858300  0.48702500  0.12231000  1
  Ni  Ni28  1  0.24858300  0.48702500  0.37769000  1
  Ni  Ni29  1  0.74858300  0.01297500  0.62231000  1
  Ni  Ni30  1  0.75141700  0.98702500  0.12231000  1
  Ni  Ni31  1  0.25141700  0.51297500  0.87769000  1
  Ni  Ni32  1  0.86485200  0.47569700  0.52204500  1
  Ni  Ni33  1  0.36485200  0.02430300  0.47795500  1
  Ni  Ni34  1  0.13514800  0.97569700  0.97795500  1
  Ni  Ni35  1  0.63514800  0.52430300  0.02204500  1
  Ni  Ni36  1  0.13514800  0.52430300  0.47795500  1
  Ni  Ni37  1  0.63514800  0.97569700  0.52204500  1
  Ni  Ni38  1  0.86485200  0.02430300  0.02204500  1
  Ni  Ni39  1  0.36485200  0.47569700  0.97795500  1
  Ni  Ni40  1  0.10088600  0.07225200  0.64627300  1
  Ni  Ni41  1  0.60088600  0.42774800  0.35372700  1
  Ni  Ni42  1  0.89911400  0.57225200  0.85372700  1
  Ni  Ni43  1  0.39911400  0.92774800  0.14627300  1
  Ni  Ni44  1  0.89911400  0.92774800  0.35372700  1
  Ni  Ni45  1  0.39911400  0.57225200  0.64627300  1
  Ni  Ni46  1  0.10088600  0.42774800  0.14627300  1
  Ni  Ni47  1  0.60088600  0.07225200  0.85372700  1
  Ni  Ni48  1  0.07923000  0.15367300  0.54915300  1
  Ni  Ni49  1  0.57923000  0.34632700  0.45084700  1
  Ni  Ni50  1  0.92077000  0.65367300  0.95084700  1
  Ni  Ni51  1  0.42077000  0.84632700  0.04915300  1
  Ni  Ni52  1  0.92077000  0.84632700  0.45084700  1
  Ni  Ni53  1  0.42077000  0.65367300  0.54915300  1
  Ni  Ni54  1  0.07923000  0.34632700  0.04915300  1
  Ni  Ni55  1  0.57923000  0.15367300  0.95084700  1
  Cu  Cu56  1  0.83806600  0.45088500  0.59663500  1
  Cu  Cu57  1  0.33806600  0.04911500  0.40336500  1
  Cu  Cu58  1  0.16193400  0.95088500  0.90336500  1
  Cu  Cu59  1  0.66193400  0.54911500  0.09663500  1
  Cu  Cu60  1  0.16193400  0.54911500  0.40336500  1
  Cu  Cu61  1  0.66193400  0.95088500  0.59663500  1
  Cu  Cu62  1  0.83806600  0.04911500  0.09663500  1
  Cu  Cu63  1  0.33806600  0.45088500  0.90336500  1
  C  C64  1  0.94742700  0.44732200  0.77840400  1
  C  C65  1  0.44742700  0.05267800  0.22159600  1
  C  C66  1  0.05257300  0.94732200  0.72159600  1
  C  C67  1  0.55257300  0.55267800  0.27840400  1
  C  C68  1  0.05257300  0.55267800  0.22159600  1
  C  C69  1  0.55257300  0.94732200  0.77840400  1
  C  C70  1  0.94742700  0.05267800  0.27840400  1
  C  C71  1  0.44742700  0.44732200  0.72159600  1
  C  C72  1  0.04381800  0.60546600  0.66525800  1
  C  C73  1  0.54381800  0.89453400  0.33474200  1
  C  C74  1  0.95618200  0.10546600  0.83474200  1
  C  C75  1  0.45618200  0.39453400  0.16525800  1
  C  C76  1  0.95618200  0.39453400  0.33474200  1
  C  C77  1  0.45618200  0.10546600  0.66525800  1
  C  C78  1  0.04381800  0.89453400  0.16525800  1
  C  C79  1  0.54381800  0.60546600  0.83474200  1
  C  C80  1  0.13501200  0.39788200  0.64054900  1
  C  C81  1  0.63501200  0.10211800  0.35945100  1
  C  C82  1  0.86498800  0.89788200  0.85945100  1
  C  C83  1  0.36498800  0.60211800  0.14054900  1
  C  C84  1  0.86498800  0.60211800  0.35945100  1
  C  C85  1  0.36498800  0.89788200  0.64054900  1
  C  C86  1  0.13501200  0.10211800  0.14054900  1
  C  C87  1  0.63501200  0.39788200  0.85945100  1
  C  C88  1  0.78266600  0.25075300  0.69825800  1
  C  C89  1  0.28266600  0.24924700  0.30174200  1
  C  C90  1  0.21733400  0.75075300  0.80174200  1
  C  C91  1  0.71733400  0.74924700  0.19825800  1
  C  C92  1  0.21733400  0.74924700  0.30174200  1
  C  C93  1  0.71733400  0.75075300  0.69825800  1
  C  C94  1  0.78266600  0.24924700  0.19825800  1
  C  C95  1  0.28266600  0.25075300  0.80174200  1
  C  C96  1  0.82639700  0.23039400  0.51749800  1
  C  C97  1  0.32639700  0.26960600  0.48250200  1
  C  C98  1  0.17360300  0.73039400  0.98250200  1
  C  C99  1  0.67360300  0.76960600  0.01749800  1
  C  C100  1  0.17360300  0.76960600  0.48250200  1
  C  C101  1  0.67360300  0.73039400  0.51749800  1
  C  C102  1  0.82639700  0.26960600  0.01749800  1
  C  C103  1  0.32639700  0.23039400  0.98250200  1
  C  C104  1  0.58178800  0.32016700  0.57810300  1
  C  C105  1  0.08178800  0.17983300  0.42189700  1
  C  C106  1  0.41821200  0.82016700  0.92189700  1
  C  C107  1  0.91821200  0.67983300  0.07810300  1
  C  C108  1  0.41821200  0.67983300  0.42189700  1
  C  C109  1  0.91821200  0.82016700  0.57810300  1
  C  C110  1  0.58178800  0.17983300  0.07810300  1
  C  C111  1  0.08178800  0.32016700  0.92189700  1
  C  C112  1  0.13449900  0.14387200  0.61155000  1
  C  C113  1  0.63449900  0.35612800  0.38845000  1
  C  C114  1  0.86550100  0.64387200  0.88845000  1
  C  C115  1  0.36550100  0.85612800  0.11155000  1
  C  C116  1  0.86550100  0.85612800  0.38845000  1
  C  C117  1  0.36550100  0.64387200  0.61155000  1
  C  C118  1  0.13449900  0.35612800  0.11155000  1
  C  C119  1  0.63449900  0.14387200  0.88845000  1
