# generated using pymatgen
data_Cu2NiC15
_symmetry_space_group_name_H-M   'P 1'
_cell_length_a   8.63678960
_cell_length_b   8.63678960
_cell_length_c   8.63678960
_cell_angle_alpha   142.65082781
_cell_angle_beta   142.65082781
_cell_angle_gamma   53.84964520
_symmetry_Int_Tables_number   1
_chemical_formula_structural   Cu2NiC15
_chemical_formula_sum   'Cu2 Ni1 C15'
_cell_volume   235.56509682
_cell_formula_units_Z   1
loop_
 _symmetry_equiv_pos_site_id
 _symmetry_equiv_pos_as_xyz
  1  'x, y, z'
loop_
 _atom_site_type_symbol
 _atom_site_label
 _atom_site_symmetry_multiplicity
 _atom_site_fract_x
 _atom_site_fract_y
 _atom_site_fract_z
 _atom_site_occupancy
  C  C0  1  0.00302100  0.50302100  0.50000000  1
  C  C1  1  0.50302100  0.00302100  0.50000000  1
  C  C2  1  0.25038400  0.75038400  0.50000000  1
  C  C3  1  0.75038400  0.25038400  0.50000000  1
  Ni  Ni4  1  0.37336100  0.37336100  0.00000000  1
  Cu  Cu5  1  0.13251300  0.13251300  0.00000000  1
  Cu  Cu6  1  0.63558300  0.63558300  0.00000000  1
  C  C7  1  0.86443000  0.86443000  0.00000000  1
  C  C8  1  0.49630400  0.49630400  0.00000000  1
  C  C9  1  0.00058400  0.00058400  0.00000000  1
  C  C10  1  0.58797900  0.58797900  0.49334100  1
  C  C11  1  0.09463700  0.09463700  0.50665900  1
  C  C12  1  0.58797900  0.09463700  0.00000000  1
  C  C13  1  0.09463700  0.58797900  0.00000000  1
  C  C14  1  0.40741800  0.40741800  0.50224500  1
  C  C15  1  0.90517300  0.90517300  0.49775500  1
  C  C16  1  0.40741800  0.90517300  0.00000000  1
  C  C17  1  0.90517300  0.40741800  0.00000000  1
