# generated using pymatgen
data_CuNiC5
_symmetry_space_group_name_H-M   'P 1'
_cell_length_a   11.88024805
_cell_length_b   7.09865437
_cell_length_c   12.99141489
_cell_angle_alpha   89.94300940
_cell_angle_beta   90.60341324
_cell_angle_gamma   90.25229231
_symmetry_Int_Tables_number   1
_chemical_formula_structural   CuNiC5
_chemical_formula_sum   'Cu8 Ni8 C40'
_cell_volume   1095.54318416
_cell_formula_units_Z   8
loop_
 _symmetry_equiv_pos_site_id
 _symmetry_equiv_pos_as_xyz
  1  'x, y, z'
loop_
 _atom_site_type_symbol
 _atom_site_label
 _atom_site_symmetry_multiplicity
 _atom_site_fract_x
 _atom_site_fract_y
 _atom_site_fract_z
 _atom_site_occupancy
  C  C0  1  0.11920400  0.90088900  0.68225500  1
  C  C1  1  0.88950100  0.11953200  0.18966400  1
  C  C2  1  0.37978000  0.87907700  0.18971800  1
  C  C3  1  0.61016500  0.09899000  0.69106200  1
  C  C4  1  0.88634600  0.61754400  0.83039800  1
  C  C5  1  0.39211800  0.37876400  0.83450600  1
  C  C6  1  0.62562400  0.60637400  0.34116300  1
  C  C7  1  0.88037300  0.39221100  0.49516100  1
  Ni  Ni8  1  0.12349500  0.36315800  0.33380200  1
  Ni  Ni9  1  0.15766400  0.62516100  0.93580800  1
  Ni  Ni10  1  0.33706900  0.61925900  0.43919000  1
  Ni  Ni11  1  0.66152700  0.37471900  0.93982400  1
  Ni  Ni12  1  0.14103000  0.13018500  0.05615100  1
  Ni  Ni13  1  0.85388000  0.91923200  0.47110200  1
  Ni  Ni14  1  0.35380200  0.11436500  0.45756900  1
  Ni  Ni15  1  0.62311800  0.86493700  0.02776900  1
  Cu  Cu16  1  0.11117400  0.36128900  0.65963000  1
  Cu  Cu17  1  0.87843300  0.61233500  0.16813300  1
  Cu  Cu18  1  0.39043100  0.39063700  0.15937300  1
  Cu  Cu19  1  0.60099300  0.64308800  0.68067400  1
  Cu  Cu20  1  0.11717000  0.87731600  0.31438300  1
  Cu  Cu21  1  0.88209200  0.12712000  0.83834300  1
  Cu  Cu22  1  0.38190000  0.88391300  0.81796800  1
  Cu  Cu23  1  0.61009800  0.12261400  0.30437900  1
  C  C24  1  0.03176800  0.86337700  0.86506400  1
  C  C25  1  0.97253100  0.13798300  0.37704200  1
  C  C26  1  0.46373100  0.85965300  0.37896400  1
  C  C27  1  0.53474800  0.12813700  0.88120800  1
  C  C28  1  0.04124800  0.35589600  0.16082800  1
  C  C29  1  0.96471300  0.60739800  0.64392100  1
  C  C30  1  0.47123900  0.36970700  0.65788400  1
  C  C31  1  0.54333700  0.65514000  0.15935300  1
  C  C32  1  0.01825500  0.39362500  0.90520800  1
  C  C33  1  0.98917400  0.59614200  0.37952700  1
  C  C34  1  0.47661100  0.39217100  0.40691100  1
  C  C35  1  0.52628000  0.61201600  0.90871600  1
  C  C36  1  0.02071400  0.89000800  0.12729700  1
  C  C37  1  0.95828700  0.08542700  0.61251900  1
  C  C38  1  0.46472400  0.90410900  0.62425700  1
  C  C39  1  0.51684900  0.10084300  0.12558600  1
  C  C40  1  0.22316300  0.86504700  0.51303000  1
  C  C41  1  0.76428700  0.12564000  0.02979400  1
  C  C42  1  0.26829900  0.86899000  0.02330400  1
  C  C43  1  0.71745300  0.14690200  0.51848000  1
  C  C44  1  0.22615500  0.36349500  0.49271700  1
  C  C45  1  0.77092000  0.63349000  0.99838300  1
  C  C46  1  0.27016000  0.37131800  0.99692800  1
  C  C47  1  0.73218300  0.65224900  0.51035100  1
  C  C48  1  0.23601300  0.14101100  0.75804800  1
  C  C49  1  0.77380300  0.87489400  0.30064000  1
  C  C50  1  0.27068200  0.13579000  0.28782100  1
  C  C51  1  0.74508200  0.87093100  0.76217700  1
  C  C52  1  0.24039900  0.62310500  0.77608200  1
  C  C53  1  0.76498300  0.37630900  0.29339500  1
  C  C54  1  0.25749100  0.59965100  0.27861500  1
  C  C55  1  0.73772900  0.37683800  0.77593200  1
