# generated using pymatgen
data_Cu2(NiC5)3
_symmetry_space_group_name_H-M   'P 1'
_cell_length_a   5.26638700
_cell_length_b   5.27315033
_cell_length_c   8.01865509
_cell_angle_alpha   107.78389806
_cell_angle_beta   101.87734033
_cell_angle_gamma   100.79038948
_symmetry_Int_Tables_number   1
_chemical_formula_structural   Cu2(NiC5)3
_chemical_formula_sum   'Cu2 Ni3 C15'
_cell_volume   199.88894498
_cell_formula_units_Z   1
loop_
 _symmetry_equiv_pos_site_id
 _symmetry_equiv_pos_as_xyz
  1  'x, y, z'
loop_
 _atom_site_type_symbol
 _atom_site_label
 _atom_site_symmetry_multiplicity
 _atom_site_fract_x
 _atom_site_fract_y
 _atom_site_fract_z
 _atom_site_occupancy
  C  C0  1  0.82072200  0.51410000  0.40114000  1
  C  C1  1  0.62020200  0.49552800  0.79706800  1
  C  C2  1  0.00000000  0.00000000  0.50000000  1
  C  C3  1  0.37979800  0.50447200  0.20293200  1
  C  C4  1  0.17927800  0.48590000  0.59886000  1
  Ni  Ni5  1  0.00000000  0.50000000  0.00000000  1
  Ni  Ni6  1  0.80367200  0.99939000  0.89922500  1
  Ni  Ni7  1  0.19632800  0.00061000  0.10077500  1
  Cu  Cu8  1  0.40875100  0.00846400  0.69862600  1
  Cu  Cu9  1  0.59124900  0.99153600  0.30137400  1
  C  C10  1  0.20782200  0.23767000  0.85141400  1
  C  C11  1  0.37342300  0.74596100  0.95065300  1
  C  C12  1  0.59629400  0.76870700  0.54619500  1
  C  C13  1  0.99245000  0.26260800  0.22298300  1
  C  C14  1  0.79756300  0.22945000  0.66107900  1
  C  C15  1  0.20243700  0.77055000  0.33892100  1
  C  C16  1  0.00755000  0.73739200  0.77701700  1
  C  C17  1  0.40370600  0.23129300  0.45380500  1
  C  C18  1  0.62657700  0.25403900  0.04934700  1
  C  C19  1  0.79217800  0.76233000  0.14858600  1
