# generated using pymatgen
data_Cu2Ni2C5
_symmetry_space_group_name_H-M   'P 1'
_cell_length_a   7.62374700
_cell_length_b   7.62374700
_cell_length_c   4.01006300
_cell_angle_alpha   90.00000000
_cell_angle_beta   90.00000000
_cell_angle_gamma   90.00000000
_symmetry_Int_Tables_number   1
_chemical_formula_structural   Cu2Ni2C5
_chemical_formula_sum   'Cu4 Ni4 C10'
_cell_volume   233.07095012
_cell_formula_units_Z   2
loop_
 _symmetry_equiv_pos_site_id
 _symmetry_equiv_pos_as_xyz
  1  'x, y, z'
loop_
 _atom_site_type_symbol
 _atom_site_label
 _atom_site_symmetry_multiplicity
 _atom_site_fract_x
 _atom_site_fract_y
 _atom_site_fract_z
 _atom_site_occupancy
  C  C0  1  0.00000000  0.50000000  0.24563500  1
  C  C1  1  0.50000000  0.00000000  0.74563500  1
  C  C2  1  0.78397700  0.16064800  0.36403600  1
  C  C3  1  0.21602300  0.83935200  0.36403600  1
  C  C4  1  0.83935200  0.78397700  0.86403600  1
  C  C5  1  0.16064800  0.21602300  0.86403600  1
  C  C6  1  0.72164800  0.33791700  0.64079100  1
  C  C7  1  0.27835200  0.66208300  0.64079100  1
  C  C8  1  0.66208300  0.72164800  0.14079100  1
  C  C9  1  0.33791700  0.27835200  0.14079100  1
  Ni  Ni10  1  0.39013400  0.65840800  0.13738300  1
  Ni  Ni11  1  0.60986600  0.34159200  0.13738300  1
  Ni  Ni12  1  0.34159200  0.39013400  0.63738300  1
  Ni  Ni13  1  0.65840800  0.60986600  0.63738300  1
  Cu  Cu14  1  0.10964300  0.85427700  0.85997300  1
  Cu  Cu15  1  0.89035700  0.14572300  0.85997300  1
  Cu  Cu16  1  0.14572300  0.10964300  0.35997300  1
  Cu  Cu17  1  0.85427700  0.89035700  0.35997300  1
