# generated using pymatgen
data_Cu5NiC2
_symmetry_space_group_name_H-M   'P 1'
_cell_length_a   5.31202000
_cell_length_b   5.72449300
_cell_length_c   7.96436400
_cell_angle_alpha   90.00000000
_cell_angle_beta   90.00000000
_cell_angle_gamma   90.00000000
_symmetry_Int_Tables_number   1
_chemical_formula_structural   Cu5NiC2
_chemical_formula_sum   'Cu10 Ni2 C4'
_cell_volume   242.18532882
_cell_formula_units_Z   2
loop_
 _symmetry_equiv_pos_site_id
 _symmetry_equiv_pos_as_xyz
  1  'x, y, z'
loop_
 _atom_site_type_symbol
 _atom_site_label
 _atom_site_symmetry_multiplicity
 _atom_site_fract_x
 _atom_site_fract_y
 _atom_site_fract_z
 _atom_site_occupancy
  C  C0  1  0.45700400  0.00000000  0.49540000  1
  C  C1  1  0.95700400  0.50000000  0.50460000  1
  C  C2  1  0.00265500  0.00000000  0.29470200  1
  C  C3  1  0.50265500  0.50000000  0.70529800  1
  Ni  Ni4  1  0.30514700  0.00000000  0.99598900  1
  Ni  Ni5  1  0.80514700  0.50000000  0.00401100  1
  Cu  Cu6  1  0.71791500  0.00000000  0.30696500  1
  Cu  Cu7  1  0.21791500  0.50000000  0.69303500  1
  Cu  Cu8  1  0.03896900  0.00000000  0.09300400  1
  Cu  Cu9  1  0.53896900  0.50000000  0.90699600  1
  Cu  Cu10  1  0.25948700  0.00000000  0.85349200  1
  Cu  Cu11  1  0.75948700  0.50000000  0.14650800  1
  Cu  Cu12  1  0.13441200  0.21448400  0.37621000  1
  Cu  Cu13  1  0.63441200  0.28551600  0.62379000  1
  Cu  Cu14  1  0.63441200  0.71448400  0.62379000  1
  Cu  Cu15  1  0.13441200  0.78551600  0.37621000  1
