# generated using pymatgen
data_Cu2Ni2C
_symmetry_space_group_name_H-M   'P 1'
_cell_length_a   6.68956700
_cell_length_b   7.58172570
_cell_length_c   7.97588480
_cell_angle_alpha   101.49111193
_cell_angle_beta   109.37231100
_cell_angle_gamma   108.56075075
_symmetry_Int_Tables_number   1
_chemical_formula_structural   Cu2Ni2C
_chemical_formula_sum   'Cu6 Ni6 C3'
_cell_volume   340.11233149
_cell_formula_units_Z   3
loop_
 _symmetry_equiv_pos_site_id
 _symmetry_equiv_pos_as_xyz
  1  'x, y, z'
loop_
 _atom_site_type_symbol
 _atom_site_label
 _atom_site_symmetry_multiplicity
 _atom_site_fract_x
 _atom_site_fract_y
 _atom_site_fract_z
 _atom_site_occupancy
  C  C0  1  0.55704100  0.24229300  0.52068500  1
  C  C1  1  0.44295900  0.75770700  0.47931500  1
  C  C2  1  0.00000000  0.00000000  0.00000000  1
  Ni  Ni3  1  0.29413700  0.87307700  0.07220000  1
  Ni  Ni4  1  0.70586300  0.12692300  0.92780000  1
  Ni  Ni5  1  0.94609100  0.90440300  0.68409400  1
  Ni  Ni6  1  0.05390900  0.09559700  0.31590600  1
  Ni  Ni7  1  0.71135500  0.68788500  0.93299500  1
  Ni  Ni8  1  0.28864500  0.31211500  0.06700500  1
  Cu  Cu9  1  0.46097400  0.95331100  0.29226200  1
  Cu  Cu10  1  0.53902600  0.04668900  0.70773800  1
  Cu  Cu11  1  0.78120700  0.52733200  0.36689900  1
  Cu  Cu12  1  0.21879300  0.47266800  0.63310100  1
  Cu  Cu13  1  0.07680200  0.44981400  0.70262900  1
  Cu  Cu14  1  0.92319800  0.55018600  0.29737100  1
