# generated using pymatgen
data_Cu5(NiC2)2
_symmetry_space_group_name_H-M   'P 1'
_cell_length_a   5.38106648
_cell_length_b   5.38106648
_cell_length_c   8.09738000
_cell_angle_alpha   90.00000000
_cell_angle_beta   90.00000000
_cell_angle_gamma   90.02594505
_symmetry_Int_Tables_number   1
_chemical_formula_structural   Cu5(NiC2)2
_chemical_formula_sum   'Cu10 Ni4 C8'
_cell_volume   234.46671085
_cell_formula_units_Z   2
loop_
 _symmetry_equiv_pos_site_id
 _symmetry_equiv_pos_as_xyz
  1  'x, y, z'
loop_
 _atom_site_type_symbol
 _atom_site_label
 _atom_site_symmetry_multiplicity
 _atom_site_fract_x
 _atom_site_fract_y
 _atom_site_fract_z
 _atom_site_occupancy
  Ni  Ni0  1  0.00000000  0.50000000  0.50000000  1
  Ni  Ni1  1  0.50000000  0.00000000  0.50000000  1
  Ni  Ni2  1  0.83824000  0.83824000  0.00000000  1
  Ni  Ni3  1  0.16176000  0.16176000  0.00000000  1
  Cu  Cu4  1  0.67721800  0.67721800  0.71720000  1
  Cu  Cu5  1  0.32278200  0.32278200  0.71720000  1
  Cu  Cu6  1  0.82655700  0.17344300  0.71603100  1
  Cu  Cu7  1  0.17344300  0.82655700  0.71603100  1
  Cu  Cu8  1  0.32278200  0.32278200  0.28280000  1
  Cu  Cu9  1  0.67721800  0.67721800  0.28280000  1
  Cu  Cu10  1  0.17344300  0.82655700  0.28396900  1
  Cu  Cu11  1  0.82655700  0.17344300  0.28396900  1
  Cu  Cu12  1  0.66450300  0.33549700  0.00000000  1
  Cu  Cu13  1  0.33549700  0.66450300  0.00000000  1
  C  C14  1  0.87690700  0.87690700  0.50000000  1
  C  C15  1  0.12309300  0.12309300  0.50000000  1
  C  C16  1  0.62054500  0.37945500  0.50000000  1
  C  C17  1  0.37945500  0.62054500  0.50000000  1
  C  C18  1  0.00000000  0.50000000  0.86391700  1
  C  C19  1  0.50000000  0.00000000  0.86391700  1
  C  C20  1  0.00000000  0.50000000  0.13608300  1
  C  C21  1  0.50000000  0.00000000  0.13608300  1
