# generated using pymatgen
data_Cu8NiC16
_symmetry_space_group_name_H-M   'P 1'
_cell_length_a   7.29078833
_cell_length_b   5.78548283
_cell_length_c   6.55768696
_cell_angle_alpha   87.39394439
_cell_angle_beta   92.47491141
_cell_angle_gamma   83.24064970
_symmetry_Int_Tables_number   1
_chemical_formula_structural   Cu8NiC16
_chemical_formula_sum   'Cu8 Ni1 C16'
_cell_volume   274.07271751
_cell_formula_units_Z   1
loop_
 _symmetry_equiv_pos_site_id
 _symmetry_equiv_pos_as_xyz
  1  'x, y, z'
loop_
 _atom_site_type_symbol
 _atom_site_label
 _atom_site_symmetry_multiplicity
 _atom_site_fract_x
 _atom_site_fract_y
 _atom_site_fract_z
 _atom_site_occupancy
  Ni  Ni0  1  0.60914400  0.38907400  0.38919100  1
  Cu  Cu1  1  0.31905900  0.31205600  0.08818100  1
  Cu  Cu2  1  0.13056500  0.81388300  0.35802200  1
  Cu  Cu3  1  0.84619600  0.13258000  0.10488700  1
  Cu  Cu4  1  0.37410600  0.13171800  0.64789900  1
  Cu  Cu5  1  0.13414300  0.84885000  0.86563900  1
  Cu  Cu6  1  0.61936300  0.87491500  0.37331800  1
  Cu  Cu7  1  0.60709100  0.63470100  0.88547800  1
  Cu  Cu8  1  0.92668200  0.41759600  0.65829200  1
  C  C9  1  0.12245000  0.05548800  0.10475300  1
  C  C10  1  0.16770200  0.60625700  0.07440800  1
  C  C11  1  0.57592700  0.64521100  0.17470000  1
  C  C12  1  0.10066100  0.67133500  0.62779600  1
  C  C13  1  0.36393500  0.90930800  0.43552500  1
  C  C14  1  0.11070600  0.14097200  0.68669700  1
  C  C15  1  0.58122800  0.14241800  0.17605400  1
  C  C16  1  0.39297800  0.88662100  0.84959900  1
  C  C17  1  0.62319400  0.10106200  0.58065500  1
  C  C18  1  0.86900100  0.88166500  0.30730800  1
  C  C19  1  0.41449100  0.36799700  0.83142300  1
  C  C20  1  0.68000000  0.61487500  0.59433800  1
  C  C21  1  0.82449500  0.40075500  0.92080100  1
  C  C22  1  0.33075900  0.37457300  0.40820400  1
  C  C23  1  0.89111900  0.35447300  0.36273200  1
  C  C24  1  0.86500800  0.87494800  0.88409900  1
