# generated using pymatgen
data_Cu14Ni16C5
_symmetry_space_group_name_H-M   'P 1'
_cell_length_a   10.53267300
_cell_length_b   9.34437000
_cell_length_c   10.44249283
_cell_angle_alpha   82.74862737
_cell_angle_beta   90.00000000
_cell_angle_gamma   90.00000000
_symmetry_Int_Tables_number   1
_chemical_formula_structural   Cu14Ni16C5
_chemical_formula_sum   'Cu28 Ni32 C10'
_cell_volume   1019.54248714
_cell_formula_units_Z   2
loop_
 _symmetry_equiv_pos_site_id
 _symmetry_equiv_pos_as_xyz
  1  'x, y, z'
loop_
 _atom_site_type_symbol
 _atom_site_label
 _atom_site_symmetry_multiplicity
 _atom_site_fract_x
 _atom_site_fract_y
 _atom_site_fract_z
 _atom_site_occupancy
  C  C0  1  0.96866900  0.82607200  0.95350700  1
  C  C1  1  0.46866900  0.17392800  0.54649300  1
  C  C2  1  0.03133100  0.17392800  0.04649300  1
  C  C3  1  0.53133100  0.82607200  0.45350700  1
  C  C4  1  0.00000000  0.00000000  0.50000000  1
  C  C5  1  0.50000000  0.00000000  0.00000000  1
  C  C6  1  0.39031200  0.55717000  0.66217200  1
  C  C7  1  0.89031200  0.44283000  0.83782800  1
  C  C8  1  0.60968800  0.44283000  0.33782800  1
  C  C9  1  0.10968800  0.55717000  0.16217200  1
  Ni  Ni10  1  0.64009900  0.01952400  0.12122100  1
  Ni  Ni11  1  0.14009900  0.98047600  0.37877900  1
  Ni  Ni12  1  0.35990100  0.98047600  0.87877900  1
  Ni  Ni13  1  0.85990100  0.01952400  0.62122100  1
  Ni  Ni14  1  0.88472800  0.85770000  0.41571800  1
  Ni  Ni15  1  0.38472800  0.14230000  0.08428200  1
  Ni  Ni16  1  0.11527200  0.14230000  0.58428200  1
  Ni  Ni17  1  0.61527200  0.85770000  0.91571800  1
  Ni  Ni18  1  0.94368100  0.17057600  0.39587400  1
  Ni  Ni19  1  0.44368100  0.82942400  0.10412600  1
  Ni  Ni20  1  0.05631900  0.82942400  0.60412600  1
  Ni  Ni21  1  0.55631900  0.17057600  0.89587400  1
  Ni  Ni22  1  0.45090300  0.32217500  0.04184500  1
  Ni  Ni23  1  0.95090300  0.67782500  0.45815500  1
  Ni  Ni24  1  0.54909700  0.67782500  0.95815500  1
  Ni  Ni25  1  0.04909700  0.32217500  0.54184500  1
  Ni  Ni26  1  0.61839200  0.47520900  0.73076800  1
  Ni  Ni27  1  0.11839200  0.52479100  0.76923200  1
  Ni  Ni28  1  0.38160800  0.52479100  0.26923200  1
  Ni  Ni29  1  0.88160800  0.47520900  0.23076800  1
  Ni  Ni30  1  0.20621200  0.44222900  0.75341600  1
  Ni  Ni31  1  0.70621200  0.55777100  0.74658400  1
  Ni  Ni32  1  0.79378800  0.55777100  0.24658400  1
  Ni  Ni33  1  0.29378800  0.44222900  0.25341600  1
  Ni  Ni34  1  0.36899500  0.65258700  0.79133700  1
  Ni  Ni35  1  0.86899500  0.34741300  0.70866300  1
  Ni  Ni36  1  0.63100500  0.34741300  0.20866300  1
  Ni  Ni37  1  0.13100500  0.65258700  0.29133700  1
  Ni  Ni38  1  0.37128700  0.41193300  0.00573700  1
  Ni  Ni39  1  0.87128700  0.58806700  0.49426300  1
  Ni  Ni40  1  0.62871300  0.58806700  0.99426300  1
  Ni  Ni41  1  0.12871300  0.41193300  0.50573700  1
  Cu  Cu42  1  0.09701700  0.84949900  0.80105500  1
  Cu  Cu43  1  0.59701700  0.15050100  0.69894500  1
  Cu  Cu44  1  0.90298300  0.15050100  0.19894500  1
  Cu  Cu45  1  0.40298300  0.84949900  0.30105500  1
  Cu  Cu46  1  0.89144000  0.03029900  0.98406100  1
  Cu  Cu47  1  0.39144000  0.96970100  0.51593900  1
  Cu  Cu48  1  0.10856000  0.96970100  0.01593900  1
  Cu  Cu49  1  0.60856000  0.03029900  0.48406100  1
  Cu  Cu50  1  0.92182600  0.60684000  0.91900000  1
  Cu  Cu51  1  0.42182600  0.39316000  0.58100000  1
  Cu  Cu52  1  0.07817400  0.39316000  0.08100000  1
  Cu  Cu53  1  0.57817400  0.60684000  0.41900000  1
  Cu  Cu54  1  0.53472500  0.76184200  0.64953700  1
  Cu  Cu55  1  0.03472500  0.23815800  0.85046300  1
  Cu  Cu56  1  0.46527500  0.23815800  0.35046300  1
  Cu  Cu57  1  0.96527500  0.76184200  0.14953700  1
  Cu  Cu58  1  0.14167100  0.68097700  0.00660900  1
  Cu  Cu59  1  0.64167100  0.31902300  0.49339100  1
  Cu  Cu60  1  0.85832900  0.31902300  0.99339100  1
  Cu  Cu61  1  0.35832900  0.68097700  0.50660900  1
  Cu  Cu62  1  0.85523400  0.86738900  0.78960500  1
  Cu  Cu63  1  0.35523400  0.13261100  0.71039500  1
  Cu  Cu64  1  0.14476600  0.13261100  0.21039500  1
  Cu  Cu65  1  0.64476600  0.86738900  0.28960500  1
  Cu  Cu66  1  0.77145900  0.78948600  0.02457100  1
  Cu  Cu67  1  0.27145900  0.21051400  0.47542900  1
  Cu  Cu68  1  0.22854100  0.21051400  0.97542900  1
  Cu  Cu69  1  0.72854100  0.78948600  0.52457100  1
