# generated using pymatgen
data_CuNiC16
_symmetry_space_group_name_H-M   'P 1'
_cell_length_a   5.95631400
_cell_length_b   9.92872900
_cell_length_c   14.59209316
_cell_angle_alpha   89.48775836
_cell_angle_beta   90.00000000
_cell_angle_gamma   90.00000000
_symmetry_Int_Tables_number   1
_chemical_formula_structural   CuNiC16
_chemical_formula_sum   'Cu4 Ni4 C64'
_cell_volume   862.92187521
_cell_formula_units_Z   4
loop_
 _symmetry_equiv_pos_site_id
 _symmetry_equiv_pos_as_xyz
  1  'x, y, z'
loop_
 _atom_site_type_symbol
 _atom_site_label
 _atom_site_symmetry_multiplicity
 _atom_site_fract_x
 _atom_site_fract_y
 _atom_site_fract_z
 _atom_site_occupancy
  C  C0  1  0.50000000  0.78240000  0.14678400  1
  C  C1  1  0.50000000  0.78138900  0.48098800  1
  C  C2  1  0.00000000  0.71358900  0.64720300  1
  C  C3  1  0.50000000  0.28313000  0.01984500  1
  Ni  Ni4  1  0.50000000  0.77782900  0.81952000  1
  Ni  Ni5  1  0.00000000  0.72302600  0.32180200  1
  Ni  Ni6  1  0.00000000  0.72686200  0.98752000  1
  Ni  Ni7  1  0.50000000  0.27608400  0.34685800  1
  Cu  Cu8  1  0.50000000  0.27636200  0.67933800  1
  Cu  Cu9  1  0.00000000  0.22306700  0.18283100  1
  Cu  Cu10  1  0.00000000  0.22028700  0.51863400  1
  Cu  Cu11  1  0.00000000  0.21841200  0.84805000  1
  C  C12  1  0.00000000  0.90345500  0.47219600  1
  C  C13  1  0.00000000  0.90622300  0.13820000  1
  C  C14  1  0.00000000  0.90243700  0.80324600  1
  C  C15  1  0.50000000  0.59972700  0.97359300  1
  C  C16  1  0.50000000  0.60108100  0.30635100  1
  C  C17  1  0.50000000  0.59646300  0.63974700  1
  C  C18  1  0.00000000  0.40179800  0.02780300  1
  C  C19  1  0.00000000  0.39938700  0.36303700  1
  C  C20  1  0.00000000  0.39971700  0.69542300  1
  C  C21  1  0.50000000  0.09844600  0.19222600  1
  C  C22  1  0.50000000  0.09618600  0.52754900  1
  C  C23  1  0.50000000  0.10023400  0.85914500  1
  C  C24  1  0.50000000  0.94737500  0.21554200  1
  C  C25  1  0.50000000  0.94477100  0.55200000  1
  C  C26  1  0.50000000  0.95003000  0.88335400  1
  C  C27  1  0.00000000  0.87938100  0.57631500  1
  C  C28  1  0.00000000  0.88264900  0.24142100  1
  C  C29  1  0.00000000  0.88270300  0.90821400  1
  C  C30  1  0.19929200  0.83033500  0.08861200  1
  C  C31  1  0.80070800  0.83033500  0.08861200  1
  C  C32  1  0.80066500  0.82835700  0.42263500  1
  C  C33  1  0.19933500  0.82835700  0.42263500  1
  C  C34  1  0.20477500  0.82824900  0.75819700  1
  C  C35  1  0.79522500  0.82824900  0.75819700  1
  C  C36  1  0.70120000  0.67291300  0.92509300  1
  C  C37  1  0.29880000  0.67291300  0.92509300  1
  C  C38  1  0.29581900  0.67351700  0.25959100  1
  C  C39  1  0.70418100  0.67351700  0.25959100  1
  C  C40  1  0.70174200  0.66762800  0.59009400  1
  C  C41  1  0.29825800  0.66762800  0.59009400  1
  C  C42  1  0.50000000  0.61892300  0.07857000  1
  C  C43  1  0.50000000  0.61708300  0.74309500  1
  C  C44  1  0.50000000  0.61934600  0.41168300  1
  C  C45  1  0.00000000  0.55231300  0.05075900  1
  C  C46  1  0.00000000  0.54965400  0.38609600  1
  C  C47  1  0.00000000  0.55157800  0.71861000  1
  C  C48  1  0.50000000  0.44853100  0.95260100  1
  C  C49  1  0.50000000  0.45005200  0.28626600  1
  C  C50  1  0.50000000  0.44318400  0.61902000  1
  C  C51  1  0.00000000  0.38194700  0.25824300  1
  C  C52  1  0.00000000  0.38319000  0.59063700  1
  C  C53  1  0.00000000  0.38150800  0.92487600  1
  C  C54  1  0.19977000  0.32752100  0.07907700  1
  C  C55  1  0.80023000  0.32752100  0.07907700  1
  C  C56  1  0.20237000  0.32427800  0.41061700  1
  C  C57  1  0.79763000  0.32427800  0.41061700  1
  C  C58  1  0.20102200  0.32807100  0.74455600  1
  C  C59  1  0.79897800  0.32807100  0.74455600  1
  C  C60  1  0.70442500  0.16990600  0.57502800  1
  C  C61  1  0.29557500  0.16990600  0.57502800  1
  C  C62  1  0.70164500  0.17232400  0.24061200  1
  C  C63  1  0.29835500  0.17232400  0.24061200  1
  C  C64  1  0.70439700  0.17373100  0.90505200  1
  C  C65  1  0.29560300  0.17373100  0.90505200  1
  C  C66  1  0.50000000  0.11556100  0.42356600  1
  C  C67  1  0.50000000  0.12084100  0.75363400  1
  C  C68  1  0.50000000  0.11719000  0.08763500  1
  C  C69  1  0.00000000  0.05591500  0.11303000  1
  C  C70  1  0.00000000  0.05291700  0.44874100  1
  C  C71  1  0.00000000  0.05283000  0.77795700  1
