# generated using pymatgen
data_Cu8Ni2C5
_symmetry_space_group_name_H-M   'P 1'
_cell_length_a   9.45163700
_cell_length_b   5.75719300
_cell_length_c   22.97915937
_cell_angle_alpha   89.96898235
_cell_angle_beta   90.00000000
_cell_angle_gamma   90.00000000
_symmetry_Int_Tables_number   1
_chemical_formula_structural   Cu8Ni2C5
_chemical_formula_sum   'Cu32 Ni8 C20'
_cell_volume   1250.40843848
_cell_formula_units_Z   4
loop_
 _symmetry_equiv_pos_site_id
 _symmetry_equiv_pos_as_xyz
  1  'x, y, z'
loop_
 _atom_site_type_symbol
 _atom_site_label
 _atom_site_symmetry_multiplicity
 _atom_site_fract_x
 _atom_site_fract_y
 _atom_site_fract_z
 _atom_site_occupancy
  C  C0  1  0.75181100  0.25268000  0.81659500  1
  C  C1  1  0.25181100  0.74732000  0.18340500  1
  C  C2  1  0.25198300  0.75002700  0.93782600  1
  C  C3  1  0.75198300  0.24997300  0.06217400  1
  C  C4  1  0.00650500  0.74947400  0.81160900  1
  C  C5  1  0.50650500  0.25052600  0.18839100  1
  C  C6  1  0.49948500  0.25081800  0.93748600  1
  C  C7  1  0.99948500  0.74918200  0.06251400  1
  C  C8  1  0.49652700  0.75226600  0.81084900  1
  C  C9  1  0.00284500  0.25219800  0.93639300  1
  C  C10  1  0.49701600  0.75286300  0.56149400  1
  C  C11  1  0.00399200  0.25133000  0.68598900  1
  C  C12  1  0.50399200  0.74867000  0.31401100  1
  C  C13  1  0.99701600  0.24713700  0.43850600  1
  C  C14  1  0.50284500  0.74780200  0.06360700  1
  C  C15  1  0.99652700  0.24773400  0.18915100  1
  C  C16  1  0.49292000  0.25246600  0.68694900  1
  C  C17  1  0.50020100  0.25017300  0.43743300  1
  C  C18  1  0.00020100  0.74982700  0.56256700  1
  C  C19  1  0.99292000  0.74753400  0.31305100  1
  Ni  Ni20  1  0.24951900  0.24151900  0.81270900  1
  Ni  Ni21  1  0.75019600  0.75078400  0.93713900  1
  Ni  Ni22  1  0.24954600  0.25055000  0.56205300  1
  Ni  Ni23  1  0.74922500  0.74009600  0.68723000  1
  Ni  Ni24  1  0.24922500  0.25990400  0.31277000  1
  Ni  Ni25  1  0.74954600  0.74945000  0.43794700  1
  Ni  Ni26  1  0.25019600  0.24921600  0.06286100  1
  Ni  Ni27  1  0.74951900  0.75848100  0.18729100  1
  Cu  Cu28  1  0.13038400  0.04139400  0.76009000  1
  Cu  Cu29  1  0.62683400  0.54317900  0.88445100  1
  Cu  Cu30  1  0.13567500  0.02623300  0.50985800  1
  Cu  Cu31  1  0.62853700  0.52984300  0.63449200  1
  Cu  Cu32  1  0.13114100  0.02958100  0.26104100  1
  Cu  Cu33  1  0.63809900  0.52418400  0.38543800  1
  Cu  Cu34  1  0.12835000  0.04048000  0.01022700  1
  Cu  Cu35  1  0.63566800  0.53524800  0.13472200  1
  Cu  Cu36  1  0.36173300  0.03913700  0.61797500  1
  Cu  Cu37  1  0.86625200  0.53603400  0.74163500  1
  Cu  Cu38  1  0.36350000  0.04642300  0.36747300  1
  Cu  Cu39  1  0.86325500  0.54041600  0.49406700  1
  Cu  Cu40  1  0.37337600  0.04148500  0.11568200  1
  Cu  Cu41  1  0.87084500  0.54378100  0.24069600  1
  Cu  Cu42  1  0.37211700  0.03469800  0.86605300  1
  Cu  Cu43  1  0.87247000  0.53997800  0.98914400  1
  Cu  Cu44  1  0.13566800  0.46475200  0.86527800  1
  Cu  Cu45  1  0.62835000  0.95952000  0.98977300  1
  Cu  Cu46  1  0.13809900  0.47581600  0.61456200  1
  Cu  Cu47  1  0.63114100  0.97041900  0.73895900  1
  Cu  Cu48  1  0.12853700  0.47015700  0.36550800  1
  Cu  Cu49  1  0.63567500  0.97376700  0.49014200  1
  Cu  Cu50  1  0.12683400  0.45682100  0.11554900  1
  Cu  Cu51  1  0.63038400  0.95860600  0.23991000  1
  Cu  Cu52  1  0.37084500  0.45621900  0.75930400  1
  Cu  Cu53  1  0.87337600  0.95851500  0.88431800  1
  Cu  Cu54  1  0.36325500  0.45958400  0.50593300  1
  Cu  Cu55  1  0.86350000  0.95357700  0.63252700  1
  Cu  Cu56  1  0.36625200  0.46396600  0.25836500  1
  Cu  Cu57  1  0.86173300  0.96086300  0.38202500  1
  Cu  Cu58  1  0.37247000  0.46002200  0.01085600  1
  Cu  Cu59  1  0.87211700  0.96530200  0.13394700  1
