# generated using pymatgen
data_CuNi3C7
_symmetry_space_group_name_H-M   'P 1'
_cell_length_a   7.24058152
_cell_length_b   7.24058152
_cell_length_c   7.24058107
_cell_angle_alpha   91.80165748
_cell_angle_beta   91.80165748
_cell_angle_gamma   91.80166019
_symmetry_Int_Tables_number   1
_chemical_formula_structural   CuNi3C7
_chemical_formula_sum   'Cu2 Ni6 C14'
_cell_volume   379.01980269
_cell_formula_units_Z   2
loop_
 _symmetry_equiv_pos_site_id
 _symmetry_equiv_pos_as_xyz
  1  'x, y, z'
loop_
 _atom_site_type_symbol
 _atom_site_label
 _atom_site_symmetry_multiplicity
 _atom_site_fract_x
 _atom_site_fract_y
 _atom_site_fract_z
 _atom_site_occupancy
  Ni  Ni0  1  0.25000000  0.60051100  0.89948900  1
  Ni  Ni1  1  0.89948900  0.25000000  0.60051100  1
  Ni  Ni2  1  0.60051100  0.89948900  0.25000000  1
  Ni  Ni3  1  0.39948900  0.10051100  0.75000000  1
  Ni  Ni4  1  0.75000000  0.39948900  0.10051100  1
  Ni  Ni5  1  0.10051100  0.75000000  0.39948900  1
  Cu  Cu6  1  0.25000000  0.25000000  0.25000000  1
  Cu  Cu7  1  0.75000000  0.75000000  0.75000000  1
  C  C8  1  0.00000000  0.00000000  0.00000000  1
  C  C9  1  0.50000000  0.50000000  0.50000000  1
  C  C10  1  0.94822600  0.08085400  0.26716400  1
  C  C11  1  0.26716400  0.94822600  0.08085400  1
  C  C12  1  0.08085400  0.26716400  0.94822600  1
  C  C13  1  0.76716400  0.58085400  0.44822600  1
  C  C14  1  0.44822600  0.76716400  0.58085400  1
  C  C15  1  0.58085400  0.44822600  0.76716400  1
  C  C16  1  0.05177400  0.91914600  0.73283600  1
  C  C17  1  0.73283600  0.05177400  0.91914600  1
  C  C18  1  0.91914600  0.73283600  0.05177400  1
  C  C19  1  0.23283600  0.41914600  0.55177400  1
  C  C20  1  0.55177400  0.23283600  0.41914600  1
  C  C21  1  0.41914600  0.55177400  0.23283600  1
