# generated using pymatgen
data_Cu2NiC16
_symmetry_space_group_name_H-M   'P 1'
_cell_length_a   4.87250400
_cell_length_b   5.08586600
_cell_length_c   18.05927300
_cell_angle_alpha   90.00000000
_cell_angle_beta   90.00000000
_cell_angle_gamma   90.00000000
_symmetry_Int_Tables_number   1
_chemical_formula_structural   Cu2NiC16
_chemical_formula_sum   'Cu4 Ni2 C32'
_cell_volume   447.52508214
_cell_formula_units_Z   2
loop_
 _symmetry_equiv_pos_site_id
 _symmetry_equiv_pos_as_xyz
  1  'x, y, z'
loop_
 _atom_site_type_symbol
 _atom_site_label
 _atom_site_symmetry_multiplicity
 _atom_site_fract_x
 _atom_site_fract_y
 _atom_site_fract_z
 _atom_site_occupancy
  C  C0  1  0.00000000  0.00000000  0.70388300  1
  C  C1  1  0.50000000  0.50000000  0.79211900  1
  C  C2  1  0.00000000  0.50000000  0.29211900  1
  C  C3  1  0.50000000  0.00000000  0.20388300  1
  C  C4  1  0.00000000  0.00000000  0.22526400  1
  C  C5  1  0.50000000  0.00000000  0.72526400  1
  C  C6  1  0.00000000  0.00000000  0.54854100  1
  C  C7  1  0.50000000  0.00000000  0.04854100  1
  Ni  Ni8  1  0.50000000  0.50000000  0.95703200  1
  Ni  Ni9  1  0.00000000  0.50000000  0.45703200  1
  Cu  Cu10  1  0.00000000  0.00000000  0.87902000  1
  Cu  Cu11  1  0.50000000  0.50000000  0.61803100  1
  Cu  Cu12  1  0.00000000  0.50000000  0.11803100  1
  Cu  Cu13  1  0.50000000  0.00000000  0.37902000  1
  C  C14  1  0.70469500  0.69072500  0.70746700  1
  C  C15  1  0.76725100  0.15984200  0.79056300  1
  C  C16  1  0.23274900  0.84015800  0.79056300  1
  C  C17  1  0.29530500  0.30927500  0.70746700  1
  C  C18  1  0.26725100  0.84015800  0.29056300  1
  C  C19  1  0.20469500  0.30927500  0.20746700  1
  C  C20  1  0.79530500  0.69072500  0.20746700  1
  C  C21  1  0.73274900  0.15984200  0.29056300  1
  C  C22  1  0.76373900  0.67190700  0.53847900  1
  C  C23  1  0.74012000  0.16730000  0.96078200  1
  C  C24  1  0.25988000  0.83270000  0.96078200  1
  C  C25  1  0.23626100  0.32809300  0.53847900  1
  C  C26  1  0.24012000  0.83270000  0.46078200  1
  C  C27  1  0.26373900  0.32809300  0.03847900  1
  C  C28  1  0.73626100  0.67190700  0.03847900  1
  C  C29  1  0.75988000  0.16730000  0.46078200  1
  C  C30  1  0.76837200  0.66718500  0.37496400  1
  C  C31  1  0.74298800  0.16513600  0.12824900  1
  C  C32  1  0.25701200  0.83486400  0.12824900  1
  C  C33  1  0.23162800  0.33281500  0.37496400  1
  C  C34  1  0.24298800  0.83486400  0.62824900  1
  C  C35  1  0.26837200  0.33281500  0.87496400  1
  C  C36  1  0.73162800  0.66718500  0.87496400  1
  C  C37  1  0.75701200  0.16513600  0.62824900  1
