# generated using pymatgen
data_CuNi2C
_symmetry_space_group_name_H-M   'P 1'
_cell_length_a   8.47499731
_cell_length_b   8.47499731
_cell_length_c   4.11021800
_cell_angle_alpha   90.00000000
_cell_angle_beta   90.00000000
_cell_angle_gamma   151.55155059
_symmetry_Int_Tables_number   1
_chemical_formula_structural   CuNi2C
_chemical_formula_sum   'Cu2 Ni4 C2'
_cell_volume   140.63274609
_cell_formula_units_Z   2
loop_
 _symmetry_equiv_pos_site_id
 _symmetry_equiv_pos_as_xyz
  1  'x, y, z'
loop_
 _atom_site_type_symbol
 _atom_site_label
 _atom_site_symmetry_multiplicity
 _atom_site_fract_x
 _atom_site_fract_y
 _atom_site_fract_z
 _atom_site_occupancy
  C  C0  1  0.60580500  0.39419500  0.25000000  1
  C  C1  1  0.39419500  0.60580500  0.75000000  1
  Ni  Ni2  1  0.96057700  0.03942300  0.25000000  1
  Ni  Ni3  1  0.03942300  0.96057700  0.75000000  1
  Ni  Ni4  1  0.25082100  0.74917900  0.25000000  1
  Ni  Ni5  1  0.74917900  0.25082100  0.75000000  1
  Cu  Cu6  1  0.81932700  0.18067300  0.25000000  1
  Cu  Cu7  1  0.18067300  0.81932700  0.75000000  1
