# generated using pymatgen
data_CuNi9C7
_symmetry_space_group_name_H-M   'P 1'
_cell_length_a   9.51027637
_cell_length_b   9.51027637
_cell_length_c   14.70962000
_cell_angle_alpha   90.00000000
_cell_angle_beta   90.00000000
_cell_angle_gamma   109.35751488
_symmetry_Int_Tables_number   1
_chemical_formula_structural   CuNi9C7
_chemical_formula_sum   'Cu2 Ni18 C14'
_cell_volume   1255.20663075
_cell_formula_units_Z   2
loop_
 _symmetry_equiv_pos_site_id
 _symmetry_equiv_pos_as_xyz
  1  'x, y, z'
loop_
 _atom_site_type_symbol
 _atom_site_label
 _atom_site_symmetry_multiplicity
 _atom_site_fract_x
 _atom_site_fract_y
 _atom_site_fract_z
 _atom_site_occupancy
  C  C0  1  0.37090900  0.62909100  0.75702700  1
  C  C1  1  0.62909100  0.37090900  0.25702700  1
  C  C2  1  0.93579400  0.55644700  0.91574200  1
  C  C3  1  0.06420600  0.44355300  0.41574200  1
  C  C4  1  0.55644700  0.93579400  0.41574200  1
  C  C5  1  0.44355300  0.06420600  0.91574200  1
  C  C6  1  0.77556700  0.68590100  0.61694400  1
  C  C7  1  0.22443300  0.31409900  0.11694400  1
  C  C8  1  0.68590100  0.77556700  0.11694400  1
  C  C9  1  0.31409900  0.22443300  0.61694400  1
  C  C10  1  0.96007600  0.03992400  0.87516500  1
  C  C11  1  0.03992400  0.96007600  0.37516500  1
  C  C12  1  0.77607500  0.22392500  0.65259800  1
  C  C13  1  0.22392500  0.77607500  0.15259800  1
  Ni  Ni14  1  0.82134600  0.17865400  0.98188800  1
  Ni  Ni15  1  0.17865400  0.82134600  0.48188800  1
  Ni  Ni16  1  0.64664200  0.35335800  0.76845300  1
  Ni  Ni17  1  0.35335800  0.64664200  0.26845300  1
  Ni  Ni18  1  0.92190000  0.07810000  0.55909700  1
  Ni  Ni19  1  0.07810000  0.92190000  0.05909700  1
  Ni  Ni20  1  0.68308800  0.31691200  0.50730700  1
  Ni  Ni21  1  0.31691200  0.68308800  0.00730700  1
  Ni  Ni22  1  0.20230200  0.28384700  0.87224900  1
  Ni  Ni23  1  0.79769800  0.71615300  0.37224900  1
  Ni  Ni24  1  0.28384700  0.20230200  0.37224900  1
  Ni  Ni25  1  0.71615300  0.79769800  0.87224900  1
  Ni  Ni26  1  0.01948800  0.45566800  0.66308200  1
  Ni  Ni27  1  0.98051200  0.54433200  0.16308200  1
  Ni  Ni28  1  0.45566800  0.01948800  0.16308200  1
  Ni  Ni29  1  0.54433200  0.98051200  0.66308200  1
  Ni  Ni30  1  0.89325600  0.10674400  0.27750000  1
  Ni  Ni31  1  0.10674400  0.89325600  0.77750000  1
  Cu  Cu32  1  0.46663100  0.53336900  0.60601200  1
  Cu  Cu33  1  0.53336900  0.46663100  0.10601200  1
