# generated using pymatgen
data_CuNi2C7
_symmetry_space_group_name_H-M   'P 1'
_cell_length_a   5.87991000
_cell_length_b   5.82488600
_cell_length_c   10.08386292
_cell_angle_alpha   55.10138944
_cell_angle_beta   90.00000000
_cell_angle_gamma   90.00000000
_symmetry_Int_Tables_number   1
_chemical_formula_structural   CuNi2C7
_chemical_formula_sum   'Cu2 Ni4 C14'
_cell_volume   283.26092666
_cell_formula_units_Z   2
loop_
 _symmetry_equiv_pos_site_id
 _symmetry_equiv_pos_as_xyz
  1  'x, y, z'
loop_
 _atom_site_type_symbol
 _atom_site_label
 _atom_site_symmetry_multiplicity
 _atom_site_fract_x
 _atom_site_fract_y
 _atom_site_fract_z
 _atom_site_occupancy
  Ni  Ni0  1  0.96410000  0.74130000  0.25079100  1
  Ni  Ni1  1  0.46410000  0.25870000  0.24920900  1
  Ni  Ni2  1  0.03590000  0.25870000  0.74920900  1
  Ni  Ni3  1  0.53590000  0.74130000  0.75079100  1
  Cu  Cu4  1  0.50000000  0.00000000  0.00000000  1
  Cu  Cu5  1  0.00000000  0.00000000  0.50000000  1
  C  C6  1  0.00000000  0.50000000  0.00000000  1
  C  C7  1  0.50000000  0.50000000  0.50000000  1
  C  C8  1  0.51814900  0.80718300  0.26524700  1
  C  C9  1  0.01814900  0.19281700  0.23475300  1
  C  C10  1  0.48185100  0.19281700  0.73475300  1
  C  C11  1  0.98185100  0.80718300  0.76524700  1
  C  C12  1  0.77221900  0.65704800  0.53941400  1
  C  C13  1  0.27221900  0.34295200  0.96058600  1
  C  C14  1  0.22778100  0.34295200  0.46058600  1
  C  C15  1  0.72778100  0.65704800  0.03941400  1
  C  C16  1  0.19958500  0.73389100  0.03745800  1
  C  C17  1  0.69958500  0.26610900  0.46254200  1
  C  C18  1  0.80041500  0.26610900  0.96254200  1
  C  C19  1  0.30041500  0.73389100  0.53745800  1
