# generated using pymatgen
data_Cu6NiC3
_symmetry_space_group_name_H-M   'P 1'
_cell_length_a   5.83983877
_cell_length_b   5.88145000
_cell_length_c   8.25143232
_cell_angle_alpha   90.00000000
_cell_angle_beta   90.04152508
_cell_angle_gamma   90.00000000
_symmetry_Int_Tables_number   1
_chemical_formula_structural   Cu6NiC3
_chemical_formula_sum   'Cu12 Ni2 C6'
_cell_volume   283.40955891
_cell_formula_units_Z   2
loop_
 _symmetry_equiv_pos_site_id
 _symmetry_equiv_pos_as_xyz
  1  'x, y, z'
loop_
 _atom_site_type_symbol
 _atom_site_label
 _atom_site_symmetry_multiplicity
 _atom_site_fract_x
 _atom_site_fract_y
 _atom_site_fract_z
 _atom_site_occupancy
  C  C0  1  0.50000000  0.50000000  0.00000000  1
  C  C1  1  0.00000000  0.00000000  0.50000000  1
  C  C2  1  0.50692800  0.03764800  0.75047600  1
  C  C3  1  0.99307200  0.53764800  0.74952400  1
  C  C4  1  0.49307200  0.96235200  0.24952400  1
  C  C5  1  0.00692800  0.46235200  0.25047600  1
  Ni  Ni6  1  0.50000000  0.50000000  0.50000000  1
  Ni  Ni7  1  0.00000000  0.00000000  0.00000000  1
  Cu  Cu8  1  0.68149600  0.76375000  0.54131700  1
  Cu  Cu9  1  0.81850400  0.26375000  0.95868300  1
  Cu  Cu10  1  0.31850400  0.23625000  0.45868300  1
  Cu  Cu11  1  0.18149600  0.73625000  0.04131700  1
  Cu  Cu12  1  0.42737500  0.47662100  0.72452200  1
  Cu  Cu13  1  0.07262500  0.97662100  0.77547800  1
  Cu  Cu14  1  0.57262500  0.52337900  0.27547800  1
  Cu  Cu15  1  0.92737500  0.02337900  0.22452200  1
  Cu  Cu16  1  0.76205600  0.31270300  0.53487000  1
  Cu  Cu17  1  0.73794400  0.81270300  0.96513000  1
  Cu  Cu18  1  0.23794400  0.68729700  0.46513000  1
  Cu  Cu19  1  0.26205600  0.18729700  0.03487000  1
