# generated using pymatgen
data_Cu18Ni3C7
_symmetry_space_group_name_H-M   'P 1'
_cell_length_a   15.66295618
_cell_length_b   15.66295618
_cell_length_c   4.25286400
_cell_angle_alpha   90.00000000
_cell_angle_beta   90.00000000
_cell_angle_gamma   120.00000075
_symmetry_Int_Tables_number   1
_chemical_formula_structural   Cu18Ni3C7
_chemical_formula_sum   'Cu36 Ni6 C14'
_cell_volume   903.56539325
_cell_formula_units_Z   2
loop_
 _symmetry_equiv_pos_site_id
 _symmetry_equiv_pos_as_xyz
  1  'x, y, z'
loop_
 _atom_site_type_symbol
 _atom_site_label
 _atom_site_symmetry_multiplicity
 _atom_site_fract_x
 _atom_site_fract_y
 _atom_site_fract_z
 _atom_site_occupancy
  C  C0  1  0.65555800  0.54148600  0.75000000  1
  C  C1  1  0.34444200  0.45851400  0.25000000  1
  C  C2  1  0.88592800  0.34444200  0.75000000  1
  C  C3  1  0.11407200  0.65555800  0.25000000  1
  C  C4  1  0.45851400  0.11407200  0.75000000  1
  C  C5  1  0.54148600  0.88592800  0.25000000  1
  C  C6  1  0.74023700  0.89053800  0.75000000  1
  C  C7  1  0.25976300  0.10946200  0.25000000  1
  C  C8  1  0.15030000  0.25976300  0.75000000  1
  C  C9  1  0.84970000  0.74023700  0.25000000  1
  C  C10  1  0.10946200  0.84970000  0.75000000  1
  C  C11  1  0.89053800  0.15030000  0.25000000  1
  C  C12  1  0.33333300  0.66666700  0.75000000  1
  C  C13  1  0.66666700  0.33333300  0.25000000  1
  Ni  Ni14  1  0.93676100  0.55450800  0.75000000  1
  Ni  Ni15  1  0.06323900  0.44549200  0.25000000  1
  Ni  Ni16  1  0.61774700  0.06323900  0.75000000  1
  Ni  Ni17  1  0.38225300  0.93676100  0.25000000  1
  Ni  Ni18  1  0.44549200  0.38225300  0.75000000  1
  Ni  Ni19  1  0.55450800  0.61774700  0.25000000  1
  Cu  Cu20  1  0.47520600  0.83487800  0.75000000  1
  Cu  Cu21  1  0.52479400  0.16512200  0.25000000  1
  Cu  Cu22  1  0.35967100  0.52479400  0.75000000  1
  Cu  Cu23  1  0.64032900  0.47520600  0.25000000  1
  Cu  Cu24  1  0.16512200  0.64032900  0.75000000  1
  Cu  Cu25  1  0.83487800  0.35967100  0.25000000  1
  Cu  Cu26  1  0.75111300  0.72022200  0.75000000  1
  Cu  Cu27  1  0.24888700  0.27977800  0.25000000  1
  Cu  Cu28  1  0.96910900  0.24888700  0.75000000  1
  Cu  Cu29  1  0.03089100  0.75111300  0.25000000  1
  Cu  Cu30  1  0.27977800  0.03089100  0.75000000  1
  Cu  Cu31  1  0.72022200  0.96910900  0.25000000  1
  Cu  Cu32  1  0.84283800  0.81560700  0.75000000  1
  Cu  Cu33  1  0.15716200  0.18439300  0.25000000  1
  Cu  Cu34  1  0.97276900  0.15716200  0.75000000  1
  Cu  Cu35  1  0.02723100  0.84283800  0.25000000  1
  Cu  Cu36  1  0.18439300  0.02723100  0.75000000  1
  Cu  Cu37  1  0.81560700  0.97276900  0.25000000  1
  Cu  Cu38  1  0.56390400  0.82258000  0.75000000  1
  Cu  Cu39  1  0.43609600  0.17742000  0.25000000  1
  Cu  Cu40  1  0.25867600  0.43609600  0.75000000  1
  Cu  Cu41  1  0.74132400  0.56390400  0.25000000  1
  Cu  Cu42  1  0.17742000  0.74132400  0.75000000  1
  Cu  Cu43  1  0.82258000  0.25867600  0.25000000  1
  Cu  Cu44  1  0.92585900  0.73587900  0.75000000  1
  Cu  Cu45  1  0.07414100  0.26412100  0.25000000  1
  Cu  Cu46  1  0.81002100  0.07414100  0.75000000  1
  Cu  Cu47  1  0.18997900  0.92585900  0.25000000  1
  Cu  Cu48  1  0.26412100  0.18997900  0.75000000  1
  Cu  Cu49  1  0.73587900  0.81002100  0.25000000  1
  Cu  Cu50  1  0.72242500  0.42924700  0.75000000  1
  Cu  Cu51  1  0.27757500  0.57075300  0.25000000  1
  Cu  Cu52  1  0.70682200  0.27757500  0.75000000  1
  Cu  Cu53  1  0.29317800  0.72242500  0.25000000  1
  Cu  Cu54  1  0.57075300  0.29317800  0.75000000  1
  Cu  Cu55  1  0.42924700  0.70682200  0.25000000  1
