# generated using pymatgen
data_Cu11Ni2C3
_symmetry_space_group_name_H-M   'P 1'
_cell_length_a   6.17954800
_cell_length_b   9.12332700
_cell_length_c   15.67702700
_cell_angle_alpha   90.00000000
_cell_angle_beta   90.00000000
_cell_angle_gamma   90.00000000
_symmetry_Int_Tables_number   1
_chemical_formula_structural   Cu11Ni2C3
_chemical_formula_sum   'Cu44 Ni8 C12'
_cell_volume   883.84001008
_cell_formula_units_Z   4
loop_
 _symmetry_equiv_pos_site_id
 _symmetry_equiv_pos_as_xyz
  1  'x, y, z'
loop_
 _atom_site_type_symbol
 _atom_site_label
 _atom_site_symmetry_multiplicity
 _atom_site_fract_x
 _atom_site_fract_y
 _atom_site_fract_z
 _atom_site_occupancy
  C  C0  1  0.25000000  0.47827000  0.40689100  1
  C  C1  1  0.75000000  0.52173000  0.59310900  1
  C  C2  1  0.75000000  0.97827000  0.09310900  1
  C  C3  1  0.25000000  0.02173000  0.90689100  1
  C  C4  1  0.47376200  0.15862000  0.29846400  1
  C  C5  1  0.52623800  0.84138000  0.70153600  1
  C  C6  1  0.52623800  0.65862000  0.20153600  1
  C  C7  1  0.97376200  0.84138000  0.70153600  1
  C  C8  1  0.47376200  0.34138000  0.79846400  1
  C  C9  1  0.02623800  0.15862000  0.29846400  1
  C  C10  1  0.02623800  0.34138000  0.79846400  1
  C  C11  1  0.97376200  0.65862000  0.20153600  1
  Ni  Ni12  1  0.25000000  0.74511200  0.05321200  1
  Ni  Ni13  1  0.75000000  0.25488800  0.94678800  1
  Ni  Ni14  1  0.75000000  0.24511200  0.44678800  1
  Ni  Ni15  1  0.25000000  0.75488800  0.55321200  1
  Ni  Ni16  1  0.25000000  0.07755600  0.14235600  1
  Ni  Ni17  1  0.75000000  0.92244400  0.85764400  1
  Ni  Ni18  1  0.75000000  0.57755600  0.35764400  1
  Ni  Ni19  1  0.25000000  0.42244400  0.64235600  1
  Cu  Cu20  1  0.25000000  0.04429800  0.06352700  1
  Cu  Cu21  1  0.75000000  0.95570200  0.93647300  1
  Cu  Cu22  1  0.75000000  0.54429800  0.43647300  1
  Cu  Cu23  1  0.25000000  0.45570200  0.56352700  1
  Cu  Cu24  1  0.06620800  0.09177800  0.18261800  1
  Cu  Cu25  1  0.93379200  0.90822200  0.81738200  1
  Cu  Cu26  1  0.93379200  0.59177800  0.31738200  1
  Cu  Cu27  1  0.56620800  0.90822200  0.81738200  1
  Cu  Cu28  1  0.06620800  0.40822200  0.68261800  1
  Cu  Cu29  1  0.43379200  0.09177800  0.18261800  1
  Cu  Cu30  1  0.43379200  0.40822200  0.68261800  1
  Cu  Cu31  1  0.56620800  0.59177800  0.31738200  1
  Cu  Cu32  1  0.25000000  0.72037100  0.24565100  1
  Cu  Cu33  1  0.75000000  0.27962900  0.75434900  1
  Cu  Cu34  1  0.75000000  0.22037100  0.25434900  1
  Cu  Cu35  1  0.25000000  0.77962900  0.74565100  1
  Cu  Cu36  1  0.25000000  0.28888500  0.29343100  1
  Cu  Cu37  1  0.75000000  0.71111500  0.70656900  1
  Cu  Cu38  1  0.75000000  0.78888500  0.20656900  1
  Cu  Cu39  1  0.25000000  0.21111500  0.79343100  1
  Cu  Cu40  1  0.25000000  0.39854200  0.03802500  1
  Cu  Cu41  1  0.75000000  0.60145800  0.96197500  1
  Cu  Cu42  1  0.75000000  0.89854200  0.46197500  1
  Cu  Cu43  1  0.25000000  0.10145800  0.53802500  1
  Cu  Cu44  1  0.25000000  0.05442100  0.34417200  1
  Cu  Cu45  1  0.75000000  0.94557900  0.65582800  1
  Cu  Cu46  1  0.75000000  0.55442100  0.15582800  1
  Cu  Cu47  1  0.25000000  0.44557900  0.84417200  1
  Cu  Cu48  1  0.25000000  0.56443600  0.21220900  1
  Cu  Cu49  1  0.75000000  0.43556400  0.78779100  1
  Cu  Cu50  1  0.75000000  0.06443600  0.28779100  1
  Cu  Cu51  1  0.25000000  0.93556400  0.71220900  1
  Cu  Cu52  1  0.25000000  0.73817900  0.47309700  1
  Cu  Cu53  1  0.75000000  0.26182100  0.52690300  1
  Cu  Cu54  1  0.75000000  0.23817900  0.02690300  1
  Cu  Cu55  1  0.25000000  0.76182100  0.97309700  1
  Cu  Cu56  1  0.56557800  0.23985500  0.40638000  1
  Cu  Cu57  1  0.43442200  0.76014500  0.59362000  1
  Cu  Cu58  1  0.43442200  0.73985500  0.09362000  1
  Cu  Cu59  1  0.06557800  0.76014500  0.59362000  1
  Cu  Cu60  1  0.56557800  0.26014500  0.90638000  1
  Cu  Cu61  1  0.93442200  0.23985500  0.40638000  1
  Cu  Cu62  1  0.93442200  0.26014500  0.90638000  1
  Cu  Cu63  1  0.06557800  0.73985500  0.09362000  1
