# generated using pymatgen
data_CuNiC14
_symmetry_space_group_name_H-M   'P 1'
_cell_length_a   7.37135700
_cell_length_b   7.37135700
_cell_length_c   14.96427900
_cell_angle_alpha   90.00000000
_cell_angle_beta   90.00000000
_cell_angle_gamma   90.00000000
_symmetry_Int_Tables_number   1
_chemical_formula_structural   CuNiC14
_chemical_formula_sum   'Cu4 Ni4 C56'
_cell_volume   813.11259177
_cell_formula_units_Z   4
loop_
 _symmetry_equiv_pos_site_id
 _symmetry_equiv_pos_as_xyz
  1  'x, y, z'
loop_
 _atom_site_type_symbol
 _atom_site_label
 _atom_site_symmetry_multiplicity
 _atom_site_fract_x
 _atom_site_fract_y
 _atom_site_fract_z
 _atom_site_occupancy
  Ni  Ni0  1  0.50000000  0.00000000  0.55730100  1
  Ni  Ni1  1  0.00000000  0.50000000  0.94269900  1
  Ni  Ni2  1  0.00000000  0.50000000  0.44269900  1
  Ni  Ni3  1  0.50000000  0.00000000  0.05730100  1
  Cu  Cu4  1  0.50000000  0.50000000  0.50000000  1
  Cu  Cu5  1  0.00000000  0.00000000  0.50000000  1
  Cu  Cu6  1  0.00000000  0.00000000  0.00000000  1
  Cu  Cu7  1  0.50000000  0.50000000  0.00000000  1
  C  C8  1  0.15162600  0.23638100  0.64580400  1
  C  C9  1  0.84837400  0.76361900  0.64580400  1
  C  C10  1  0.23638100  0.15162600  0.85419600  1
  C  C11  1  0.73638100  0.34837400  0.64580400  1
  C  C12  1  0.26361900  0.65162600  0.64580400  1
  C  C13  1  0.34837400  0.73638100  0.85419600  1
  C  C14  1  0.65162600  0.26361900  0.85419600  1
  C  C15  1  0.76361900  0.84837400  0.85419600  1
  C  C16  1  0.34837400  0.26361900  0.35419600  1
  C  C17  1  0.65162600  0.73638100  0.35419600  1
  C  C18  1  0.26361900  0.34837400  0.14580400  1
  C  C19  1  0.76361900  0.15162600  0.35419600  1
  C  C20  1  0.23638100  0.84837400  0.35419600  1
  C  C21  1  0.15162600  0.76361900  0.14580400  1
  C  C22  1  0.84837400  0.23638100  0.14580400  1
  C  C23  1  0.73638100  0.65162600  0.14580400  1
  C  C24  1  0.22259700  0.08559500  0.57517600  1
  C  C25  1  0.77740300  0.91440500  0.57517600  1
  C  C26  1  0.08559500  0.22259700  0.92482400  1
  C  C27  1  0.58559500  0.27740300  0.57517600  1
  C  C28  1  0.41440500  0.72259700  0.57517600  1
  C  C29  1  0.27740300  0.58559500  0.92482400  1
  C  C30  1  0.72259700  0.41440500  0.92482400  1
  C  C31  1  0.91440500  0.77740300  0.92482400  1
  C  C32  1  0.27740300  0.41440500  0.42482400  1
  C  C33  1  0.72259700  0.58559500  0.42482400  1
  C  C34  1  0.41440500  0.27740300  0.07517600  1
  C  C35  1  0.91440500  0.22259700  0.42482400  1
  C  C36  1  0.08559500  0.77740300  0.42482400  1
  C  C37  1  0.22259700  0.91440500  0.07517600  1
  C  C38  1  0.77740300  0.08559500  0.07517600  1
  C  C39  1  0.25791500  0.06547500  0.37270400  1
  C  C40  1  0.58559500  0.72259700  0.07517600  1
  C  C41  1  0.75791500  0.56547500  0.62729600  1
  C  C42  1  0.43452500  0.24208500  0.87270400  1
  C  C43  1  0.93452500  0.25791500  0.62729600  1
  C  C44  1  0.06547500  0.74208500  0.62729600  1
  C  C45  1  0.25791500  0.93452500  0.87270400  1
  C  C46  1  0.74208500  0.06547500  0.87270400  1
  C  C47  1  0.56547500  0.75791500  0.87270400  1
  C  C48  1  0.68340000  0.68340000  0.25000000  1
  C  C49  1  0.81660000  0.18340000  0.25000000  1
  C  C50  1  0.18340000  0.81660000  0.25000000  1
  C  C51  1  0.31660000  0.31660000  0.25000000  1
  C  C52  1  0.81660000  0.81660000  0.75000000  1
  C  C53  1  0.68340000  0.31660000  0.75000000  1
  C  C54  1  0.31660000  0.68340000  0.75000000  1
  C  C55  1  0.18340000  0.18340000  0.75000000  1
  C  C56  1  0.93452500  0.74208500  0.12729600  1
  C  C57  1  0.75791500  0.43452500  0.12729600  1
  C  C58  1  0.24208500  0.56547500  0.12729600  1
  C  C59  1  0.43452500  0.75791500  0.37270400  1
  C  C60  1  0.56547500  0.24208500  0.37270400  1
  C  C61  1  0.06547500  0.25791500  0.12729600  1
  C  C62  1  0.74208500  0.93452500  0.37270400  1
  C  C63  1  0.24208500  0.43452500  0.62729600  1
