# generated using pymatgen
data_Cu8Ni2C
_symmetry_space_group_name_H-M   'P 1'
_cell_length_a   12.66187400
_cell_length_b   8.44264700
_cell_length_c   13.66113848
_cell_angle_alpha   52.28742866
_cell_angle_beta   90.00000000
_cell_angle_gamma   90.00000000
_symmetry_Int_Tables_number   1
_chemical_formula_structural   Cu8Ni2C
_chemical_formula_sum   'Cu64 Ni16 C8'
_cell_volume   1155.28475842
_cell_formula_units_Z   8
loop_
 _symmetry_equiv_pos_site_id
 _symmetry_equiv_pos_as_xyz
  1  'x, y, z'
loop_
 _atom_site_type_symbol
 _atom_site_label
 _atom_site_symmetry_multiplicity
 _atom_site_fract_x
 _atom_site_fract_y
 _atom_site_fract_z
 _atom_site_occupancy
  C  C0  1  0.95986500  0.41920200  0.83139000  1
  C  C1  1  0.45986500  0.58079800  0.66861000  1
  C  C2  1  0.04013500  0.58079800  0.16861000  1
  C  C3  1  0.54013500  0.41920200  0.33139000  1
  C  C4  1  0.67944300  0.91641900  0.83372700  1
  C  C5  1  0.17944300  0.08358100  0.66627300  1
  C  C6  1  0.32055700  0.08358100  0.16627300  1
  C  C7  1  0.82055700  0.91641900  0.33372700  1
  Ni  Ni8  1  0.83932100  0.96497900  0.91780100  1
  Ni  Ni9  1  0.33932100  0.03502100  0.58219900  1
  Ni  Ni10  1  0.16067900  0.03502100  0.08219900  1
  Ni  Ni11  1  0.66067900  0.96497900  0.41780100  1
  Ni  Ni12  1  0.61875600  0.24849300  0.64765300  1
  Ni  Ni13  1  0.11875600  0.75150700  0.85234700  1
  Ni  Ni14  1  0.38124400  0.75150700  0.35234700  1
  Ni  Ni15  1  0.88124400  0.24849300  0.14765200  1
  Ni  Ni16  1  0.72463100  0.69869500  0.77428200  1
  Ni  Ni17  1  0.22463100  0.30130500  0.72571800  1
  Ni  Ni18  1  0.27536900  0.30130500  0.22571800  1
  Ni  Ni19  1  0.77536900  0.69869500  0.27428200  1
  Ni  Ni20  1  0.53845300  0.75929100  0.99159200  1
  Ni  Ni21  1  0.03845300  0.24070900  0.50840800  1
  Ni  Ni22  1  0.46154700  0.24070900  0.00840800  1
  Ni  Ni23  1  0.96154700  0.75929100  0.49159200  1
  Cu  Cu24  1  0.91709300  0.98709300  0.95918400  1
  Cu  Cu25  1  0.41709300  0.01290700  0.54081600  1
  Cu  Cu26  1  0.08290700  0.01290700  0.04081600  1
  Cu  Cu27  1  0.58290700  0.98709300  0.45918400  1
  Cu  Cu28  1  0.79991600  0.79761800  0.99415100  1
  Cu  Cu29  1  0.29991600  0.20238200  0.50584900  1
  Cu  Cu30  1  0.20008400  0.20238200  0.00584900  1
  Cu  Cu31  1  0.70008400  0.79761800  0.49415100  1
  Cu  Cu32  1  0.77044200  0.08962800  0.89098600  1
  Cu  Cu33  1  0.27044200  0.91037200  0.60901400  1
  Cu  Cu34  1  0.22955800  0.91037200  0.10901400  1
  Cu  Cu35  1  0.72955800  0.08962800  0.39098600  1
  Cu  Cu36  1  0.85985000  0.98141000  0.82331300  1
  Cu  Cu37  1  0.35985000  0.01859000  0.67668700  1
  Cu  Cu38  1  0.14015000  0.01859000  0.17668700  1
  Cu  Cu39  1  0.64015000  0.98141000  0.32331300  1
  Cu  Cu40  1  0.58888800  0.40912100  0.55781700  1
  Cu  Cu41  1  0.08888800  0.59087900  0.94218300  1
  Cu  Cu42  1  0.41111200  0.59087900  0.44218300  1
  Cu  Cu43  1  0.91111200  0.40912100  0.05781700  1
  Cu  Cu44  1  0.54683800  0.12303300  0.69399500  1
  Cu  Cu45  1  0.04683800  0.87696700  0.80600500  1
  Cu  Cu46  1  0.45316200  0.87696700  0.30600500  1
  Cu  Cu47  1  0.95316200  0.12303300  0.19399500  1
  Cu  Cu48  1  0.69215700  0.18354600  0.62165900  1
  Cu  Cu49  1  0.19215700  0.81645400  0.87834100  1
  Cu  Cu50  1  0.30784300  0.81645400  0.37834100  1
  Cu  Cu51  1  0.80784300  0.18354600  0.12165900  1
  Cu  Cu52  1  0.65171000  0.26057700  0.72819500  1
  Cu  Cu53  1  0.15171000  0.73942300  0.77180500  1
  Cu  Cu54  1  0.34829000  0.73942300  0.27180500  1
  Cu  Cu55  1  0.84829000  0.26057700  0.22819500  1
  Cu  Cu56  1  0.74573100  0.59292200  0.74577200  1
  Cu  Cu57  1  0.24573100  0.40707800  0.75422800  1
  Cu  Cu58  1  0.25426900  0.40707800  0.25422800  1
  Cu  Cu59  1  0.75426900  0.59292200  0.24577200  1
  Cu  Cu60  1  0.77675800  0.85563400  0.71383000  1
  Cu  Cu61  1  0.27675800  0.14436600  0.78617000  1
  Cu  Cu62  1  0.22324200  0.14436600  0.28617000  1
  Cu  Cu63  1  0.72324200  0.85563400  0.21383000  1
  Cu  Cu64  1  0.74045200  0.61379800  0.88574700  1
  Cu  Cu65  1  0.24045200  0.38620200  0.61425300  1
  Cu  Cu66  1  0.25954800  0.38620200  0.11425300  1
  Cu  Cu67  1  0.75954800  0.61379800  0.38574700  1
  Cu  Cu68  1  0.63007100  0.74782200  0.75468500  1
  Cu  Cu69  1  0.13007100  0.25217800  0.74531500  1
  Cu  Cu70  1  0.36992900  0.25217800  0.24531500  1
  Cu  Cu71  1  0.86992900  0.74782200  0.25468500  1
  Cu  Cu72  1  0.46907500  0.68494800  0.06702000  1
  Cu  Cu73  1  0.96907500  0.31505200  0.43298000  1
  Cu  Cu74  1  0.53092500  0.31505200  0.93298000  1
  Cu  Cu75  1  0.03092500  0.68494800  0.56702000  1
  Cu  Cu76  1  0.57519000  0.91155200  0.97379400  1
  Cu  Cu77  1  0.07519000  0.08844800  0.52620600  1
  Cu  Cu78  1  0.42481000  0.08844800  0.02620600  1
  Cu  Cu79  1  0.92481000  0.91155200  0.47379400  1
  Cu  Cu80  1  0.61378100  0.64318700  0.02125600  1
  Cu  Cu81  1  0.11378100  0.35681300  0.47874400  1
  Cu  Cu82  1  0.38621900  0.35681300  0.97874400  1
  Cu  Cu83  1  0.88621900  0.64318700  0.52125600  1
  Cu  Cu84  1  0.50566200  0.81076000  0.89035900  1
  Cu  Cu85  1  0.00566200  0.18924000  0.60964100  1
  Cu  Cu86  1  0.49433800  0.18924000  0.10964100  1
  Cu  Cu87  1  0.99433800  0.81076000  0.39035900  1
