# generated using pymatgen
data_CuNiC8
_symmetry_space_group_name_H-M   'P 1'
_cell_length_a   5.49096255
_cell_length_b   5.49097834
_cell_length_c   5.49095744
_cell_angle_alpha   61.07521792
_cell_angle_beta   61.07533210
_cell_angle_gamma   61.07531604
_symmetry_Int_Tables_number   1
_chemical_formula_structural   CuNiC8
_chemical_formula_sum   'Cu1 Ni1 C8'
_cell_volume   119.90011867
_cell_formula_units_Z   1
loop_
 _symmetry_equiv_pos_site_id
 _symmetry_equiv_pos_as_xyz
  1  'x, y, z'
loop_
 _atom_site_type_symbol
 _atom_site_label
 _atom_site_symmetry_multiplicity
 _atom_site_fract_x
 _atom_site_fract_y
 _atom_site_fract_z
 _atom_site_occupancy
  C  C0  1  0.24975000  0.24975000  0.24975100  1
  C  C1  1  0.75025000  0.75025000  0.75024900  1
  Ni  Ni2  1  0.00000100  0.00000000  0.00000000  1
  Cu  Cu3  1  0.50000000  0.50000000  0.50000000  1
  C  C4  1  0.69149300  0.23923600  0.82376400  1
  C  C5  1  0.23923600  0.82376300  0.69149400  1
  C  C6  1  0.82376400  0.69149300  0.23923700  1
  C  C7  1  0.76076400  0.17623700  0.30850600  1
  C  C8  1  0.17623600  0.30850700  0.76076400  1
  C  C9  1  0.30850700  0.76076400  0.17623600  1
