# generated using pymatgen
data_Cu(NiC2)3
_symmetry_space_group_name_H-M   'P 1'
_cell_length_a   5.93561219
_cell_length_b   5.93561219
_cell_length_c   11.59406900
_cell_angle_alpha   90.00000000
_cell_angle_beta   90.00000000
_cell_angle_gamma   120.00000213
_symmetry_Int_Tables_number   1
_chemical_formula_structural   Cu(NiC2)3
_chemical_formula_sum   'Cu2 Ni6 C12'
_cell_volume   353.75088854
_cell_formula_units_Z   2
loop_
 _symmetry_equiv_pos_site_id
 _symmetry_equiv_pos_as_xyz
  1  'x, y, z'
loop_
 _atom_site_type_symbol
 _atom_site_label
 _atom_site_symmetry_multiplicity
 _atom_site_fract_x
 _atom_site_fract_y
 _atom_site_fract_z
 _atom_site_occupancy
  Ni  Ni0  1  0.66666700  0.33333300  0.49910600  1
  Ni  Ni1  1  0.66666700  0.33333300  0.00089400  1
  Ni  Ni2  1  0.33333300  0.66666700  0.50089400  1
  Ni  Ni3  1  0.33333300  0.66666700  0.99910600  1
  Ni  Ni4  1  0.66666700  0.33333300  0.75000000  1
  Ni  Ni5  1  0.33333300  0.66666700  0.25000000  1
  Cu  Cu6  1  0.00000000  0.00000000  0.50000000  1
  Cu  Cu7  1  0.00000000  0.00000000  0.00000000  1
  C  C8  1  0.66822900  0.66610500  0.62445500  1
  C  C9  1  0.33389500  0.00212400  0.62445500  1
  C  C10  1  0.99787600  0.33177100  0.62445500  1
  C  C11  1  0.33389500  0.33177100  0.87554500  1
  C  C12  1  0.99787600  0.66610500  0.87554500  1
  C  C13  1  0.66822900  0.00212400  0.87554500  1
  C  C14  1  0.33177100  0.33389500  0.37554500  1
  C  C15  1  0.66610500  0.99787600  0.37554500  1
  C  C16  1  0.33177100  0.99787600  0.12445500  1
  C  C17  1  0.00212400  0.33389500  0.12445500  1
  C  C18  1  0.66610500  0.66822900  0.12445500  1
  C  C19  1  0.00212400  0.66822900  0.37554500  1
