# generated using pymatgen
data_Cu6Ni4C3
_symmetry_space_group_name_H-M   'P 1'
_cell_length_a   5.98264600
_cell_length_b   6.04408700
_cell_length_c   29.52946400
_cell_angle_alpha   90.00000000
_cell_angle_beta   90.00000000
_cell_angle_gamma   90.00000000
_symmetry_Int_Tables_number   1
_chemical_formula_structural   Cu6Ni4C3
_chemical_formula_sum   'Cu24 Ni16 C12'
_cell_volume   1067.77457839
_cell_formula_units_Z   4
loop_
 _symmetry_equiv_pos_site_id
 _symmetry_equiv_pos_as_xyz
  1  'x, y, z'
loop_
 _atom_site_type_symbol
 _atom_site_label
 _atom_site_symmetry_multiplicity
 _atom_site_fract_x
 _atom_site_fract_y
 _atom_site_fract_z
 _atom_site_occupancy
  C  C0  1  0.00000000  0.50000000  0.50000000  1
  C  C1  1  0.50000000  0.00000000  0.50000000  1
  C  C2  1  0.50000000  0.50000000  0.00000000  1
  C  C3  1  0.00000000  0.00000000  0.00000000  1
  Ni  Ni4  1  0.61247400  0.12048400  0.31576700  1
  Ni  Ni5  1  0.88752600  0.62048400  0.68423300  1
  Ni  Ni6  1  0.11247400  0.87951600  0.18423300  1
  Ni  Ni7  1  0.38752600  0.37951600  0.81576700  1
  Ni  Ni8  1  0.38752600  0.87951600  0.68423300  1
  Ni  Ni9  1  0.11247400  0.37951600  0.31576700  1
  Ni  Ni10  1  0.88752600  0.12048400  0.81576700  1
  Ni  Ni11  1  0.61247400  0.62048400  0.18423300  1
  Ni  Ni12  1  0.08300200  0.41837100  0.12335600  1
  Ni  Ni13  1  0.41699800  0.91837100  0.87664400  1
  Ni  Ni14  1  0.58300200  0.58162900  0.37664400  1
  Ni  Ni15  1  0.91699800  0.08162900  0.62335600  1
  Ni  Ni16  1  0.91699800  0.58162900  0.87664400  1
  Ni  Ni17  1  0.58300200  0.08162900  0.12335600  1
  Ni  Ni18  1  0.41699800  0.41837100  0.62335600  1
  Ni  Ni19  1  0.08300200  0.91837100  0.37664400  1
  C  C20  1  0.49030800  0.49707400  0.29898600  1
  C  C21  1  0.00969200  0.99707400  0.70101400  1
  C  C22  1  0.99030800  0.50292600  0.20101400  1
  C  C23  1  0.50969200  0.00292600  0.79898600  1
  C  C24  1  0.50969200  0.50292600  0.70101400  1
  C  C25  1  0.99030800  0.00292600  0.29898600  1
  C  C26  1  0.00969200  0.49707400  0.79898600  1
  C  C27  1  0.49030800  0.99707400  0.20101400  1
  Cu  Cu28  1  0.37560400  0.38028100  0.22336100  1
  Cu  Cu29  1  0.12439600  0.88028100  0.77663900  1
  Cu  Cu30  1  0.87560400  0.61971900  0.27663900  1
  Cu  Cu31  1  0.62439600  0.11971900  0.72336100  1
  Cu  Cu32  1  0.62439600  0.61971900  0.77663900  1
  Cu  Cu33  1  0.87560400  0.11971900  0.22336100  1
  Cu  Cu34  1  0.12439600  0.38028100  0.72336100  1
  Cu  Cu35  1  0.37560400  0.88028100  0.27663900  1
  Cu  Cu36  1  0.49017400  0.46298800  0.11333800  1
  Cu  Cu37  1  0.00982600  0.96298800  0.88666200  1
  Cu  Cu38  1  0.99017400  0.53701200  0.38666200  1
  Cu  Cu39  1  0.50982600  0.03701200  0.61333800  1
  Cu  Cu40  1  0.50982600  0.53701200  0.88666200  1
  Cu  Cu41  1  0.99017400  0.03701200  0.11333800  1
  Cu  Cu42  1  0.00982600  0.46298800  0.61333800  1
  Cu  Cu43  1  0.49017400  0.96298800  0.38666200  1
  Cu  Cu44  1  0.50491000  0.49587200  0.44880400  1
  Cu  Cu45  1  0.99509000  0.99587200  0.55119600  1
  Cu  Cu46  1  0.00491000  0.50412800  0.05119600  1
  Cu  Cu47  1  0.49509000  0.00412800  0.94880400  1
  Cu  Cu48  1  0.49509000  0.50412800  0.55119600  1
  Cu  Cu49  1  0.00491000  0.00412800  0.44880400  1
  Cu  Cu50  1  0.99509000  0.49587200  0.94880400  1
  Cu  Cu51  1  0.50491000  0.99587200  0.05119600  1
