# generated using pymatgen
data_Cu4Ni2C3
_symmetry_space_group_name_H-M   'P 1'
_cell_length_a   9.86367300
_cell_length_b   5.62250500
_cell_length_c   12.67789712
_cell_angle_alpha   70.80118926
_cell_angle_beta   90.00000000
_cell_angle_gamma   90.00000000
_symmetry_Int_Tables_number   1
_chemical_formula_structural   Cu4Ni2C3
_chemical_formula_sum   'Cu16 Ni8 C12'
_cell_volume   663.99374834
_cell_formula_units_Z   4
loop_
 _symmetry_equiv_pos_site_id
 _symmetry_equiv_pos_as_xyz
  1  'x, y, z'
loop_
 _atom_site_type_symbol
 _atom_site_label
 _atom_site_symmetry_multiplicity
 _atom_site_fract_x
 _atom_site_fract_y
 _atom_site_fract_z
 _atom_site_occupancy
  C  C0  1  0.63847700  0.76384900  0.73853400  1
  C  C1  1  0.86152300  0.76384900  0.23853400  1
  C  C2  1  0.36152300  0.23615100  0.26146600  1
  C  C3  1  0.13847700  0.23615100  0.76146600  1
  C  C4  1  0.43632200  0.80688900  0.86929300  1
  C  C5  1  0.06367800  0.80688900  0.36929300  1
  C  C6  1  0.56367800  0.19311100  0.13070700  1
  C  C7  1  0.93632200  0.19311100  0.63070700  1
  C  C8  1  0.43743100  0.52373100  0.86662300  1
  C  C9  1  0.06256900  0.52373100  0.36662300  1
  C  C10  1  0.56256900  0.47626900  0.13337700  1
  C  C11  1  0.93743100  0.47626900  0.63337700  1
  Ni  Ni12  1  0.84886500  0.83852100  0.62505700  1
  Ni  Ni13  1  0.65113500  0.83852100  0.12505700  1
  Ni  Ni14  1  0.15113500  0.16147900  0.37494300  1
  Ni  Ni15  1  0.34886500  0.16147900  0.87494300  1
  Ni  Ni16  1  0.81064700  0.68025000  0.95566000  1
  Ni  Ni17  1  0.68935300  0.68025000  0.45566000  1
  Ni  Ni18  1  0.18935300  0.31975000  0.04434000  1
  Ni  Ni19  1  0.31064700  0.31975000  0.54434000  1
  Cu  Cu20  1  0.76279100  0.87457300  0.83954600  1
  Cu  Cu21  1  0.73720900  0.87457300  0.33954600  1
  Cu  Cu22  1  0.23720900  0.12542700  0.16045400  1
  Cu  Cu23  1  0.26279100  0.12542700  0.66045400  1
  Cu  Cu24  1  0.64892600  0.47461900  0.71176900  1
  Cu  Cu25  1  0.85107400  0.47461900  0.21176900  1
  Cu  Cu26  1  0.35107400  0.52538100  0.28823100  1
  Cu  Cu27  1  0.14892600  0.52538100  0.78823100  1
  Cu  Cu28  1  0.56575000  0.01924600  0.63435800  1
  Cu  Cu29  1  0.93425000  0.01924600  0.13435800  1
  Cu  Cu30  1  0.43425000  0.98075400  0.36564200  1
  Cu  Cu31  1  0.06575000  0.98075400  0.86564200  1
  Cu  Cu32  1  0.49531700  0.67006400  0.86274300  1
  Cu  Cu33  1  0.00468300  0.67006400  0.36274300  1
  Cu  Cu34  1  0.50468300  0.32993600  0.13725700  1
  Cu  Cu35  1  0.99531700  0.32993600  0.63725700  1
