# generated using pymatgen
data_Cu3Ni3C2
_symmetry_space_group_name_H-M   'P 1'
_cell_length_a   3.69176300
_cell_length_b   5.38649300
_cell_length_c   9.56362635
_cell_angle_alpha   83.28958429
_cell_angle_beta   90.00000000
_cell_angle_gamma   90.00000000
_symmetry_Int_Tables_number   1
_chemical_formula_structural   Cu3Ni3C2
_chemical_formula_sum   'Cu3 Ni3 C2'
_cell_volume   188.87614390
_cell_formula_units_Z   1
loop_
 _symmetry_equiv_pos_site_id
 _symmetry_equiv_pos_as_xyz
  1  'x, y, z'
loop_
 _atom_site_type_symbol
 _atom_site_label
 _atom_site_symmetry_multiplicity
 _atom_site_fract_x
 _atom_site_fract_y
 _atom_site_fract_z
 _atom_site_occupancy
  C  C0  1  0.50000000  0.72049700  0.65527400  1
  C  C1  1  0.00000000  0.28088200  0.34203400  1
  Ni  Ni2  1  0.00000000  0.47275900  0.83276100  1
  Ni  Ni3  1  0.50000000  0.24035800  0.55338700  1
  Ni  Ni4  1  0.00000000  0.76115500  0.44333100  1
  Cu  Cu5  1  0.50000000  0.12149300  0.18103900  1
  Cu  Cu6  1  0.00000000  0.89321200  0.80831900  1
  Cu  Cu7  1  0.50000000  0.50964500  0.18385500  1
