# generated using pymatgen
data_CuNiC4
_symmetry_space_group_name_H-M   'P 1'
_cell_length_a   5.82842600
_cell_length_b   5.82842600
_cell_length_c   20.06448500
_cell_angle_alpha   90.00000000
_cell_angle_beta   90.00000000
_cell_angle_gamma   90.00000000
_symmetry_Int_Tables_number   1
_chemical_formula_structural   CuNiC4
_chemical_formula_sum   'Cu8 Ni8 C32'
_cell_volume   681.60158364
_cell_formula_units_Z   8
loop_
 _symmetry_equiv_pos_site_id
 _symmetry_equiv_pos_as_xyz
  1  'x, y, z'
loop_
 _atom_site_type_symbol
 _atom_site_label
 _atom_site_symmetry_multiplicity
 _atom_site_fract_x
 _atom_site_fract_y
 _atom_site_fract_z
 _atom_site_occupancy
  C  C0  1  0.23611300  0.76388700  0.50000000  1
  C  C1  1  0.76388700  0.23611300  0.50000000  1
  C  C2  1  0.26388700  0.26388700  0.00000000  1
  C  C3  1  0.73611300  0.73611300  0.00000000  1
  Ni  Ni4  1  0.21651400  0.78348600  0.31440000  1
  Ni  Ni5  1  0.78348600  0.21651400  0.31440000  1
  Ni  Ni6  1  0.28348600  0.28348600  0.81440000  1
  Ni  Ni7  1  0.71651400  0.71651400  0.81440000  1
  Ni  Ni8  1  0.78348600  0.21651400  0.68560000  1
  Ni  Ni9  1  0.21651400  0.78348600  0.68560000  1
  Ni  Ni10  1  0.71651400  0.71651400  0.18560000  1
  Ni  Ni11  1  0.28348600  0.28348600  0.18560000  1
  Cu  Cu12  1  0.23847700  0.76152300  0.10422000  1
  Cu  Cu13  1  0.76152300  0.23847700  0.10422000  1
  Cu  Cu14  1  0.26152300  0.26152300  0.60422000  1
  Cu  Cu15  1  0.73847700  0.73847700  0.60422000  1
  Cu  Cu16  1  0.76152300  0.23847700  0.89578000  1
  Cu  Cu17  1  0.23847700  0.76152300  0.89578000  1
  Cu  Cu18  1  0.73847700  0.73847700  0.39578000  1
  Cu  Cu19  1  0.26152300  0.26152300  0.39578000  1
  C  C20  1  0.28689400  0.28689400  0.50000000  1
  C  C21  1  0.71310600  0.71310600  0.50000000  1
  C  C22  1  0.21310600  0.78689400  0.00000000  1
  C  C23  1  0.78689400  0.21310600  0.00000000  1
  C  C24  1  0.32099300  0.67900700  0.21287200  1
  C  C25  1  0.67900700  0.32099300  0.21287200  1
  C  C26  1  0.17900700  0.17900700  0.71287200  1
  C  C27  1  0.82099300  0.82099300  0.71287200  1
  C  C28  1  0.67900700  0.32099300  0.78712800  1
  C  C29  1  0.32099300  0.67900700  0.78712800  1
  C  C30  1  0.82099300  0.82099300  0.28712800  1
  C  C31  1  0.17900700  0.17900700  0.28712800  1
  C  C32  1  0.00000000  0.50000000  0.38309600  1
  C  C33  1  0.50000000  0.00000000  0.88309600  1
  C  C34  1  0.00000000  0.50000000  0.61690400  1
  C  C35  1  0.50000000  0.00000000  0.11690400  1
  C  C36  1  0.50000000  0.00000000  0.38309600  1
  C  C37  1  0.00000000  0.50000000  0.88309600  1
  C  C38  1  0.50000000  0.00000000  0.61690400  1
  C  C39  1  0.00000000  0.50000000  0.11690400  1
  C  C40  1  0.50000000  0.50000000  0.36560200  1
  C  C41  1  0.00000000  0.00000000  0.86560200  1
  C  C42  1  0.50000000  0.50000000  0.63439800  1
  C  C43  1  0.00000000  0.00000000  0.13439800  1
  C  C44  1  0.50000000  0.50000000  0.09565600  1
  C  C45  1  0.00000000  0.00000000  0.59565600  1
  C  C46  1  0.50000000  0.50000000  0.90434400  1
  C  C47  1  0.00000000  0.00000000  0.40434400  1
