# generated using pymatgen
data_CuNiC2
_symmetry_space_group_name_H-M   'P 1'
_cell_length_a   3.83163800
_cell_length_b   3.83163800
_cell_length_c   7.71820500
_cell_angle_alpha   90.00000000
_cell_angle_beta   90.00000000
_cell_angle_gamma   90.00000000
_symmetry_Int_Tables_number   1
_chemical_formula_structural   CuNiC2
_chemical_formula_sum   'Cu2 Ni2 C4'
_cell_volume   113.31443897
_cell_formula_units_Z   2
loop_
 _symmetry_equiv_pos_site_id
 _symmetry_equiv_pos_as_xyz
  1  'x, y, z'
loop_
 _atom_site_type_symbol
 _atom_site_label
 _atom_site_symmetry_multiplicity
 _atom_site_fract_x
 _atom_site_fract_y
 _atom_site_fract_z
 _atom_site_occupancy
  Ni  Ni0  1  0.75000000  0.75000000  0.59560400  1
  Ni  Ni1  1  0.25000000  0.25000000  0.40439600  1
  Cu  Cu2  1  0.75000000  0.75000000  0.14888400  1
  Cu  Cu3  1  0.25000000  0.25000000  0.85111600  1
  C  C4  1  0.75000000  0.25000000  0.50000000  1
  C  C5  1  0.25000000  0.75000000  0.50000000  1
  C  C6  1  0.75000000  0.75000000  0.83819800  1
  C  C7  1  0.25000000  0.25000000  0.16180200  1
