# generated using pymatgen
data_CuNiC8
_symmetry_space_group_name_H-M   'P 1'
_cell_length_a   8.52219701
_cell_length_b   8.52402461
_cell_length_c   8.54147756
_cell_angle_alpha   90.00000000
_cell_angle_beta   90.00000000
_cell_angle_gamma   90.00000000
_symmetry_Int_Tables_number   1
_chemical_formula_structural   CuNiC8
_chemical_formula_sum   'Cu4 Ni4 C32'
_cell_volume   620.48211657
_cell_formula_units_Z   4
loop_
 _symmetry_equiv_pos_site_id
 _symmetry_equiv_pos_as_xyz
  1  'x, y, z'
loop_
 _atom_site_type_symbol
 _atom_site_label
 _atom_site_symmetry_multiplicity
 _atom_site_fract_x
 _atom_site_fract_y
 _atom_site_fract_z
 _atom_site_occupancy
  Ni  Ni0  1  0.00000000  0.00000000  0.00000000  1
  Ni  Ni1  1  0.50000000  0.50000000  0.50000000  1
  Ni  Ni2  1  0.50000000  -0.00000000  0.00000000  1
  Ni  Ni3  1  -0.00000000  -0.00000000  0.50000000  1
  Cu  Cu4  1  0.00000000  0.50000000  0.50000000  1
  Cu  Cu5  1  0.50000000  0.00000000  0.50000000  1
  Cu  Cu6  1  0.50000000  0.50000000  0.00000000  1
  Cu  Cu7  1  0.00000000  0.50000000  0.00000000  1
  C  C8  1  0.74909235  0.74738139  0.74972679  1
  C  C9  1  0.25090765  0.25261861  0.74972679  1
  C  C10  1  0.25090765  0.74738139  0.25027321  1
  C  C11  1  0.74909235  0.25261861  0.25027321  1
  C  C12  1  0.24951445  0.25367104  0.25072316  1
  C  C13  1  0.75048555  0.74632896  0.25072316  1
  C  C14  1  0.75048555  0.25367104  0.74927684  1
  C  C15  1  0.24951445  0.74632896  0.74927684  1
  C  C16  1  0.01636454  0.22428915  0.27615904  1
  C  C17  1  0.98363546  0.77571085  0.27615904  1
  C  C18  1  0.98363546  0.22428915  0.72384096  1
  C  C19  1  0.01636454  0.77571085  0.72384096  1
  C  C20  1  0.27350774  0.01848778  0.22196515  1
  C  C21  1  0.27350774  0.98151222  0.77803485  1
  C  C22  1  0.72649226  0.98151222  0.22196515  1
  C  C23  1  0.72649226  0.01848778  0.77803485  1
  C  C24  1  0.21479768  0.28545270  0.01709461  1
  C  C25  1  0.78520232  0.28545270  0.98290539  1
  C  C26  1  0.21479768  0.71454730  0.98290539  1
  C  C27  1  0.78520232  0.71454730  0.01709461  1
  C  C28  1  0.48154340  0.29105315  0.21337654  1
  C  C29  1  0.51845660  0.70894685  0.21337654  1
  C  C30  1  0.51845660  0.29105315  0.78662346  1
  C  C31  1  0.48154340  0.70894685  0.78662346  1
  C  C32  1  0.21502704  0.48338412  0.29283590  1
  C  C33  1  0.21502704  0.51661588  0.70716410  1
  C  C34  1  0.78497296  0.51661588  0.29283590  1
  C  C35  1  0.78497296  0.48338412  0.70716410  1
  C  C36  1  0.29087599  0.21762196  0.48192057  1
  C  C37  1  0.70912401  0.21762196  0.51807943  1
  C  C38  1  0.29087599  0.78237804  0.51807943  1
  C  C39  1  0.70912401  0.78237804  0.48192057  1
