# generated using pymatgen
data_Cu2NiC9
_symmetry_space_group_name_H-M   'P 1'
_cell_length_a   6.57037100
_cell_length_b   7.71393700
_cell_length_c   8.96912400
_cell_angle_alpha   90.00000000
_cell_angle_beta   90.00000000
_cell_angle_gamma   90.00000000
_symmetry_Int_Tables_number   1
_chemical_formula_structural   Cu2NiC9
_chemical_formula_sum   'Cu8 Ni4 C36'
_cell_volume   454.58595012
_cell_formula_units_Z   4
loop_
 _symmetry_equiv_pos_site_id
 _symmetry_equiv_pos_as_xyz
  1  'x, y, z'
loop_
 _atom_site_type_symbol
 _atom_site_label
 _atom_site_symmetry_multiplicity
 _atom_site_fract_x
 _atom_site_fract_y
 _atom_site_fract_z
 _atom_site_occupancy
  C  C0  1  0.00000000  0.50000000  0.50000000  1
  C  C1  1  0.50000000  0.00000000  0.50000000  1
  C  C2  1  0.50000000  0.50000000  0.00000000  1
  C  C3  1  0.00000000  0.00000000  0.00000000  1
  C  C4  1  0.30325300  0.38065500  0.67395400  1
  C  C5  1  0.19674700  0.11934500  0.67395400  1
  C  C6  1  0.80325300  0.61934500  0.82604600  1
  C  C7  1  0.69674700  0.88065500  0.82604600  1
  C  C8  1  0.69674700  0.61934500  0.32604600  1
  C  C9  1  0.80325300  0.88065500  0.32604600  1
  C  C10  1  0.19674700  0.38065500  0.17395400  1
  C  C11  1  0.30325300  0.11934500  0.17395400  1
  C  C12  1  0.37294300  0.37448700  0.49788800  1
  C  C13  1  0.12705700  0.12551300  0.49788800  1
  C  C14  1  0.87294300  0.62551300  0.00211200  1
  C  C15  1  0.62705700  0.87448700  0.00211200  1
  C  C16  1  0.62705700  0.62551300  0.50211200  1
  C  C17  1  0.87294300  0.87448700  0.50211200  1
  C  C18  1  0.12705700  0.37448700  0.99788800  1
  C  C19  1  0.37294300  0.12551300  0.99788800  1
  Ni  Ni20  1  0.75000000  0.25000000  0.75768000  1
  Ni  Ni21  1  0.25000000  0.75000000  0.74232000  1
  Ni  Ni22  1  0.25000000  0.75000000  0.24232000  1
  Ni  Ni23  1  0.75000000  0.25000000  0.25768000  1
  Cu  Cu24  1  0.25586000  0.34458700  0.56933800  1
  Cu  Cu25  1  0.24414000  0.15541300  0.56933800  1
  Cu  Cu26  1  0.75586000  0.65541300  0.93066200  1
  Cu  Cu27  1  0.74414000  0.84458700  0.93066200  1
  Cu  Cu28  1  0.74414000  0.65541300  0.43066200  1
  Cu  Cu29  1  0.75586000  0.84458700  0.43066200  1
  Cu  Cu30  1  0.24414000  0.34458700  0.06933800  1
  Cu  Cu31  1  0.25586000  0.15541300  0.06933800  1
  C  C32  1  0.93085700  0.20835100  0.85242400  1
  C  C33  1  0.56914300  0.29164900  0.85242400  1
  C  C34  1  0.43085700  0.79164900  0.64757600  1
  C  C35  1  0.06914300  0.70835100  0.64757600  1
  C  C36  1  0.06914300  0.79164900  0.14757600  1
  C  C37  1  0.43085700  0.70835100  0.14757600  1
  C  C38  1  0.56914300  0.20835100  0.35242400  1
  C  C39  1  0.93085700  0.29164900  0.35242400  1
  C  C40  1  0.79743100  0.40425200  0.66430000  1
  C  C41  1  0.70256900  0.09574800  0.66430000  1
  C  C42  1  0.29743100  0.59574800  0.83570000  1
  C  C43  1  0.20256900  0.90425200  0.83570000  1
  C  C44  1  0.20256900  0.59574800  0.33570000  1
  C  C45  1  0.29743100  0.90425200  0.33570000  1
  C  C46  1  0.70256900  0.40425200  0.16430000  1
  C  C47  1  0.79743100  0.09574800  0.16430000  1
