# generated using pymatgen
data_CuNiC8
_symmetry_space_group_name_H-M   'P 1'
_cell_length_a   7.44118754
_cell_length_b   7.44118754
_cell_length_c   7.44118754
_cell_angle_alpha   119.57269667
_cell_angle_beta   119.51534209
_cell_angle_gamma   90.79161995
_symmetry_Int_Tables_number   1
_chemical_formula_structural   CuNiC8
_chemical_formula_sum   'Cu2 Ni2 C16'
_cell_volume   293.32541653
_cell_formula_units_Z   2
loop_
 _symmetry_equiv_pos_site_id
 _symmetry_equiv_pos_as_xyz
  1  'x, y, z'
loop_
 _atom_site_type_symbol
 _atom_site_label
 _atom_site_symmetry_multiplicity
 _atom_site_fract_x
 _atom_site_fract_y
 _atom_site_fract_z
 _atom_site_occupancy
  C  C0  1  0.00000000  0.50000000  0.50000000  1
  C  C1  1  0.50000000  0.50000000  0.00000000  1
  Ni  Ni2  1  0.00000000  0.50000000  0.00000000  1
  Ni  Ni3  1  0.00000000  0.00000000  0.50000000  1
  Cu  Cu4  1  0.50000000  0.00000000  0.50000000  1
  Cu  Cu5  1  0.00000000  0.00000000  0.00000000  1
  C  C6  1  0.61928500  0.36928500  0.25000000  1
  C  C7  1  0.38071500  0.63071500  0.75000000  1
  C  C8  1  0.31568800  0.06217000  0.62125600  1
  C  C9  1  0.31568800  0.69443200  0.25351700  1
  C  C10  1  0.30705900  0.05705900  0.25000000  1
  C  C11  1  0.94091500  0.69443200  0.87874400  1
  C  C12  1  0.94091500  0.06217000  0.24648300  1
  C  C13  1  0.92961100  0.67961100  0.25000000  1
  C  C14  1  0.68431200  0.93783000  0.37874400  1
  C  C15  1  0.68431200  0.30556800  0.74648300  1
  C  C16  1  0.69294100  0.94294100  0.75000000  1
  C  C17  1  0.05908500  0.30556800  0.12125600  1
  C  C18  1  0.05908500  0.93783000  0.75351700  1
  C  C19  1  0.07038900  0.32038900  0.75000000  1
