# generated using pymatgen
data_Cu2NiC
_symmetry_space_group_name_H-M   'P 1'
_cell_length_a   5.76705400
_cell_length_b   5.81748100
_cell_length_c   20.25584600
_cell_angle_alpha   90.00000000
_cell_angle_beta   90.00000000
_cell_angle_gamma   90.00000000
_symmetry_Int_Tables_number   1
_chemical_formula_structural   Cu2NiC
_chemical_formula_sum   'Cu16 Ni8 C8'
_cell_volume   679.57810489
_cell_formula_units_Z   8
loop_
 _symmetry_equiv_pos_site_id
 _symmetry_equiv_pos_as_xyz
  1  'x, y, z'
loop_
 _atom_site_type_symbol
 _atom_site_label
 _atom_site_symmetry_multiplicity
 _atom_site_fract_x
 _atom_site_fract_y
 _atom_site_fract_z
 _atom_site_occupancy
  C  C0  1  0.00975200  0.75000000  0.88714000  1
  C  C1  1  0.99024800  0.75000000  0.38714000  1
  C  C2  1  0.50902500  0.75000000  0.60944600  1
  C  C3  1  0.49097500  0.75000000  0.10944600  1
  C  C4  1  0.50902500  0.25000000  0.89055400  1
  C  C5  1  0.99024800  0.25000000  0.11286000  1
  C  C6  1  0.49097500  0.25000000  0.39055400  1
  C  C7  1  0.00975200  0.25000000  0.61286000  1
  Ni  Ni8  1  0.76196500  0.00000000  0.75000000  1
  Ni  Ni9  1  0.23803500  0.50000000  0.25000000  1
  Ni  Ni10  1  0.26381800  0.00000000  0.75000000  1
  Ni  Ni11  1  0.23803500  0.00000000  0.25000000  1
  Ni  Ni12  1  0.76196500  0.50000000  0.75000000  1
  Ni  Ni13  1  0.73618200  0.50000000  0.25000000  1
  Ni  Ni14  1  0.26381800  0.50000000  0.75000000  1
  Ni  Ni15  1  0.73618200  0.00000000  0.25000000  1
  Cu  Cu16  1  0.51098500  0.25000000  0.65626100  1
  Cu  Cu17  1  0.48901500  0.75000000  0.34373900  1
  Cu  Cu18  1  0.98962500  0.75000000  0.15686200  1
  Cu  Cu19  1  0.76656100  0.50473500  0.99980600  1
  Cu  Cu20  1  0.76656100  0.49526500  0.50019400  1
  Cu  Cu21  1  0.98962500  0.25000000  0.34313800  1
  Cu  Cu22  1  0.23343900  0.50473500  0.49980600  1
  Cu  Cu23  1  0.76656100  0.99526500  0.99980600  1
  Cu  Cu24  1  0.23343900  0.99526500  0.49980600  1
  Cu  Cu25  1  0.76656100  0.00473500  0.50019400  1
  Cu  Cu26  1  0.23343900  0.49526500  0.00019400  1
  Cu  Cu27  1  0.48901500  0.25000000  0.15626100  1
  Cu  Cu28  1  0.01037500  0.25000000  0.84313800  1
  Cu  Cu29  1  0.01037500  0.75000000  0.65686200  1
  Cu  Cu30  1  0.51098500  0.75000000  0.84373900  1
  Cu  Cu31  1  0.23343900  0.00473500  0.00019400  1
