# generated using pymatgen
data_CuNiC5
_symmetry_space_group_name_H-M   'P 1'
_cell_length_a   5.32398707
_cell_length_b   9.56269512
_cell_length_c   44.28296597
_cell_angle_alpha   90.00000000
_cell_angle_beta   89.89131655
_cell_angle_gamma   90.00000000
_symmetry_Int_Tables_number   1
_chemical_formula_structural   CuNiC5
_chemical_formula_sum   'Cu20 Ni20 C100'
_cell_volume   2254.51547842
_cell_formula_units_Z   20
loop_
 _symmetry_equiv_pos_site_id
 _symmetry_equiv_pos_as_xyz
  1  'x, y, z'
loop_
 _atom_site_type_symbol
 _atom_site_label
 _atom_site_symmetry_multiplicity
 _atom_site_fract_x
 _atom_site_fract_y
 _atom_site_fract_z
 _atom_site_occupancy
  Ni  Ni0  1  0.27648329  0.75750183  0.60087841  1
  Ni  Ni1  1  0.77648329  0.24249817  0.10087841  1
  Ni  Ni2  1  0.23491536  0.74684024  0.70014895  1
  Ni  Ni3  1  0.73491536  0.25315976  0.20014895  1
  Ni  Ni4  1  0.27440239  0.75712623  0.80001894  1
  Ni  Ni5  1  0.77440239  0.24287377  0.30001894  1
  Ni  Ni6  1  0.27715083  0.74118518  0.90085147  1
  Ni  Ni7  1  0.77715083  0.25881482  0.40085147  1
  Ni  Ni8  1  0.22967620  0.75412367  0.00067474  1
  Ni  Ni9  1  0.72967620  0.24587633  0.50067474  1
  Ni  Ni10  1  0.22625433  0.74167044  0.09994448  1
  Ni  Ni11  1  0.72625433  0.25832956  0.59994448  1
  Ni  Ni12  1  0.26984732  0.75571913  0.19988307  1
  Ni  Ni13  1  0.76984732  0.24428087  0.69988307  1
  Ni  Ni14  1  0.23002542  0.74359686  0.30032652  1
  Ni  Ni15  1  0.73002542  0.25640314  0.80032652  1
  Ni  Ni16  1  0.23013630  0.75735717  0.39973363  1
  Ni  Ni17  1  0.73013630  0.24264283  0.89973363  1
  Ni  Ni18  1  0.27377095  0.74372244  0.49979267  1
  Ni  Ni19  1  0.77377095  0.25627756  0.99979267  1
  Cu  Cu20  1  0.72391498  0.58588030  0.56399395  1
  Cu  Cu21  1  0.22391498  0.41411970  0.06399395  1
  Cu  Cu22  1  0.71740234  0.91458113  0.66416757  1
  Cu  Cu23  1  0.21740234  0.08541887  0.16416757  1
  Cu  Cu24  1  0.78963960  0.58590047  0.76376692  1
  Cu  Cu25  1  0.28963960  0.41409953  0.26376692  1
  Cu  Cu26  1  0.72642424  0.91467765  0.86417067  1
  Cu  Cu27  1  0.22642424  0.08532235  0.36417067  1
  Cu  Cu28  1  0.71214943  0.58626964  0.96409219  1
  Cu  Cu29  1  0.21214943  0.41373036  0.46409219  1
  Cu  Cu30  1  0.77508325  0.91747670  0.06401070  1
  Cu  Cu31  1  0.27508325  0.08252330  0.56401070  1
  Cu  Cu32  1  0.78880794  0.58469261  0.16415681  1
  Cu  Cu33  1  0.28880794  0.41530739  0.66415681  1
  Cu  Cu34  1  0.71655152  0.91177304  0.26426740  1
  Cu  Cu35  1  0.21655152  0.08822696  0.76426740  1
  Cu  Cu36  1  0.77614685  0.58404005  0.36417647  1
  Cu  Cu37  1  0.27614685  0.41595995  0.86417647  1
  Cu  Cu38  1  0.78878686  0.91696461  0.46406491  1
  Cu  Cu39  1  0.28878686  0.08303539  0.96406491  1
  C  C40  1  0.77898445  0.91785530  0.54162281  1
  C  C41  1  0.27898445  0.08214470  0.04162281  1
  C  C42  1  0.78541764  0.58249682  0.64153747  1
  C  C43  1  0.28541764  0.41750318  0.14153747  1
  C  C44  1  0.72046254  0.92098351  0.74174571  1
  C  C45  1  0.22046254  0.07901649  0.24174571  1
  C  C46  1  0.77980925  0.58237846  0.84159240  1
  C  C47  1  0.27980925  0.41762154  0.34159240  1
  C  C48  1  0.78395343  0.91709226  0.94155196  1
  C  C49  1  0.28395343  0.08290774  0.44155196  1
  C  C50  1  0.71923191  0.58137571  0.04161153  1
  C  C51  1  0.21923191  0.41862429  0.54161153  1
  C  C52  1  0.71785620  0.91802605  0.14153801  1
  C  C53  1  0.21785620  0.08197395  0.64153801  1
  C  C54  1  0.78322861  0.58036346  0.24175000  1
  C  C55  1  0.28322861  0.41963654  0.74175000  1
  C  C56  1  0.72165027  0.91873033  0.34191724  1
  C  C57  1  0.22165027  0.08126967  0.84191724  1
  C  C58  1  0.71399312  0.58240018  0.44169010  1
  C  C59  1  0.21399312  0.41759982  0.94169010  1
  C  C60  1  0.76819581  0.91802796  0.50806024  1
  C  C61  1  0.26819581  0.08197204  0.00806024  1
  C  C62  1  0.77532336  0.59462127  0.60802736  1
  C  C63  1  0.27532336  0.40537873  0.10802736  1
  C  C64  1  0.74730039  0.90751985  0.70830892  1
  C  C65  1  0.24730039  0.09248015  0.20830892  1
  C  C66  1  0.77067487  0.58403667  0.80790334  1
  C  C67  1  0.27067487  0.41596333  0.30790334  1
  C  C68  1  0.77609861  0.90134925  0.90804292  1
  C  C69  1  0.27609861  0.09865075  0.40804292  1
  C  C70  1  0.75033211  0.58221772  0.00816963  1
  C  C71  1  0.25033211  0.41778228  0.50816963  1
  C  C72  1  0.73704789  0.90831437  0.10802630  1
  C  C73  1  0.23704789  0.09168563  0.60802630  1
  C  C74  1  0.76437374  0.59756316  0.20835193  1
  C  C75  1  0.26437374  0.40243684  0.70835193  1
  C  C76  1  0.75136677  0.91932676  0.30835703  1
  C  C77  1  0.25136677  0.08067324  0.80835703  1
  C  C78  1  0.74424324  0.59771771  0.40833308  1
  C  C79  1  0.24424324  0.40228229  0.90833308  1
  C  C80  1  0.68097677  0.78234383  0.55320494  1
  C  C81  1  0.18097677  0.21765617  0.05320494  1
  C  C82  1  0.69184603  0.71434039  0.65543771  1
  C  C83  1  0.19184603  0.28565961  0.15543771  1
  C  C84  1  0.80249246  0.78879516  0.75643516  1
  C  C85  1  0.30249246  0.21120484  0.25643516  1
  C  C86  1  0.68509426  0.71823530  0.85330970  1
  C  C87  1  0.18509426  0.28176470  0.35330970  1
  C  C88  1  0.68531544  0.78769803  0.95599118  1
  C  C89  1  0.18531544  0.21230197  0.45599118  1
  C  C90  1  0.80078961  0.71883552  0.05401415  1
  C  C91  1  0.30078961  0.28116448  0.55401415  1
  C  C92  1  0.80480364  0.78469654  0.15526662  1
  C  C93  1  0.30480364  0.21530346  0.65526662  1
  C  C94  1  0.69279154  0.70966998  0.25692973  1
  C  C95  1  0.19279154  0.29033002  0.75692973  1
  C  C96  1  0.80663879  0.78158313  0.35396582  1
  C  C97  1  0.30663879  0.21841687  0.85396582  1
  C  C98  1  0.79076987  0.71453017  0.45683265  1
  C  C99  1  0.29076987  0.28546983  0.95683265  1
  C  C100  1  0.04522838  0.93632151  0.55136306  1
  C  C101  1  0.54522838  0.06367849  0.05136306  1
  C  C102  1  0.05114320  0.55808351  0.65093138  1
  C  C103  1  0.55114320  0.44191649  0.15093138  1
  C  C104  1  0.87636057  0.04034560  0.75238333  1
  C  C105  1  0.37636057  0.95965440  0.25238333  1
  C  C106  1  0.04485634  0.56116266  0.85144421  1
  C  C107  1  0.54485634  0.43883734  0.35144421  1
  C  C108  1  0.04966900  0.94011099  0.95102520  1
  C  C109  1  0.54966900  0.05988901  0.45102520  1
  C  C110  1  0.87436089  0.46695646  0.05470954  1
  C  C111  1  0.37436089  0.53304354  0.55470954  1
  C  C112  1  0.87484704  0.03666212  0.15242108  1
  C  C113  1  0.37484704  0.96333788  0.65242108  1
  C  C114  1  0.05119211  0.55483133  0.24998377  1
  C  C115  1  0.55119211  0.44516867  0.74998377  1
  C  C116  1  0.87487356  0.03368524  0.35504474  1
  C  C117  1  0.37487356  0.96631476  0.85504474  1
  C  C118  1  0.87102617  0.46382897  0.45246861  1
  C  C119  1  0.37102617  0.53617103  0.95246861  1
  C  C120  1  0.62281823  0.03532234  0.55347780  1
  C  C121  1  0.12281823  0.96467766  0.05347780  1
  C  C122  1  0.62735054  0.46231449  0.65147171  1
  C  C123  1  0.12735054  0.53768551  0.15147171  1
  C  C124  1  0.45113914  0.94805996  0.74923507  1
  C  C125  1  0.95113914  0.05194004  0.24923507  1
  C  C126  1  0.62034017  0.46579813  0.85300075  1
  C  C127  1  0.12034017  0.53420187  0.35300075  1
  C  C128  1  0.62847700  0.03981099  0.95064062  1
  C  C129  1  0.12847700  0.96018901  0.45064062  1
  C  C130  1  0.44883976  0.55805968  0.04913158  1
  C  C131  1  0.94883976  0.44194032  0.54913158  1
  C  C132  1  0.44985586  0.94311143  0.15002036  1
  C  C133  1  0.94985586  0.05688857  0.65002036  1
  C  C134  1  0.62824899  0.45822907  0.25124583  1
  C  C135  1  0.12824899  0.54177093  0.75124583  1
  C  C136  1  0.45101995  0.94009525  0.34957027  1
  C  C137  1  0.95101995  0.05990475  0.84957027  1
  C  C138  1  0.44422110  0.55340372  0.44858496  1
  C  C139  1  0.94422110  0.44659628  0.94858496  1
