# generated using pymatgen
data_CuNiC5
_symmetry_space_group_name_H-M   'P 1'
_cell_length_a   4.82396900
_cell_length_b   9.60744900
_cell_length_c   13.34804400
_cell_angle_alpha   90.00000000
_cell_angle_beta   90.00000000
_cell_angle_gamma   90.00000000
_symmetry_Int_Tables_number   1
_chemical_formula_structural   CuNiC5
_chemical_formula_sum   'Cu8 Ni8 C40'
_cell_volume   618.62892969
_cell_formula_units_Z   8
loop_
 _symmetry_equiv_pos_site_id
 _symmetry_equiv_pos_as_xyz
  1  'x, y, z'
loop_
 _atom_site_type_symbol
 _atom_site_label
 _atom_site_symmetry_multiplicity
 _atom_site_fract_x
 _atom_site_fract_y
 _atom_site_fract_z
 _atom_site_occupancy
  C  C0  1  0.94956000  0.47473200  0.74713600  1
  C  C1  1  0.94956000  0.02526800  0.24713600  1
  C  C2  1  0.44349700  0.28496900  0.49950300  1
  C  C3  1  0.05044000  0.97473200  0.74713600  1
  C  C4  1  0.55650300  0.78496900  0.49950300  1
  C  C5  1  0.05044000  0.52526800  0.24713600  1
  C  C6  1  0.44349700  0.21503100  0.99950300  1
  C  C7  1  0.55650300  0.71503100  0.99950300  1
  Ni  Ni8  1  0.55946700  0.03089000  0.62381000  1
  Ni  Ni9  1  0.55946700  0.46911000  0.12381000  1
  Ni  Ni10  1  0.95471000  0.27451700  0.37279700  1
  Ni  Ni11  1  0.04529000  0.77451700  0.37279700  1
  Ni  Ni12  1  0.95471000  0.22548300  0.87279700  1
  Ni  Ni13  1  0.44053300  0.53089000  0.62381000  1
  Ni  Ni14  1  0.04529000  0.72548300  0.87279700  1
  Ni  Ni15  1  0.44053300  0.96911000  0.12381000  1
  Cu  Cu16  1  0.54700900  0.72262600  0.24908900  1
  Cu  Cu17  1  0.94328400  0.52646300  0.49769900  1
  Cu  Cu18  1  0.94328400  0.97353700  0.99769900  1
  Cu  Cu19  1  0.45299100  0.27737400  0.74908900  1
  Cu  Cu20  1  0.05671600  0.47353700  0.99769900  1
  Cu  Cu21  1  0.45299100  0.22262600  0.24908900  1
  Cu  Cu22  1  0.05671600  0.02646300  0.49769900  1
  Cu  Cu23  1  0.54700900  0.77737400  0.74908900  1
  C  C24  1  0.15744900  0.24702900  0.27669100  1
  C  C25  1  0.47802300  0.80902100  0.16097100  1
  C  C26  1  0.15744900  0.25297100  0.77669100  1
  C  C27  1  0.65108900  0.99869900  0.02955800  1
  C  C28  1  0.48806000  0.07264700  0.22009100  1
  C  C29  1  0.63442600  0.25116500  0.33671900  1
  C  C30  1  0.99056300  0.93454300  0.41103700  1
  C  C31  1  0.84255100  0.75297100  0.77669100  1
  C  C32  1  0.97621800  0.67389600  0.46821200  1
  C  C33  1  0.48806000  0.42735300  0.72009100  1
  C  C34  1  0.97621800  0.82610400  0.96821200  1
  C  C35  1  0.36557400  0.74883500  0.83671900  1
  C  C36  1  0.87234100  0.99605400  0.58368900  1
  C  C37  1  0.51194000  0.92735300  0.72009100  1
  C  C38  1  0.63442600  0.24883500  0.83671900  1
  C  C39  1  0.51194000  0.57264700  0.22009100  1
  C  C40  1  0.52197700  0.19097900  0.66097100  1
  C  C41  1  0.34891100  0.49869900  0.02955800  1
  C  C42  1  0.84255100  0.74702900  0.27669100  1
  C  C43  1  0.47802300  0.69097900  0.66097100  1
  C  C44  1  0.34891100  0.00130100  0.52955800  1
  C  C45  1  0.12765900  0.49605400  0.58368900  1
  C  C46  1  0.12765900  0.00394600  0.08369000  1
  C  C47  1  0.52197700  0.30902100  0.16097100  1
  C  C48  1  0.65108900  0.50130100  0.52955800  1
  C  C49  1  0.87234100  0.50394600  0.08369000  1
  C  C50  1  0.00943700  0.06545700  0.91103700  1
  C  C51  1  0.02378200  0.32610400  0.96821200  1
  C  C52  1  0.36557400  0.75116500  0.33671900  1
  C  C53  1  0.02378200  0.17389600  0.46821200  1
  C  C54  1  0.99056300  0.56545700  0.91103700  1
  C  C55  1  0.00943700  0.43454300  0.41103700  1
