# generated using pymatgen
data_Cu2NiC8
_symmetry_space_group_name_H-M   'P 1'
_cell_length_a   8.39939400
_cell_length_b   8.39939400
_cell_length_c   19.90874800
_cell_angle_alpha   90.00000000
_cell_angle_beta   90.00000000
_cell_angle_gamma   90.00000000
_symmetry_Int_Tables_number   1
_chemical_formula_structural   Cu2NiC8
_chemical_formula_sum   'Cu8 Ni4 C32'
_cell_volume   1404.55857921
_cell_formula_units_Z   4
loop_
 _symmetry_equiv_pos_site_id
 _symmetry_equiv_pos_as_xyz
  1  'x, y, z'
loop_
 _atom_site_type_symbol
 _atom_site_label
 _atom_site_symmetry_multiplicity
 _atom_site_fract_x
 _atom_site_fract_y
 _atom_site_fract_z
 _atom_site_occupancy
  C  C0  1  0.50000000  0.00000000  0.17677900  1
  C  C1  1  0.50000000  0.00000000  0.67677900  1
  C  C2  1  0.00000000  0.50000000  0.82322100  1
  C  C3  1  0.00000000  0.50000000  0.32322100  1
  C  C4  1  0.00000000  0.50000000  0.02564000  1
  C  C5  1  0.00000000  0.50000000  0.52564000  1
  C  C6  1  0.50000000  0.00000000  0.97436000  1
  C  C7  1  0.50000000  0.00000000  0.47436000  1
  Ni  Ni8  1  0.50000000  0.50000000  0.00000000  1
  Ni  Ni9  1  0.50000000  0.50000000  0.50000000  1
  Ni  Ni10  1  0.00000000  0.00000000  0.50000000  1
  Ni  Ni11  1  0.00000000  0.00000000  0.00000000  1
  Cu  Cu12  1  0.50000000  0.50000000  0.16171100  1
  Cu  Cu13  1  0.50000000  0.50000000  0.66171100  1
  Cu  Cu14  1  0.00000000  0.00000000  0.66171100  1
  Cu  Cu15  1  0.00000000  0.00000000  0.16171100  1
  Cu  Cu16  1  0.00000000  0.00000000  0.83828900  1
  Cu  Cu17  1  0.00000000  0.00000000  0.33828900  1
  Cu  Cu18  1  0.50000000  0.50000000  0.33828900  1
  Cu  Cu19  1  0.50000000  0.50000000  0.83828900  1
  C  C20  1  0.34515400  0.32391400  0.08145900  1
  C  C21  1  0.65484600  0.32391400  0.58145900  1
  C  C22  1  0.34515400  0.67608600  0.58145900  1
  C  C23  1  0.65484600  0.67608600  0.08145900  1
  C  C24  1  0.82391400  0.84515400  0.58145900  1
  C  C25  1  0.17608600  0.84515400  0.08145900  1
  C  C26  1  0.82391400  0.15484600  0.08145900  1
  C  C27  1  0.17608600  0.15484600  0.58145900  1
  C  C28  1  0.15484600  0.17608600  0.91854100  1
  C  C29  1  0.84515400  0.17608600  0.41854100  1
  C  C30  1  0.15484600  0.82391400  0.41854100  1
  C  C31  1  0.84515400  0.82391400  0.91854100  1
  C  C32  1  0.67608600  0.65484600  0.41854100  1
  C  C33  1  0.32391400  0.65484600  0.91854100  1
  C  C34  1  0.67608600  0.34515400  0.91854100  1
  C  C35  1  0.32391400  0.34515400  0.41854100  1
  C  C36  1  0.66245000  0.33755000  0.25000000  1
  C  C37  1  0.33755000  0.33755000  0.75000000  1
  C  C38  1  0.66245000  0.66245000  0.75000000  1
  C  C39  1  0.33755000  0.66245000  0.25000000  1
  C  C40  1  0.83755000  0.16245000  0.75000000  1
  C  C41  1  0.16245000  0.16245000  0.25000000  1
  C  C42  1  0.83755000  0.83755000  0.25000000  1
  C  C43  1  0.16245000  0.83755000  0.75000000  1
