# generated using pymatgen
data_Cu2NiC3
_symmetry_space_group_name_H-M   'P 1'
_cell_length_a   6.00997050
_cell_length_b   6.27528590
_cell_length_c   16.54923600
_cell_angle_alpha   90.00000000
_cell_angle_beta   90.00000000
_cell_angle_gamma   93.95764428
_symmetry_Int_Tables_number   1
_chemical_formula_structural   Cu2NiC3
_chemical_formula_sum   'Cu8 Ni4 C12'
_cell_volume   622.65420786
_cell_formula_units_Z   4
loop_
 _symmetry_equiv_pos_site_id
 _symmetry_equiv_pos_as_xyz
  1  'x, y, z'
loop_
 _atom_site_type_symbol
 _atom_site_label
 _atom_site_symmetry_multiplicity
 _atom_site_fract_x
 _atom_site_fract_y
 _atom_site_fract_z
 _atom_site_occupancy
  Ni  Ni0  1  0.30348700  0.22308800  0.56541300  1
  Ni  Ni1  1  0.19651300  0.77691200  0.06541300  1
  Ni  Ni2  1  0.69651300  0.77691200  0.43458700  1
  Ni  Ni3  1  0.80348700  0.22308800  0.93458700  1
  Cu  Cu4  1  0.19566200  0.64094000  0.55878100  1
  Cu  Cu5  1  0.30433800  0.35906000  0.05878100  1
  Cu  Cu6  1  0.80433800  0.35906000  0.44121900  1
  Cu  Cu7  1  0.69566200  0.64094000  0.94121900  1
  Cu  Cu8  1  0.53059100  0.62078400  0.67894300  1
  Cu  Cu9  1  0.96940900  0.37921600  0.17894300  1
  Cu  Cu10  1  0.46940900  0.37921600  0.32105700  1
  Cu  Cu11  1  0.03059100  0.62078400  0.82105700  1
  C  C12  1  0.36191100  0.75958200  0.62781400  1
  C  C13  1  0.13808900  0.24041800  0.12781400  1
  C  C14  1  0.63808900  0.24041800  0.37218600  1
  C  C15  1  0.86191100  0.75958200  0.87218600  1
  C  C16  1  0.53143300  0.38267900  0.66049600  1
  C  C17  1  0.96856700  0.61732100  0.16049600  1
  C  C18  1  0.46856700  0.61732100  0.33950400  1
  C  C19  1  0.03143300  0.38267900  0.83950400  1
  C  C20  1  0.01663500  0.13135500  0.66249900  1
  C  C21  1  0.48336500  0.86864500  0.16249900  1
  C  C22  1  0.98336500  0.86864500  0.33750100  1
  C  C23  1  0.51663500  0.13135500  0.83750100  1
