# generated using pymatgen
data_Cu2NiC11
_symmetry_space_group_name_H-M   'P 1'
_cell_length_a   6.31574900
_cell_length_b   7.33036500
_cell_length_c   14.51696000
_cell_angle_alpha   90.00000000
_cell_angle_beta   90.00000000
_cell_angle_gamma   90.00000000
_symmetry_Int_Tables_number   1
_chemical_formula_structural   Cu2NiC11
_chemical_formula_sum   'Cu8 Ni4 C44'
_cell_volume   672.08800137
_cell_formula_units_Z   4
loop_
 _symmetry_equiv_pos_site_id
 _symmetry_equiv_pos_as_xyz
  1  'x, y, z'
loop_
 _atom_site_type_symbol
 _atom_site_label
 _atom_site_symmetry_multiplicity
 _atom_site_fract_x
 _atom_site_fract_y
 _atom_site_fract_z
 _atom_site_occupancy
  C  C0  1  0.25000000  0.85280200  0.88264700  1
  C  C1  1  0.75000000  0.14719800  0.11735300  1
  C  C2  1  0.75000000  0.35280200  0.61735300  1
  C  C3  1  0.25000000  0.64719800  0.38264700  1
  C  C4  1  0.00000000  0.50000000  0.00000000  1
  C  C5  1  0.00000000  0.00000000  0.50000000  1
  C  C6  1  0.50000000  0.00000000  0.50000000  1
  C  C7  1  0.50000000  0.50000000  0.00000000  1
  Ni  Ni8  1  0.25000000  0.41493700  0.77474900  1
  Ni  Ni9  1  0.25000000  0.08506300  0.27474900  1
  Ni  Ni10  1  0.75000000  0.91493700  0.72525100  1
  Ni  Ni11  1  0.75000000  0.58506300  0.22525100  1
  Cu  Cu12  1  0.75000000  0.86729400  0.92969500  1
  Cu  Cu13  1  0.25000000  0.13270600  0.07030500  1
  Cu  Cu14  1  0.25000000  0.36729400  0.57030500  1
  Cu  Cu15  1  0.75000000  0.63270600  0.42969500  1
  Cu  Cu16  1  0.25000000  0.88456700  0.70312900  1
  Cu  Cu17  1  0.25000000  0.61543300  0.20312900  1
  Cu  Cu18  1  0.75000000  0.38456700  0.79687100  1
  Cu  Cu19  1  0.75000000  0.11543300  0.29687100  1
  C  C20  1  0.54088300  0.11046600  0.35369000  1
  C  C21  1  0.04088300  0.88953400  0.64631000  1
  C  C22  1  0.45911700  0.61046600  0.14631000  1
  C  C23  1  0.95911700  0.38953400  0.85369000  1
  C  C24  1  0.45911700  0.88953400  0.64631000  1
  C  C25  1  0.95911700  0.11046600  0.35369000  1
  C  C26  1  0.54088300  0.38953400  0.85369000  1
  C  C27  1  0.04088300  0.61046600  0.14631000  1
  C  C28  1  0.75000000  0.82395200  0.47722800  1
  C  C29  1  0.25000000  0.17604800  0.52277200  1
  C  C30  1  0.25000000  0.32395200  0.02277200  1
  C  C31  1  0.75000000  0.67604800  0.97722800  1
  C  C32  1  0.25000000  0.63400800  0.95168600  1
  C  C33  1  0.75000000  0.36599200  0.04831400  1
  C  C34  1  0.75000000  0.13400800  0.54831400  1
  C  C35  1  0.25000000  0.86599200  0.45168600  1
  C  C36  1  0.25000000  0.70586700  0.76545400  1
  C  C37  1  0.75000000  0.29413300  0.23454600  1
  C  C38  1  0.75000000  0.20586700  0.73454600  1
  C  C39  1  0.25000000  0.79413300  0.26545400  1
  C  C40  1  0.93598400  0.62170300  0.36075200  1
  C  C41  1  0.43598400  0.37829700  0.63924800  1
  C  C42  1  0.06401600  0.12170300  0.13924800  1
  C  C43  1  0.56401600  0.87829700  0.86075200  1
  C  C44  1  0.06401600  0.37829700  0.63924800  1
  C  C45  1  0.56401600  0.62170300  0.36075200  1
  C  C46  1  0.93598400  0.87829700  0.86075200  1
  C  C47  1  0.43598400  0.12170300  0.13924800  1
  C  C48  1  0.25000000  0.98494100  0.99783400  1
  C  C49  1  0.75000000  0.53917100  0.72323600  1
  C  C50  1  0.75000000  0.96082900  0.22323600  1
  C  C51  1  0.25000000  0.03917100  0.77676400  1
  C  C52  1  0.25000000  0.51505900  0.49783400  1
  C  C53  1  0.75000000  0.48494100  0.50216600  1
  C  C54  1  0.75000000  0.01505900  0.00216600  1
  C  C55  1  0.25000000  0.46082900  0.27676400  1
