# generated using pymatgen
data_Cu(NiC5)2
_symmetry_space_group_name_H-M   'P 1'
_cell_length_a   10.15339134
_cell_length_b   10.15339134
_cell_length_c   5.21936116
_cell_angle_alpha   89.01614277
_cell_angle_beta   89.01614277
_cell_angle_gamma   34.82431537
_symmetry_Int_Tables_number   1
_chemical_formula_structural   Cu(NiC5)2
_chemical_formula_sum   'Cu2 Ni4 C20'
_cell_volume   307.22215499
_cell_formula_units_Z   2
loop_
 _symmetry_equiv_pos_site_id
 _symmetry_equiv_pos_as_xyz
  1  'x, y, z'
loop_
 _atom_site_type_symbol
 _atom_site_label
 _atom_site_symmetry_multiplicity
 _atom_site_fract_x
 _atom_site_fract_y
 _atom_site_fract_z
 _atom_site_occupancy
  C  C0  1  0.86908300  0.58227400  0.75377000  1
  C  C1  1  0.41327800  0.12646800  0.74783100  1
  C  C2  1  0.12646800  0.41327800  0.24783100  1
  C  C3  1  0.58227400  0.86908300  0.25377000  1
  Ni  Ni4  1  0.04271900  0.71687300  0.74203200  1
  Ni  Ni5  1  0.28326900  0.94772100  0.76249400  1
  Ni  Ni6  1  0.94772100  0.28326900  0.26249400  1
  Ni  Ni7  1  0.71687300  0.04271900  0.24203200  1
  Cu  Cu8  1  0.65059100  0.34390900  0.74534500  1
  Cu  Cu9  1  0.34390900  0.65059100  0.24534500  1
  C  C10  1  0.03982600  0.81009200  0.07355200  1
  C  C11  1  0.17972900  0.96466000  0.43246800  1
  C  C12  1  0.96466000  0.17972900  0.93246800  1
  C  C13  1  0.81009200  0.03982600  0.57355200  1
  C  C14  1  0.29563800  0.58126000  0.57410600  1
  C  C15  1  0.42872900  0.68186000  0.91253600  1
  C  C16  1  0.68186000  0.42872900  0.41253600  1
  C  C17  1  0.58126000  0.29563800  0.07410600  1
  C  C18  1  0.91234300  0.70783800  0.45373000  1
  C  C19  1  0.29379200  0.07878600  0.04548200  1
  C  C20  1  0.45054700  0.16133400  0.37960400  1
  C  C21  1  0.83599500  0.54423800  0.12106400  1
  C  C22  1  0.54423800  0.83599500  0.62106400  1
  C  C23  1  0.16133400  0.45054700  0.87960400  1
  C  C24  1  0.70783800  0.91234300  0.95373000  1
  C  C25  1  0.07878600  0.29379200  0.54548200  1
