# generated using pymatgen
data_Cu(Ni2C5)2
_symmetry_space_group_name_H-M   'P 1'
_cell_length_a   7.41671300
_cell_length_b   7.41671300
_cell_length_c   16.27354000
_cell_angle_alpha   90.00000000
_cell_angle_beta   90.00000000
_cell_angle_gamma   90.00000000
_symmetry_Int_Tables_number   1
_chemical_formula_structural   Cu(Ni2C5)2
_chemical_formula_sum   'Cu4 Ni16 C40'
_cell_volume   895.16889517
_cell_formula_units_Z   4
loop_
 _symmetry_equiv_pos_site_id
 _symmetry_equiv_pos_as_xyz
  1  'x, y, z'
loop_
 _atom_site_type_symbol
 _atom_site_label
 _atom_site_symmetry_multiplicity
 _atom_site_fract_x
 _atom_site_fract_y
 _atom_site_fract_z
 _atom_site_occupancy
  Ni  Ni0  1  0.17378400  0.25619300  0.65379500  1
  Ni  Ni1  1  0.82621600  0.74380700  0.65379500  1
  Ni  Ni2  1  0.25619300  0.17378400  0.84620500  1
  Ni  Ni3  1  0.75619300  0.32621600  0.65379500  1
  Ni  Ni4  1  0.24380700  0.67378400  0.65379500  1
  Ni  Ni5  1  0.32621600  0.75619300  0.84620500  1
  Ni  Ni6  1  0.67378400  0.24380700  0.84620500  1
  Ni  Ni7  1  0.74380700  0.82621600  0.84620500  1
  Ni  Ni8  1  0.32621600  0.24380700  0.34620500  1
  Ni  Ni9  1  0.67378400  0.75619300  0.34620500  1
  Ni  Ni10  1  0.24380700  0.32621600  0.15379500  1
  Ni  Ni11  1  0.74380700  0.17378400  0.34620500  1
  Ni  Ni12  1  0.25619300  0.82621600  0.34620500  1
  Ni  Ni13  1  0.17378400  0.74380700  0.15379500  1
  Ni  Ni14  1  0.82621600  0.25619300  0.15379500  1
  Ni  Ni15  1  0.75619300  0.67378400  0.15379500  1
  Cu  Cu16  1  0.50000000  0.00000000  0.56015200  1
  Cu  Cu17  1  0.00000000  0.50000000  0.93984800  1
  Cu  Cu18  1  0.00000000  0.50000000  0.43984800  1
  Cu  Cu19  1  0.50000000  0.00000000  0.06015200  1
  C  C20  1  0.26354900  0.09968400  0.59682200  1
  C  C21  1  0.73645100  0.90031600  0.59682200  1
  C  C22  1  0.09968400  0.26354900  0.90317800  1
  C  C23  1  0.59968400  0.23645100  0.59682200  1
  C  C24  1  0.40031600  0.76354900  0.59682200  1
  C  C25  1  0.23645100  0.59968400  0.90317800  1
  C  C26  1  0.76354900  0.40031600  0.90317800  1
  C  C27  1  0.90031600  0.73645100  0.90317800  1
  C  C28  1  0.23645100  0.40031600  0.40317800  1
  C  C29  1  0.76354900  0.59968400  0.40317800  1
  C  C30  1  0.40031600  0.23645100  0.09682200  1
  C  C31  1  0.90031600  0.26354900  0.40317800  1
  C  C32  1  0.09968400  0.73645100  0.40317800  1
  C  C33  1  0.26354900  0.90031600  0.09682200  1
  C  C34  1  0.73645100  0.09968400  0.09682200  1
  C  C35  1  0.25198600  0.04174300  0.36646000  1
  C  C36  1  0.59968400  0.76354900  0.09682200  1
  C  C37  1  0.75198600  0.54174300  0.63354000  1
  C  C38  1  0.45825700  0.24801400  0.86646000  1
  C  C39  1  0.95825700  0.25198600  0.63354000  1
  C  C40  1  0.04174300  0.74801400  0.63354000  1
  C  C41  1  0.25198600  0.95825700  0.86646000  1
  C  C42  1  0.74801400  0.04174300  0.86646000  1
  C  C43  1  0.54174300  0.75198600  0.86646000  1
  C  C44  1  0.71027500  0.71027500  0.25000000  1
  C  C45  1  0.78972500  0.21027500  0.25000000  1
  C  C46  1  0.21027500  0.78972500  0.25000000  1
  C  C47  1  0.28972500  0.28972500  0.25000000  1
  C  C48  1  0.78972500  0.78972500  0.75000000  1
  C  C49  1  0.71027500  0.28972500  0.75000000  1
  C  C50  1  0.28972500  0.71027500  0.75000000  1
  C  C51  1  0.21027500  0.21027500  0.75000000  1
  C  C52  1  0.95825700  0.74801400  0.13354000  1
  C  C53  1  0.75198600  0.45825700  0.13354000  1
  C  C54  1  0.24801400  0.54174300  0.13354000  1
  C  C55  1  0.45825700  0.75198600  0.36646000  1
  C  C56  1  0.54174300  0.24801400  0.36646000  1
  C  C57  1  0.04174300  0.25198600  0.13354000  1
  C  C58  1  0.74801400  0.95825700  0.36646000  1
  C  C59  1  0.24801400  0.45825700  0.63354000  1
