# generated using pymatgen
data_Cu28Ni8C3
_symmetry_space_group_name_H-M   'P 1'
_cell_length_a   13.24635700
_cell_length_b   7.09495100
_cell_length_c   13.59632121
_cell_angle_alpha   65.86382537
_cell_angle_beta   90.00000000
_cell_angle_gamma   90.00000000
_symmetry_Int_Tables_number   1
_chemical_formula_structural   Cu28Ni8C3
_chemical_formula_sum   'Cu56 Ni16 C6'
_cell_volume   1166.10163739
_cell_formula_units_Z   2
loop_
 _symmetry_equiv_pos_site_id
 _symmetry_equiv_pos_as_xyz
  1  'x, y, z'
loop_
 _atom_site_type_symbol
 _atom_site_label
 _atom_site_symmetry_multiplicity
 _atom_site_fract_x
 _atom_site_fract_y
 _atom_site_fract_z
 _atom_site_occupancy
  C  C0  1  0.86497300  0.14176300  0.15902400  1
  C  C1  1  0.63502700  0.14176300  0.65902400  1
  C  C2  1  0.13502700  0.85823700  0.84097600  1
  C  C3  1  0.36497300  0.85823700  0.34097600  1
  C  C4  1  0.50000000  0.50000000  0.00000000  1
  C  C5  1  0.00000000  0.50000000  0.50000000  1
  Ni  Ni6  1  0.64907000  0.21609200  0.94097100  1
  Ni  Ni7  1  0.85093000  0.21609200  0.44097100  1
  Ni  Ni8  1  0.35093000  0.78390800  0.05902900  1
  Ni  Ni9  1  0.14907000  0.78390800  0.55902900  1
  Ni  Ni10  1  0.97138800  0.68301400  0.10521100  1
  Ni  Ni11  1  0.52861200  0.68301400  0.60521100  1
  Ni  Ni12  1  0.02861200  0.31698600  0.89478900  1
  Ni  Ni13  1  0.47138800  0.31698600  0.39478900  1
  Ni  Ni14  1  0.72006500  0.62125600  0.91102200  1
  Ni  Ni15  1  0.77993500  0.62125600  0.41102200  1
  Ni  Ni16  1  0.27993500  0.37874400  0.08897800  1
  Ni  Ni17  1  0.22006500  0.37874400  0.58897800  1
  Ni  Ni18  1  0.58478500  0.23599500  0.22965800  1
  Ni  Ni19  1  0.91521500  0.23599500  0.72965800  1
  Ni  Ni20  1  0.41521500  0.76400500  0.77034200  1
  Ni  Ni21  1  0.08478500  0.76400500  0.27034200  1
  Cu  Cu22  1  0.61836300  0.13415600  0.86555100  1
  Cu  Cu23  1  0.88163700  0.13415600  0.36555100  1
  Cu  Cu24  1  0.38163700  0.86584400  0.13444900  1
  Cu  Cu25  1  0.11836300  0.86584400  0.63444900  1
  Cu  Cu26  1  0.58330700  0.28554400  0.33251800  1
  Cu  Cu27  1  0.91669300  0.28554400  0.83251800  1
  Cu  Cu28  1  0.41669300  0.71445600  0.66748200  1
  Cu  Cu29  1  0.08330700  0.71445600  0.16748200  1
  Cu  Cu30  1  0.53357700  0.04404400  0.25041800  1
  Cu  Cu31  1  0.96642300  0.04404400  0.75041800  1
  Cu  Cu32  1  0.46642300  0.95595600  0.74958200  1
  Cu  Cu33  1  0.03357700  0.95595600  0.24958200  1
  Cu  Cu34  1  0.55913600  0.25171900  0.00147900  1
  Cu  Cu35  1  0.94086400  0.25171900  0.50147900  1
  Cu  Cu36  1  0.44086400  0.74828100  0.99852100  1
  Cu  Cu37  1  0.05913600  0.74828100  0.49852100  1
  Cu  Cu38  1  0.89683600  0.80663500  0.12970100  1
  Cu  Cu39  1  0.60316400  0.80663500  0.62970100  1
  Cu  Cu40  1  0.10316400  0.19336500  0.87029900  1
  Cu  Cu41  1  0.39683600  0.19336500  0.37029900  1
  Cu  Cu42  1  0.68595600  0.45172600  0.86207600  1
  Cu  Cu43  1  0.81404400  0.45172600  0.36207600  1
  Cu  Cu44  1  0.31404400  0.54827400  0.13792400  1
  Cu  Cu45  1  0.18595600  0.54827400  0.63792400  1
  Cu  Cu46  1  0.52485200  0.42027800  0.14894600  1
  Cu  Cu47  1  0.97514800  0.42027800  0.64894600  1
  Cu  Cu48  1  0.47514800  0.57972200  0.85105400  1
  Cu  Cu49  1  0.02485200  0.57972200  0.35105400  1
  Cu  Cu50  1  0.72890800  0.11354000  0.01527100  1
  Cu  Cu51  1  0.77109200  0.11354000  0.51527100  1
  Cu  Cu52  1  0.27109200  0.88646000  0.98472900  1
  Cu  Cu53  1  0.22890800  0.88646000  0.48472900  1
  Cu  Cu54  1  0.62612300  0.64295300  0.97032400  1
  Cu  Cu55  1  0.87387700  0.64295300  0.47032400  1
  Cu  Cu56  1  0.37387700  0.35704700  0.02967600  1
  Cu  Cu57  1  0.12612300  0.35704700  0.52967600  1
  Cu  Cu58  1  0.73699500  0.80480900  0.81551200  1
  Cu  Cu59  1  0.76300500  0.80480900  0.31551200  1
  Cu  Cu60  1  0.26300500  0.19519100  0.18448800  1
  Cu  Cu61  1  0.23699500  0.19519100  0.68448800  1
  Cu  Cu62  1  0.80179500  0.53303600  0.98477300  1
  Cu  Cu63  1  0.69820500  0.53303600  0.48477300  1
  Cu  Cu64  1  0.19820500  0.46696400  0.01522700  1
  Cu  Cu65  1  0.30179500  0.46696400  0.51522700  1
  Cu  Cu66  1  0.95599100  0.46235600  0.15770900  1
  Cu  Cu67  1  0.54400900  0.46235600  0.65770900  1
  Cu  Cu68  1  0.04400900  0.53764400  0.84229100  1
  Cu  Cu69  1  0.45599100  0.53764400  0.34229100  1
  Cu  Cu70  1  0.00708300  0.76260000  0.99546800  1
  Cu  Cu71  1  0.49291700  0.76260000  0.49546800  1
  Cu  Cu72  1  0.99291700  0.23740000  0.00453200  1
  Cu  Cu73  1  0.50708300  0.23740000  0.50453200  1
  Cu  Cu74  1  0.68984700  0.24962600  0.20014900  1
  Cu  Cu75  1  0.81015300  0.24962600  0.70014900  1
  Cu  Cu76  1  0.31015300  0.75037400  0.79985100  1
  Cu  Cu77  1  0.18984700  0.75037400  0.29985100  1
