# generated using pymatgen
data_Cu(NiC5)2
_symmetry_space_group_name_H-M   'P 1'
_cell_length_a   11.53624259
_cell_length_b   11.53624259
_cell_length_c   11.53624259
_cell_angle_alpha   144.86441060
_cell_angle_beta   115.78185839
_cell_angle_gamma   75.36038388
_symmetry_Int_Tables_number   1
_chemical_formula_structural   Cu(NiC5)2
_chemical_formula_sum   'Cu4 Ni8 C40'
_cell_volume   779.77006268
_cell_formula_units_Z   4
loop_
 _symmetry_equiv_pos_site_id
 _symmetry_equiv_pos_as_xyz
  1  'x, y, z'
loop_
 _atom_site_type_symbol
 _atom_site_label
 _atom_site_symmetry_multiplicity
 _atom_site_fract_x
 _atom_site_fract_y
 _atom_site_fract_z
 _atom_site_occupancy
  Ni  Ni0  1  0.90562000  0.85761100  0.06931800  1
  Ni  Ni1  1  0.28829300  0.83630200  0.43068200  1
  Ni  Ni2  1  0.21170700  0.64238900  0.54800900  1
  Ni  Ni3  1  0.59438000  0.66369800  0.95199100  1
  Ni  Ni4  1  0.09438000  0.14238900  0.93068200  1
  Ni  Ni5  1  0.71170700  0.16369800  0.56931800  1
  Ni  Ni6  1  0.78829300  0.35761100  0.45199100  1
  Ni  Ni7  1  0.40562000  0.33630200  0.04800900  1
  Cu  Cu8  1  0.17711900  0.75000000  0.92711900  1
  Cu  Cu9  1  0.32288100  0.25000000  0.57288100  1
  Cu  Cu10  1  0.82288100  0.25000000  0.07288100  1
  Cu  Cu11  1  0.67711900  0.75000000  0.42711900  1
  C  C12  1  0.56963500  0.25000000  0.81963500  1
  C  C13  1  0.93036500  0.75000000  0.68036500  1
  C  C14  1  0.43036500  0.75000000  0.18036500  1
  C  C15  1  0.06963500  0.25000000  0.31963500  1
  C  C16  1  0.92805900  0.67805900  0.25000000  1
  C  C17  1  0.57194100  0.82194100  0.75000000  1
  C  C18  1  0.07194100  0.32194100  0.75000000  1
  C  C19  1  0.42805900  0.17805900  0.25000000  1
  C  C20  1  0.42658600  0.16746200  0.72938600  1
  C  C21  1  0.93807600  0.69720000  0.77061400  1
  C  C22  1  0.56192400  0.33253800  0.75912400  1
  C  C23  1  0.07341400  0.80280000  0.74087600  1
  C  C24  1  0.57341400  0.83253800  0.27061400  1
  C  C25  1  0.06192400  0.30280000  0.22938600  1
  C  C26  1  0.43807600  0.66746200  0.24087600  1
  C  C27  1  0.92658600  0.19720000  0.25912400  1
  C  C28  1  0.64037000  0.41551500  0.07265300  1
  C  C29  1  0.84286200  0.56771800  0.42734700  1
  C  C30  1  0.65713800  0.08448500  0.72485500  1
  C  C31  1  0.85963000  0.93228200  0.77514500  1
  C  C32  1  0.35963000  0.58448500  0.92734700  1
  C  C33  1  0.15713800  0.43228200  0.57265300  1
  C  C34  1  0.34286200  0.91551500  0.27514500  1
  C  C35  1  0.14037000  0.06771800  0.22485500  1
  C  C36  1  0.89638600  0.41017600  0.06583200  1
  C  C37  1  0.84434400  0.83055400  0.43416800  1
  C  C38  1  0.65565600  0.08982400  0.98621000  1
  C  C39  1  0.60361400  0.66944600  0.51379000  1
  C  C40  1  0.10361400  0.58982400  0.93416800  1
  C  C41  1  0.15565600  0.16944600  0.56583200  1
  C  C42  1  0.34434400  0.91017600  0.01379000  1
  C  C43  1  0.39638600  0.33055400  0.48621000  1
  C  C44  1  0.10289900  0.77682400  0.41331100  1
  C  C45  1  0.86351200  0.68958800  0.08668900  1
  C  C46  1  0.63648800  0.72317600  0.82607600  1
  C  C47  1  0.39710100  0.81041200  0.67392400  1
  C  C48  1  0.89710100  0.22317600  0.58668900  1
  C  C49  1  0.13648800  0.31041200  0.91331100  1
  C  C50  1  0.36351200  0.27682400  0.17392400  1
  C  C51  1  0.60289900  0.18958800  0.32607600  1
