# generated using pymatgen
data_CuNiC61
_symmetry_space_group_name_H-M   'P 1'
_cell_length_a   8.63476900
_cell_length_b   8.67226300
_cell_length_c   8.68838800
_cell_angle_alpha   90.00000000
_cell_angle_beta   90.00000000
_cell_angle_gamma   90.00000000
_symmetry_Int_Tables_number   1
_chemical_formula_structural   CuNiC61
_chemical_formula_sum   'Cu1 Ni1 C61'
_cell_volume   650.61245184
_cell_formula_units_Z   1
loop_
 _symmetry_equiv_pos_site_id
 _symmetry_equiv_pos_as_xyz
  1  'x, y, z'
loop_
 _atom_site_type_symbol
 _atom_site_label
 _atom_site_symmetry_multiplicity
 _atom_site_fract_x
 _atom_site_fract_y
 _atom_site_fract_z
 _atom_site_occupancy
  Ni  Ni0  1  0.01264100  0.50000000  0.00000000  1
  Cu  Cu1  1  0.00906900  0.00000000  0.00000000  1
  C  C2  1  0.00550100  0.00000000  0.50000000  1
  C  C3  1  0.00262900  0.50000000  0.50000000  1
  C  C4  1  0.48489400  0.00000000  0.00000000  1
  C  C5  1  0.50369500  0.50000000  0.00000000  1
  C  C6  1  0.49716700  0.00000000  0.50000000  1
  C  C7  1  0.49905200  0.50000000  0.50000000  1
  C  C8  1  0.99665100  0.75454400  0.74941200  1
  C  C9  1  0.99665100  0.24545600  0.74941200  1
  C  C10  1  0.99665100  0.75454400  0.25058800  1
  C  C11  1  0.99665100  0.24545600  0.25058800  1
  C  C12  1  0.50125300  0.75117200  0.74977400  1
  C  C13  1  0.50125300  0.24882800  0.74977400  1
  C  C14  1  0.50125300  0.75117200  0.25022600  1
  C  C15  1  0.50125300  0.24882800  0.25022600  1
  C  C16  1  0.74937300  0.72807000  0.00000000  1
  C  C17  1  0.74937300  0.27193000  0.00000000  1
  C  C18  1  0.75044100  0.74665100  0.50000000  1
  C  C19  1  0.75044100  0.25334900  0.50000000  1
  C  C20  1  0.25244500  0.75381200  0.00000000  1
  C  C21  1  0.25244500  0.24618800  0.00000000  1
  C  C22  1  0.24855300  0.74949200  0.50000000  1
  C  C23  1  0.24855300  0.25050800  0.50000000  1
  C  C24  1  0.75400200  0.00000000  0.72675700  1
  C  C25  1  0.74978800  0.50000000  0.74257300  1
  C  C26  1  0.75400200  0.00000000  0.27324300  1
  C  C27  1  0.74978800  0.50000000  0.25742700  1
  C  C28  1  0.24477100  0.00000000  0.75126700  1
  C  C29  1  0.25378800  0.50000000  0.74710800  1
  C  C30  1  0.24477100  0.00000000  0.24873300  1
  C  C31  1  0.25378800  0.50000000  0.25289200  1
  C  C32  1  0.72473700  0.50000000  0.00000000  1
  C  C33  1  0.74399800  0.00000000  0.50000000  1
  C  C34  1  0.74245300  0.50000000  0.50000000  1
  C  C35  1  0.26061800  0.00000000  0.00000000  1
  C  C36  1  0.28641300  0.50000000  0.00000000  1
  C  C37  1  0.25506500  0.00000000  0.50000000  1
  C  C38  1  0.25618900  0.50000000  0.50000000  1
  C  C39  1  0.74776400  0.75441800  0.75053600  1
  C  C40  1  0.74776400  0.24558200  0.75053600  1
  C  C41  1  0.74776400  0.75441800  0.24946400  1
  C  C42  1  0.74776400  0.24558200  0.24946400  1
  C  C43  1  0.24964100  0.75092000  0.75404900  1
  C  C44  1  0.24964100  0.24908000  0.75404900  1
  C  C45  1  0.24964100  0.75092000  0.24595100  1
  C  C46  1  0.24964100  0.24908000  0.24595100  1
  C  C47  1  0.97634200  0.77110800  0.00000000  1
  C  C48  1  0.97634200  0.22889200  0.00000000  1
  C  C49  1  0.99961400  0.75425600  0.50000000  1
  C  C50  1  0.99961400  0.24574400  0.50000000  1
  C  C51  1  0.51097300  0.76287900  0.00000000  1
  C  C52  1  0.51097300  0.23712100  0.00000000  1
  C  C53  1  0.49896600  0.75293500  0.50000000  1
  C  C54  1  0.49896600  0.24706500  0.50000000  1
  C  C55  1  0.99660200  0.00000000  0.73363900  1
  C  C56  1  0.99627700  0.50000000  0.72101500  1
  C  C57  1  0.99660200  0.00000000  0.26636100  1
  C  C58  1  0.99627700  0.50000000  0.27898500  1
  C  C59  1  0.50795300  0.00000000  0.75431300  1
  C  C60  1  0.50243100  0.50000000  0.74514800  1
  C  C61  1  0.50795300  0.00000000  0.24568700  1
  C  C62  1  0.50243100  0.50000000  0.25485200  1
