# generated using pymatgen
data_CuNi2C
_symmetry_space_group_name_H-M   'P 1'
_cell_length_a   6.73228400
_cell_length_b   9.88368247
_cell_length_c   11.44593154
_cell_angle_alpha   83.34263474
_cell_angle_beta   80.20335412
_cell_angle_gamma   84.81921264
_symmetry_Int_Tables_number   1
_chemical_formula_structural   CuNi2C
_chemical_formula_sum   'Cu20 Ni40 C20'
_cell_volume   743.50285575
_cell_formula_units_Z   20
loop_
 _symmetry_equiv_pos_site_id
 _symmetry_equiv_pos_as_xyz
  1  'x, y, z'
loop_
 _atom_site_type_symbol
 _atom_site_label
 _atom_site_symmetry_multiplicity
 _atom_site_fract_x
 _atom_site_fract_y
 _atom_site_fract_z
 _atom_site_occupancy
  C  C0  1  0.84973300  0.64999200  0.94965800  1
  C  C1  1  0.04981200  0.45008400  0.35020600  1
  C  C2  1  0.25012300  0.24977600  0.74986100  1
  C  C3  1  0.45001200  0.04986700  0.15028100  1
  C  C4  1  0.91193600  0.10517600  0.79797500  1
  C  C5  1  0.32079700  0.70820400  0.59808100  1
  C  C6  1  0.71176600  0.30458900  0.39790200  1
  C  C7  1  0.11176700  0.90533400  0.19863400  1
  C  C8  1  0.51202000  0.50498500  0.99794000  1
  C  C9  1  0.58832300  0.39457700  0.70175900  1
  C  C10  1  0.98007400  0.99157300  0.50293900  1
  C  C11  1  0.38900000  0.59460900  0.30179000  1
  C  C12  1  0.78826000  0.19455000  0.10160100  1
  C  C13  1  0.18744400  0.79605400  0.90153200  1
  C  C14  1  0.40324700  0.60179400  0.79801200  1
  C  C15  1  0.79833700  0.19672300  0.60024400  1
  C  C16  1  0.19813100  0.80155900  0.40211500  1
  C  C17  1  0.60021600  0.39970700  0.19974300  1
  C  C18  1  0.99962800  0.00022800  0.00000400  1
  C  C19  1  0.65080400  0.85044900  0.55004500  1
  Ni  Ni20  1  0.78798900  0.43542000  0.82593900  1
  Ni  Ni21  1  0.18742700  0.03571000  0.62533600  1
  Ni  Ni22  1  0.58869500  0.64053300  0.42837900  1
  Ni  Ni23  1  0.98791700  0.23519700  0.22580200  1
  Ni  Ni24  1  0.38873000  0.83552200  0.02612000  1
  Ni  Ni25  1  0.92487600  0.29853300  0.92926500  1
  Ni  Ni26  1  0.33256100  0.89866100  0.72622400  1
  Ni  Ni27  1  0.72508200  0.49728700  0.52887500  1
  Ni  Ni28  1  0.12408700  0.09812700  0.33028200  1
  Ni  Ni29  1  0.52523900  0.69885900  0.12902400  1
  Ni  Ni30  1  0.39478800  0.38114800  0.45436000  1
  Ni  Ni31  1  0.79449200  0.98110300  0.25382200  1
  Ni  Ni32  1  0.19626700  0.58245000  0.05277400  1
  Ni  Ni33  1  0.59512300  0.18118300  0.85408900  1
  Ni  Ni34  1  0.98904200  0.78121100  0.65154300  1
  Ni  Ni35  1  0.29179000  0.48526200  0.59078800  1
  Ni  Ni36  1  0.68893200  0.07977600  0.39408900  1
  Ni  Ni37  1  0.09369400  0.68476800  0.19136500  1
  Ni  Ni38  1  0.49216300  0.28466000  0.99090000  1
  Ni  Ni39  1  0.89118800  0.88451400  0.79073800  1
  Ni  Ni40  1  0.35771400  0.98804900  0.96352400  1
  Ni  Ni41  1  0.56124600  0.79321100  0.36535500  1
  Ni  Ni42  1  0.75603200  0.58796900  0.76331900  1
  Ni  Ni43  1  0.95646700  0.38786600  0.16397800  1
  Ni  Ni44  1  0.15635800  0.18806600  0.56347400  1
  Ni  Ni45  1  0.53547100  0.82083100  0.76379300  1
  Ni  Ni46  1  0.72648300  0.61947400  0.16726500  1
  Ni  Ni47  1  0.92502000  0.41700900  0.56723400  1
  Ni  Ni48  1  0.12606900  0.21913800  0.96736400  1
  Ni  Ni49  1  0.32521800  0.01829500  0.36818800  1
  Ni  Ni50  1  0.56153400  0.09460000  0.74963900  1
  Ni  Ni51  1  0.76042000  0.89465800  0.14979100  1
  Ni  Ni52  1  0.95051100  0.69290900  0.54962600  1
  Ni  Ni53  1  0.16162000  0.49580500  0.94890300  1
  Ni  Ni54  1  0.35996700  0.29503700  0.35006200  1
  Ni  Ni55  1  0.75770400  0.89841700  0.91919300  1
  Ni  Ni56  1  0.95925900  0.69943600  0.31980400  1
  Ni  Ni57  1  0.15612000  0.49836200  0.71889500  1
  Ni  Ni58  1  0.35645100  0.29814400  0.11900400  1
  Ni  Ni59  1  0.55031300  0.09280900  0.52159600  1
  Cu  Cu60  1  0.68468700  0.51841300  0.82713200  1
  Cu  Cu61  1  0.08378800  0.11856600  0.62677800  1
  Cu  Cu62  1  0.49356500  0.72788800  0.43377600  1
  Cu  Cu63  1  0.88431600  0.31804900  0.22716800  1
  Cu  Cu64  1  0.28428800  0.91785000  0.02575500  1
  Cu  Cu65  1  0.99947000  0.20324800  0.93283700  1
  Cu  Cu66  1  0.41674500  0.80672500  0.72206500  1
  Cu  Cu67  1  0.79877600  0.40160500  0.53214600  1
  Cu  Cu68  1  0.19993500  0.00325800  0.33202400  1
  Cu  Cu69  1  0.59886800  0.60329700  0.13386800  1
  Cu  Cu70  1  0.41260100  0.38587200  0.36316200  1
  Cu  Cu71  1  0.81144400  0.98609500  0.16261700  1
  Cu  Cu72  1  0.21176300  0.58760000  0.96156300  1
  Cu  Cu73  1  0.61038200  0.18655400  0.76296500  1
  Cu  Cu74  1  0.98625500  0.78855600  0.56146100  1
  Cu  Cu75  1  0.30465400  0.49360000  0.67769800  1
  Cu  Cu76  1  0.69853200  0.07732000  0.48302300  1
  Cu  Cu77  1  0.10755200  0.69136500  0.27846200  1
  Cu  Cu78  1  0.50500400  0.29235100  0.07792800  1
  Cu  Cu79  1  0.90588700  0.89194900  0.87752900  1
