# generated using pymatgen
data_Cu3Ni3C4
_symmetry_space_group_name_H-M   'P 1'
_cell_length_a   6.32844823
_cell_length_b   6.32844823
_cell_length_c   10.40157369
_cell_angle_alpha   84.17588732
_cell_angle_beta   84.17588732
_cell_angle_gamma   120.01068646
_symmetry_Int_Tables_number   1
_chemical_formula_structural   Cu3Ni3C4
_chemical_formula_sum   'Cu6 Ni6 C8'
_cell_volume   353.21645723
_cell_formula_units_Z   2
loop_
 _symmetry_equiv_pos_site_id
 _symmetry_equiv_pos_as_xyz
  1  'x, y, z'
loop_
 _atom_site_type_symbol
 _atom_site_label
 _atom_site_symmetry_multiplicity
 _atom_site_fract_x
 _atom_site_fract_y
 _atom_site_fract_z
 _atom_site_occupancy
  C  C0  1  0.66667500  0.33332500  0.00000000  1
  C  C1  1  0.33332500  0.66667500  0.00000000  1
  C  C2  1  0.20600800  0.20600800  0.38386600  1
  C  C3  1  0.53834700  0.87219500  0.38348000  1
  C  C4  1  0.87219500  0.53834700  0.38348000  1
  C  C5  1  0.12780500  0.46165300  0.61652000  1
  C  C6  1  0.46165300  0.12780500  0.61652000  1
  C  C7  1  0.79399200  0.79399200  0.61613400  1
  Ni  Ni8  1  0.13619700  0.13619700  0.59143900  1
  Ni  Ni9  1  0.46986300  0.80326200  0.59043000  1
  Ni  Ni10  1  0.80326200  0.46986300  0.59043000  1
  Ni  Ni11  1  0.19673800  0.53013700  0.40957000  1
  Ni  Ni12  1  0.53013700  0.19673800  0.40957000  1
  Ni  Ni13  1  0.86380300  0.86380300  0.40856100  1
  Cu  Cu14  1  0.06057100  0.72417100  0.81821100  1
  Cu  Cu15  1  0.39709700  0.39709700  0.81819800  1
  Cu  Cu16  1  0.72417100  0.06057100  0.81821100  1
  Cu  Cu17  1  0.27582900  0.93942900  0.18178900  1
  Cu  Cu18  1  0.60290300  0.60290300  0.18180200  1
  Cu  Cu19  1  0.93942900  0.27582900  0.18178900  1
