# generated using pymatgen
data_Cu2Ni8C13
_symmetry_space_group_name_H-M   'P 1'
_cell_length_a   5.84778900
_cell_length_b   6.75959441
_cell_length_c   13.84625404
_cell_angle_alpha   84.75918279
_cell_angle_beta   77.80915214
_cell_angle_gamma   64.37019631
_symmetry_Int_Tables_number   1
_chemical_formula_structural   Cu2Ni8C13
_chemical_formula_sum   'Cu4 Ni16 C26'
_cell_volume   482.34369224
_cell_formula_units_Z   2
loop_
 _symmetry_equiv_pos_site_id
 _symmetry_equiv_pos_as_xyz
  1  'x, y, z'
loop_
 _atom_site_type_symbol
 _atom_site_label
 _atom_site_symmetry_multiplicity
 _atom_site_fract_x
 _atom_site_fract_y
 _atom_site_fract_z
 _atom_site_occupancy
  C  C0  1  0.00000000  0.00000000  0.00000000  1
  C  C1  1  0.75000000  0.50000000  0.50000000  1
  Ni  Ni2  1  0.73688700  0.74491900  0.13929800  1
  Ni  Ni3  1  0.62110300  0.25508100  0.86070200  1
  Ni  Ni4  1  0.51819500  0.74491900  0.86070200  1
  Ni  Ni5  1  0.12381500  0.25508100  0.13929800  1
  Ni  Ni6  1  0.01311300  0.75508100  0.36070200  1
  Ni  Ni7  1  0.12889700  0.24491900  0.63929800  1
  Ni  Ni8  1  0.23180500  0.75508100  0.63929800  1
  Ni  Ni9  1  0.62618500  0.24491900  0.36070200  1
  Ni  Ni10  1  0.66941800  0.95287100  0.20366600  1
  Ni  Ni11  1  0.82595500  0.04712900  0.79633400  1
  Ni  Ni12  1  0.37771100  0.95287100  0.79633400  1
  Ni  Ni13  1  0.12691700  0.04712900  0.20366600  1
  Ni  Ni14  1  0.08058200  0.54712900  0.29633400  1
  Ni  Ni15  1  0.92404500  0.45287100  0.70366600  1
  Ni  Ni16  1  0.37228900  0.54712900  0.70366600  1
  Ni  Ni17  1  0.62308300  0.45287100  0.29633400  1
  Cu  Cu18  1  0.05768700  0.50000000  0.88462600  1
  Cu  Cu19  1  0.44231300  0.50000000  0.11537400  1
  Cu  Cu20  1  0.69231300  0.00000000  0.61537400  1
  Cu  Cu21  1  0.30768700  0.00000000  0.38462600  1
  C  C22  1  0.08452100  0.30526500  0.95066200  1
  C  C23  1  0.34044800  0.69473500  0.04933800  1
  C  C24  1  0.61021400  0.30526500  0.04933800  1
  C  C25  1  0.96481700  0.69473500  0.95066200  1
  C  C26  1  0.66547900  0.19473500  0.54933800  1
  C  C27  1  0.40955200  0.80526500  0.45066200  1
  C  C28  1  0.13978600  0.19473500  0.45066200  1
  C  C29  1  0.78518300  0.80526500  0.54933800  1
  C  C30  1  0.31452800  0.45656700  0.82377300  1
  C  C31  1  0.59486800  0.54343300  0.17622700  1
  C  C32  1  0.22890500  0.45656700  0.17622700  1
  C  C33  1  0.86169900  0.54343300  0.82377300  1
  C  C34  1  0.43547200  0.04343300  0.67622700  1
  C  C35  1  0.15513200  0.95656700  0.32377300  1
  C  C36  1  0.52109500  0.04343300  0.32377300  1
  C  C37  1  0.88830100  0.95656700  0.67622700  1
  C  C38  1  0.76610800  0.87837400  0.13917400  1
  C  C39  1  0.78365700  0.12162600  0.86082600  1
  C  C40  1  0.35551800  0.87837400  0.86082600  1
  C  C41  1  0.09471800  0.12162600  0.13917400  1
  C  C42  1  0.98389200  0.62162600  0.36082600  1
  C  C43  1  0.96634300  0.37837400  0.63917400  1
  C  C44  1  0.39448200  0.62162600  0.63917400  1
  C  C45  1  0.65528200  0.37837400  0.36082600  1
