# generated using pymatgen
data_Cu3NiC16
_symmetry_space_group_name_H-M   'P 1'
_cell_length_a   7.72464200
_cell_length_b   5.52679400
_cell_length_c   5.86509324
_cell_angle_alpha   89.98368586
_cell_angle_beta   90.00000000
_cell_angle_gamma   90.00000000
_symmetry_Int_Tables_number   1
_chemical_formula_structural   Cu3NiC16
_chemical_formula_sum   'Cu3 Ni1 C16'
_cell_volume   250.39551257
_cell_formula_units_Z   1
loop_
 _symmetry_equiv_pos_site_id
 _symmetry_equiv_pos_as_xyz
  1  'x, y, z'
loop_
 _atom_site_type_symbol
 _atom_site_label
 _atom_site_symmetry_multiplicity
 _atom_site_fract_x
 _atom_site_fract_y
 _atom_site_fract_z
 _atom_site_occupancy
  Ni  Ni0  1  0.50000000  0.48784700  0.55874800  1
  Cu  Cu1  1  0.50000000  0.01472200  0.06563700  1
  Cu  Cu2  1  0.00000000  0.51559100  0.43249200  1
  Cu  Cu3  1  0.00000000  0.98536500  0.93490500  1
  C  C4  1  0.24864000  0.00069800  0.50051700  1
  C  C5  1  0.75062200  0.49939800  0.99903000  1
  C  C6  1  0.75136000  0.00069800  0.50051700  1
  C  C7  1  0.24937800  0.49939800  0.99903000  1
  C  C8  1  0.50000000  0.59588400  0.97820500  1
  C  C9  1  0.50000000  0.91184600  0.47438100  1
  C  C10  1  0.00000000  0.40340900  0.02570300  1
  C  C11  1  0.00000000  0.09792900  0.52789700  1
  C  C12  1  0.29697800  0.21335300  0.81391700  1
  C  C13  1  0.70461800  0.28150900  0.30860800  1
  C  C14  1  0.79907300  0.78183800  0.18994400  1
  C  C15  1  0.19998200  0.71690900  0.68900000  1
  C  C16  1  0.20092700  0.78183800  0.18994400  1
  C  C17  1  0.80001800  0.71690900  0.68900000  1
  C  C18  1  0.70302200  0.21335300  0.81391700  1
  C  C19  1  0.29538200  0.28150900  0.30860800  1
