# generated using pymatgen
data_Cu3NiC16
_symmetry_space_group_name_H-M   'P 1'
_cell_length_a   6.31632776
_cell_length_b   6.31632776
_cell_length_c   6.31632834
_cell_angle_alpha   103.21937806
_cell_angle_beta   103.21937806
_cell_angle_gamma   103.21937412
_symmetry_Int_Tables_number   1
_chemical_formula_structural   Cu3NiC16
_chemical_formula_sum   'Cu3 Ni1 C16'
_cell_volume   228.08076223
_cell_formula_units_Z   1
loop_
 _symmetry_equiv_pos_site_id
 _symmetry_equiv_pos_as_xyz
  1  'x, y, z'
loop_
 _atom_site_type_symbol
 _atom_site_label
 _atom_site_symmetry_multiplicity
 _atom_site_fract_x
 _atom_site_fract_y
 _atom_site_fract_z
 _atom_site_occupancy
  Ni  Ni0  1  0.50000000  0.50000000  0.50000000  1
  Cu  Cu1  1  0.50000000  0.04814000  0.95186000  1
  Cu  Cu2  1  0.95186000  0.50000000  0.04814000  1
  Cu  Cu3  1  0.04814000  0.95186000  0.50000000  1
  C  C4  1  0.00000000  0.00000000  0.00000000  1
  C  C5  1  0.00000000  0.45008000  0.54992000  1
  C  C6  1  0.54992000  0.00000000  0.45008000  1
  C  C7  1  0.45008000  0.54992000  0.00000000  1
  C  C8  1  0.00000000  0.85964900  0.14035100  1
  C  C9  1  0.59032900  0.40967100  0.00000000  1
  C  C10  1  0.40967100  0.00000000  0.59032900  1
  C  C11  1  0.00000000  0.59032900  0.40967100  1
  C  C12  1  0.29790400  0.52981800  0.12567300  1
  C  C13  1  0.52981800  0.12567300  0.29790400  1
  C  C14  1  0.12567300  0.29790400  0.52981800  1
  C  C15  1  0.47018200  0.70209600  0.87432700  1
  C  C16  1  0.70209600  0.87432700  0.47018200  1
  C  C17  1  0.87432700  0.47018200  0.70209600  1
  C  C18  1  0.85964900  0.14035100  0.00000000  1
  C  C19  1  0.14035100  0.00000000  0.85964900  1
