# generated using pymatgen
data_Cu4Ni6C25
_symmetry_space_group_name_H-M   'P 1'
_cell_length_a   13.24899287
_cell_length_b   13.24899287
_cell_length_c   7.74951582
_cell_angle_alpha   81.10915588
_cell_angle_beta   81.10915588
_cell_angle_gamma   24.80330477
_symmetry_Int_Tables_number   1
_chemical_formula_structural   Cu4Ni6C25
_chemical_formula_sum   'Cu4 Ni6 C25'
_cell_volume   563.46888113
_cell_formula_units_Z   1
loop_
 _symmetry_equiv_pos_site_id
 _symmetry_equiv_pos_as_xyz
  1  'x, y, z'
loop_
 _atom_site_type_symbol
 _atom_site_label
 _atom_site_symmetry_multiplicity
 _atom_site_fract_x
 _atom_site_fract_y
 _atom_site_fract_z
 _atom_site_occupancy
  C  C0  1  0.66878900  0.66878900  0.42121400  1
  C  C1  1  0.33121100  0.33121100  0.57878600  1
  C  C2  1  0.50000000  0.50000000  0.50000000  1
  C  C3  1  0.82060500  0.82060500  0.07779800  1
  C  C4  1  0.17939500  0.17939500  0.92220200  1
  Ni  Ni5  1  0.74401100  0.74401100  0.81198600  1
  Ni  Ni6  1  0.25598900  0.25598900  0.18801400  1
  Ni  Ni7  1  0.41508400  0.41508400  0.94343700  1
  Ni  Ni8  1  0.58491600  0.58491600  0.05656300  1
  Ni  Ni9  1  0.93271400  0.93271400  0.31667900  1
  Ni  Ni10  1  0.06728600  0.06728600  0.68332100  1
  Cu  Cu11  1  0.44916000  0.44916000  0.06802500  1
  Cu  Cu12  1  0.55084000  0.55084000  0.93197500  1
  Cu  Cu13  1  0.96412900  0.96412900  0.15075500  1
  Cu  Cu14  1  0.03587100  0.03587100  0.84924500  1
  C  C15  1  0.45136900  0.45136900  0.76324000  1
  C  C16  1  0.54863100  0.54863100  0.23676000  1
  C  C17  1  0.82870700  0.27673900  0.58854100  1
  C  C18  1  0.27673900  0.82870700  0.58854100  1
  C  C19  1  0.17129300  0.72326100  0.41145900  1
  C  C20  1  0.72326100  0.17129300  0.41145900  1
  C  C21  1  0.72953200  0.72953200  0.01478200  1
  C  C22  1  0.27046800  0.27046800  0.98521800  1
  C  C23  1  0.15702900  0.60790200  0.96853600  1
  C  C24  1  0.60790200  0.15702900  0.96853600  1
  C  C25  1  0.84297100  0.39209800  0.03146400  1
  C  C26  1  0.39209800  0.84297100  0.03146400  1
  C  C27  1  0.05762900  0.50149100  0.26545100  1
  C  C28  1  0.50149100  0.05762900  0.26545100  1
  C  C29  1  0.94237100  0.49850900  0.73454900  1
  C  C30  1  0.49850900  0.94237100  0.73454900  1
  C  C31  1  0.80458700  0.80458700  0.77577700  1
  C  C32  1  0.19541300  0.19541300  0.22422300  1
  C  C33  1  0.87527400  0.87527400  0.29329000  1
  C  C34  1  0.12472600  0.12472600  0.70671000  1
