# generated using pymatgen
data_Cu4NiC15
_symmetry_space_group_name_H-M   'P 1'
_cell_length_a   5.07744300
_cell_length_b   5.07744300
_cell_length_c   28.68239528
_cell_angle_alpha   84.92201910
_cell_angle_beta   84.92201910
_cell_angle_gamma   90.00000000
_symmetry_Int_Tables_number   1
_chemical_formula_structural   Cu4NiC15
_chemical_formula_sum   'Cu16 Ni4 C60'
_cell_volume   733.62851852
_cell_formula_units_Z   4
loop_
 _symmetry_equiv_pos_site_id
 _symmetry_equiv_pos_as_xyz
  1  'x, y, z'
loop_
 _atom_site_type_symbol
 _atom_site_label
 _atom_site_symmetry_multiplicity
 _atom_site_fract_x
 _atom_site_fract_y
 _atom_site_fract_z
 _atom_site_occupancy
  Ni  Ni0  1  0.95033300  0.45033300  0.09933400  1
  Ni  Ni1  1  0.34999600  0.84999600  0.30000800  1
  Ni  Ni2  1  0.75000400  0.25000400  0.49999200  1
  Ni  Ni3  1  0.14966700  0.64966700  0.70066600  1
  Cu  Cu4  1  0.90158900  0.40158900  0.19682200  1
  Cu  Cu5  1  0.30158500  0.80158500  0.39683000  1
  Cu  Cu6  1  0.70159000  0.20159000  0.59682100  1
  Cu  Cu7  1  0.10022600  0.60022600  0.79954700  1
  Cu  Cu8  1  0.50330000  0.00330000  0.99339900  1
  Cu  Cu9  1  0.99977400  0.49977400  0.00045300  1
  Cu  Cu10  1  0.39841000  0.89841000  0.20317900  1
  Cu  Cu11  1  0.79841500  0.29841500  0.40317000  1
  Cu  Cu12  1  0.19841100  0.69841100  0.60317800  1
  Cu  Cu13  1  0.59670000  0.09670000  0.80660100  1
  Cu  Cu14  1  0.00191400  0.00191400  0.99617200  1
  Cu  Cu15  1  0.39999500  0.39999500  0.20001000  1
  Cu  Cu16  1  0.80000000  0.80000000  0.40000000  1
  Cu  Cu17  1  0.20000500  0.20000500  0.59999000  1
  Cu  Cu18  1  0.59808600  0.59808600  0.80382800  1
  Cu  Cu19  1  0.55000000  0.05000000  0.90000000  1
  C  C20  1  0.08853400  0.84058400  0.15460900  1
  C  C21  1  0.48847900  0.24054900  0.35461100  1
  C  C22  1  0.88845500  0.64055800  0.55459600  1
  C  C23  1  0.29113300  0.03743400  0.75622800  1
  C  C24  1  0.68634300  0.43208900  0.95003300  1
  C  C25  1  0.75685600  0.00480700  0.15460900  1
  C  C26  1  0.15690900  0.40483900  0.35461100  1
  C  C27  1  0.55694800  0.80484600  0.55459600  1
  C  C28  1  0.95264000  0.20633900  0.75622800  1
  C  C29  1  0.36362400  0.61787700  0.95003300  1
  C  C30  1  0.56256600  0.64736000  0.04377200  1
  C  C31  1  0.95944200  0.04305200  0.24540400  1
  C  C32  1  0.35945100  0.44309100  0.44538900  1
  C  C33  1  0.75941600  0.84314400  0.64539100  1
  C  C34  1  0.16791100  0.23637600  0.84996700  1
  C  C35  1  0.39366100  0.30886700  0.04377200  1
  C  C36  1  0.79515400  0.71154500  0.24540400  1
  C  C37  1  0.19516100  0.11152100  0.44538900  1
  C  C38  1  0.59519300  0.51146600  0.64539100  1
  C  C39  1  0.98212300  0.91365700  0.84996700  1
  C  C40  1  0.32790000  0.67973500  0.13105300  1
  C  C41  1  0.72789300  0.07971500  0.33105800  1
  C  C42  1  0.12788100  0.47977500  0.53103900  1
  C  C43  1  0.52810700  0.87114200  0.73326300  1
  C  C44  1  0.92713300  0.27256600  0.92641600  1
  C  C45  1  0.54104700  0.18921200  0.13105300  1
  C  C46  1  0.94104900  0.58922700  0.33105800  1
  C  C47  1  0.34108100  0.98918600  0.53103900  1
  C  C48  1  0.73863000  0.39559500  0.73326300  1
  C  C49  1  0.14645100  0.80101800  0.92641600  1
  C  C50  1  0.72885800  0.86137000  0.06673700  1
  C  C51  1  0.12022500  0.25891900  0.26896100  1
  C  C52  1  0.52028500  0.65895000  0.46894200  1
  C  C53  1  0.92026500  0.05895300  0.66894700  1
  C  C54  1  0.32743400  0.45354900  0.87358400  1
  C  C55  1  0.20440500  0.07189300  0.06673700  1
  C  C56  1  0.61081400  0.47211900  0.26896100  1
  C  C57  1  0.01077300  0.87210800  0.46894200  1
  C  C58  1  0.41078800  0.27210000  0.66894700  1
  C  C59  1  0.79898200  0.67286700  0.87358400  1
  C  C60  1  0.18449700  0.66278300  0.15883700  1
  C  C61  1  0.58441000  0.06304100  0.35888600  1
  C  C62  1  0.98441200  0.46305200  0.55886800  1
  C  C63  1  0.38384000  0.85835000  0.76098900  1
  C  C64  1  0.77865500  0.25241400  0.95336800  1
  C  C65  1  0.65666600  0.17838000  0.15883700  1
  C  C66  1  0.05670400  0.57807300  0.35888600  1
  C  C67  1  0.45672000  0.97808000  0.55886800  1
  C  C68  1  0.85517200  0.38066200  0.76098900  1
  C  C69  1  0.26797600  0.79421800  0.95336800  1
  C  C70  1  0.74165000  0.74482800  0.03901100  1
  C  C71  1  0.13694800  0.14328000  0.24113200  1
  C  C72  1  0.53695900  0.54329600  0.44111400  1
  C  C73  1  0.93721700  0.94333400  0.64116300  1
  C  C74  1  0.34758600  0.33202400  0.84663200  1
  C  C75  1  0.21933800  0.21616000  0.03901100  1
  C  C76  1  0.62192000  0.61558800  0.24113200  1
  C  C77  1  0.02192700  0.01559000  0.44111400  1
  C  C78  1  0.42162000  0.41550300  0.64116300  1
  C  C79  1  0.80578200  0.82134500  0.84663200  1
