# generated using pymatgen
data_Cu11Ni9C11
_symmetry_space_group_name_H-M   'P 1'
_cell_length_a   4.87757594
_cell_length_b   4.89596414
_cell_length_c   15.42748446
_cell_angle_alpha   90.00000000
_cell_angle_beta   90.00000000
_cell_angle_gamma   95.15277486
_symmetry_Int_Tables_number   1
_chemical_formula_structural   Cu11Ni9C11
_chemical_formula_sum   'Cu11 Ni9 C11'
_cell_volume   366.92621622
_cell_formula_units_Z   1
loop_
 _symmetry_equiv_pos_site_id
 _symmetry_equiv_pos_as_xyz
  1  'x, y, z'
loop_
 _atom_site_type_symbol
 _atom_site_label
 _atom_site_symmetry_multiplicity
 _atom_site_fract_x
 _atom_site_fract_y
 _atom_site_fract_z
 _atom_site_occupancy
  C  C0  1  0.01506445  0.51717737  0.70000000  1
  C  C1  1  0.97303810  0.99102242  0.99976473  1
  C  C2  1  0.98413977  0.99417611  0.20000000  1
  C  C3  1  0.97303810  0.99102242  0.40023527  1
  C  C4  1  0.06252824  0.01999753  0.59583249  1
  C  C5  1  0.06252824  0.01999753  0.80416751  1
  C  C6  1  0.48171873  0.49558637  0.10304009  1
  C  C7  1  0.47102293  0.48019753  0.48828072  1
  C  C8  1  0.48171873  0.49558637  0.29695991  1
  C  C9  1  0.49771599  0.54363641  0.70000000  1
  C  C10  1  0.47102293  0.48019753  0.91171928  1
  Ni  Ni11  1  0.24442426  0.85584923  0.70000000  1
  Ni  Ni12  1  0.27128616  0.29549509  0.00599172  1
  Ni  Ni13  1  0.27935033  0.29584737  0.20000000  1
  Ni  Ni14  1  0.27128616  0.29549509  0.39400828  1
  Ni  Ni15  1  0.28274060  0.37797295  0.59469814  1
  Ni  Ni16  1  0.28274060  0.37797295  0.80530186  1
  Ni  Ni17  1  0.68887144  0.68323300  0.00242592  1
  Ni  Ni18  1  0.68474748  0.69305305  0.20000000  1
  Ni  Ni19  1  0.68887144  0.68323300  0.39757408  1
  Cu  Cu20  1  0.17339835  0.80711090  0.10168415  1
  Cu  Cu21  1  0.17339835  0.80711090  0.29831585  1
  Cu  Cu22  1  0.21196536  0.81447420  0.48640447  1
  Cu  Cu23  1  0.21196536  0.81447420  0.91359553  1
  Cu  Cu24  1  0.77319023  0.67271678  0.59876858  1
  Cu  Cu25  1  0.77319023  0.67271678  0.80123142  1
  Cu  Cu26  1  0.78610060  0.17680878  0.10154714  1
  Cu  Cu27  1  0.77314587  0.17739625  0.49463124  1
  Cu  Cu28  1  0.78610060  0.17680878  0.29845286  1
  Cu  Cu29  1  0.77314587  0.17739625  0.90536876  1
  Cu  Cu30  1  0.78543551  0.18567785  0.70000000  1
