# generated using pymatgen
data_Cu2NiC7
_symmetry_space_group_name_H-M   'P 1'
_cell_length_a   9.38558400
_cell_length_b   5.53183300
_cell_length_c   9.84020205
_cell_angle_alpha   77.22313050
_cell_angle_beta   90.00000000
_cell_angle_gamma   90.00000000
_symmetry_Int_Tables_number   1
_chemical_formula_structural   Cu2NiC7
_chemical_formula_sum   'Cu8 Ni4 C28'
_cell_volume   498.24770974
_cell_formula_units_Z   4
loop_
 _symmetry_equiv_pos_site_id
 _symmetry_equiv_pos_as_xyz
  1  'x, y, z'
loop_
 _atom_site_type_symbol
 _atom_site_label
 _atom_site_symmetry_multiplicity
 _atom_site_fract_x
 _atom_site_fract_y
 _atom_site_fract_z
 _atom_site_occupancy
  C  C0  1  0.65529800  0.03374000  0.24668700  1
  C  C1  1  0.15529800  0.46626000  0.75331300  1
  C  C2  1  0.34470200  0.96626000  0.75331300  1
  C  C3  1  0.84470200  0.53374000  0.24668700  1
  Ni  Ni4  1  0.49831900  0.54180500  0.24459900  1
  Ni  Ni5  1  0.99831900  0.95819500  0.75540100  1
  Ni  Ni6  1  0.50168100  0.45819500  0.75540100  1
  Ni  Ni7  1  0.00168100  0.04180500  0.24459900  1
  Cu  Cu8  1  0.33610300  0.18586800  0.05771800  1
  Cu  Cu9  1  0.83610300  0.31413200  0.94228200  1
  Cu  Cu10  1  0.66389700  0.81413200  0.94228200  1
  Cu  Cu11  1  0.16389700  0.68586800  0.05771800  1
  Cu  Cu12  1  0.34088500  0.74902700  0.45404100  1
  Cu  Cu13  1  0.84088500  0.75097300  0.54595900  1
  Cu  Cu14  1  0.65911500  0.25097300  0.54595900  1
  Cu  Cu15  1  0.15911500  0.24902700  0.45404100  1
  C  C16  1  0.28014200  0.49362600  0.38400200  1
  C  C17  1  0.78014200  0.00637400  0.61599800  1
  C  C18  1  0.71985800  0.50637400  0.61599800  1
  C  C19  1  0.21985800  0.99362600  0.38400200  1
  C  C20  1  0.31469400  0.85144700  0.10855600  1
  C  C21  1  0.81469400  0.64855300  0.89144400  1
  C  C22  1  0.68530600  0.14855300  0.89144400  1
  C  C23  1  0.18530600  0.35144700  0.10855600  1
  C  C24  1  0.99361100  0.28595000  0.37102500  1
  C  C25  1  0.49361100  0.21405000  0.62897500  1
  C  C26  1  0.00638900  0.71405000  0.62897500  1
  C  C27  1  0.50638900  0.78595000  0.37102500  1
  C  C28  1  0.01491100  0.77042200  0.14248300  1
  C  C29  1  0.51491100  0.72957800  0.85751700  1
  C  C30  1  0.98508900  0.22957800  0.85751700  1
  C  C31  1  0.48508900  0.27042200  0.14248300  1
  C  C32  1  0.33758000  0.25451300  0.87231000  1
  C  C33  1  0.83758000  0.24548700  0.12769000  1
  C  C34  1  0.66242000  0.74548700  0.12769000  1
  C  C35  1  0.16242000  0.75451300  0.87231000  1
  C  C36  1  0.33712300  0.68063700  0.63802400  1
  C  C37  1  0.83712300  0.81936300  0.36197600  1
  C  C38  1  0.66287700  0.31936300  0.36197600  1
  C  C39  1  0.16287700  0.18063700  0.63802400  1
