# generated using pymatgen
data_Cu4NiC5
_symmetry_space_group_name_H-M   'P 1'
_cell_length_a   5.12582300
_cell_length_b   7.42941900
_cell_length_c   11.57362300
_cell_angle_alpha   90.00000000
_cell_angle_beta   90.00000000
_cell_angle_gamma   90.00000000
_symmetry_Int_Tables_number   1
_chemical_formula_structural   Cu4NiC5
_chemical_formula_sum   'Cu8 Ni2 C10'
_cell_volume   440.74540080
_cell_formula_units_Z   2
loop_
 _symmetry_equiv_pos_site_id
 _symmetry_equiv_pos_as_xyz
  1  'x, y, z'
loop_
 _atom_site_type_symbol
 _atom_site_label
 _atom_site_symmetry_multiplicity
 _atom_site_fract_x
 _atom_site_fract_y
 _atom_site_fract_z
 _atom_site_occupancy
  C  C0  1  0.58049000  0.00000000  0.50000000  1
  C  C1  1  0.41951000  0.50000000  0.00000000  1
  Ni  Ni2  1  0.12887000  0.00000000  0.00000000  1
  Ni  Ni3  1  0.87113000  0.50000000  0.50000000  1
  C  C4  1  0.62318300  0.22483700  0.10999200  1
  C  C5  1  0.62318300  0.77516300  0.89000800  1
  C  C6  1  0.37681700  0.27516300  0.60999200  1
  C  C7  1  0.37681700  0.72483700  0.39000800  1
  C  C8  1  0.13337300  0.11713100  0.31652900  1
  C  C9  1  0.13337300  0.88286900  0.68347100  1
  C  C10  1  0.86662700  0.38286900  0.81652900  1
  C  C11  1  0.86662700  0.61713100  0.18347100  1
  Cu  Cu12  1  0.12368100  0.52010300  0.12675800  1
  Cu  Cu13  1  0.12368100  0.47989700  0.87324200  1
  Cu  Cu14  1  0.87631900  0.97989700  0.62675800  1
  Cu  Cu15  1  0.87631900  0.02010300  0.37324200  1
  Cu  Cu16  1  0.77394500  0.38346300  0.44055600  1
  Cu  Cu17  1  0.77394500  0.61653700  0.55944400  1
  Cu  Cu18  1  0.22605500  0.11653700  0.94055600  1
  Cu  Cu19  1  0.22605500  0.88346300  0.05944400  1
