# generated using pymatgen
data_Cu6Ni6C
_symmetry_space_group_name_H-M   'P 1'
_cell_length_a   4.88939200
_cell_length_b   6.61844074
_cell_length_c   6.53282138
_cell_angle_alpha   97.94527022
_cell_angle_beta   111.97595703
_cell_angle_gamma   68.32283486
_symmetry_Int_Tables_number   1
_chemical_formula_structural   Cu6Ni6C
_chemical_formula_sum   'Cu6 Ni6 C1'
_cell_volume   182.17857329
_cell_formula_units_Z   1
loop_
 _symmetry_equiv_pos_site_id
 _symmetry_equiv_pos_as_xyz
  1  'x, y, z'
loop_
 _atom_site_type_symbol
 _atom_site_label
 _atom_site_symmetry_multiplicity
 _atom_site_fract_x
 _atom_site_fract_y
 _atom_site_fract_z
 _atom_site_occupancy
  C  C0  1  0.00000000  0.00000000  0.00000000  1
  Ni  Ni1  1  0.50000000  0.50000000  0.00000000  1
  Ni  Ni2  1  0.00000000  0.50000000  0.00000000  1
  Ni  Ni3  1  0.75948600  0.75626600  0.27523800  1
  Ni  Ni4  1  0.24051400  0.24373400  0.72476200  1
  Ni  Ni5  1  0.48424800  0.75626600  0.72476200  1
  Ni  Ni6  1  0.51575200  0.24373400  0.27523800  1
  Cu  Cu7  1  0.66071000  0.34855700  0.66997800  1
  Cu  Cu8  1  0.33929000  0.65144300  0.33002200  1
  Cu  Cu9  1  0.99073200  0.34855700  0.33002200  1
  Cu  Cu10  1  0.00926800  0.65144300  0.66997800  1
  Cu  Cu11  1  0.50000000  0.00000000  0.50000000  1
  Cu  Cu12  1  0.00000000  0.00000000  0.50000000  1
