# generated using pymatgen
data_Cu2Ni7C20
_symmetry_space_group_name_H-M   'P 1'
_cell_length_a   7.96814526
_cell_length_b   7.96814526
_cell_length_c   9.66595900
_cell_angle_alpha   90.00000000
_cell_angle_beta   90.00000000
_cell_angle_gamma   119.99999384
_symmetry_Int_Tables_number   1
_chemical_formula_structural   Cu2Ni7C20
_chemical_formula_sum   'Cu4 Ni14 C40'
_cell_volume   531.48387472
_cell_formula_units_Z   2
loop_
 _symmetry_equiv_pos_site_id
 _symmetry_equiv_pos_as_xyz
  1  'x, y, z'
loop_
 _atom_site_type_symbol
 _atom_site_label
 _atom_site_symmetry_multiplicity
 _atom_site_fract_x
 _atom_site_fract_y
 _atom_site_fract_z
 _atom_site_occupancy
  Ni  Ni0  1  0.91655500  0.36936700  0.88764200  1
  Ni  Ni1  1  0.45281200  0.08344500  0.88764200  1
  Ni  Ni2  1  0.63063300  0.54718800  0.88764200  1
  Ni  Ni3  1  0.08344500  0.63063300  0.38764200  1
  Ni  Ni4  1  0.54718800  0.91655500  0.38764200  1
  Ni  Ni5  1  0.36936700  0.45281200  0.38764200  1
  Ni  Ni6  1  0.98164800  0.22568000  0.61292600  1
  Ni  Ni7  1  0.24403300  0.01835200  0.61292600  1
  Ni  Ni8  1  0.77432000  0.75596700  0.61292600  1
  Ni  Ni9  1  0.01835200  0.77432000  0.11292600  1
  Ni  Ni10  1  0.75596700  0.98164800  0.11292600  1
  Ni  Ni11  1  0.22568000  0.24403300  0.11292600  1
  Ni  Ni12  1  0.66666700  0.33333300  0.60202100  1
  Ni  Ni13  1  0.33333300  0.66666700  0.10202100  1
  Cu  Cu14  1  0.33333300  0.66666700  0.67394400  1
  Cu  Cu15  1  0.66666700  0.33333300  0.17394400  1
  Cu  Cu16  1  0.00000000  0.00000000  0.90160700  1
  Cu  Cu17  1  0.00000000  0.00000000  0.40160700  1
  C  C18  1  0.29269100  0.45673400  0.90487100  1
  C  C19  1  0.16404200  0.70730900  0.90487100  1
  C  C20  1  0.54326600  0.83595800  0.90487100  1
  C  C21  1  0.70730900  0.54326600  0.40487100  1
  C  C22  1  0.83595800  0.29269100  0.40487100  1
  C  C23  1  0.45673400  0.16404200  0.40487100  1
  C  C24  1  0.67796800  0.03425400  0.73891400  1
  C  C25  1  0.35628600  0.32203200  0.73891400  1
  C  C26  1  0.96574600  0.64371400  0.73891400  1
  C  C27  1  0.32203200  0.96574600  0.23891400  1
  C  C28  1  0.64371400  0.67796800  0.23891400  1
  C  C29  1  0.03425400  0.35628600  0.23891400  1
  C  C30  1  0.17237500  0.20001500  0.47685000  1
  C  C31  1  0.02764000  0.82762500  0.47685000  1
  C  C32  1  0.79998500  0.97236000  0.47685000  1
  C  C33  1  0.82762500  0.79998500  0.97685000  1
  C  C34  1  0.97236000  0.17237500  0.97685000  1
  C  C35  1  0.20001500  0.02764000  0.97685000  1
  C  C36  1  0.37890300  0.47587500  0.98368800  1
  C  C37  1  0.09697100  0.62109700  0.98368800  1
  C  C38  1  0.52412500  0.90302900  0.98368800  1
  C  C39  1  0.62109700  0.52412500  0.48368800  1
  C  C40  1  0.90302900  0.37890300  0.48368800  1
  C  C41  1  0.47587500  0.09697100  0.48368800  1
  C  C42  1  0.15963300  0.45406700  0.73245700  1
  C  C43  1  0.29443400  0.84036700  0.73245700  1
  C  C44  1  0.54593300  0.70556600  0.73245700  1
  C  C45  1  0.84036700  0.54593300  0.23245700  1
  C  C46  1  0.70556600  0.15963300  0.23245700  1
  C  C47  1  0.45406700  0.29443400  0.23245700  1
  C  C48  1  0.73800600  0.17513000  0.73865200  1
  C  C49  1  0.43712400  0.26199400  0.73865200  1
  C  C50  1  0.82487000  0.56287600  0.73865200  1
  C  C51  1  0.26199400  0.82487000  0.23865200  1
  C  C52  1  0.56287600  0.73800600  0.23865200  1
  C  C53  1  0.17513000  0.43712400  0.23865200  1
  C  C54  1  0.33333300  0.66666700  0.49984800  1
  C  C55  1  0.66666700  0.33333300  0.99984800  1
  C  C56  1  0.00000000  0.00000000  0.73246900  1
  C  C57  1  0.00000000  0.00000000  0.23246900  1
