# generated using pymatgen
data_Cu2Ni3C8
_symmetry_space_group_name_H-M   'P 1'
_cell_length_a   12.86630500
_cell_length_b   4.95808700
_cell_length_c   12.87709884
_cell_angle_alpha   90.00000000
_cell_angle_beta   119.95557127
_cell_angle_gamma   90.00000000
_symmetry_Int_Tables_number   1
_chemical_formula_structural   Cu2Ni3C8
_chemical_formula_sum   'Cu8 Ni12 C32'
_cell_volume   711.72283999
_cell_formula_units_Z   4
loop_
 _symmetry_equiv_pos_site_id
 _symmetry_equiv_pos_as_xyz
  1  'x, y, z'
loop_
 _atom_site_type_symbol
 _atom_site_label
 _atom_site_symmetry_multiplicity
 _atom_site_fract_x
 _atom_site_fract_y
 _atom_site_fract_z
 _atom_site_occupancy
  Ni  Ni0  1  0.07201300  0.46707400  0.43072400  1
  Ni  Ni1  1  0.35873000  0.46914000  0.92845400  1
  Ni  Ni2  1  0.56890500  0.46639000  0.64029900  1
  Ni  Ni3  1  0.56995000  0.46725000  0.92841500  1
  Ni  Ni4  1  0.07154000  0.46660800  0.64020800  1
  Ni  Ni5  1  0.35834300  0.46684300  0.43085700  1
  Ni  Ni6  1  0.92798700  0.96707400  0.56927600  1
  Ni  Ni7  1  0.64127000  0.96914000  0.07154600  1
  Ni  Ni8  1  0.43109500  0.96639000  0.35970100  1
  Ni  Ni9  1  0.43005000  0.96725000  0.07158500  1
  Ni  Ni10  1  0.92846000  0.96660800  0.35979200  1
  Ni  Ni11  1  0.64165700  0.96684300  0.56914300  1
  Cu  Cu12  1  0.27389100  0.53816500  0.13798300  1
  Cu  Cu13  1  0.86258100  0.53202500  0.72458200  1
  Cu  Cu14  1  0.86356000  0.53744900  0.13889200  1
  Cu  Cu15  1  0.72610900  0.03816500  0.86201700  1
  Cu  Cu16  1  0.13741900  0.03202500  0.27541800  1
  Cu  Cu17  1  0.13644000  0.03744900  0.86110800  1
  Cu  Cu18  1  0.33311800  0.35264300  0.66662000  1
  Cu  Cu19  1  0.66688200  0.85264300  0.33338000  1
  C  C20  1  0.41051900  0.77092300  0.20558800  1
  C  C21  1  0.79368900  0.76471600  0.58748500  1
  C  C22  1  0.79406200  0.76959700  0.20618400  1
  C  C23  1  0.58948100  0.27092300  0.79441200  1
  C  C24  1  0.20631100  0.26471600  0.41251500  1
  C  C25  1  0.20593800  0.26959700  0.79381600  1
  C  C26  1  0.27147100  0.79269000  0.32319500  1
  C  C27  1  0.05142200  0.79305400  0.72964600  1
  C  C28  1  0.67998600  0.79580200  0.94866300  1
  C  C29  1  0.67953400  0.79450000  0.73057000  1
  C  C30  1  0.26935500  0.79507200  0.94830000  1
  C  C31  1  0.05144700  0.79189700  0.32316700  1
  C  C32  1  0.72852900  0.29269000  0.67680500  1
  C  C33  1  0.94857800  0.29305400  0.27035400  1
  C  C34  1  0.32001400  0.29580200  0.05133700  1
  C  C35  1  0.32046600  0.29450000  0.26943000  1
  C  C36  1  0.73064500  0.29507200  0.05170000  1
  C  C37  1  0.94855300  0.29189700  0.67683300  1
  C  C38  1  0.80568800  0.07904400  0.40288900  1
  C  C39  1  0.59698400  0.07802100  0.19424400  1
  C  C40  1  0.59716400  0.07845800  0.40272000  1
  C  C41  1  0.19431200  0.57904400  0.59711100  1
  C  C42  1  0.40301600  0.57802100  0.80575600  1
  C  C43  1  0.40283600  0.57845800  0.59728000  1
  C  C44  1  0.95649400  0.66249200  0.47821700  1
  C  C45  1  0.52149400  0.66359400  0.04279400  1
  C  C46  1  0.52150800  0.66244100  0.47849900  1
  C  C47  1  0.04350600  0.16249200  0.52178300  1
  C  C48  1  0.47850600  0.16359400  0.95720600  1
  C  C49  1  0.47849200  0.16244100  0.52150100  1
  C  C50  1  0.03394700  0.63711300  0.04800700  1
  C  C51  1  0.96605300  0.13711300  0.95199300  1
