# generated using pymatgen
data_Cu2NiC5
_symmetry_space_group_name_H-M   'P 1'
_cell_length_a   6.33309454
_cell_length_b   9.88204764
_cell_length_c   14.81711500
_cell_angle_alpha   90.00000000
_cell_angle_beta   90.00000000
_cell_angle_gamma   104.37251792
_symmetry_Int_Tables_number   1
_chemical_formula_structural   Cu2NiC5
_chemical_formula_sum   'Cu16 Ni8 C40'
_cell_volume   898.29071786
_cell_formula_units_Z   8
loop_
 _symmetry_equiv_pos_site_id
 _symmetry_equiv_pos_as_xyz
  1  'x, y, z'
loop_
 _atom_site_type_symbol
 _atom_site_label
 _atom_site_symmetry_multiplicity
 _atom_site_fract_x
 _atom_site_fract_y
 _atom_site_fract_z
 _atom_site_occupancy
  C  C0  1  0.01211700  0.56910700  0.62527900  1
  C  C1  1  0.98788300  0.43089300  0.37472100  1
  C  C2  1  0.98788300  0.93089300  0.12527900  1
  C  C3  1  0.01211700  0.06910700  0.87472100  1
  C  C4  1  0.97175100  0.92789400  0.62443500  1
  C  C5  1  0.02824900  0.07210600  0.37556500  1
  C  C6  1  0.02824900  0.57210600  0.12443500  1
  C  C7  1  0.97175100  0.42789400  0.87556500  1
  Ni  Ni8  1  0.40293100  0.60685400  0.85273700  1
  Ni  Ni9  1  0.59706900  0.39314600  0.14726300  1
  Ni  Ni10  1  0.59706900  0.89314600  0.35273700  1
  Ni  Ni11  1  0.40293100  0.10685400  0.64726300  1
  Ni  Ni12  1  0.59273800  0.89434500  0.90025900  1
  Ni  Ni13  1  0.40726200  0.10565500  0.09974100  1
  Ni  Ni14  1  0.40726200  0.60565500  0.40025900  1
  Ni  Ni15  1  0.59273800  0.39434500  0.59974100  1
  Cu  Cu16  1  0.98667700  0.74806300  0.82207300  1
  Cu  Cu17  1  0.01332300  0.25193700  0.17792700  1
  Cu  Cu18  1  0.01332300  0.75193700  0.32207300  1
  Cu  Cu19  1  0.98667700  0.24806300  0.67792700  1
  Cu  Cu20  1  0.52849400  0.67924500  0.62453000  1
  Cu  Cu21  1  0.47150600  0.32075500  0.37547000  1
  Cu  Cu22  1  0.47150600  0.82075500  0.12453000  1
  Cu  Cu23  1  0.52849400  0.17924500  0.87547000  1
  Cu  Cu24  1  0.45342800  0.81931000  0.62445000  1
  Cu  Cu25  1  0.54657200  0.18069000  0.37555000  1
  Cu  Cu26  1  0.54657200  0.68069000  0.12445000  1
  Cu  Cu27  1  0.45342800  0.31931000  0.87555000  1
  Cu  Cu28  1  0.99633000  0.74949900  0.92751500  1
  Cu  Cu29  1  0.00367000  0.25050100  0.07248500  1
  Cu  Cu30  1  0.00367000  0.75050100  0.42751500  1
  Cu  Cu31  1  0.99633000  0.24949900  0.57248500  1
  C  C32  1  0.73418200  0.69269200  0.62394100  1
  C  C33  1  0.26581800  0.30730800  0.37605900  1
  C  C34  1  0.26581800  0.80730800  0.12394100  1
  C  C35  1  0.73418200  0.19269200  0.87605900  1
  C  C36  1  0.98576600  0.86179600  0.96627900  1
  C  C37  1  0.01423400  0.13820400  0.03372100  1
  C  C38  1  0.01423400  0.63820400  0.46627900  1
  C  C39  1  0.98576600  0.36179600  0.53372100  1
  C  C40  1  0.01440800  0.63806300  0.96575200  1
  C  C41  1  0.98559200  0.36193700  0.03424800  1
  C  C42  1  0.98559200  0.86193700  0.46575200  1
  C  C43  1  0.01440800  0.13806300  0.53424800  1
  C  C44  1  0.38379100  0.56641900  0.62502700  1
  C  C45  1  0.61620900  0.43358200  0.37497300  1
  C  C46  1  0.61620900  0.93358100  0.12502700  1
  C  C47  1  0.38379100  0.06641900  0.87497300  1
  C  C48  1  0.97026400  0.85956000  0.78362700  1
  C  C49  1  0.02973600  0.14044000  0.21637300  1
  C  C50  1  0.02973600  0.64044000  0.28362700  1
  C  C51  1  0.97026400  0.35956000  0.71637300  1
  C  C52  1  0.24777000  0.80551900  0.62715100  1
  C  C53  1  0.75223000  0.19448100  0.37284900  1
  C  C54  1  0.75223000  0.69448100  0.12715100  1
  C  C55  1  0.24777000  0.30551900  0.87284900  1
  C  C56  1  0.59794900  0.93221700  0.62178100  1
  C  C57  1  0.40205100  0.06778300  0.37821900  1
  C  C58  1  0.40205100  0.56778300  0.12178100  1
  C  C59  1  0.59794900  0.43221700  0.87821900  1
  C  C60  1  0.99720600  0.63529400  0.78372000  1
  C  C61  1  0.00279400  0.36470600  0.21628000  1
  C  C62  1  0.00279400  0.86470600  0.28372000  1
  C  C63  1  0.99720600  0.13529400  0.71628000  1
