# generated using pymatgen
data_Cu2NiC6
_symmetry_space_group_name_H-M   'P 1'
_cell_length_a   6.78185675
_cell_length_b   6.78185675
_cell_length_c   13.43239400
_cell_angle_alpha   90.00000000
_cell_angle_beta   90.00000000
_cell_angle_gamma   116.23200237
_symmetry_Int_Tables_number   1
_chemical_formula_structural   Cu2NiC6
_chemical_formula_sum   'Cu8 Ni4 C24'
_cell_volume   554.17728254
_cell_formula_units_Z   4
loop_
 _symmetry_equiv_pos_site_id
 _symmetry_equiv_pos_as_xyz
  1  'x, y, z'
loop_
 _atom_site_type_symbol
 _atom_site_label
 _atom_site_symmetry_multiplicity
 _atom_site_fract_x
 _atom_site_fract_y
 _atom_site_fract_z
 _atom_site_occupancy
  Ni  Ni0  1  0.94886100  0.75372700  0.37415800  1
  Ni  Ni1  1  0.75372700  0.94886100  0.62584200  1
  Ni  Ni2  1  0.05113900  0.24627300  0.87415800  1
  Ni  Ni3  1  0.24627300  0.05113900  0.12584200  1
  Cu  Cu4  1  0.68233600  0.14592300  0.39137800  1
  Cu  Cu5  1  0.14592300  0.68233600  0.60862200  1
  Cu  Cu6  1  0.31766400  0.85407700  0.89137800  1
  Cu  Cu7  1  0.85407700  0.31766400  0.10862200  1
  Cu  Cu8  1  0.26822700  0.37314400  0.35363900  1
  Cu  Cu9  1  0.37314400  0.26822700  0.64636100  1
  Cu  Cu10  1  0.73177300  0.62685600  0.85363900  1
  Cu  Cu11  1  0.62685600  0.73177300  0.14636100  1
  C  C12  1  0.01037600  0.09748200  0.37483300  1
  C  C13  1  0.09748200  0.01037600  0.62516700  1
  C  C14  1  0.98962400  0.90251800  0.87483300  1
  C  C15  1  0.90251800  0.98962400  0.12516700  1
  C  C16  1  0.29711300  0.33380400  0.21533900  1
  C  C17  1  0.33380400  0.29711300  0.78466100  1
  C  C18  1  0.70288700  0.66619600  0.71533900  1
  C  C19  1  0.66619600  0.70288700  0.28466100  1
  C  C20  1  0.41896500  0.88682600  0.66339400  1
  C  C21  1  0.88682600  0.41896500  0.33660600  1
  C  C22  1  0.58103500  0.11317400  0.16339400  1
  C  C23  1  0.11317400  0.58103500  0.83660600  1
  C  C24  1  0.45900300  0.26308200  0.41498500  1
  C  C25  1  0.26308200  0.45900300  0.58501500  1
  C  C26  1  0.54099700  0.73691800  0.91498500  1
  C  C27  1  0.73691800  0.54099700  0.08501500  1
  C  C28  1  0.20049300  0.76329300  0.47293600  1
  C  C29  1  0.76329300  0.20049300  0.52706400  1
  C  C30  1  0.79950700  0.23670700  0.97293600  1
  C  C31  1  0.23670700  0.79950700  0.02706400  1
  C  C32  1  0.17494700  0.82505300  0.25000000  1
  C  C33  1  0.82505300  0.17494700  0.75000000  1
  C  C34  1  0.73366100  0.73366100  0.50000000  1
  C  C35  1  0.26633900  0.26633900  0.00000000  1
