# generated using pymatgen
data_Cu2NiC20
_symmetry_space_group_name_H-M   'P 1'
_cell_length_a   6.79179191
_cell_length_b   6.79179191
_cell_length_c   12.93908170
_cell_angle_alpha   79.36800494
_cell_angle_beta   79.36800494
_cell_angle_gamma   80.48305423
_symmetry_Int_Tables_number   1
_chemical_formula_structural   Cu2NiC20
_chemical_formula_sum   'Cu2 Ni1 C20'
_cell_volume   571.19143289
_cell_formula_units_Z   1
loop_
 _symmetry_equiv_pos_site_id
 _symmetry_equiv_pos_as_xyz
  1  'x, y, z'
loop_
 _atom_site_type_symbol
 _atom_site_label
 _atom_site_symmetry_multiplicity
 _atom_site_fract_x
 _atom_site_fract_y
 _atom_site_fract_z
 _atom_site_occupancy
  Ni  Ni0  1  0.00000000  0.00000000  0.50000000  1
  Cu  Cu1  1  0.33414800  0.33414800  0.73827300  1
  Cu  Cu2  1  0.66585200  0.66585200  0.26172700  1
  C  C3  1  0.15175200  0.48628300  0.66711000  1
  C  C4  1  0.48628300  0.15175200  0.66711000  1
  C  C5  1  0.84824800  0.51371700  0.33289000  1
  C  C6  1  0.51371700  0.84824800  0.33289000  1
  C  C7  1  0.12045300  0.41285500  0.88402900  1
  C  C8  1  0.41285500  0.12045300  0.88402900  1
  C  C9  1  0.87954700  0.58714500  0.11597100  1
  C  C10  1  0.58714500  0.87954700  0.11597100  1
  C  C11  1  0.53194200  0.53194200  0.72599900  1
  C  C12  1  0.46805800  0.46805800  0.27400100  1
  C  C13  1  0.22261300  0.22261300  0.48970900  1
  C  C14  1  0.77738700  0.77738700  0.51029100  1
  C  C15  1  0.95942000  0.95942000  0.68319500  1
  C  C16  1  0.04058000  0.04058000  0.31680500  1
  C  C17  1  0.26448200  0.73551800  0.50000000  1
  C  C18  1  0.73551800  0.26448200  0.50000000  1
  C  C19  1  0.23400800  0.23400800  0.95204200  1
  C  C20  1  0.76599200  0.76599200  0.04795800  1
  C  C21  1  0.58041900  0.58041900  0.83779700  1
  C  C22  1  0.41958100  0.41958100  0.16220300  1
