# generated using pymatgen
data_CuNi6C
_symmetry_space_group_name_H-M   'P 1'
_cell_length_a   5.04374100
_cell_length_b   6.37530300
_cell_length_c   11.00989100
_cell_angle_alpha   90.00000000
_cell_angle_beta   90.00000000
_cell_angle_gamma   90.00000000
_symmetry_Int_Tables_number   1
_chemical_formula_structural   CuNi6C
_chemical_formula_sum   'Cu2 Ni12 C2'
_cell_volume   354.02719725
_cell_formula_units_Z   2
loop_
 _symmetry_equiv_pos_site_id
 _symmetry_equiv_pos_as_xyz
  1  'x, y, z'
loop_
 _atom_site_type_symbol
 _atom_site_label
 _atom_site_symmetry_multiplicity
 _atom_site_fract_x
 _atom_site_fract_y
 _atom_site_fract_z
 _atom_site_occupancy
  C  C0  1  0.50000000  0.50000000  0.17019700  1
  C  C1  1  0.50000000  0.00000000  0.67019700  1
  Ni  Ni2  1  0.00000000  0.24544500  0.08217800  1
  Ni  Ni3  1  0.00000000  0.75455500  0.08217800  1
  Ni  Ni4  1  0.00000000  0.50000000  0.83249800  1
  Ni  Ni5  1  0.50000000  0.24193300  0.91462000  1
  Ni  Ni6  1  0.50000000  0.75806700  0.91462000  1
  Ni  Ni7  1  0.50000000  0.50000000  0.66500200  1
  Ni  Ni8  1  0.00000000  0.74544500  0.58217800  1
  Ni  Ni9  1  0.00000000  0.25455500  0.58217800  1
  Ni  Ni10  1  0.00000000  0.00000000  0.33249800  1
  Ni  Ni11  1  0.50000000  0.74193300  0.41462000  1
  Ni  Ni12  1  0.50000000  0.25806700  0.41462000  1
  Ni  Ni13  1  0.50000000  0.00000000  0.16500200  1
  Cu  Cu14  1  0.00000000  0.50000000  0.33870600  1
  Cu  Cu15  1  0.00000000  0.00000000  0.83870600  1
