# generated using pymatgen
data_Cu5NiC14
_symmetry_space_group_name_H-M   'P 1'
_cell_length_a   13.64715300
_cell_length_b   13.72487300
_cell_length_c   13.92872200
_cell_angle_alpha   90.00000000
_cell_angle_beta   90.00000000
_cell_angle_gamma   90.00000000
_symmetry_Int_Tables_number   1
_chemical_formula_structural   Cu5NiC14
_chemical_formula_sum   'Cu40 Ni8 C112'
_cell_volume   2608.92542704
_cell_formula_units_Z   8
loop_
 _symmetry_equiv_pos_site_id
 _symmetry_equiv_pos_as_xyz
  1  'x, y, z'
loop_
 _atom_site_type_symbol
 _atom_site_label
 _atom_site_symmetry_multiplicity
 _atom_site_fract_x
 _atom_site_fract_y
 _atom_site_fract_z
 _atom_site_occupancy
  C  C0  1  0.34673200  0.63852900  0.14432500  1
  C  C1  1  0.65326800  0.13852900  0.35567500  1
  C  C2  1  0.15326800  0.36147100  0.64432500  1
  C  C3  1  0.84673200  0.86147100  0.85567500  1
  C  C4  1  0.65326800  0.36147100  0.85567500  1
  C  C5  1  0.34673200  0.86147100  0.64432500  1
  C  C6  1  0.84673200  0.63852900  0.35567500  1
  C  C7  1  0.15326800  0.13852900  0.14432500  1
  C  C8  1  0.10794900  0.89639300  0.40976600  1
  C  C9  1  0.89205100  0.39639300  0.09023400  1
  C  C10  1  0.39205100  0.10360700  0.90976600  1
  C  C11  1  0.60794900  0.60360700  0.59023400  1
  C  C12  1  0.89205100  0.10360700  0.59023400  1
  C  C13  1  0.10794900  0.60360700  0.90976600  1
  C  C14  1  0.60794900  0.89639300  0.09023400  1
  C  C15  1  0.39205100  0.39639300  0.40976600  1
  Ni  Ni16  1  0.56025300  0.87405200  0.83428500  1
  Ni  Ni17  1  0.43974700  0.37405200  0.66571500  1
  Ni  Ni18  1  0.93974700  0.12594800  0.33428500  1
  Ni  Ni19  1  0.06025300  0.62594800  0.16571500  1
  Ni  Ni20  1  0.43974700  0.12594800  0.16571500  1
  Ni  Ni21  1  0.56025300  0.62594800  0.33428500  1
  Ni  Ni22  1  0.06025300  0.87405200  0.66571500  1
  Ni  Ni23  1  0.93974700  0.37405200  0.83428500  1
  Cu  Cu24  1  0.89288800  0.62208400  0.66288100  1
  Cu  Cu25  1  0.10711200  0.12208400  0.83711900  1
  Cu  Cu26  1  0.60711200  0.37791600  0.16288100  1
  Cu  Cu27  1  0.39288800  0.87791600  0.33711900  1
  Cu  Cu28  1  0.10711200  0.37791600  0.33711900  1
  Cu  Cu29  1  0.89288800  0.87791600  0.16288100  1
  Cu  Cu30  1  0.39288800  0.62208400  0.83711900  1
  Cu  Cu31  1  0.60711200  0.12208400  0.66288100  1
  Cu  Cu32  1  0.87374900  0.09653500  0.11340600  1
  Cu  Cu33  1  0.12625100  0.59653500  0.38659400  1
  Cu  Cu34  1  0.62625100  0.90346500  0.61340600  1
  Cu  Cu35  1  0.37374900  0.40346500  0.88659400  1
  Cu  Cu36  1  0.12625100  0.90346500  0.88659400  1
  Cu  Cu37  1  0.87374900  0.40346500  0.61340600  1
  Cu  Cu38  1  0.37374900  0.09653500  0.38659400  1
  Cu  Cu39  1  0.62625100  0.59653500  0.11340600  1
  Cu  Cu40  1  0.39614400  0.15150600  0.59959500  1
  Cu  Cu41  1  0.60385600  0.65150600  0.90040500  1
  Cu  Cu42  1  0.10385600  0.84849400  0.09959500  1
  Cu  Cu43  1  0.89614400  0.34849400  0.40040500  1
  Cu  Cu44  1  0.60385600  0.84849400  0.40040500  1
  Cu  Cu45  1  0.39614400  0.34849400  0.09959500  1
  Cu  Cu46  1  0.89614400  0.15150600  0.90040500  1
  Cu  Cu47  1  0.10385600  0.65150600  0.59959500  1
  Cu  Cu48  1  0.68511000  0.41189500  0.36795300  1
  Cu  Cu49  1  0.31489000  0.91189500  0.13204700  1
  Cu  Cu50  1  0.81489000  0.58810500  0.86795300  1
  Cu  Cu51  1  0.18511000  0.08810500  0.63204700  1
  Cu  Cu52  1  0.31489000  0.58810500  0.63204700  1
  Cu  Cu53  1  0.68511000  0.08810500  0.86795300  1
  Cu  Cu54  1  0.18511000  0.41189500  0.13204700  1
  Cu  Cu55  1  0.81489000  0.91189500  0.36795300  1
  Cu  Cu56  1  0.15724500  0.32444700  0.92747900  1
  Cu  Cu57  1  0.84275500  0.82444700  0.57252100  1
  Cu  Cu58  1  0.34275500  0.67555300  0.42747900  1
  Cu  Cu59  1  0.65724500  0.17555300  0.07252100  1
  Cu  Cu60  1  0.84275500  0.67555300  0.07252100  1
  Cu  Cu61  1  0.15724500  0.17555300  0.42747900  1
  Cu  Cu62  1  0.65724500  0.32444700  0.57252100  1
  Cu  Cu63  1  0.34275500  0.82444700  0.92747900  1
  C  C64  1  0.34511700  0.97884800  0.37756700  1
  C  C65  1  0.65488300  0.47884800  0.12243300  1
  C  C66  1  0.15488300  0.02115200  0.87756700  1
  C  C67  1  0.84511700  0.52115200  0.62243300  1
  C  C68  1  0.65488300  0.02115200  0.62243300  1
  C  C69  1  0.34511700  0.52115200  0.87756700  1
  C  C70  1  0.84511700  0.97884800  0.12243300  1
  C  C71  1  0.15488300  0.47884800  0.37756700  1
  C  C72  1  0.07400600  0.61195800  0.49187000  1
  C  C73  1  0.92599400  0.11195800  0.00813000  1
  C  C74  1  0.42599400  0.38804200  0.99187000  1
  C  C75  1  0.57400600  0.88804200  0.50813000  1
  C  C76  1  0.92599400  0.38804200  0.50813000  1
  C  C77  1  0.07400600  0.88804200  0.99187000  1
  C  C78  1  0.57400600  0.61195800  0.00813000  1
  C  C79  1  0.42599400  0.11195800  0.49187000  1
  C  C80  1  0.01205900  0.88169800  0.17097900  1
  C  C81  1  0.98794100  0.38169800  0.32902100  1
  C  C82  1  0.48794100  0.11830200  0.67097900  1
  C  C83  1  0.51205900  0.61830200  0.82902100  1
  C  C84  1  0.98794100  0.11830200  0.82902100  1
  C  C85  1  0.01205900  0.61830200  0.67097900  1
  C  C86  1  0.51205900  0.88169800  0.32902100  1
  C  C87  1  0.48794100  0.38169800  0.17097900  1
  C  C88  1  0.87399800  0.23463700  0.39798300  1
  C  C89  1  0.12600200  0.73463700  0.10201700  1
  C  C90  1  0.62600200  0.76536300  0.89798300  1
  C  C91  1  0.37399800  0.26536300  0.60201700  1
  C  C92  1  0.12600200  0.76536300  0.60201700  1
  C  C93  1  0.87399800  0.26536300  0.89798300  1
  C  C94  1  0.37399800  0.23463700  0.10201700  1
  C  C95  1  0.62600200  0.73463700  0.39798300  1
  C  C96  1  0.14902000  0.14720100  0.72994500  1
  C  C97  1  0.85098000  0.64720100  0.77005500  1
  C  C98  1  0.35098000  0.85279900  0.22994500  1
  C  C99  1  0.64902000  0.35279900  0.27005500  1
  C  C100  1  0.85098000  0.85279900  0.27005500  1
  C  C101  1  0.14902000  0.35279900  0.22994500  1
  C  C102  1  0.64902000  0.14720100  0.77005500  1
  C  C103  1  0.35098000  0.64720100  0.72994500  1
  C  C104  1  0.73260900  0.84715600  0.61423400  1
  C  C105  1  0.26739100  0.34715600  0.88576600  1
  C  C106  1  0.76739100  0.15284400  0.11423400  1
  C  C107  1  0.23260900  0.65284400  0.38576600  1
  C  C108  1  0.26739100  0.15284400  0.38576600  1
  C  C109  1  0.73260900  0.65284400  0.11423400  1
  C  C110  1  0.23260900  0.84715600  0.88576600  1
  C  C111  1  0.76739100  0.34715600  0.61423400  1
  C  C112  1  0.86253500  0.48353800  0.88222300  1
  C  C113  1  0.13746500  0.98353800  0.61777700  1
  C  C114  1  0.63746500  0.51646200  0.38222300  1
  C  C115  1  0.36253500  0.01646200  0.11777700  1
  C  C116  1  0.13746500  0.51646200  0.11777700  1
  C  C117  1  0.86253500  0.01646200  0.38222300  1
  C  C118  1  0.36253500  0.48353800  0.61777700  1
  C  C119  1  0.63746500  0.98353800  0.88222300  1
  C  C120  1  0.65639900  0.16537200  0.95427600  1
  C  C121  1  0.34360100  0.66537200  0.54572400  1
  C  C122  1  0.84360100  0.83462800  0.45427600  1
  C  C123  1  0.15639900  0.33462800  0.04572400  1
  C  C124  1  0.34360100  0.83462800  0.04572400  1
  C  C125  1  0.65639900  0.33462800  0.45427600  1
  C  C126  1  0.15639900  0.16537200  0.54572400  1
  C  C127  1  0.84360100  0.66537200  0.95427600  1
  C  C128  1  0.57587600  0.38979800  0.62332200  1
  C  C129  1  0.42412400  0.88979800  0.87667800  1
  C  C130  1  0.92412400  0.61020200  0.12332200  1
  C  C131  1  0.07587600  0.11020200  0.37667800  1
  C  C132  1  0.42412400  0.61020200  0.37667800  1
  C  C133  1  0.57587600  0.11020200  0.12332200  1
  C  C134  1  0.07587600  0.38979800  0.87667800  1
  C  C135  1  0.92412400  0.88979800  0.62332200  1
  C  C136  1  0.35689600  0.70545500  0.91262700  1
  C  C137  1  0.64310400  0.20545500  0.58737300  1
  C  C138  1  0.14310400  0.29454500  0.41262700  1
  C  C139  1  0.85689600  0.79454500  0.08737300  1
  C  C140  1  0.64310400  0.29454500  0.08737300  1
  C  C141  1  0.35689600  0.79454500  0.41262700  1
  C  C142  1  0.85689600  0.70545500  0.58737300  1
  C  C143  1  0.14310400  0.20545500  0.91262700  1
  C  C144  1  0.55523100  0.63404700  0.19578800  1
  C  C145  1  0.44476900  0.13404700  0.30421200  1
  C  C146  1  0.94476900  0.36595300  0.69578800  1
  C  C147  1  0.05523100  0.86595300  0.80421200  1
  C  C148  1  0.44476900  0.36595300  0.80421200  1
  C  C149  1  0.55523100  0.86595300  0.69578800  1
  C  C150  1  0.05523100  0.63404700  0.30421200  1
  C  C151  1  0.94476900  0.13404700  0.19578800  1
  C  C152  1  0.30573300  0.41877400  0.13912300  1
  C  C153  1  0.69426700  0.91877400  0.36087700  1
  C  C154  1  0.19426700  0.58122600  0.63912300  1
  C  C155  1  0.80573300  0.08122600  0.86087700  1
  C  C156  1  0.69426700  0.58122600  0.86087700  1
  C  C157  1  0.30573300  0.08122600  0.63912300  1
  C  C158  1  0.80573300  0.41877400  0.36087700  1
  C  C159  1  0.19426700  0.91877400  0.13912300  1
