# generated using pymatgen
data_Cu2NiC11
_symmetry_space_group_name_H-M   'P 1'
_cell_length_a   8.64952384
_cell_length_b   8.64952384
_cell_length_c   4.86426864
_cell_angle_alpha   81.74376149
_cell_angle_beta   81.74376149
_cell_angle_gamma   83.07695423
_symmetry_Int_Tables_number   1
_chemical_formula_structural   Cu2NiC11
_chemical_formula_sum   'Cu4 Ni2 C22'
_cell_volume   354.55272927
_cell_formula_units_Z   2
loop_
 _symmetry_equiv_pos_site_id
 _symmetry_equiv_pos_as_xyz
  1  'x, y, z'
loop_
 _atom_site_type_symbol
 _atom_site_label
 _atom_site_symmetry_multiplicity
 _atom_site_fract_x
 _atom_site_fract_y
 _atom_site_fract_z
 _atom_site_occupancy
  C  C0  1  0.83359000  0.16641000  0.50000000  1
  C  C1  1  0.16641000  0.83359000  0.50000000  1
  Ni  Ni2  1  0.00000000  0.50000000  0.50000000  1
  Ni  Ni3  1  0.50000000  0.00000000  0.50000000  1
  C  C4  1  0.22563500  0.22563500  0.43690400  1
  C  C5  1  0.77436500  0.77436500  0.56309600  1
  Cu  Cu6  1  0.74502400  0.48047300  0.06286000  1
  Cu  Cu7  1  0.48047300  0.74502400  0.06286000  1
  Cu  Cu8  1  0.25497600  0.51952700  0.93714000  1
  Cu  Cu9  1  0.51952700  0.25497600  0.93714000  1
  C  C10  1  0.82395600  0.56933300  0.76368600  1
  C  C11  1  0.56933300  0.82395600  0.76368600  1
  C  C12  1  0.17604400  0.43066700  0.23631400  1
  C  C13  1  0.43066700  0.17604400  0.23631400  1
  C  C14  1  0.04454300  0.28390600  0.66609700  1
  C  C15  1  0.28390600  0.04454300  0.66609700  1
  C  C16  1  0.95545700  0.71609400  0.33390300  1
  C  C17  1  0.71609400  0.95545700  0.33390300  1
  C  C18  1  0.86081000  0.42663200  0.29571700  1
  C  C19  1  0.42663200  0.86081000  0.29571700  1
  C  C20  1  0.13919000  0.57336800  0.70428300  1
  C  C21  1  0.57336800  0.13919000  0.70428300  1
  C  C22  1  0.68769300  0.31230700  0.00000000  1
  C  C23  1  0.31230700  0.68769300  0.00000000  1
  C  C24  1  0.59103800  0.59103800  0.18656300  1
  C  C25  1  0.40896200  0.40896200  0.81343700  1
  C  C26  1  0.08185900  0.08185900  0.29931500  1
  C  C27  1  0.91814100  0.91814100  0.70068500  1
