# generated using pymatgen
data_Cu2Ni10C
_symmetry_space_group_name_H-M   'P 1'
_cell_length_a   12.87810600
_cell_length_b   12.87810600
_cell_length_c   5.15916100
_cell_angle_alpha   90.00000000
_cell_angle_beta   90.00000000
_cell_angle_gamma   90.00000000
_symmetry_Int_Tables_number   1
_chemical_formula_structural   Cu2Ni10C
_chemical_formula_sum   'Cu8 Ni40 C4'
_cell_volume   855.62422453
_cell_formula_units_Z   4
loop_
 _symmetry_equiv_pos_site_id
 _symmetry_equiv_pos_as_xyz
  1  'x, y, z'
loop_
 _atom_site_type_symbol
 _atom_site_label
 _atom_site_symmetry_multiplicity
 _atom_site_fract_x
 _atom_site_fract_y
 _atom_site_fract_z
 _atom_site_occupancy
  C  C0  1  0.50000000  0.50000000  0.00000000  1
  C  C1  1  0.00000000  0.00000000  0.00000000  1
  C  C2  1  0.00000000  0.50000000  0.51884600  1
  C  C3  1  0.50000000  0.00000000  0.48115400  1
  Ni  Ni4  1  0.17419600  0.17419600  0.00000000  1
  Ni  Ni5  1  0.67419600  0.32580400  0.00000000  1
  Ni  Ni6  1  0.32580400  0.67419600  0.00000000  1
  Ni  Ni7  1  0.82580400  0.82580400  0.00000000  1
  Ni  Ni8  1  0.32580400  0.32580400  0.00000000  1
  Ni  Ni9  1  0.82580400  0.17419600  0.00000000  1
  Ni  Ni10  1  0.17419600  0.82580400  0.00000000  1
  Ni  Ni11  1  0.67419600  0.67419600  0.00000000  1
  Ni  Ni12  1  0.61356600  0.61356600  0.50000000  1
  Ni  Ni13  1  0.11356600  0.88643400  0.50000000  1
  Ni  Ni14  1  0.88643400  0.11356600  0.50000000  1
  Ni  Ni15  1  0.38643400  0.38643400  0.50000000  1
  Ni  Ni16  1  0.88643400  0.88643400  0.50000000  1
  Ni  Ni17  1  0.38643400  0.61356600  0.50000000  1
  Ni  Ni18  1  0.61356600  0.38643400  0.50000000  1
  Ni  Ni19  1  0.11356600  0.11356600  0.50000000  1
  Ni  Ni20  1  0.23889700  0.50000000  0.74887500  1
  Ni  Ni21  1  0.00000000  0.26110300  0.74887500  1
  Ni  Ni22  1  0.00000000  0.73889700  0.74887500  1
  Ni  Ni23  1  0.76110300  0.50000000  0.74887500  1
  Ni  Ni24  1  0.26110300  0.00000000  0.25112500  1
  Ni  Ni25  1  0.73889700  0.00000000  0.25112500  1
  Ni  Ni26  1  0.50000000  0.23889700  0.25112500  1
  Ni  Ni27  1  0.50000000  0.76110300  0.25112500  1
  Ni  Ni28  1  0.10920700  0.60920700  0.03685500  1
  Ni  Ni29  1  0.10920700  0.39079300  0.03685500  1
  Ni  Ni30  1  0.89079300  0.60920700  0.03685500  1
  Ni  Ni31  1  0.89079300  0.39079300  0.03685500  1
  Ni  Ni32  1  0.39079300  0.10920700  0.96314500  1
  Ni  Ni33  1  0.60920700  0.89079300  0.96314500  1
  Ni  Ni34  1  0.60920700  0.10920700  0.96314500  1
  Ni  Ni35  1  0.39079300  0.89079300  0.96314500  1
  Ni  Ni36  1  0.17463700  0.67463700  0.48142700  1
  Ni  Ni37  1  0.17463700  0.32536300  0.48142700  1
  Ni  Ni38  1  0.82536300  0.67463700  0.48142700  1
  Ni  Ni39  1  0.82536300  0.32536300  0.48142700  1
  Ni  Ni40  1  0.32536300  0.17463700  0.51857300  1
  Ni  Ni41  1  0.67463700  0.82536300  0.51857300  1
  Ni  Ni42  1  0.67463700  0.17463700  0.51857300  1
  Ni  Ni43  1  0.32536300  0.82536300  0.51857300  1
  Cu  Cu44  1  0.74040600  0.50000000  0.25380800  1
  Cu  Cu45  1  0.00000000  0.75959400  0.25380800  1
  Cu  Cu46  1  0.00000000  0.24040600  0.25380800  1
  Cu  Cu47  1  0.25959400  0.50000000  0.25380800  1
  Cu  Cu48  1  0.75959400  0.00000000  0.74619200  1
  Cu  Cu49  1  0.24040600  0.00000000  0.74619200  1
  Cu  Cu50  1  0.50000000  0.74040600  0.74619200  1
  Cu  Cu51  1  0.50000000  0.25959400  0.74619200  1
