# generated using pymatgen
data_CuNiC10
_symmetry_space_group_name_H-M   'P 1'
_cell_length_a   8.92647500
_cell_length_b   8.92647500
_cell_length_c   12.15926100
_cell_angle_alpha   90.00000000
_cell_angle_beta   90.00000000
_cell_angle_gamma   90.00000000
_symmetry_Int_Tables_number   1
_chemical_formula_structural   CuNiC10
_chemical_formula_sum   'Cu4 Ni4 C40'
_cell_volume   968.87369909
_cell_formula_units_Z   4
loop_
 _symmetry_equiv_pos_site_id
 _symmetry_equiv_pos_as_xyz
  1  'x, y, z'
loop_
 _atom_site_type_symbol
 _atom_site_label
 _atom_site_symmetry_multiplicity
 _atom_site_fract_x
 _atom_site_fract_y
 _atom_site_fract_z
 _atom_site_occupancy
  C  C0  1  0.90652100  0.35500100  0.52961100  1
  C  C1  1  0.09347900  0.64499900  0.02961100  1
  C  C2  1  0.35500100  0.09347900  0.27961100  1
  C  C3  1  0.64499900  0.90652100  0.77961100  1
  C  C4  1  0.62500500  0.14428300  0.96523200  1
  C  C5  1  0.37499500  0.85571700  0.46523200  1
  C  C6  1  0.14428300  0.37499500  0.71523200  1
  C  C7  1  0.85571700  0.62500500  0.21523200  1
  C  C8  1  0.53581100  0.41154000  0.95988900  1
  C  C9  1  0.46418900  0.58846000  0.45988900  1
  C  C10  1  0.41154000  0.46418900  0.70988900  1
  C  C11  1  0.58846000  0.53581100  0.20988900  1
  Ni  Ni12  1  0.29087200  0.67293600  0.74322500  1
  Ni  Ni13  1  0.70912800  0.32706400  0.24322500  1
  Ni  Ni14  1  0.67293600  0.70912800  0.49322500  1
  Ni  Ni15  1  0.32706400  0.29087200  0.99322500  1
  Cu  Cu16  1  0.85020000  0.09297700  0.71804300  1
  Cu  Cu17  1  0.14980000  0.90702300  0.21804300  1
  Cu  Cu18  1  0.09297700  0.14980000  0.46804300  1
  Cu  Cu19  1  0.90702300  0.85020000  0.96804300  1
  C  C20  1  0.05609200  0.51694900  0.61250500  1
  C  C21  1  0.94390800  0.48305100  0.11250500  1
  C  C22  1  0.51694900  0.94390800  0.36250500  1
  C  C23  1  0.48305100  0.05609200  0.86250500  1
  C  C24  1  0.40801300  0.52806800  0.77547300  1
  C  C25  1  0.59198700  0.47193200  0.27547300  1
  C  C26  1  0.52806800  0.59198700  0.52547300  1
  C  C27  1  0.47193200  0.40801300  0.02547300  1
  C  C28  1  0.39735100  0.80424400  0.74687900  1
  C  C29  1  0.60264900  0.19575600  0.24687900  1
  C  C30  1  0.80424400  0.60264900  0.49687900  1
  C  C31  1  0.19575600  0.39735100  0.99687900  1
  C  C32  1  0.19821100  0.67779100  0.84770700  1
  C  C33  1  0.80178900  0.32220900  0.34770700  1
  C  C34  1  0.67779100  0.80178900  0.59770700  1
  C  C35  1  0.32220900  0.19821100  0.09770700  1
  C  C36  1  0.73463500  0.14359400  0.66551200  1
  C  C37  1  0.26536500  0.85640600  0.16551200  1
  C  C38  1  0.14359400  0.26536500  0.41551200  1
  C  C39  1  0.85640600  0.73463500  0.91551200  1
  C  C40  1  0.96983700  0.16068500  0.70420900  1
  C  C41  1  0.03016300  0.83931500  0.20420900  1
  C  C42  1  0.16068500  0.03016300  0.45420900  1
  C  C43  1  0.83931500  0.96983700  0.95420900  1
  C  C44  1  0.61158800  0.15709000  0.88562500  1
  C  C45  1  0.38841200  0.84291000  0.38562500  1
  C  C46  1  0.15709000  0.38841200  0.63562500  1
  C  C47  1  0.84291000  0.61158800  0.13562500  1
