# generated using pymatgen
data_Cu2Ni2C11
_symmetry_space_group_name_H-M   'P 1'
_cell_length_a   15.62112041
_cell_length_b   15.62112041
_cell_length_c   15.62112041
_cell_angle_alpha   165.97581478
_cell_angle_beta   165.97581478
_cell_angle_gamma   19.88334278
_symmetry_Int_Tables_number   1
_chemical_formula_structural   Cu2Ni2C11
_chemical_formula_sum   'Cu2 Ni2 C11'
_cell_volume   223.82386277
_cell_formula_units_Z   1
loop_
 _symmetry_equiv_pos_site_id
 _symmetry_equiv_pos_as_xyz
  1  'x, y, z'
loop_
 _atom_site_type_symbol
 _atom_site_label
 _atom_site_symmetry_multiplicity
 _atom_site_fract_x
 _atom_site_fract_y
 _atom_site_fract_z
 _atom_site_occupancy
  C  C0  1  0.11472200  0.11472200  0.00000000  1
  C  C1  1  0.88527800  0.88527800  0.00000000  1
  C  C2  1  0.00000000  0.00000000  0.00000000  1
  Ni  Ni3  1  0.44648400  0.44648400  0.00000000  1
  Ni  Ni4  1  0.55351600  0.55351600  0.00000000  1
  Cu  Cu5  1  0.29583800  0.29583800  0.00000000  1
  Cu  Cu6  1  0.70416200  0.70416200  0.00000000  1
  C  C7  1  0.55056200  0.05056200  0.50000000  1
  C  C8  1  0.44943800  0.94943800  0.50000000  1
  C  C9  1  0.05056200  0.55056200  0.50000000  1
  C  C10  1  0.94943800  0.44943800  0.50000000  1
  C  C11  1  0.20247200  0.20247200  0.00000000  1
  C  C12  1  0.79752800  0.79752800  0.00000000  1
  C  C13  1  0.36474200  0.36474200  0.00000000  1
  C  C14  1  0.63525800  0.63525800  0.00000000  1
