# generated using pymatgen
data_Cu(NiC4)2
_symmetry_space_group_name_H-M   'P 1'
_cell_length_a   8.22387589
_cell_length_b   8.22387589
_cell_length_c   6.32678917
_cell_angle_alpha   74.43523092
_cell_angle_beta   74.43523092
_cell_angle_gamma   44.06742307
_symmetry_Int_Tables_number   1
_chemical_formula_structural   Cu(NiC4)2
_chemical_formula_sum   'Cu2 Ni4 C16'
_cell_volume   284.86115724
_cell_formula_units_Z   2
loop_
 _symmetry_equiv_pos_site_id
 _symmetry_equiv_pos_as_xyz
  1  'x, y, z'
loop_
 _atom_site_type_symbol
 _atom_site_label
 _atom_site_symmetry_multiplicity
 _atom_site_fract_x
 _atom_site_fract_y
 _atom_site_fract_z
 _atom_site_occupancy
  Ni  Ni0  1  0.04591100  0.95939300  0.24968700  1
  Ni  Ni1  1  0.95939300  0.04591100  0.74968700  1
  Ni  Ni2  1  0.01098700  0.38988600  0.27654000  1
  Ni  Ni3  1  0.38988600  0.01098700  0.77654000  1
  Cu  Cu4  1  0.98761900  0.60454500  0.72552500  1
  Cu  Cu5  1  0.60454500  0.98761900  0.22552500  1
  C  C6  1  0.67454600  0.49207800  0.00665300  1
  C  C7  1  0.49207800  0.67454600  0.50665300  1
  C  C8  1  0.32349400  0.51012600  0.99408900  1
  C  C9  1  0.51012600  0.32349400  0.49408900  1
  C  C10  1  0.68366300  0.71149400  0.02529600  1
  C  C11  1  0.71149400  0.68366300  0.52529600  1
  C  C12  1  0.31033400  0.29332400  0.97509600  1
  C  C13  1  0.29332400  0.31033400  0.47509600  1
  C  C14  1  0.34819600  0.72791700  0.97599800  1
  C  C15  1  0.72791700  0.34819600  0.47599800  1
  C  C16  1  0.65158700  0.27203800  0.02514000  1
  C  C17  1  0.27203800  0.65158700  0.52514000  1
  C  C18  1  0.00479100  0.24344300  0.97515300  1
  C  C19  1  0.24344300  0.00479100  0.47515300  1
  C  C20  1  0.99278600  0.76184300  0.02082200  1
  C  C21  1  0.76184300  0.99278600  0.52082200  1
