# generated using pymatgen
data_Cu4Ni9C10
_symmetry_space_group_name_H-M   'P 1'
_cell_length_a   6.76163682
_cell_length_b   6.76163682
_cell_length_c   6.76163698
_cell_angle_alpha   103.68584915
_cell_angle_beta   103.68584915
_cell_angle_gamma   103.68584761
_symmetry_Int_Tables_number   1
_chemical_formula_structural   Cu4Ni9C10
_chemical_formula_sum   'Cu4 Ni9 C10'
_cell_volume   277.46519881
_cell_formula_units_Z   1
loop_
 _symmetry_equiv_pos_site_id
 _symmetry_equiv_pos_as_xyz
  1  'x, y, z'
loop_
 _atom_site_type_symbol
 _atom_site_label
 _atom_site_symmetry_multiplicity
 _atom_site_fract_x
 _atom_site_fract_y
 _atom_site_fract_z
 _atom_site_occupancy
  C  C0  1  0.28304400  0.28304400  0.28304400  1
  C  C1  1  0.48252600  0.87626000  0.48252600  1
  C  C2  1  0.48252600  0.48252600  0.87626000  1
  C  C3  1  0.87626000  0.48252600  0.48252600  1
  C  C4  1  0.06941800  0.79434400  0.06941800  1
  C  C5  1  0.06941800  0.06941800  0.79434400  1
  C  C6  1  0.79434400  0.06941800  0.06941800  1
  C  C7  1  0.93403300  0.39727800  0.93403300  1
  C  C8  1  0.93403300  0.93403300  0.39727800  1
  C  C9  1  0.39727800  0.93403300  0.93403300  1
  Ni  Ni10  1  0.31056700  0.83664100  0.06512900  1
  Ni  Ni11  1  0.06512900  0.31056700  0.83664100  1
  Ni  Ni12  1  0.83664100  0.06512900  0.31056700  1
  Ni  Ni13  1  0.06512900  0.83664100  0.31056700  1
  Ni  Ni14  1  0.31056700  0.06512900  0.83664100  1
  Ni  Ni15  1  0.83664100  0.31056700  0.06512900  1
  Ni  Ni16  1  0.89790600  0.58255900  0.89790600  1
  Ni  Ni17  1  0.89790600  0.89790600  0.58255900  1
  Ni  Ni18  1  0.58255900  0.89790600  0.89790600  1
  Cu  Cu19  1  0.54574100  0.26322900  0.54574100  1
  Cu  Cu20  1  0.54574100  0.54574100  0.26322900  1
  Cu  Cu21  1  0.26322900  0.54574100  0.54574100  1
  Cu  Cu22  1  0.99863600  0.99863600  0.99863600  1
