# generated using pymatgen
data_Cu2Ni4C29
_symmetry_space_group_name_H-M   'P 1'
_cell_length_a   8.29686498
_cell_length_b   7.29429285
_cell_length_c   18.11924300
_cell_angle_alpha   90.00004561
_cell_angle_beta   90.00006550
_cell_angle_gamma   102.06378088
_symmetry_Int_Tables_number   1
_chemical_formula_structural   Cu2Ni4C29
_chemical_formula_sum   'Cu4 Ni8 C58'
_cell_volume   1072.35509440
_cell_formula_units_Z   2
loop_
 _symmetry_equiv_pos_site_id
 _symmetry_equiv_pos_as_xyz
  1  'x, y, z'
loop_
 _atom_site_type_symbol
 _atom_site_label
 _atom_site_symmetry_multiplicity
 _atom_site_fract_x
 _atom_site_fract_y
 _atom_site_fract_z
 _atom_site_occupancy
  C  C0  1  0.88595800  0.42869500  0.90903000  1
  C  C1  1  0.11404200  0.57130400  0.09097000  1
  C  C2  1  0.61404300  0.57130500  0.40903000  1
  C  C3  1  0.38595700  0.42869400  0.59097000  1
  C  C4  1  0.12458500  0.12637700  0.09049300  1
  C  C5  1  0.35052800  0.13109400  0.39593000  1
  C  C6  1  0.87541500  0.87362300  0.90950700  1
  C  C7  1  0.36913500  0.09699500  0.81243000  1
  C  C8  1  0.89727200  0.87779100  0.58619400  1
  C  C9  1  0.63086500  0.90300500  0.18757000  1
  C  C10  1  0.86913500  0.09699500  0.68757000  1
  C  C11  1  0.81837900  0.04285200  0.08257300  1
  C  C12  1  0.13086500  0.90300500  0.31243000  1
  C  C13  1  0.10272800  0.12220900  0.41380600  1
  C  C14  1  0.18162100  0.95714800  0.91742700  1
  C  C15  1  0.31837900  0.04285300  0.41742700  1
  C  C16  1  0.39727100  0.87779200  0.91380600  1
  C  C17  1  0.00867800  0.25330600  0.65087300  1
  C  C18  1  0.85052700  0.13109300  0.10407000  1
  C  C19  1  0.60272900  0.12220800  0.08619400  1
  C  C20  1  0.37541500  0.87362300  0.59049300  1
  C  C21  1  0.49132200  0.74669400  0.15087300  1
  C  C22  1  0.50867800  0.25330600  0.84912700  1
  C  C23  1  0.68162100  0.95714700  0.58257300  1
  C  C24  1  0.62458500  0.12637700  0.40950700  1
  C  C25  1  0.99132200  0.74669400  0.34912700  1
  C  C26  1  0.14947300  0.86890700  0.89593000  1
  C  C27  1  0.64947200  0.86890600  0.60407000  1
  Ni  Ni28  1  0.32432200  0.07369800  0.67918200  1
  Ni  Ni29  1  0.64590700  0.98544000  0.39907900  1
  Ni  Ni30  1  0.14590800  0.98544000  0.10092200  1
  Ni  Ni31  1  0.82432300  0.07369700  0.82081800  1
  Ni  Ni32  1  0.67567800  0.92630200  0.32081800  1
  Ni  Ni33  1  0.17567700  0.92630300  0.17918200  1
  Ni  Ni34  1  0.35409300  0.01456000  0.60092100  1
  Ni  Ni35  1  0.85409200  0.01456000  0.89907800  1
  Cu  Cu36  1  0.01130500  0.90666900  0.61398200  1
  Cu  Cu37  1  0.98869500  0.09333100  0.38601800  1
  Cu  Cu38  1  0.51130400  0.90667200  0.88601800  1
  Cu  Cu39  1  0.48869600  0.09332800  0.11398200  1
  C  C40  1  0.91484300  0.14983500  0.94236600  1
  C  C41  1  0.41176000  0.15571100  0.86055600  1
  C  C42  1  0.12109300  0.94085300  0.56639500  1
  C  C43  1  0.41484500  0.14983600  0.55763400  1
  C  C44  1  0.30903300  0.52958800  0.07666900  1
  C  C45  1  0.49119300  0.60286900  0.64769800  1
  C  C46  1  0.30994300  0.96821300  0.73269700  1
  C  C47  1  0.99119300  0.60286900  0.85230200  1
  C  C48  1  0.58824000  0.84428900  0.13944400  1
  C  C49  1  0.67668400  0.74611400  0.31802000  1
  C  C50  1  0.19005800  0.03178900  0.23269700  1
  C  C51  1  0.82331600  0.25388600  0.81802000  1
  C  C52  1  0.32331600  0.25388600  0.68198000  1
  C  C53  1  0.80994200  0.96821100  0.76730300  1
  C  C54  1  0.08515700  0.85016500  0.05763400  1
  C  C55  1  0.58515500  0.85016400  0.44236600  1
  C  C56  1  0.87890700  0.05914700  0.43360500  1
  C  C57  1  0.80903300  0.52958700  0.42333100  1
  C  C58  1  0.08824000  0.84428900  0.36055500  1
  C  C59  1  0.50000000  0.50000000  0.50000000  1
  C  C60  1  0.69005700  0.03178700  0.26730300  1
  C  C61  1  0.17668400  0.74611400  0.18198000  1
  C  C62  1  0.62109300  0.94084900  0.93360500  1
  C  C63  1  0.00880700  0.39713100  0.14769800  1
  C  C64  1  0.91176000  0.15571100  0.63944500  1
  C  C65  1  0.37890700  0.05915100  0.06639500  1
  C  C66  1  0.00000000  0.50000000  0.00000000  1
  C  C67  1  0.19096700  0.47041300  0.57666900  1
  C  C68  1  0.69096700  0.47041200  0.92333100  1
  C  C69  1  0.50880700  0.39713100  0.35230200  1
