# generated using pymatgen
data_Cu26Ni4C13
_symmetry_space_group_name_H-M   'P 1'
_cell_length_a   16.33848200
_cell_length_b   16.33848200
_cell_length_c   6.02603800
_cell_angle_alpha   90.00000000
_cell_angle_beta   90.00000000
_cell_angle_gamma   90.00000000
_symmetry_Int_Tables_number   1
_chemical_formula_structural   Cu26Ni4C13
_chemical_formula_sum   'Cu52 Ni8 C26'
_cell_volume   1608.62670418
_cell_formula_units_Z   2
loop_
 _symmetry_equiv_pos_site_id
 _symmetry_equiv_pos_as_xyz
  1  'x, y, z'
loop_
 _atom_site_type_symbol
 _atom_site_label
 _atom_site_symmetry_multiplicity
 _atom_site_fract_x
 _atom_site_fract_y
 _atom_site_fract_z
 _atom_site_occupancy
  C  C0  1  0.02561400  0.81938800  0.46915700  1
  C  C1  1  0.97438600  0.18061200  0.46915700  1
  C  C2  1  0.18061200  0.02561400  0.53084300  1
  C  C3  1  0.47438600  0.31938800  0.53084300  1
  C  C4  1  0.81938800  0.97438600  0.53084300  1
  C  C5  1  0.52561400  0.68061200  0.53084300  1
  C  C6  1  0.31938800  0.52561400  0.46915700  1
  C  C7  1  0.68061200  0.47438600  0.46915700  1
  C  C8  1  0.60851000  0.89149000  0.99537500  1
  C  C9  1  0.39149000  0.10851000  0.99537500  1
  C  C10  1  0.10851000  0.60851000  0.00462500  1
  C  C11  1  0.89149000  0.39149000  0.00462500  1
  C  C12  1  0.08074400  0.41925600  0.51974200  1
  C  C13  1  0.91925600  0.58074400  0.51974200  1
  C  C14  1  0.58074400  0.08074400  0.48025800  1
  C  C15  1  0.41925600  0.91925600  0.48025800  1
  C  C16  1  0.00000000  0.00000000  0.00000000  1
  C  C17  1  0.50000000  0.50000000  0.00000000  1
  C  C18  1  0.19711400  0.30288600  0.01248600  1
  C  C19  1  0.80288600  0.69711400  0.01248600  1
  C  C20  1  0.69711400  0.19711400  0.98751400  1
  C  C21  1  0.30288600  0.80288600  0.98751400  1
  C  C22  1  0.11952300  0.38047700  0.01414900  1
  C  C23  1  0.88047700  0.61952300  0.01414900  1
  C  C24  1  0.61952300  0.11952300  0.98585100  1
  C  C25  1  0.38047700  0.88047700  0.98585100  1
  Ni  Ni26  1  0.26874200  0.33703500  0.01274700  1
  Ni  Ni27  1  0.73125800  0.66296500  0.01274700  1
  Ni  Ni28  1  0.66296500  0.26874200  0.98725300  1
  Ni  Ni29  1  0.23125800  0.83703500  0.98725300  1
  Ni  Ni30  1  0.33703500  0.73125800  0.98725300  1
  Ni  Ni31  1  0.76874200  0.16296500  0.98725300  1
  Ni  Ni32  1  0.83703500  0.76874200  0.01274700  1
  Ni  Ni33  1  0.16296500  0.23125800  0.01274700  1
  Cu  Cu34  1  0.11275000  0.99551100  0.32106400  1
  Cu  Cu35  1  0.88725000  0.00448900  0.32106400  1
  Cu  Cu36  1  0.00448900  0.11275000  0.67893600  1
  Cu  Cu37  1  0.38725000  0.49551100  0.67893600  1
  Cu  Cu38  1  0.99551100  0.88725000  0.67893600  1
  Cu  Cu39  1  0.61275000  0.50448900  0.67893600  1
  Cu  Cu40  1  0.49551100  0.61275000  0.32106400  1
  Cu  Cu41  1  0.50448900  0.38725000  0.32106400  1
  Cu  Cu42  1  0.09060800  0.71318500  0.00306200  1
  Cu  Cu43  1  0.90939200  0.28681500  0.00306200  1
  Cu  Cu44  1  0.28681500  0.09060800  0.99693800  1
  Cu  Cu45  1  0.40939200  0.21318500  0.99693800  1
  Cu  Cu46  1  0.71318500  0.90939200  0.99693800  1
  Cu  Cu47  1  0.59060800  0.78681500  0.99693800  1
  Cu  Cu48  1  0.21318500  0.59060800  0.00306200  1
  Cu  Cu49  1  0.78681500  0.40939200  0.00306200  1
  Cu  Cu50  1  0.56450800  0.93549200  0.75344300  1
  Cu  Cu51  1  0.43549200  0.06450800  0.75344300  1
  Cu  Cu52  1  0.06450800  0.56450800  0.24655700  1
  Cu  Cu53  1  0.93549200  0.43549200  0.24655700  1
  Cu  Cu54  1  0.27811700  0.97874700  0.49048900  1
  Cu  Cu55  1  0.72188300  0.02125300  0.49048900  1
  Cu  Cu56  1  0.02125300  0.27811700  0.50951100  1
  Cu  Cu57  1  0.22188300  0.47874700  0.50951100  1
  Cu  Cu58  1  0.97874700  0.72188300  0.50951100  1
  Cu  Cu59  1  0.77811700  0.52125300  0.50951100  1
  Cu  Cu60  1  0.47874700  0.77811700  0.49048900  1
  Cu  Cu61  1  0.52125300  0.22188300  0.49048900  1
  Cu  Cu62  1  0.18946800  0.31053200  0.50342600  1
  Cu  Cu63  1  0.81053200  0.68946800  0.50342600  1
  Cu  Cu64  1  0.68946800  0.18946800  0.49657400  1
  Cu  Cu65  1  0.31053200  0.81053200  0.49657400  1
  Cu  Cu66  1  0.35956700  0.49631400  0.21155100  1
  Cu  Cu67  1  0.64043300  0.50368600  0.21155100  1
  Cu  Cu68  1  0.50368600  0.35956700  0.78844900  1
  Cu  Cu69  1  0.14043300  0.99631400  0.78844900  1
  Cu  Cu70  1  0.49631400  0.64043300  0.78844900  1
  Cu  Cu71  1  0.85956700  0.00368600  0.78844900  1
  Cu  Cu72  1  0.99631400  0.85956700  0.21155100  1
  Cu  Cu73  1  0.00368600  0.14043300  0.21155100  1
  Cu  Cu74  1  0.56326900  0.93673100  0.23511900  1
  Cu  Cu75  1  0.43673100  0.06326900  0.23511900  1
  Cu  Cu76  1  0.06326900  0.56326900  0.76488100  1
  Cu  Cu77  1  0.93673100  0.43673100  0.76488100  1
  Cu  Cu78  1  0.13128400  0.80979800  0.47759800  1
  Cu  Cu79  1  0.86871600  0.19020200  0.47759800  1
  Cu  Cu80  1  0.19020200  0.13128400  0.52240200  1
  Cu  Cu81  1  0.36871600  0.30979800  0.52240200  1
  Cu  Cu82  1  0.80979800  0.86871600  0.52240200  1
  Cu  Cu83  1  0.63128400  0.69020200  0.52240200  1
  Cu  Cu84  1  0.30979800  0.63128400  0.47759800  1
  Cu  Cu85  1  0.69020200  0.36871600  0.47759800  1
