# generated using pymatgen
data_Cu6Ni8C
_symmetry_space_group_name_H-M   'P 1'
_cell_length_a   13.83432800
_cell_length_b   13.83409301
_cell_length_c   5.17460500
_cell_angle_alpha   90.00237629
_cell_angle_beta   89.99889691
_cell_angle_gamma   119.99940758
_symmetry_Int_Tables_number   1
_chemical_formula_structural   Cu6Ni8C
_chemical_formula_sum   'Cu18 Ni24 C3'
_cell_volume   857.66796139
_cell_formula_units_Z   3
loop_
 _symmetry_equiv_pos_site_id
 _symmetry_equiv_pos_as_xyz
  1  'x, y, z'
loop_
 _atom_site_type_symbol
 _atom_site_label
 _atom_site_symmetry_multiplicity
 _atom_site_fract_x
 _atom_site_fract_y
 _atom_site_fract_z
 _atom_site_occupancy
  C  C0  1  0.00000000  0.00000300  0.33289700  1
  C  C1  1  0.33333300  0.66666700  0.78525800  1
  C  C2  1  0.66666600  0.33333300  0.78525800  1
  Ni  Ni3  1  0.00000000  0.61890400  0.19465600  1
  Ni  Ni4  1  0.61890500  0.00000000  0.19465000  1
  Ni  Ni5  1  0.38109500  0.38109600  0.19464900  1
  Ni  Ni6  1  0.00000000  0.71271900  0.30173900  1
  Ni  Ni7  1  0.71272100  0.99999700  0.30172600  1
  Ni  Ni8  1  0.28728200  0.28727900  0.30172200  1
  Ni  Ni9  1  0.10072200  0.62283100  0.13658700  1
  Ni  Ni10  1  0.52210700  0.89927300  0.13659700  1
  Ni  Ni11  1  0.37716800  0.47789100  0.13660700  1
  Ni  Ni12  1  0.89927500  0.52210700  0.13658600  1
  Ni  Ni13  1  0.62283300  0.10072300  0.13660500  1
  Ni  Ni14  1  0.47789300  0.37716700  0.13659900  1
  Ni  Ni15  1  0.71804400  0.71804300  0.77050500  1
  Ni  Ni16  1  0.00000000  0.28195700  0.77050300  1
  Ni  Ni17  1  0.28195600  0.99999800  0.77050100  1
  Ni  Ni18  1  0.80329000  0.80329100  0.91389000  1
  Ni  Ni19  1  0.00000000  0.19671300  0.91387800  1
  Ni  Ni20  1  0.19670800  0.00000100  0.91389300  1
  Ni  Ni21  1  0.62479200  0.72674300  0.69920500  1
  Ni  Ni22  1  0.10194500  0.37520500  0.69920300  1
  Ni  Ni23  1  0.27325400  0.89805000  0.69919000  1
  Ni  Ni24  1  0.37520600  0.10194900  0.69920700  1
  Ni  Ni25  1  0.72674600  0.62479400  0.69918800  1
  Ni  Ni26  1  0.89805400  0.27325900  0.69920200  1
  Cu  Cu27  1  0.00000000  0.79084500  0.38943800  1
  Cu  Cu28  1  0.79084000  0.99999300  0.38942500  1
  Cu  Cu29  1  0.20915900  0.20915300  0.38942700  1
  Cu  Cu30  1  0.18481400  0.62477600  0.09124300  1
  Cu  Cu31  1  0.43995900  0.81518700  0.09127000  1
  Cu  Cu32  1  0.37522800  0.56003800  0.09128100  1
  Cu  Cu33  1  0.81518800  0.43996500  0.09124400  1
  Cu  Cu34  1  0.62477100  0.18481000  0.09127800  1
  Cu  Cu35  1  0.56004000  0.37522900  0.09127100  1
  Cu  Cu36  1  0.87589500  0.87589200  0.03022200  1
  Cu  Cu37  1  0.00000000  0.12411200  0.03020000  1
  Cu  Cu38  1  0.12410700  0.99999900  0.03021900  1
  Cu  Cu39  1  0.54772300  0.73543800  0.63927300  1
  Cu  Cu40  1  0.18771300  0.45228200  0.63925500  1
  Cu  Cu41  1  0.26455600  0.81228100  0.63924600  1
  Cu  Cu42  1  0.45228000  0.18771700  0.63927100  1
  Cu  Cu43  1  0.73544500  0.54772400  0.63924300  1
  Cu  Cu44  1  0.81228900  0.26456800  0.63925800  1
