# generated using pymatgen
data_Cu2Ni2C3
_symmetry_space_group_name_H-M   'P 1'
_cell_length_a   9.34886110
_cell_length_b   9.34886110
_cell_length_c   16.92167100
_cell_angle_alpha   90.00000000
_cell_angle_beta   90.00000000
_cell_angle_gamma   106.89245776
_symmetry_Int_Tables_number   1
_chemical_formula_structural   Cu2Ni2C3
_chemical_formula_sum   'Cu16 Ni16 C24'
_cell_volume   1415.15939631
_cell_formula_units_Z   8
loop_
 _symmetry_equiv_pos_site_id
 _symmetry_equiv_pos_as_xyz
  1  'x, y, z'
loop_
 _atom_site_type_symbol
 _atom_site_label
 _atom_site_symmetry_multiplicity
 _atom_site_fract_x
 _atom_site_fract_y
 _atom_site_fract_z
 _atom_site_occupancy
  C  C0  1  0.84965000  0.15035000  0.75000000  1
  C  C1  1  0.15035000  0.84965000  0.25000000  1
  C  C2  1  0.98479700  0.66442400  0.55512100  1
  C  C3  1  0.01520300  0.33557600  0.44487900  1
  C  C4  1  0.01520300  0.33557600  0.05512100  1
  C  C5  1  0.33557600  0.01520300  0.94487900  1
  C  C6  1  0.98479700  0.66442400  0.94487900  1
  C  C7  1  0.66442400  0.98479700  0.05512100  1
  C  C8  1  0.66442400  0.98479700  0.44487900  1
  C  C9  1  0.33557600  0.01520300  0.55512100  1
  C  C10  1  0.60299800  0.63254500  0.55340600  1
  C  C11  1  0.39700200  0.36745500  0.44659400  1
  C  C12  1  0.39700200  0.36745500  0.05340600  1
  C  C13  1  0.36745500  0.39700200  0.94659400  1
  C  C14  1  0.60299800  0.63254500  0.94659400  1
  C  C15  1  0.63254500  0.60299800  0.05340600  1
  C  C16  1  0.63254500  0.60299800  0.44659400  1
  C  C17  1  0.36745500  0.39700200  0.55340600  1
  Ni  Ni18  1  0.01125400  0.31333500  0.51693100  1
  Ni  Ni19  1  0.98874600  0.68666500  0.48306900  1
  Ni  Ni20  1  0.98874600  0.68666500  0.01693100  1
  Ni  Ni21  1  0.68666500  0.98874600  0.98306900  1
  Ni  Ni22  1  0.01125400  0.31333500  0.98306900  1
  Ni  Ni23  1  0.31333500  0.01125400  0.01693100  1
  Ni  Ni24  1  0.31333500  0.01125400  0.48306900  1
  Ni  Ni25  1  0.68666500  0.98874600  0.51693100  1
  Ni  Ni26  1  0.97507500  0.64034200  0.62725400  1
  Ni  Ni27  1  0.02492500  0.35965800  0.37274600  1
  Ni  Ni28  1  0.02492500  0.35965800  0.12725400  1
  Ni  Ni29  1  0.35965800  0.02492500  0.87274600  1
  Ni  Ni30  1  0.97507500  0.64034200  0.87274600  1
  Ni  Ni31  1  0.64034200  0.97507500  0.12725400  1
  Ni  Ni32  1  0.64034200  0.97507500  0.37274600  1
  Ni  Ni33  1  0.35965800  0.02492500  0.62725400  1
  Cu  Cu34  1  0.74179700  0.25820300  0.65401200  1
  Cu  Cu35  1  0.25820300  0.74179700  0.34598800  1
  Cu  Cu36  1  0.25820300  0.74179700  0.15401200  1
  Cu  Cu37  1  0.74179700  0.25820300  0.84598800  1
  Cu  Cu38  1  0.66084000  0.33916000  0.09575300  1
  Cu  Cu39  1  0.33916000  0.66084000  0.90424700  1
  Cu  Cu40  1  0.33916000  0.66084000  0.59575300  1
  Cu  Cu41  1  0.66084000  0.33916000  0.40424700  1
  Cu  Cu42  1  0.95845800  0.04154200  0.65463900  1
  Cu  Cu43  1  0.04154200  0.95845800  0.34536100  1
  Cu  Cu44  1  0.04154200  0.95845800  0.15463900  1
  Cu  Cu45  1  0.95845800  0.04154200  0.84536100  1
  Cu  Cu46  1  0.05497900  0.35668400  0.75000000  1
  Cu  Cu47  1  0.94502100  0.64331600  0.25000000  1
  Cu  Cu48  1  0.64331600  0.94502100  0.75000000  1
  Cu  Cu49  1  0.35668400  0.05497900  0.25000000  1
  C  C50  1  0.49159800  0.50840200  0.75000000  1
  C  C51  1  0.50840200  0.49159800  0.25000000  1
  C  C52  1  0.63542700  0.56338400  0.75000000  1
  C  C53  1  0.36457300  0.43661600  0.25000000  1
  C  C54  1  0.43661600  0.36457300  0.75000000  1
  C  C55  1  0.56338400  0.63542700  0.25000000  1
