# generated using pymatgen
data_Cu2NiC4
_symmetry_space_group_name_H-M   'P 1'
_cell_length_a   5.98465949
_cell_length_b   5.98465949
_cell_length_c   14.70269300
_cell_angle_alpha   90.00000000
_cell_angle_beta   90.00000000
_cell_angle_gamma   119.99999432
_symmetry_Int_Tables_number   1
_chemical_formula_structural   Cu2NiC4
_chemical_formula_sum   'Cu12 Ni6 C24'
_cell_volume   456.04367391
_cell_formula_units_Z   6
loop_
 _symmetry_equiv_pos_site_id
 _symmetry_equiv_pos_as_xyz
  1  'x, y, z'
loop_
 _atom_site_type_symbol
 _atom_site_label
 _atom_site_symmetry_multiplicity
 _atom_site_fract_x
 _atom_site_fract_y
 _atom_site_fract_z
 _atom_site_occupancy
  Ni  Ni0  1  0.00000000  0.00000000  0.95337200  1
  Ni  Ni1  1  0.66666700  0.33333300  0.62488500  1
  Ni  Ni2  1  0.66666700  0.33333300  0.99571100  1
  Ni  Ni3  1  0.33333300  0.66666700  0.29197000  1
  Ni  Ni4  1  0.00000000  0.00000000  0.71034400  1
  Ni  Ni5  1  0.66666700  0.33333300  0.37545200  1
  Cu  Cu6  1  0.50118700  0.00237300  0.83299500  1
  Cu  Cu7  1  0.99762700  0.49881300  0.83299500  1
  Cu  Cu8  1  0.16679100  0.33358300  0.50057100  1
  Cu  Cu9  1  0.50118700  0.49881300  0.83299500  1
  Cu  Cu10  1  0.33333300  0.66666700  0.66721100  1
  Cu  Cu11  1  0.66641700  0.83320900  0.50057100  1
  Cu  Cu12  1  0.83446700  0.66893400  0.16746500  1
  Cu  Cu13  1  0.16679100  0.83320900  0.50057100  1
  Cu  Cu14  1  0.83446700  0.16553300  0.16746500  1
  Cu  Cu15  1  0.00000000  0.00000000  0.33447900  1
  Cu  Cu16  1  0.33106600  0.16553300  0.16746500  1
  Cu  Cu17  1  0.33333300  0.66666700  0.04398500  1
  C  C18  1  0.35741900  0.17870900  0.90976100  1
  C  C19  1  0.66666700  0.33333300  0.76014100  1
  C  C20  1  0.82129100  0.17870900  0.90976100  1
  C  C21  1  0.82129100  0.64258100  0.90976100  1
  C  C22  1  0.18207100  0.36414200  0.75319800  1
  C  C23  1  0.02905700  0.51452900  0.57931000  1
  C  C24  1  0.18207100  0.81792900  0.75319800  1
  C  C25  1  0.33333300  0.66666700  0.90798000  1
  C  C26  1  0.48547100  0.51452900  0.57931000  1
  C  C27  1  0.33333300  0.66666700  0.42745600  1
  C  C28  1  0.63585800  0.81792900  0.75319800  1
  C  C29  1  0.48547100  0.97094300  0.57931000  1
  C  C30  1  0.84798800  0.69597700  0.42017900  1
  C  C31  1  0.69683200  0.84841600  0.24663000  1
  C  C32  1  0.84798800  0.15201200  0.42017900  1
  C  C33  1  0.00000000  0.00000000  0.57279300  1
  C  C34  1  0.00000000  0.00000000  0.09417800  1
  C  C35  1  0.15158400  0.84841600  0.24663000  1
  C  C36  1  0.30402300  0.15201200  0.42017900  1
  C  C37  1  0.15158400  0.30316800  0.24663000  1
  C  C38  1  0.50783900  0.01567800  0.09044400  1
  C  C39  1  0.66666700  0.33333300  0.23835300  1
  C  C40  1  0.50783900  0.49216100  0.09044400  1
  C  C41  1  0.98432200  0.49216100  0.09044400  1
