# generated using pymatgen
data_CuNi5C
_symmetry_space_group_name_H-M   'P 1'
_cell_length_a   7.43543900
_cell_length_b   13.53416000
_cell_length_c   21.64387000
_cell_angle_alpha   90.00000000
_cell_angle_beta   90.00000000
_cell_angle_gamma   90.00000000
_symmetry_Int_Tables_number   1
_chemical_formula_structural   CuNi5C
_chemical_formula_sum   'Cu8 Ni40 C8'
_cell_volume   2178.07503999
_cell_formula_units_Z   8
loop_
 _symmetry_equiv_pos_site_id
 _symmetry_equiv_pos_as_xyz
  1  'x, y, z'
loop_
 _atom_site_type_symbol
 _atom_site_label
 _atom_site_symmetry_multiplicity
 _atom_site_fract_x
 _atom_site_fract_y
 _atom_site_fract_z
 _atom_site_occupancy
  C  C0  1  0.73821800  0.08312300  0.25000000  1
  C  C1  1  0.76178200  0.58312300  0.25000000  1
  C  C2  1  0.26178200  0.91687700  0.75000000  1
  C  C3  1  0.23821800  0.41687700  0.75000000  1
  C  C4  1  0.00000000  0.00000000  0.00000000  1
  C  C5  1  0.50000000  0.50000000  0.50000000  1
  C  C6  1  0.00000000  0.00000000  0.50000000  1
  C  C7  1  0.50000000  0.50000000  0.00000000  1
  Ni  Ni8  1  0.43948500  0.97806100  0.25000000  1
  Ni  Ni9  1  0.06051500  0.47806100  0.25000000  1
  Ni  Ni10  1  0.56051500  0.02193900  0.75000000  1
  Ni  Ni11  1  0.93948500  0.52193900  0.75000000  1
  Ni  Ni12  1  0.73787800  0.08624900  0.12859200  1
  Ni  Ni13  1  0.76212200  0.58624900  0.37140800  1
  Ni  Ni14  1  0.26212200  0.91375100  0.62859200  1
  Ni  Ni15  1  0.23787800  0.41375100  0.87140800  1
  Ni  Ni16  1  0.26212200  0.91375100  0.87140800  1
  Ni  Ni17  1  0.23787800  0.41375100  0.62859200  1
  Ni  Ni18  1  0.73787800  0.08624900  0.37140800  1
  Ni  Ni19  1  0.76212200  0.58624900  0.12859200  1
  Ni  Ni20  1  0.04121700  0.18553700  0.25000000  1
  Ni  Ni21  1  0.45878300  0.68553700  0.25000000  1
  Ni  Ni22  1  0.95878300  0.81446300  0.75000000  1
  Ni  Ni23  1  0.54121700  0.31446300  0.75000000  1
  Ni  Ni24  1  0.29826500  0.06721000  0.05555300  1
  Ni  Ni25  1  0.20173500  0.56721000  0.44444700  1
  Ni  Ni26  1  0.70173500  0.93279000  0.55555300  1
  Ni  Ni27  1  0.79826500  0.43279000  0.94444700  1
  Ni  Ni28  1  0.70173500  0.93279000  0.94444700  1
  Ni  Ni29  1  0.79826500  0.43279000  0.55555300  1
  Ni  Ni30  1  0.29826500  0.06721000  0.44444700  1
  Ni  Ni31  1  0.20173500  0.56721000  0.05555300  1
  Ni  Ni32  1  0.08832300  0.81329500  0.03448100  1
  Ni  Ni33  1  0.41167700  0.31329500  0.46551900  1
  Ni  Ni34  1  0.91167700  0.18670500  0.53448100  1
  Ni  Ni35  1  0.58832300  0.68670500  0.96551900  1
  Ni  Ni36  1  0.91167700  0.18670500  0.96551900  1
  Ni  Ni37  1  0.58832300  0.68670500  0.53448100  1
  Ni  Ni38  1  0.08832300  0.81329500  0.46551900  1
  Ni  Ni39  1  0.41167700  0.31329500  0.03448100  1
  Ni  Ni40  1  0.04849500  0.83297800  0.18563500  1
  Ni  Ni41  1  0.45150500  0.33297800  0.31436500  1
  Ni  Ni42  1  0.95150500  0.16702200  0.68563500  1
  Ni  Ni43  1  0.54849500  0.66702200  0.81436500  1
  Ni  Ni44  1  0.95150500  0.16702200  0.81436500  1
  Ni  Ni45  1  0.54849500  0.66702200  0.68563500  1
  Ni  Ni46  1  0.04849500  0.83297800  0.31436500  1
  Ni  Ni47  1  0.45150500  0.33297800  0.18563500  1
  Cu  Cu48  1  0.52848000  0.83056200  0.11167000  1
  Cu  Cu49  1  0.97152000  0.33056200  0.38833000  1
  Cu  Cu50  1  0.47152000  0.16943800  0.61167000  1
  Cu  Cu51  1  0.02848000  0.66943800  0.88833000  1
  Cu  Cu52  1  0.47152000  0.16943800  0.88833000  1
  Cu  Cu53  1  0.02848000  0.66943800  0.61167000  1
  Cu  Cu54  1  0.52848000  0.83056200  0.38833000  1
  Cu  Cu55  1  0.97152000  0.33056200  0.11167000  1
