# generated using pymatgen
data_Cu6Ni3C
_symmetry_space_group_name_H-M   'P 1'
_cell_length_a   9.40732000
_cell_length_b   7.44010800
_cell_length_c   8.20044163
_cell_angle_alpha   78.51783961
_cell_angle_beta   90.00000000
_cell_angle_gamma   90.00000000
_symmetry_Int_Tables_number   1
_chemical_formula_structural   Cu6Ni3C
_chemical_formula_sum   'Cu24 Ni12 C4'
_cell_volume   562.47418473
_cell_formula_units_Z   4
loop_
 _symmetry_equiv_pos_site_id
 _symmetry_equiv_pos_as_xyz
  1  'x, y, z'
loop_
 _atom_site_type_symbol
 _atom_site_label
 _atom_site_symmetry_multiplicity
 _atom_site_fract_x
 _atom_site_fract_y
 _atom_site_fract_z
 _atom_site_occupancy
  C  C0  1  0.32731700  0.54353500  0.82883800  1
  C  C1  1  0.82731700  0.95646500  0.17116200  1
  C  C2  1  0.67268300  0.45646500  0.17116200  1
  C  C3  1  0.17268300  0.04353500  0.82883800  1
  Ni  Ni4  1  0.60032500  0.67673800  0.51838900  1
  Ni  Ni5  1  0.10032500  0.82326200  0.48161100  1
  Ni  Ni6  1  0.39967500  0.32326200  0.48161100  1
  Ni  Ni7  1  0.89967500  0.17673800  0.51838900  1
  Ni  Ni8  1  0.69846700  0.58076800  0.72880400  1
  Ni  Ni9  1  0.19846700  0.91923200  0.27119600  1
  Ni  Ni10  1  0.30153300  0.41923200  0.27119600  1
  Ni  Ni11  1  0.80153300  0.08076800  0.72880400  1
  Ni  Ni12  1  0.50357600  0.90017500  0.98356200  1
  Ni  Ni13  1  0.00357600  0.59982500  0.01643800  1
  Ni  Ni14  1  0.49642400  0.09982500  0.01643800  1
  Ni  Ni15  1  0.99642400  0.40017500  0.98356200  1
  Cu  Cu16  1  0.60993100  0.51860800  0.83638400  1
  Cu  Cu17  1  0.10993100  0.98139200  0.16361600  1
  Cu  Cu18  1  0.39006900  0.48139200  0.16361600  1
  Cu  Cu19  1  0.89006900  0.01860800  0.83638400  1
  Cu  Cu20  1  0.40345400  0.85157400  0.89748400  1
  Cu  Cu21  1  0.90345400  0.64842600  0.10251600  1
  Cu  Cu22  1  0.59654600  0.14842600  0.10251600  1
  Cu  Cu23  1  0.09654600  0.35157400  0.89748400  1
  Cu  Cu24  1  0.47576000  0.68962500  0.55480600  1
  Cu  Cu25  1  0.97576000  0.81037500  0.44519400  1
  Cu  Cu26  1  0.52424000  0.31037500  0.44519400  1
  Cu  Cu27  1  0.02424000  0.18962500  0.55480600  1
  Cu  Cu28  1  0.68056600  0.69935700  0.39771900  1
  Cu  Cu29  1  0.18056600  0.80064300  0.60228100  1
  Cu  Cu30  1  0.31943400  0.30064300  0.60228100  1
  Cu  Cu31  1  0.81943400  0.19935700  0.39771900  1
  Cu  Cu32  1  0.60816100  0.80295300  0.04541300  1
  Cu  Cu33  1  0.10816100  0.69704700  0.95458700  1
  Cu  Cu34  1  0.39183900  0.19704700  0.95458700  1
  Cu  Cu35  1  0.89183900  0.30295300  0.04541300  1
  Cu  Cu36  1  0.82482000  0.60437500  0.70658200  1
  Cu  Cu37  1  0.32482000  0.89562500  0.29341800  1
  Cu  Cu38  1  0.17518000  0.39562500  0.29341800  1
  Cu  Cu39  1  0.67518000  0.10437500  0.70658200  1
