# generated using pymatgen
data_Cu6Ni2C13
_symmetry_space_group_name_H-M   'P 1'
_cell_length_a   9.97812280
_cell_length_b   9.97812280
_cell_length_c   12.03745600
_cell_angle_alpha   90.00000000
_cell_angle_beta   90.00000000
_cell_angle_gamma   142.03615700
_symmetry_Int_Tables_number   1
_chemical_formula_structural   Cu6Ni2C13
_chemical_formula_sum   'Cu12 Ni4 C26'
_cell_volume   737.26457028
_cell_formula_units_Z   2
loop_
 _symmetry_equiv_pos_site_id
 _symmetry_equiv_pos_as_xyz
  1  'x, y, z'
loop_
 _atom_site_type_symbol
 _atom_site_label
 _atom_site_symmetry_multiplicity
 _atom_site_fract_x
 _atom_site_fract_y
 _atom_site_fract_z
 _atom_site_occupancy
  Ni  Ni0  1  0.74669300  0.25330700  0.50000000  1
  Ni  Ni1  1  0.74669300  0.25330700  0.00000000  1
  Ni  Ni2  1  0.25330700  0.74669300  0.50000000  1
  Ni  Ni3  1  0.25330700  0.74669300  0.00000000  1
  Cu  Cu4  1  0.51446800  0.09828100  0.25000000  1
  Cu  Cu5  1  0.90171900  0.48553200  0.75000000  1
  Cu  Cu6  1  0.48553200  0.90171900  0.75000000  1
  Cu  Cu7  1  0.09828100  0.51446800  0.25000000  1
  Cu  Cu8  1  0.64990800  0.86613800  0.40711400  1
  Cu  Cu9  1  0.13386200  0.35009200  0.59288600  1
  Cu  Cu10  1  0.64990800  0.86613800  0.09288600  1
  Cu  Cu11  1  0.13386200  0.35009200  0.90711400  1
  Cu  Cu12  1  0.35009200  0.13386200  0.59288600  1
  Cu  Cu13  1  0.86613800  0.64990800  0.40711400  1
  Cu  Cu14  1  0.35009200  0.13386200  0.90711400  1
  Cu  Cu15  1  0.86613800  0.64990800  0.09288600  1
  C  C16  1  0.26795300  0.26795300  0.25000000  1
  C  C17  1  0.73204700  0.73204700  0.75000000  1
  C  C18  1  0.47869500  0.77914000  0.25000000  1
  C  C19  1  0.22086000  0.52130500  0.75000000  1
  C  C20  1  0.52130500  0.22086000  0.75000000  1
  C  C21  1  0.77914000  0.47869500  0.25000000  1
  C  C22  1  0.72448300  0.15943600  0.40456700  1
  C  C23  1  0.84056400  0.27551700  0.59543300  1
  C  C24  1  0.72448300  0.15943600  0.09543300  1
  C  C25  1  0.84056400  0.27551700  0.90456700  1
  C  C26  1  0.27551700  0.84056400  0.59543300  1
  C  C27  1  0.15943600  0.72448300  0.40456700  1
  C  C28  1  0.27551700  0.84056400  0.90456700  1
  C  C29  1  0.15943600  0.72448300  0.09543300  1
  C  C30  1  0.17876100  0.02259600  0.25000000  1
  C  C31  1  0.97740400  0.82123900  0.75000000  1
  C  C32  1  0.82123900  0.97740400  0.75000000  1
  C  C33  1  0.02259600  0.17876100  0.25000000  1
  C  C34  1  0.42993800  0.42993800  0.12696000  1
  C  C35  1  0.57006200  0.57006200  0.87304000  1
  C  C36  1  0.42993800  0.42993800  0.37304000  1
  C  C37  1  0.57006200  0.57006200  0.62696000  1
  C  C38  1  0.67214500  0.32785500  0.50000000  1
  C  C39  1  0.67214500  0.32785500  0.00000000  1
  C  C40  1  0.32785500  0.67214500  0.50000000  1
  C  C41  1  0.32785500  0.67214500  0.00000000  1
