# generated using pymatgen
data_Cu16Ni35C34
_symmetry_space_group_name_H-M   'P 1'
_cell_length_a   3.92607900
_cell_length_b   3.94330500
_cell_length_c   66.66069500
_cell_angle_alpha   90.00000000
_cell_angle_beta   90.00000000
_cell_angle_gamma   90.00000000
_symmetry_Int_Tables_number   1
_chemical_formula_structural   Cu16Ni35C34
_chemical_formula_sum   'Cu16 Ni35 C34'
_cell_volume   1032.02267836
_cell_formula_units_Z   1
loop_
 _symmetry_equiv_pos_site_id
 _symmetry_equiv_pos_as_xyz
  1  'x, y, z'
loop_
 _atom_site_type_symbol
 _atom_site_label
 _atom_site_symmetry_multiplicity
 _atom_site_fract_x
 _atom_site_fract_y
 _atom_site_fract_z
 _atom_site_occupancy
  C  C0  1  0.50000000  0.50000000  0.91156300  1
  C  C1  1  0.50000000  0.50000000  0.96924500  1
  C  C2  1  0.50000000  0.50000000  0.79734200  1
  C  C3  1  0.50000000  0.50000000  0.85385100  1
  C  C4  1  0.50000000  0.50000000  0.73826700  1
  C  C5  1  0.50000000  0.50000000  0.61852700  1
  C  C6  1  0.50000000  0.50000000  0.67834000  1
  C  C7  1  0.50000000  0.50000000  0.50010500  1
  C  C8  1  0.50000000  0.50000000  0.55923400  1
  C  C9  1  0.50000000  0.50000000  0.38231400  1
  C  C10  1  0.50000000  0.50000000  0.44118700  1
  C  C11  1  0.50000000  0.50000000  0.26444800  1
  C  C12  1  0.50000000  0.50000000  0.32346700  1
  C  C13  1  0.50000000  0.50000000  0.14543900  1
  C  C14  1  0.50000000  0.50000000  0.20515600  1
  C  C15  1  0.50000000  0.50000000  0.08547000  1
  C  C16  1  0.50000000  0.50000000  0.02412000  1
  C  C17  1  0.00000000  0.00000000  0.99912500  1
  C  C18  1  0.00000000  0.00000000  0.11726500  1
  C  C19  1  0.00000000  0.00000000  0.94093300  1
  C  C20  1  0.00000000  0.00000000  0.88246600  1
  C  C21  1  0.00000000  0.00000000  0.82412600  1
  C  C22  1  0.00000000  0.00000000  0.76580400  1
  C  C23  1  0.00000000  0.00000000  0.70631200  1
  C  C24  1  0.00000000  0.00000000  0.64728200  1
  C  C25  1  0.00000000  0.00000000  0.58833500  1
  C  C26  1  0.00000000  0.00000000  0.52944500  1
  C  C27  1  0.00000000  0.00000000  0.47058900  1
  C  C28  1  0.00000000  0.00000000  0.41177000  1
  C  C29  1  0.00000000  0.00000000  0.35294500  1
  C  C30  1  0.00000000  0.00000000  0.29410000  1
  C  C31  1  0.00000000  0.00000000  0.23523200  1
  C  C32  1  0.00000000  0.00000000  0.17625800  1
  C  C33  1  0.00000000  0.00000000  0.05826800  1
  Ni  Ni34  1  0.00000000  0.00000000  0.97021500  1
  Ni  Ni35  1  0.00000000  0.00000000  0.91177000  1
  Ni  Ni36  1  0.00000000  0.00000000  0.85309500  1
  Ni  Ni37  1  0.00000000  0.00000000  0.79425300  1
  Ni  Ni38  1  0.00000000  0.00000000  0.73544900  1
  Ni  Ni39  1  0.00000000  0.00000000  0.67643300  1
  Ni  Ni40  1  0.00000000  0.00000000  0.61772300  1
  Ni  Ni41  1  0.00000000  0.00000000  0.55880200  1
  Ni  Ni42  1  0.00000000  0.00000000  0.50003100  1
  Ni  Ni43  1  0.00000000  0.00000000  0.44116800  1
  Ni  Ni44  1  0.00000000  0.00000000  0.08810000  1
  Ni  Ni45  1  0.00000000  0.50000000  0.00162700  1
  Ni  Ni46  1  0.00000000  0.50000000  0.88234100  1
  Ni  Ni47  1  0.50000000  0.00000000  0.00159600  1
  Ni  Ni48  1  0.50000000  0.00000000  0.94113200  1
  Ni  Ni49  1  0.50000000  0.00000000  0.82341500  1
  Ni  Ni50  1  0.50000000  0.00000000  0.76179300  1
  Ni  Ni51  1  0.50000000  0.00000000  0.70434900  1
  Ni  Ni52  1  0.50000000  0.00000000  0.64635200  1
  Ni  Ni53  1  0.50000000  0.00000000  0.58789700  1
  Ni  Ni54  1  0.50000000  0.00000000  0.52926900  1
  Ni  Ni55  1  0.50000000  0.00000000  0.47052500  1
  Ni  Ni56  1  0.50000000  0.00000000  0.41176900  1
  Ni  Ni57  1  0.00000000  0.00000000  0.32352600  1
  Ni  Ni58  1  0.50000000  0.00000000  0.35298300  1
  Ni  Ni59  1  0.50000000  0.00000000  0.29423900  1
  Ni  Ni60  1  0.00000000  0.00000000  0.38238400  1
  Ni  Ni61  1  0.00000000  0.00000000  0.26472500  1
  Ni  Ni62  1  0.00000000  0.00000000  0.20582900  1
  Ni  Ni63  1  0.50000000  0.00000000  0.23556500  1
  Ni  Ni64  1  0.50000000  0.00000000  0.17703000  1
  Ni  Ni65  1  0.50000000  0.00000000  0.11893300  1
  Ni  Ni66  1  0.50000000  0.00000000  0.06124500  1
  Ni  Ni67  1  0.00000000  0.00000000  0.02968400  1
  Ni  Ni68  1  0.00000000  0.00000000  0.14700600  1
  Cu  Cu69  1  0.00000000  0.50000000  0.94125500  1
  Cu  Cu70  1  0.00000000  0.50000000  0.82337900  1
  Cu  Cu71  1  0.00000000  0.50000000  0.76293200  1
  Cu  Cu72  1  0.00000000  0.50000000  0.70514500  1
  Cu  Cu73  1  0.00000000  0.50000000  0.64672100  1
  Cu  Cu74  1  0.00000000  0.50000000  0.58809000  1
  Cu  Cu75  1  0.00000000  0.50000000  0.52934900  1
  Cu  Cu76  1  0.00000000  0.50000000  0.47052800  1
  Cu  Cu77  1  0.00000000  0.50000000  0.41175600  1
  Cu  Cu78  1  0.00000000  0.50000000  0.35296800  1
  Cu  Cu79  1  0.00000000  0.50000000  0.29417400  1
  Cu  Cu80  1  0.00000000  0.50000000  0.23546000  1
  Cu  Cu81  1  0.00000000  0.50000000  0.17665400  1
  Cu  Cu82  1  0.00000000  0.50000000  0.11821400  1
  Cu  Cu83  1  0.00000000  0.50000000  0.06044600  1
  Cu  Cu84  1  0.50000000  0.00000000  0.88234700  1
