# generated using pymatgen
data_Cu2NiC11
_symmetry_space_group_name_H-M   'P 1'
_cell_length_a   7.96310093
_cell_length_b   7.96310093
_cell_length_c   7.96310101
_cell_angle_alpha   44.31315379
_cell_angle_beta   44.31315379
_cell_angle_gamma   44.31315708
_symmetry_Int_Tables_number   1
_chemical_formula_structural   Cu2NiC11
_chemical_formula_sum   'Cu2 Ni1 C11'
_cell_volume   223.96378266
_cell_formula_units_Z   1
loop_
 _symmetry_equiv_pos_site_id
 _symmetry_equiv_pos_as_xyz
  1  'x, y, z'
loop_
 _atom_site_type_symbol
 _atom_site_label
 _atom_site_symmetry_multiplicity
 _atom_site_fract_x
 _atom_site_fract_y
 _atom_site_fract_z
 _atom_site_occupancy
  Ni  Ni0  1  0.21449000  0.21449000  0.21449000  1
  Cu  Cu1  1  0.99915300  0.99915300  0.99915300  1
  Cu  Cu2  1  0.79302600  0.79302600  0.79302600  1
  C  C3  1  0.38944300  0.38944300  0.38944300  1
  C  C4  1  0.60542200  0.60542200  0.60542200  1
  C  C5  1  0.26562600  0.77171800  0.26562600  1
  C  C6  1  0.77171800  0.26562600  0.26562600  1
  C  C7  1  0.26562600  0.26562600  0.77171800  1
  C  C8  1  0.73448600  0.21790100  0.73448600  1
  C  C9  1  0.21790100  0.73448600  0.73448600  1
  C  C10  1  0.73448600  0.73448600  0.21790100  1
  C  C11  1  0.98761500  0.51050500  0.51050500  1
  C  C12  1  0.51050500  0.51050500  0.98761500  1
  C  C13  1  0.51050500  0.98761500  0.51050500  1
