# generated using pymatgen
data_Cu4Ni2C3
_symmetry_space_group_name_H-M   'P 1'
_cell_length_a   18.10209700
_cell_length_b   7.32775500
_cell_length_c   7.35332345
_cell_angle_alpha   68.27549787
_cell_angle_beta   90.00000000
_cell_angle_gamma   90.00000000
_symmetry_Int_Tables_number   1
_chemical_formula_structural   Cu4Ni2C3
_chemical_formula_sum   'Cu16 Ni8 C12'
_cell_volume   906.12315568
_cell_formula_units_Z   4
loop_
 _symmetry_equiv_pos_site_id
 _symmetry_equiv_pos_as_xyz
  1  'x, y, z'
loop_
 _atom_site_type_symbol
 _atom_site_label
 _atom_site_symmetry_multiplicity
 _atom_site_fract_x
 _atom_site_fract_y
 _atom_site_fract_z
 _atom_site_occupancy
  C  C0  1  0.05729400  0.01199100  0.74436200  1
  C  C1  1  0.55729400  0.48800900  0.25563800  1
  C  C2  1  0.94270600  0.98800900  0.25563800  1
  C  C3  1  0.44270600  0.51199100  0.74436200  1
  C  C4  1  0.06301700  0.49828600  0.26368900  1
  C  C5  1  0.56301700  0.00171400  0.73631100  1
  C  C6  1  0.93698300  0.50171400  0.73631100  1
  C  C7  1  0.43698300  0.99828600  0.26368900  1
  C  C8  1  0.18326000  0.51337200  0.78341700  1
  C  C9  1  0.68326000  0.98662800  0.21658300  1
  C  C10  1  0.81674000  0.48662800  0.21658300  1
  C  C11  1  0.31674000  0.01337200  0.78341700  1
  Ni  Ni12  1  0.25874200  0.57956400  0.31968500  1
  Ni  Ni13  1  0.75874200  0.92043600  0.68031500  1
  Ni  Ni14  1  0.74125800  0.42043600  0.68031500  1
  Ni  Ni15  1  0.24125800  0.07956400  0.31968500  1
  Ni  Ni16  1  0.62677400  0.53063300  0.79070600  1
  Ni  Ni17  1  0.12677400  0.96936700  0.20929400  1
  Ni  Ni18  1  0.37322600  0.46936700  0.20929400  1
  Ni  Ni19  1  0.87322600  0.03063300  0.79070600  1
  Cu  Cu20  1  0.19481900  0.26707000  0.51866500  1
  Cu  Cu21  1  0.69481900  0.23293000  0.48133500  1
  Cu  Cu22  1  0.80518100  0.73293000  0.48133500  1
  Cu  Cu23  1  0.30518100  0.76707000  0.51866500  1
  Cu  Cu24  1  0.31370100  0.27784300  0.02712300  1
  Cu  Cu25  1  0.81370100  0.22215700  0.97287700  1
  Cu  Cu26  1  0.68629900  0.72215700  0.97287700  1
  Cu  Cu27  1  0.18629900  0.77784300  0.02712300  1
  Cu  Cu28  1  0.05877700  0.25772900  0.00107000  1
  Cu  Cu29  1  0.55877700  0.24227100  0.99893000  1
  Cu  Cu30  1  0.94122300  0.74227100  0.99893000  1
  Cu  Cu31  1  0.44122300  0.75772900  0.00107000  1
  Cu  Cu32  1  0.06570400  0.75102500  0.50825900  1
  Cu  Cu33  1  0.56570400  0.74897500  0.49174100  1
  Cu  Cu34  1  0.93429600  0.24897500  0.49174100  1
  Cu  Cu35  1  0.43429600  0.25102500  0.50825900  1
