# generated using pymatgen
data_Cu7(Ni3C19)2
_symmetry_space_group_name_H-M   'P 1'
_cell_length_a   13.02408794
_cell_length_b   13.02408794
_cell_length_c   5.24565200
_cell_angle_alpha   90.00000000
_cell_angle_beta   90.00000000
_cell_angle_gamma   119.99999970
_symmetry_Int_Tables_number   1
_chemical_formula_structural   Cu7(Ni3C19)2
_chemical_formula_sum   'Cu7 Ni6 C38'
_cell_volume   770.59244849
_cell_formula_units_Z   1
loop_
 _symmetry_equiv_pos_site_id
 _symmetry_equiv_pos_as_xyz
  1  'x, y, z'
loop_
 _atom_site_type_symbol
 _atom_site_label
 _atom_site_symmetry_multiplicity
 _atom_site_fract_x
 _atom_site_fract_y
 _atom_site_fract_z
 _atom_site_occupancy
  C  C0  1  0.66666700  0.33333300  0.76098700  1
  C  C1  1  0.00000000  0.00000000  0.26039000  1
  C  C2  1  0.05601500  0.52847200  0.76805800  1
  C  C3  1  0.47245700  0.94398500  0.76805800  1
  C  C4  1  0.47152800  0.52754300  0.76805800  1
  C  C5  1  0.59989900  0.79882400  0.25319200  1
  C  C6  1  0.19892500  0.40010100  0.25319200  1
  C  C7  1  0.20117600  0.80107500  0.25319200  1
  Ni  Ni8  1  0.91587500  0.33063400  0.25229000  1
  Ni  Ni9  1  0.41475900  0.08412500  0.25229000  1
  Ni  Ni10  1  0.66936600  0.58524100  0.25229000  1
  Ni  Ni11  1  0.75064300  0.00246500  0.75197200  1
  Ni  Ni12  1  0.25182300  0.24935700  0.75197200  1
  Ni  Ni13  1  0.99753500  0.74817700  0.75197200  1
  Cu  Cu14  1  0.91580500  0.58252800  0.25232700  1
  Cu  Cu15  1  0.66672200  0.08419500  0.25232700  1
  Cu  Cu16  1  0.41747200  0.33327800  0.25232700  1
  Cu  Cu17  1  0.75084200  0.75092400  0.75231700  1
  Cu  Cu18  1  0.00008200  0.24915800  0.75231700  1
  Cu  Cu19  1  0.24907600  0.99991800  0.75231700  1
  Cu  Cu20  1  0.33333300  0.66666700  0.67058900  1
  C  C21  1  0.95482200  0.61586100  0.57735600  1
  C  C22  1  0.66103900  0.04517800  0.57735600  1
  C  C23  1  0.38413900  0.33896100  0.57735600  1
  C  C24  1  0.71261700  0.71755200  0.07756000  1
  C  C25  1  0.00493500  0.28738300  0.07756000  1
  C  C26  1  0.28244800  0.99506500  0.07756000  1
  C  C27  1  0.94849700  0.47302300  0.14965300  1
  C  C28  1  0.52452600  0.05150300  0.14965300  1
  C  C29  1  0.52697700  0.47547400  0.14965300  1
  C  C30  1  0.71629900  0.85923900  0.64932900  1
  C  C31  1  0.14294100  0.28370100  0.64932900  1
  C  C32  1  0.14076100  0.85705900  0.64932900  1
  C  C33  1  0.96012700  0.33995800  0.57529100  1
  C  C34  1  0.37983100  0.03987300  0.57529100  1
  C  C35  1  0.66004200  0.62016900  0.57529100  1
  C  C36  1  0.70636100  0.99356000  0.07494500  1
  C  C37  1  0.28720000  0.29363900  0.07494500  1
  C  C38  1  0.00644000  0.71280000  0.07494500  1
  C  C39  1  0.29666700  0.75517500  0.89365200  1
  C  C40  1  0.45850800  0.70333300  0.89365200  1
  C  C41  1  0.24482500  0.54149200  0.89365200  1
  C  C42  1  0.36624400  0.58256000  0.42300700  1
  C  C43  1  0.21631600  0.63375600  0.42300700  1
  C  C44  1  0.41744000  0.78368400  0.42300700  1
  C  C45  1  0.76300700  0.23644500  0.20445600  1
  C  C46  1  0.47343800  0.23699300  0.20445600  1
  C  C47  1  0.76355500  0.52656200  0.20445600  1
  C  C48  1  0.90371600  0.09700800  0.70338700  1
  C  C49  1  0.19329200  0.09628400  0.70338700  1
  C  C50  1  0.90299200  0.80670800  0.70338700  1
