# generated using pymatgen
data_Cu(Ni5C2)2
_symmetry_space_group_name_H-M   'P 1'
_cell_length_a   8.09638000
_cell_length_b   9.42701278
_cell_length_c   9.42701278
_cell_angle_alpha   79.37353336
_cell_angle_beta   64.56895868
_cell_angle_gamma   64.56895868
_symmetry_Int_Tables_number   1
_chemical_formula_structural   Cu(Ni5C2)2
_chemical_formula_sum   'Cu2 Ni20 C8'
_cell_volume   586.83151462
_cell_formula_units_Z   2
loop_
 _symmetry_equiv_pos_site_id
 _symmetry_equiv_pos_as_xyz
  1  'x, y, z'
loop_
 _atom_site_type_symbol
 _atom_site_label
 _atom_site_symmetry_multiplicity
 _atom_site_fract_x
 _atom_site_fract_y
 _atom_site_fract_z
 _atom_site_occupancy
  C  C0  1  0.44107900  0.21758800  0.78241200  1
  C  C1  1  0.44107900  0.78241200  0.21758800  1
  C  C2  1  0.47349000  0.71758800  0.71758800  1
  C  C3  1  0.80892100  0.71758800  0.28241200  1
  C  C4  1  0.80892100  0.28241200  0.71758800  1
  C  C5  1  0.90866700  0.28241200  0.28241200  1
  C  C6  1  0.77651000  0.78241200  0.78241200  1
  C  C7  1  0.34133300  0.21758800  0.21758800  1
  Ni  Ni8  1  0.12500000  0.75000000  0.25000000  1
  Ni  Ni9  1  0.12500000  0.25000000  0.75000000  1
  Ni  Ni10  1  0.62500000  0.25000000  0.25000000  1
  Ni  Ni11  1  0.12500000  0.75000000  0.75000000  1
  Ni  Ni12  1  0.30017200  0.87005300  0.51621200  1
  Ni  Ni13  1  0.68643600  0.12994700  0.48378800  1
  Ni  Ni14  1  0.06638400  0.98378800  0.37005300  1
  Ni  Ni15  1  0.94982800  0.98378800  0.62994700  1
  Ni  Ni16  1  0.94982800  0.62994700  0.98378800  1
  Ni  Ni17  1  0.42022500  0.01621200  0.62994700  1
  Ni  Ni18  1  0.56356400  0.01621200  0.37005300  1
  Ni  Ni19  1  0.56356400  0.37005300  0.01621200  1
  Ni  Ni20  1  0.18361600  0.12994700  0.51621200  1
  Ni  Ni21  1  0.18361600  0.51621200  0.12994700  1
  Ni  Ni22  1  0.82977500  0.87005300  0.48378800  1
  Ni  Ni23  1  0.82977500  0.48378800  0.87005300  1
  Ni  Ni24  1  0.30017200  0.51621200  0.87005300  1
  Ni  Ni25  1  0.68643600  0.48378800  0.12994700  1
  Ni  Ni26  1  0.42022500  0.62994700  0.01621200  1
  Ni  Ni27  1  0.06638400  0.37005300  0.98378800  1
  Cu  Cu28  1  0.00000000  0.00000000  0.00000000  1
  Cu  Cu29  1  0.25000000  0.50000000  0.50000000  1
