# generated using pymatgen
data_Cu9(Ni8C)2
_symmetry_space_group_name_H-M   'P 1'
_cell_length_a   11.68500100
_cell_length_b   11.68500100
_cell_length_c   9.91112300
_cell_angle_alpha   90.00000000
_cell_angle_beta   90.00000000
_cell_angle_gamma   90.00000000
_symmetry_Int_Tables_number   1
_chemical_formula_structural   Cu9(Ni8C)2
_chemical_formula_sum   'Cu18 Ni32 C4'
_cell_volume   1353.25728492
_cell_formula_units_Z   2
loop_
 _symmetry_equiv_pos_site_id
 _symmetry_equiv_pos_as_xyz
  1  'x, y, z'
loop_
 _atom_site_type_symbol
 _atom_site_label
 _atom_site_symmetry_multiplicity
 _atom_site_fract_x
 _atom_site_fract_y
 _atom_site_fract_z
 _atom_site_occupancy
  C  C0  1  0.59847800  0.40152200  0.61078300  1
  C  C1  1  0.40152200  0.59847800  0.61078300  1
  C  C2  1  0.90152200  0.90152200  0.11078300  1
  C  C3  1  0.09847800  0.09847800  0.11078300  1
  Ni  Ni4  1  0.71829500  0.44241700  0.67015200  1
  Ni  Ni5  1  0.28170500  0.55758300  0.67015200  1
  Ni  Ni6  1  0.78170500  0.94241700  0.17015200  1
  Ni  Ni7  1  0.21829500  0.05758300  0.17015200  1
  Ni  Ni8  1  0.55758300  0.28170500  0.67015200  1
  Ni  Ni9  1  0.44241700  0.71829500  0.67015200  1
  Ni  Ni10  1  0.94241700  0.78170500  0.17015200  1
  Ni  Ni11  1  0.05758300  0.21829500  0.17015200  1
  Ni  Ni12  1  0.72096000  0.42290200  0.32565400  1
  Ni  Ni13  1  0.27904000  0.57709800  0.32565400  1
  Ni  Ni14  1  0.77904000  0.92290200  0.82565400  1
  Ni  Ni15  1  0.22096000  0.07709800  0.82565400  1
  Ni  Ni16  1  0.57709800  0.27904000  0.32565400  1
  Ni  Ni17  1  0.42290200  0.72096000  0.32565400  1
  Ni  Ni18  1  0.92290200  0.77904000  0.82565400  1
  Ni  Ni19  1  0.07709800  0.22096000  0.82565400  1
  Ni  Ni20  1  0.64924600  0.35075400  0.32411800  1
  Ni  Ni21  1  0.35075400  0.64924600  0.32411800  1
  Ni  Ni22  1  0.85075400  0.85075400  0.82411800  1
  Ni  Ni23  1  0.14924600  0.14924600  0.82411800  1
  Ni  Ni24  1  0.00000000  0.00000000  0.07131700  1
  Ni  Ni25  1  0.50000000  0.50000000  0.57131700  1
  Ni  Ni26  1  0.00000000  0.00000000  0.49155600  1
  Ni  Ni27  1  0.50000000  0.50000000  0.99155600  1
  Ni  Ni28  1  0.00000000  0.50000000  0.49981400  1
  Ni  Ni29  1  0.50000000  0.00000000  0.99981400  1
  Ni  Ni30  1  0.50000000  0.00000000  0.49981400  1
  Ni  Ni31  1  0.00000000  0.50000000  0.99981400  1
  Ni  Ni32  1  0.76078600  0.23921400  0.99266200  1
  Ni  Ni33  1  0.23921400  0.76078600  0.99266200  1
  Ni  Ni34  1  0.73921400  0.73921400  0.49266200  1
  Ni  Ni35  1  0.26078600  0.26078600  0.49266200  1
  Cu  Cu36  1  0.00000000  0.00000000  0.61827600  1
  Cu  Cu37  1  0.50000000  0.50000000  0.11827600  1
  Cu  Cu38  1  0.93442500  0.06557500  0.42863400  1
  Cu  Cu39  1  0.06557500  0.93442500  0.42863400  1
  Cu  Cu40  1  0.56557500  0.56557500  0.92863400  1
  Cu  Cu41  1  0.43442500  0.43442500  0.92863400  1
  Cu  Cu42  1  0.68500700  0.31499300  0.99678900  1
  Cu  Cu43  1  0.31499300  0.68500700  0.99678900  1
  Cu  Cu44  1  0.81499300  0.81499300  0.49678900  1
  Cu  Cu45  1  0.18500700  0.18500700  0.49678900  1
  Cu  Cu46  1  0.79651200  0.20348800  0.88161200  1
  Cu  Cu47  1  0.20348800  0.79651200  0.88161200  1
  Cu  Cu48  1  0.70348800  0.70348800  0.38161200  1
  Cu  Cu49  1  0.29651200  0.29651200  0.38161200  1
  Cu  Cu50  1  0.79996300  0.20003700  0.10090300  1
  Cu  Cu51  1  0.20003700  0.79996300  0.10090300  1
  Cu  Cu52  1  0.70003700  0.70003700  0.60090300  1
  Cu  Cu53  1  0.29996300  0.29996300  0.60090300  1
