# generated using pymatgen
data_Cu(NiC5)2
_symmetry_space_group_name_H-M   'P 1'
_cell_length_a   3.72331200
_cell_length_b   3.72331200
_cell_length_c   12.78626200
_cell_angle_alpha   90.00000000
_cell_angle_beta   90.00000000
_cell_angle_gamma   90.00000000
_symmetry_Int_Tables_number   1
_chemical_formula_structural   Cu(NiC5)2
_chemical_formula_sum   'Cu1 Ni2 C10'
_cell_volume   177.25661818
_cell_formula_units_Z   1
loop_
 _symmetry_equiv_pos_site_id
 _symmetry_equiv_pos_as_xyz
  1  'x, y, z'
loop_
 _atom_site_type_symbol
 _atom_site_label
 _atom_site_symmetry_multiplicity
 _atom_site_fract_x
 _atom_site_fract_y
 _atom_site_fract_z
 _atom_site_occupancy
  C  C0  1  0.00000000  0.50000000  0.38618900  1
  C  C1  1  0.50000000  0.00000000  0.61381100  1
  Ni  Ni2  1  0.00000000  0.50000000  0.79026200  1
  Ni  Ni3  1  0.50000000  0.00000000  0.20973800  1
  Cu  Cu4  1  0.50000000  0.50000000  0.00000000  1
  C  C5  1  0.50000000  0.50000000  0.25001900  1
  C  C6  1  0.00000000  0.00000000  0.74649300  1
  C  C7  1  0.50000000  0.50000000  0.74998100  1
  C  C8  1  0.00000000  0.00000000  0.25350700  1
  C  C9  1  0.00000000  0.50000000  0.93194000  1
  C  C10  1  0.50000000  0.00000000  0.06806000  1
  C  C11  1  0.00000000  0.50000000  0.57284400  1
  C  C12  1  0.50000000  0.00000000  0.42715600  1
