# generated using pymatgen
data_Cu2Ni3C35
_symmetry_space_group_name_H-M   'P 1'
_cell_length_a   8.62050300
_cell_length_b   8.77859546
_cell_length_c   8.90712680
_cell_angle_alpha   61.30258075
_cell_angle_beta   61.77538940
_cell_angle_gamma   62.21722447
_symmetry_Int_Tables_number   1
_chemical_formula_structural   Cu2Ni3C35
_chemical_formula_sum   'Cu2 Ni3 C35'
_cell_volume   495.41811427
_cell_formula_units_Z   1
loop_
 _symmetry_equiv_pos_site_id
 _symmetry_equiv_pos_as_xyz
  1  'x, y, z'
loop_
 _atom_site_type_symbol
 _atom_site_label
 _atom_site_symmetry_multiplicity
 _atom_site_fract_x
 _atom_site_fract_y
 _atom_site_fract_z
 _atom_site_occupancy
  C  C0  1  0.74723700  0.14912300  0.35022300  1
  C  C1  1  0.29620400  0.84448400  0.64136300  1
  C  C2  1  0.63722900  0.30763100  0.84639100  1
  C  C3  1  0.85989200  0.63173100  0.31842800  1
  Ni  Ni4  1  0.15292400  0.15088700  0.14968200  1
  Ni  Ni5  1  0.34725400  0.35365500  0.34852200  1
  Ni  Ni6  1  0.65333300  0.65791000  0.65965100  1
  Cu  Cu7  1  0.01460000  0.99790100  0.00367400  1
  Cu  Cu8  1  0.49379500  0.49979500  0.50035100  1
  C  C9  1  0.85012100  0.84662000  0.85119800  1
  C  C10  1  0.24396800  0.55647500  0.94899100  1
  C  C11  1  0.57274400  0.95589400  0.24724600  1
  C  C12  1  0.92412700  0.24328200  0.53859800  1
  C  C13  1  0.06356300  0.74155800  0.44989200  1
  C  C14  1  0.43564200  0.04911300  0.75071600  1
  C  C15  1  0.74753500  0.43701600  0.05286900  1
  C  C16  1  0.10073700  0.28266200  0.48279100  1
  C  C17  1  0.28756900  0.53754300  0.10439100  1
  C  C18  1  0.06683900  0.90354700  0.27184500  1
  C  C19  1  0.57952000  0.09314100  0.30093400  1
  C  C20  1  0.01443000  0.80364000  0.61026900  1
  C  C21  1  0.25490000  0.59310600  0.44057600  1
  C  C22  1  0.24866100  0.07004900  0.90522500  1
  C  C23  1  0.44852300  0.23130700  0.59421900  1
  C  C24  1  0.16159400  0.41686100  0.99139700  1
  C  C25  1  0.60235000  0.42386500  0.24347700  1
  C  C26  1  0.10357100  0.76672500  0.89444200  1
  C  C27  1  0.41859200  0.03230700  0.17034800  1
  C  C28  1  0.59569700  0.98355500  0.82624800  1
  C  C29  1  0.90122400  0.24814800  0.07393000  1
  C  C30  1  0.40910400  0.56282200  0.76553800  1
  C  C31  1  0.81078200  0.60107500  0.00109700  1
  C  C32  1  0.56787700  0.76792500  0.40382500  1
  C  C33  1  0.77586400  0.90345200  0.09701400  1
  C  C34  1  0.74543500  0.41617200  0.55434100  1
  C  C35  1  0.92698700  0.17351100  0.41078200  1
  C  C36  1  0.45811300  0.90531500  0.68412700  1
  C  C37  1  0.88656800  0.10613000  0.74398400  1
  C  C38  1  0.67861500  0.46701700  0.90750800  1
  C  C39  1  0.91628200  0.66405100  0.48690000  1
