# generated using pymatgen
data_Cu16Ni7C4
_symmetry_space_group_name_H-M   'P 1'
_cell_length_a   12.94406100
_cell_length_b   9.00369800
_cell_length_c   15.56388402
_cell_angle_alpha   63.23654300
_cell_angle_beta   90.00000000
_cell_angle_gamma   90.00000000
_symmetry_Int_Tables_number   1
_chemical_formula_structural   Cu16Ni7C4
_chemical_formula_sum   'Cu64 Ni28 C16'
_cell_volume   1619.56821969
_cell_formula_units_Z   4
loop_
 _symmetry_equiv_pos_site_id
 _symmetry_equiv_pos_as_xyz
  1  'x, y, z'
loop_
 _atom_site_type_symbol
 _atom_site_label
 _atom_site_symmetry_multiplicity
 _atom_site_fract_x
 _atom_site_fract_y
 _atom_site_fract_z
 _atom_site_occupancy
  C  C0  1  0.29311900  0.25534400  0.52245600  1
  C  C1  1  0.20688100  0.25534400  0.02245600  1
  C  C2  1  0.70688100  0.74465600  0.47754400  1
  C  C3  1  0.79311900  0.74465600  0.97754400  1
  C  C4  1  0.25269900  0.74390100  0.72471800  1
  C  C5  1  0.24730100  0.74390100  0.22471800  1
  C  C6  1  0.74730100  0.25609900  0.27528200  1
  C  C7  1  0.75269900  0.25609900  0.77528200  1
  C  C8  1  0.96047200  0.03882200  0.68874400  1
  C  C9  1  0.53952800  0.03882200  0.18874400  1
  C  C10  1  0.03952800  0.96117800  0.31125600  1
  C  C11  1  0.46047200  0.96117800  0.81125600  1
  C  C12  1  0.05973500  0.38097000  0.78004700  1
  C  C13  1  0.44026500  0.38097000  0.28004700  1
  C  C14  1  0.94026500  0.61903000  0.21995300  1
  C  C15  1  0.55973500  0.61903000  0.71995300  1
  Ni  Ni16  1  0.00664400  0.59592100  0.87435900  1
  Ni  Ni17  1  0.49335600  0.59592100  0.37435900  1
  Ni  Ni18  1  0.99335600  0.40407900  0.12564100  1
  Ni  Ni19  1  0.50664400  0.40407900  0.62564100  1
  Ni  Ni20  1  0.90468100  0.50160600  0.87619400  1
  Ni  Ni21  1  0.59531900  0.50160600  0.37619400  1
  Ni  Ni22  1  0.09531900  0.49839400  0.12380600  1
  Ni  Ni23  1  0.40468100  0.49839400  0.62380600  1
  Ni  Ni24  1  0.27819800  0.26251600  0.79521300  1
  Ni  Ni25  1  0.22180200  0.26251600  0.29521300  1
  Ni  Ni26  1  0.72180200  0.73748400  0.20478700  1
  Ni  Ni27  1  0.77819800  0.73748400  0.70478700  1
  Ni  Ni28  1  0.21797300  0.16812200  0.74821200  1
  Ni  Ni29  1  0.28202700  0.16812200  0.24821200  1
  Ni  Ni30  1  0.78202700  0.83187800  0.25178800  1
  Ni  Ni31  1  0.71797300  0.83187800  0.75178800  1
  Ni  Ni32  1  0.94236500  0.51364100  0.59482100  1
  Ni  Ni33  1  0.55763500  0.51364100  0.09482100  1
  Ni  Ni34  1  0.05763500  0.48635900  0.40517900  1
  Ni  Ni35  1  0.44236500  0.48635900  0.90517900  1
  Ni  Ni36  1  0.02744100  0.64784100  0.58229300  1
  Ni  Ni37  1  0.47255900  0.64784100  0.08229300  1
  Ni  Ni38  1  0.97255900  0.35215900  0.41770700  1
  Ni  Ni39  1  0.52744100  0.35215900  0.91770700  1
  Ni  Ni40  1  0.99608600  0.06128200  0.94546400  1
  Ni  Ni41  1  0.50391400  0.06128200  0.44546400  1
  Ni  Ni42  1  0.00391400  0.93871800  0.05453600  1
  Ni  Ni43  1  0.49608600  0.93871800  0.55453600  1
  Cu  Cu44  1  0.23803400  0.77459200  0.90708000  1
  Cu  Cu45  1  0.26196600  0.77459200  0.40708000  1
  Cu  Cu46  1  0.76196600  0.22540800  0.09292000  1
  Cu  Cu47  1  0.73803400  0.22540800  0.59292000  1
  Cu  Cu48  1  0.08744100  0.54893000  0.84301800  1
  Cu  Cu49  1  0.41255900  0.54893000  0.34301800  1
  Cu  Cu50  1  0.91255900  0.45107000  0.15698200  1
  Cu  Cu51  1  0.58744100  0.45107000  0.65698200  1
  Cu  Cu52  1  0.00639100  0.70761600  0.90015300  1
  Cu  Cu53  1  0.49360900  0.70761600  0.40015300  1
  Cu  Cu54  1  0.99360900  0.29238400  0.09984700  1
  Cu  Cu55  1  0.50639100  0.29238400  0.59984700  1
  Cu  Cu56  1  0.35507400  0.98179400  0.05450800  1
  Cu  Cu57  1  0.14492600  0.98179400  0.55450800  1
  Cu  Cu58  1  0.64492600  0.01820600  0.94549200  1
  Cu  Cu59  1  0.85507400  0.01820600  0.44549200  1
  Cu  Cu60  1  0.91078000  0.40501700  0.83435500  1
  Cu  Cu61  1  0.58922000  0.40501700  0.33435500  1
  Cu  Cu62  1  0.08922000  0.59498300  0.16564500  1
  Cu  Cu63  1  0.41078000  0.59498300  0.66564500  1
  Cu  Cu64  1  0.82510700  0.52459400  0.91220500  1
  Cu  Cu65  1  0.67489300  0.52459400  0.41220500  1
  Cu  Cu66  1  0.17489300  0.47540600  0.08779500  1
  Cu  Cu67  1  0.32510700  0.47540600  0.58779500  1
  Cu  Cu68  1  0.22478100  0.37534700  0.80641500  1
  Cu  Cu69  1  0.27521900  0.37534700  0.30641500  1
  Cu  Cu70  1  0.77521900  0.62465300  0.19358500  1
  Cu  Cu71  1  0.72478100  0.62465300  0.69358500  1
  Cu  Cu72  1  0.36965300  0.22905200  0.81852300  1
  Cu  Cu73  1  0.13034700  0.22905200  0.31852300  1
  Cu  Cu74  1  0.63034700  0.77094800  0.18147700  1
  Cu  Cu75  1  0.86965300  0.77094800  0.68147700  1
  Cu  Cu76  1  0.12050400  0.20286400  0.73315100  1
  Cu  Cu77  1  0.37949600  0.20286400  0.23315100  1
  Cu  Cu78  1  0.87949600  0.79713600  0.26684900  1
  Cu  Cu79  1  0.62050400  0.79713600  0.76684900  1
  Cu  Cu80  1  0.26400800  0.06770500  0.72666800  1
  Cu  Cu81  1  0.23599200  0.06770500  0.22666800  1
  Cu  Cu82  1  0.73599200  0.93229500  0.27333200  1
  Cu  Cu83  1  0.76400800  0.93229500  0.77333200  1
  Cu  Cu84  1  0.94800000  0.37790600  0.67605300  1
  Cu  Cu85  1  0.55200000  0.37790600  0.17605300  1
  Cu  Cu86  1  0.05200000  0.62209400  0.32394700  1
  Cu  Cu87  1  0.44800000  0.62209400  0.82394700  1
  Cu  Cu88  1  0.87815700  0.53986900  0.53134500  1
  Cu  Cu89  1  0.62184300  0.53986900  0.03134500  1
  Cu  Cu90  1  0.12184300  0.46013100  0.46865500  1
  Cu  Cu91  1  0.37815700  0.46013100  0.96865500  1
  Cu  Cu92  1  0.09074000  0.60600900  0.65417700  1
  Cu  Cu93  1  0.40926000  0.60600900  0.15417700  1
  Cu  Cu94  1  0.90926000  0.39399100  0.34582300  1
  Cu  Cu95  1  0.59074000  0.39399100  0.84582300  1
  Cu  Cu96  1  0.03079600  0.78130000  0.50800500  1
  Cu  Cu97  1  0.46920400  0.78130000  0.00800500  1
  Cu  Cu98  1  0.96920400  0.21870000  0.49199500  1
  Cu  Cu99  1  0.53079600  0.21870000  0.99199500  1
  Cu  Cu100  1  0.06719700  0.17537000  0.91908300  1
  Cu  Cu101  1  0.43280300  0.17537000  0.41908300  1
  Cu  Cu102  1  0.93280300  0.82463000  0.08091700  1
  Cu  Cu103  1  0.56719700  0.82463000  0.58091700  1
  Cu  Cu104  1  0.92892000  0.04686400  0.89307100  1
  Cu  Cu105  1  0.57108000  0.04686400  0.39307100  1
  Cu  Cu106  1  0.07108000  0.95313600  0.10692900  1
  Cu  Cu107  1  0.42892000  0.95313600  0.60692900  1
