# generated using pymatgen
data_Cu2NiC4
_symmetry_space_group_name_H-M   'P 1'
_cell_length_a   6.04811088
_cell_length_b   6.04811088
_cell_length_c   24.95813782
_cell_angle_alpha   83.11840115
_cell_angle_beta   83.11840115
_cell_angle_gamma   60.15547068
_symmetry_Int_Tables_number   1
_chemical_formula_structural   Cu2NiC4
_chemical_formula_sum   'Cu20 Ni10 C40'
_cell_volume   784.25447416
_cell_formula_units_Z   10
loop_
 _symmetry_equiv_pos_site_id
 _symmetry_equiv_pos_as_xyz
  1  'x, y, z'
loop_
 _atom_site_type_symbol
 _atom_site_label
 _atom_site_symmetry_multiplicity
 _atom_site_fract_x
 _atom_site_fract_y
 _atom_site_fract_z
 _atom_site_occupancy
  Ni  Ni0  1  0.99861000  0.99861000  0.99991000  1
  Ni  Ni1  1  0.12435900  0.12435900  0.12540700  1
  Ni  Ni2  1  0.59599400  0.59599400  0.20098400  1
  Ni  Ni3  1  0.72441900  0.72441900  0.32544800  1
  Ni  Ni4  1  0.19582100  0.19582100  0.40109200  1
  Ni  Ni5  1  0.32417700  0.32417700  0.52571700  1
  Ni  Ni6  1  0.79546400  0.79546400  0.60189000  1
  Ni  Ni7  1  0.92503500  0.92503500  0.72514700  1
  Ni  Ni8  1  0.05281300  0.05281300  0.84781800  1
  Ni  Ni9  1  0.39909600  0.39909600  0.79911100  1
  Cu  Cu10  1  0.65207300  0.65207300  0.05043300  1
  Cu  Cu11  1  0.12269400  0.63105100  0.12554200  1
  Cu  Cu12  1  0.32407500  0.32407500  0.02387600  1
  Cu  Cu13  1  0.25420100  0.25420100  0.24962200  1
  Cu  Cu14  1  0.63105100  0.12269400  0.12554200  1
  Cu  Cu15  1  0.72272100  0.23099400  0.32572200  1
  Cu  Cu16  1  0.92592200  0.92592200  0.22418200  1
  Cu  Cu17  1  0.85430400  0.85430400  0.44971800  1
  Cu  Cu18  1  0.23099400  0.72272100  0.32572200  1
  Cu  Cu19  1  0.32300700  0.83083500  0.52589700  1
  Cu  Cu20  1  0.52584700  0.52584700  0.42445400  1
  Cu  Cu21  1  0.45317600  0.45317600  0.64865800  1
  Cu  Cu22  1  0.83083500  0.32300700  0.52589700  1
  Cu  Cu23  1  0.92426700  0.42817100  0.72554200  1
  Cu  Cu24  1  0.12496400  0.12496400  0.62399900  1
  Cu  Cu25  1  0.42817100  0.92426700  0.72554200  1
  Cu  Cu26  1  0.52460600  0.52460600  0.92410100  1
  Cu  Cu27  1  0.52468600  0.02653500  0.92402000  1
  Cu  Cu28  1  0.72787600  0.72787600  0.82366000  1
  Cu  Cu29  1  0.02653500  0.52468600  0.92402000  1
  C  C30  1  0.99405700  0.47337000  0.07489100  1
  C  C31  1  0.28085200  0.28085200  0.17080900  1
  C  C32  1  0.47337000  0.99405700  0.07489100  1
  C  C33  1  0.46510600  0.46510600  0.07616000  1
  C  C34  1  0.59439500  0.07259400  0.27508400  1
  C  C35  1  0.78744500  0.78744500  0.17305800  1
  C  C36  1  0.78045500  0.24701000  0.17385400  1
  C  C37  1  0.88104800  0.88104800  0.37074700  1
  C  C38  1  0.07259400  0.59439500  0.27508400  1
  C  C39  1  0.96712700  0.96712700  0.08045200  1
  C  C40  1  0.24701000  0.78045500  0.17385400  1
  C  C41  1  0.06613500  0.06613500  0.27578800  1
  C  C42  1  0.19422800  0.67274900  0.47528900  1
  C  C43  1  0.38723700  0.38723700  0.37323400  1
  C  C44  1  0.38052000  0.84683200  0.37409900  1
  C  C45  1  0.67274900  0.19422800  0.47528900  1
  C  C46  1  0.48106200  0.48106200  0.57012400  1
  C  C47  1  0.56717200  0.56717200  0.28096400  1
  C  C48  1  0.84683200  0.38052000  0.37409900  1
  C  C49  1  0.66622800  0.66622800  0.47611500  1
  C  C50  1  0.79142700  0.27219200  0.67480200  1
  C  C51  1  0.98626200  0.98626200  0.57301600  1
  C  C52  1  0.08322400  0.08322400  0.76792400  1
  C  C53  1  0.27219200  0.79142700  0.67480200  1
  C  C54  1  0.16707600  0.16707600  0.48134300  1
  C  C55  1  0.97950600  0.44810900  0.57411800  1
  C  C56  1  0.44810900  0.97950600  0.57411800  1
  C  C57  1  0.26652800  0.26652800  0.67550700  1
  C  C58  1  0.40235500  0.85996100  0.87845700  1
  C  C59  1  0.58867300  0.58867300  0.77363600  1
  C  C60  1  0.76680500  0.76680500  0.68137900  1
  C  C61  1  0.67622600  0.67622600  0.97168500  1
  C  C62  1  0.85996100  0.40235500  0.87845700  1
  C  C63  1  0.58030800  0.04767200  0.77477500  1
  C  C64  1  0.04767200  0.58030800  0.77477500  1
  C  C65  1  0.86145500  0.86145500  0.87813600  1
  C  C66  1  0.18925800  0.18925800  0.97319100  1
  C  C67  1  0.19054200  0.64591700  0.97287100  1
  C  C68  1  0.37308900  0.37308900  0.88157700  1
  C  C69  1  0.64591700  0.19054200  0.97287100  1
