# generated using pymatgen
data_CuNi2C37
_symmetry_space_group_name_H-M   'P 1'
_cell_length_a   10.48244861
_cell_length_b   10.48244861
_cell_length_c   10.14416545
_cell_angle_alpha   69.93350207
_cell_angle_beta   69.93350207
_cell_angle_gamma   74.98875115
_symmetry_Int_Tables_number   1
_chemical_formula_structural   CuNi2C37
_chemical_formula_sum   'Cu2 Ni4 C74'
_cell_volume   970.74421578
_cell_formula_units_Z   2
loop_
 _symmetry_equiv_pos_site_id
 _symmetry_equiv_pos_as_xyz
  1  'x, y, z'
loop_
 _atom_site_type_symbol
 _atom_site_label
 _atom_site_symmetry_multiplicity
 _atom_site_fract_x
 _atom_site_fract_y
 _atom_site_fract_z
 _atom_site_occupancy
  C  C0  1  0.41831100  0.58056500  0.75027100  1
  C  C1  1  0.58056500  0.41831100  0.25027100  1
  Ni  Ni2  1  0.93681800  0.53759200  0.80239400  1
  Ni  Ni3  1  0.46380800  0.06505600  0.69116500  1
  Ni  Ni4  1  0.06505600  0.46380800  0.19116500  1
  Ni  Ni5  1  0.53759200  0.93681800  0.30239400  1
  Cu  Cu6  1  0.93591900  0.06815400  0.74549900  1
  Cu  Cu7  1  0.06815400  0.93591900  0.24549900  1
  C  C8  1  0.14196700  0.03589800  0.88153900  1
  C  C9  1  0.03589800  0.14196700  0.38153900  1
  C  C10  1  0.66428100  0.01946400  0.89625200  1
  C  C11  1  0.01946400  0.66428100  0.39625200  1
  C  C12  1  0.96651500  0.85327400  0.61576700  1
  C  C13  1  0.85327400  0.96651500  0.11576700  1
  C  C14  1  0.97764900  0.34355400  0.59893200  1
  C  C15  1  0.34355400  0.97764900  0.09893200  1
  C  C16  1  0.26058400  0.44963100  0.55852900  1
  C  C17  1  0.55284800  0.73872400  0.94037400  1
  C  C18  1  0.73872400  0.55284800  0.44037400  1
  C  C19  1  0.44963100  0.26058400  0.05852900  1
  C  C20  1  0.25256800  0.95967900  0.57954200  1
  C  C21  1  0.04513900  0.74415200  0.91882400  1
  C  C22  1  0.74415200  0.04513900  0.41882400  1
  C  C23  1  0.95967900  0.25256800  0.07954200  1
  C  C24  1  0.70532500  0.75250200  0.60954200  1
  C  C25  1  0.24421900  0.29577400  0.88874100  1
  C  C26  1  0.29577400  0.24421900  0.38874100  1
  C  C27  1  0.75250200  0.70532500  0.10954200  1
  C  C28  1  0.70855400  0.24759000  0.58367400  1
  C  C29  1  0.74948000  0.29553800  0.91611600  1
  C  C30  1  0.29553800  0.74948000  0.41611600  1
  C  C31  1  0.24759000  0.70855400  0.08367400  1
  C  C32  1  0.81242400  0.39295000  0.75781200  1
  C  C33  1  0.61059400  0.18167500  0.74728800  1
  C  C34  1  0.18167500  0.61059400  0.24728800  1
  C  C35  1  0.39295000  0.81242400  0.25781200  1
  C  C36  1  0.09488500  0.00725200  0.56672400  1
  C  C37  1  0.01156900  0.90640200  0.92168600  1
  C  C38  1  0.90640200  0.01156900  0.42168600  1
  C  C39  1  0.00725200  0.09488500  0.06672400  1
  C  C40  1  0.87314900  0.21218400  0.56432500  1
  C  C41  1  0.77637400  0.12991600  0.92815000  1
  C  C42  1  0.12991600  0.77637400  0.42815000  1
  C  C43  1  0.21218400  0.87314900  0.06432500  1
  C  C44  1  0.29055000  0.38886200  0.71989500  1
  C  C45  1  0.61063400  0.70953000  0.77921300  1
  C  C46  1  0.70953000  0.61063400  0.27921300  1
  C  C47  1  0.38886200  0.29055000  0.21989500  1
  C  C48  1  0.06139300  0.71548700  0.76930400  1
  C  C49  1  0.27425300  0.94430900  0.73673400  1
  C  C50  1  0.94430900  0.27425300  0.23673400  1
  C  C51  1  0.71548700  0.06139300  0.26930400  1
  C  C52  1  0.10001600  0.48912300  0.56602600  1
  C  C53  1  0.52330600  0.90316800  0.92419100  1
  C  C54  1  0.90316800  0.52330600  0.42419100  1
  C  C55  1  0.48912300  0.10001600  0.06602600  1
  C  C56  1  0.32295200  0.81640000  0.53132600  1
  C  C57  1  0.18415300  0.66725800  0.97636000  1
  C  C58  1  0.66725800  0.18415300  0.47636000  1
  C  C59  1  0.81640000  0.32295200  0.03132600  1
  C  C60  1  0.66128600  0.41701000  0.52521500  1
  C  C61  1  0.58063300  0.34497200  0.97752800  1
  C  C62  1  0.34497200  0.58063300  0.47752800  1
  C  C63  1  0.41701000  0.66128600  0.02521500  1
  C  C64  1  0.65977000  0.91976300  0.54716700  1
  C  C65  1  0.07903300  0.34775400  0.95813400  1
  C  C66  1  0.34775400  0.07903300  0.45813400  1
  C  C67  1  0.91976300  0.65977000  0.04716700  1
  C  C68  1  0.65505000  0.67209100  0.52595400  1
  C  C69  1  0.32816300  0.33866200  0.97399600  1
  C  C70  1  0.33866200  0.32816300  0.47399600  1
  C  C71  1  0.67209100  0.65505000  0.02595400  1
  C  C72  1  0.86910900  0.70892800  0.58999900  1
  C  C73  1  0.27870800  0.13170600  0.90150200  1
  C  C74  1  0.13170600  0.27870800  0.40150200  1
  C  C75  1  0.70892800  0.86910900  0.08999900  1
  C  C76  1  0.07375600  0.17238100  0.75698100  1
  C  C77  1  0.79814000  0.94118600  0.77733000  1
  C  C78  1  0.94118600  0.79814000  0.27733000  1
  C  C79  1  0.17238100  0.07375600  0.25698100  1
