# generated using pymatgen
data_Cu8NiC16
_symmetry_space_group_name_H-M   'P 1'
_cell_length_a   5.06410494
_cell_length_b   5.06418525
_cell_length_c   12.03085935
_cell_angle_alpha   91.96478055
_cell_angle_beta   91.85508237
_cell_angle_gamma   78.00717952
_symmetry_Int_Tables_number   1
_chemical_formula_structural   Cu8NiC16
_chemical_formula_sum   'Cu8 Ni1 C16'
_cell_volume   301.52588757
_cell_formula_units_Z   1
loop_
 _symmetry_equiv_pos_site_id
 _symmetry_equiv_pos_as_xyz
  1  'x, y, z'
loop_
 _atom_site_type_symbol
 _atom_site_label
 _atom_site_symmetry_multiplicity
 _atom_site_fract_x
 _atom_site_fract_y
 _atom_site_fract_z
 _atom_site_occupancy
  Ni  Ni0  1  0.24646100  0.24520600  0.37052900  1
  Cu  Cu1  1  0.08727700  0.06969300  0.99884100  1
  Cu  Cu2  1  0.95792800  0.96078200  0.23562500  1
  Cu  Cu3  1  0.00859300  0.00496800  0.51789300  1
  Cu  Cu4  1  0.89447100  0.87074500  0.75113600  1
  Cu  Cu5  1  0.51356600  0.50846700  0.11601300  1
  Cu  Cu6  1  0.43707400  0.42669200  0.64540700  1
  Cu  Cu7  1  0.45513200  0.50127600  0.87810900  1
  Cu  Cu8  1  0.59308900  0.59123000  0.35031000  1
  C  C9  1  0.21925400  0.83129700  0.12180100  1
  C  C10  1  0.16093600  0.75493000  0.63242800  1
  C  C11  1  0.15166600  0.80267200  0.87745100  1
  C  C12  1  0.23334500  0.84266600  0.37178000  1
  C  C13  1  0.32005700  0.32349700  0.99883300  1
  C  C14  1  0.39386100  0.38418400  0.24737800  1
  C  C15  1  0.26804100  0.25719900  0.52993600  1
  C  C16  1  0.29311800  0.31486100  0.77458900  1
  C  C17  1  0.63633300  0.65111600  0.99107600  1
  C  C18  1  0.72692400  0.71918400  0.22494500  1
  C  C19  1  0.63600500  0.63745100  0.75514800  1
  C  C20  1  0.83405100  0.21158400  0.11676800  1
  C  C21  1  0.84623900  0.23183800  0.37251500  1
  C  C22  1  0.76545400  0.15077200  0.63722900  1
  C  C23  1  0.74681600  0.74429400  0.47960800  1
  C  C24  1  0.78264200  0.17173900  0.87687400  1
