# generated using pymatgen
data_CuNi4C3
_symmetry_space_group_name_H-M   'P 1'
_cell_length_a   7.32593000
_cell_length_b   8.30488000
_cell_length_c   12.72593600
_cell_angle_alpha   90.00000000
_cell_angle_beta   90.00000000
_cell_angle_gamma   90.00000000
_symmetry_Int_Tables_number   1
_chemical_formula_structural   CuNi4C3
_chemical_formula_sum   'Cu8 Ni32 C24'
_cell_volume   774.25828452
_cell_formula_units_Z   8
loop_
 _symmetry_equiv_pos_site_id
 _symmetry_equiv_pos_as_xyz
  1  'x, y, z'
loop_
 _atom_site_type_symbol
 _atom_site_label
 _atom_site_symmetry_multiplicity
 _atom_site_fract_x
 _atom_site_fract_y
 _atom_site_fract_z
 _atom_site_occupancy
  C  C0  1  0.24762300  0.61151900  0.47501800  1
  C  C1  1  0.75237700  0.11151900  0.02498200  1
  C  C2  1  0.25237700  0.38848100  0.97501800  1
  C  C3  1  0.74762300  0.88848100  0.52498200  1
  C  C4  1  0.75237700  0.38848100  0.52498200  1
  C  C5  1  0.24762300  0.88848100  0.97501800  1
  C  C6  1  0.74762300  0.61151900  0.02498200  1
  C  C7  1  0.25237700  0.11151900  0.47501800  1
  C  C8  1  0.34587000  0.65839400  0.17202400  1
  C  C9  1  0.65413000  0.15839400  0.32797600  1
  C  C10  1  0.15413000  0.34160600  0.67202400  1
  C  C11  1  0.84587000  0.84160600  0.82797600  1
  C  C12  1  0.65413000  0.34160600  0.82797600  1
  C  C13  1  0.34587000  0.84160600  0.67202400  1
  C  C14  1  0.84587000  0.65839400  0.32797600  1
  C  C15  1  0.15413000  0.15839400  0.17202400  1
  C  C16  1  0.26103900  0.90875600  0.27138600  1
  C  C17  1  0.73896100  0.40875600  0.22861400  1
  C  C18  1  0.23896100  0.09124400  0.77138600  1
  C  C19  1  0.76103900  0.59124400  0.72861400  1
  C  C20  1  0.73896100  0.09124400  0.72861400  1
  C  C21  1  0.26103900  0.59124400  0.77138600  1
  C  C22  1  0.76103900  0.90875600  0.22861400  1
  C  C23  1  0.23896100  0.40875600  0.27138600  1
  Ni  Ni24  1  0.42637700  0.59920900  0.08526100  1
  Ni  Ni25  1  0.57362300  0.09920900  0.41473900  1
  Ni  Ni26  1  0.07362300  0.40079100  0.58526100  1
  Ni  Ni27  1  0.92637700  0.90079100  0.91473900  1
  Ni  Ni28  1  0.57362300  0.40079100  0.91473900  1
  Ni  Ni29  1  0.42637700  0.90079100  0.58526100  1
  Ni  Ni30  1  0.92637700  0.59920900  0.41473900  1
  Ni  Ni31  1  0.07362300  0.09920900  0.08526100  1
  Ni  Ni32  1  0.31059500  0.82556800  0.17928100  1
  Ni  Ni33  1  0.68940500  0.32556800  0.32071900  1
  Ni  Ni34  1  0.18940500  0.17443200  0.67928100  1
  Ni  Ni35  1  0.81059500  0.67443200  0.82071900  1
  Ni  Ni36  1  0.68940500  0.17443200  0.82071900  1
  Ni  Ni37  1  0.31059500  0.67443200  0.67928100  1
  Ni  Ni38  1  0.81059500  0.82556800  0.32071900  1
  Ni  Ni39  1  0.18940500  0.32556800  0.17928100  1
  Ni  Ni40  1  0.29447200  0.56871400  0.25956400  1
  Ni  Ni41  1  0.70552800  0.06871400  0.24043600  1
  Ni  Ni42  1  0.20552800  0.43128600  0.75956400  1
  Ni  Ni43  1  0.79447200  0.93128600  0.74043600  1
  Ni  Ni44  1  0.70552800  0.43128600  0.74043600  1
  Ni  Ni45  1  0.29447200  0.93128600  0.75956400  1
  Ni  Ni46  1  0.79447200  0.56871400  0.24043600  1
  Ni  Ni47  1  0.20552800  0.06871400  0.25956400  1
  Ni  Ni48  1  0.27208700  0.85499000  0.37022400  1
  Ni  Ni49  1  0.72791300  0.35499000  0.12977600  1
  Ni  Ni50  1  0.22791300  0.14501000  0.87022400  1
  Ni  Ni51  1  0.77208700  0.64501000  0.62977600  1
  Ni  Ni52  1  0.72791300  0.14501000  0.62977600  1
  Ni  Ni53  1  0.27208700  0.64501000  0.87022400  1
  Ni  Ni54  1  0.77208700  0.85499000  0.12977600  1
  Ni  Ni55  1  0.22791300  0.35499000  0.37022400  1
  Cu  Cu56  1  0.06478600  0.63490800  0.04781000  1
  Cu  Cu57  1  0.93521400  0.13490800  0.45219000  1
  Cu  Cu58  1  0.43521400  0.36509200  0.54781000  1
  Cu  Cu59  1  0.56478600  0.86509200  0.95219000  1
  Cu  Cu60  1  0.93521400  0.36509200  0.95219000  1
  Cu  Cu61  1  0.06478600  0.86509200  0.54781000  1
  Cu  Cu62  1  0.56478600  0.63490800  0.45219000  1
  Cu  Cu63  1  0.43521400  0.13490800  0.04781000  1
