# generated using pymatgen
data_Cu2(NiC2)3
_symmetry_space_group_name_H-M   'P 1'
_cell_length_a   6.32476200
_cell_length_b   9.63653547
_cell_length_c   9.63653547
_cell_angle_alpha   83.81766930
_cell_angle_beta   70.84251757
_cell_angle_gamma   70.84251757
_symmetry_Int_Tables_number   1
_chemical_formula_structural   Cu2(NiC2)3
_chemical_formula_sum   'Cu8 Ni12 C24'
_cell_volume   524.08345527
_cell_formula_units_Z   4
loop_
 _symmetry_equiv_pos_site_id
 _symmetry_equiv_pos_as_xyz
  1  'x, y, z'
loop_
 _atom_site_type_symbol
 _atom_site_label
 _atom_site_symmetry_multiplicity
 _atom_site_fract_x
 _atom_site_fract_y
 _atom_site_fract_z
 _atom_site_occupancy
  C  C0  1  0.87500000  0.60320000  0.89680000  1
  C  C1  1  0.37500000  0.39680000  0.10320000  1
  C  C2  1  0.22820000  0.89680000  0.39680000  1
  C  C3  1  0.52180000  0.10320000  0.60320000  1
  Ni  Ni4  1  0.45113500  0.57262800  0.67666200  1
  Ni  Ni5  1  0.29886500  0.82333800  0.92737200  1
  Ni  Ni6  1  0.70042500  0.42737200  0.32333800  1
  Ni  Ni7  1  0.04957500  0.17666200  0.07262800  1
  Ni  Ni8  1  0.87220300  0.67666200  0.42737200  1
  Ni  Ni9  1  0.87779700  0.07262800  0.82333800  1
  Ni  Ni10  1  0.97623700  0.32333800  0.57262800  1
  Ni  Ni11  1  0.77376300  0.92737200  0.17666200  1
  Ni  Ni12  1  0.24981000  0.37519000  0.87519000  1
  Ni  Ni13  1  0.50019000  0.62481000  0.12481000  1
  Ni  Ni14  1  0.87500000  0.87519000  0.62481000  1
  Ni  Ni15  1  0.37500000  0.12481000  0.37519000  1
  Cu  Cu16  1  0.32589200  0.66134400  0.63446400  1
  Cu  Cu17  1  0.42410800  0.86553600  0.83865600  1
  Cu  Cu18  1  0.62170000  0.33865600  0.36553600  1
  Cu  Cu19  1  0.12830000  0.13446400  0.16134400  1
  Cu  Cu20  1  0.03964300  0.63446400  0.33865600  1
  Cu  Cu21  1  0.71035700  0.16134400  0.86553600  1
  Cu  Cu22  1  0.01276400  0.36553600  0.66134400  1
  Cu  Cu23  1  0.73723600  0.83865600  0.13446400  1
  C  C24  1  0.17323000  0.45177000  0.95177000  1
  C  C25  1  0.57677000  0.54823000  0.04823000  1
  C  C26  1  0.87500000  0.95177000  0.54823000  1
  C  C27  1  0.37500000  0.04823000  0.45177000  1
  C  C28  1  0.10623400  0.69123200  0.69740000  1
  C  C29  1  0.64376600  0.80260000  0.80876800  1
  C  C30  1  0.49486600  0.30876800  0.30260000  1
  C  C31  1  0.25513400  0.19740000  0.19123200  1
  C  C32  1  0.19636600  0.69740000  0.30876800  1
  C  C33  1  0.55363400  0.19123200  0.80260000  1
  C  C34  1  0.20253400  0.30260000  0.69123200  1
  C  C35  1  0.54746600  0.80876800  0.19740000  1
  C  C36  1  0.41928200  0.72857500  0.52144400  1
  C  C37  1  0.33071800  0.97855600  0.77142500  1
  C  C38  1  0.66930200  0.27142500  0.47855600  1
  C  C39  1  0.08069800  0.02144400  0.22857500  1
  C  C40  1  0.05927300  0.52144400  0.27142500  1
  C  C41  1  0.69072700  0.22857500  0.97855600  1
  C  C42  1  0.85214200  0.47855600  0.72857500  1
  C  C43  1  0.89785800  0.77142500  0.02144400  1
