# generated using pymatgen
data_CuNiC2
_symmetry_space_group_name_H-M   'P 1'
_cell_length_a   6.09492400
_cell_length_b   6.97613300
_cell_length_c   5.70194600
_cell_angle_alpha   90.00000000
_cell_angle_beta   90.00000000
_cell_angle_gamma   90.00000000
_symmetry_Int_Tables_number   1
_chemical_formula_structural   CuNiC2
_chemical_formula_sum   'Cu4 Ni4 C8'
_cell_volume   242.44104453
_cell_formula_units_Z   4
loop_
 _symmetry_equiv_pos_site_id
 _symmetry_equiv_pos_as_xyz
  1  'x, y, z'
loop_
 _atom_site_type_symbol
 _atom_site_label
 _atom_site_symmetry_multiplicity
 _atom_site_fract_x
 _atom_site_fract_y
 _atom_site_fract_z
 _atom_site_occupancy
  Ni  Ni0  1  0.58172400  0.87462800  0.99875900  1
  Ni  Ni1  1  0.41827600  0.12537200  0.49875900  1
  Ni  Ni2  1  0.91827600  0.37462800  0.49875900  1
  Ni  Ni3  1  0.08172400  0.62537200  0.99875900  1
  Cu  Cu4  1  0.59215300  0.37599400  0.99941100  1
  Cu  Cu5  1  0.40784700  0.62400600  0.49941100  1
  Cu  Cu6  1  0.90784700  0.87599400  0.49941100  1
  Cu  Cu7  1  0.09215300  0.12400600  0.99941100  1
  C  C8  1  0.59280600  0.36365800  0.39071700  1
  C  C9  1  0.40719400  0.63634200  0.89071700  1
  C  C10  1  0.90719400  0.86365800  0.89071700  1
  C  C11  1  0.09280600  0.13634200  0.39071700  1
  C  C12  1  0.56998400  0.88643300  0.36111300  1
  C  C13  1  0.43001600  0.11356700  0.86111300  1
  C  C14  1  0.93001600  0.38643300  0.86111300  1
  C  C15  1  0.06998400  0.61356700  0.36111300  1
