# generated using pymatgen
data_Cu11Ni5C8
_symmetry_space_group_name_H-M   'P 1'
_cell_length_a   8.74665100
_cell_length_b   11.13789400
_cell_length_c   13.59844826
_cell_angle_alpha   90.00000000
_cell_angle_beta   113.51782967
_cell_angle_gamma   90.00000000
_symmetry_Int_Tables_number   1
_chemical_formula_structural   Cu11Ni5C8
_chemical_formula_sum   'Cu44 Ni20 C32'
_cell_volume   1214.71174133
_cell_formula_units_Z   4
loop_
 _symmetry_equiv_pos_site_id
 _symmetry_equiv_pos_as_xyz
  1  'x, y, z'
loop_
 _atom_site_type_symbol
 _atom_site_label
 _atom_site_symmetry_multiplicity
 _atom_site_fract_x
 _atom_site_fract_y
 _atom_site_fract_z
 _atom_site_occupancy
  C  C0  1  0.65930000  0.61264500  0.28687100  1
  C  C1  1  0.65930000  0.88735500  0.78687100  1
  C  C2  1  0.34070000  0.38735500  0.71312900  1
  C  C3  1  0.34070000  0.11264500  0.21312900  1
  C  C4  1  0.07180100  0.73361400  0.33182200  1
  C  C5  1  0.07180100  0.76638600  0.83182200  1
  C  C6  1  0.92819900  0.26638600  0.66817800  1
  C  C7  1  0.92819900  0.23361400  0.16817800  1
  C  C8  1  0.94857400  0.50802400  0.30725400  1
  C  C9  1  0.94857400  0.99197600  0.80725400  1
  C  C10  1  0.05142600  0.49197600  0.69274600  1
  C  C11  1  0.05142600  0.00802400  0.19274600  1
  C  C12  1  0.55000000  0.34665900  0.05885800  1
  C  C13  1  0.55000000  0.15334100  0.55885800  1
  C  C14  1  0.45000000  0.65334100  0.94114200  1
  C  C15  1  0.45000000  0.84665900  0.44114200  1
  C  C16  1  0.84454900  0.88384400  0.51808200  1
  C  C17  1  0.84454900  0.61615600  0.01808200  1
  C  C18  1  0.15545100  0.11615600  0.48191800  1
  C  C19  1  0.15545100  0.38384400  0.98191800  1
  C  C20  1  0.66489900  0.89280400  0.08677600  1
  C  C21  1  0.66489900  0.60719600  0.58677600  1
  C  C22  1  0.33510100  0.10719600  0.91322400  1
  C  C23  1  0.33510100  0.39280400  0.41322400  1
  C  C24  1  0.12916300  0.59398700  0.54452700  1
  C  C25  1  0.12916300  0.90601300  0.04452700  1
  C  C26  1  0.87083700  0.40601300  0.45547300  1
  C  C27  1  0.87083700  0.09398700  0.95547300  1
  C  C28  1  0.26622800  0.57728600  0.13199800  1
  C  C29  1  0.26622800  0.92271400  0.63199800  1
  C  C30  1  0.73377200  0.42271400  0.86800200  1
  C  C31  1  0.73377200  0.07728600  0.36800200  1
  Ni  Ni32  1  0.62256900  0.40663600  0.12602800  1
  Ni  Ni33  1  0.62256900  0.09336400  0.62602800  1
  Ni  Ni34  1  0.37743100  0.59336400  0.87397200  1
  Ni  Ni35  1  0.37743100  0.90663600  0.37397200  1
  Ni  Ni36  1  0.85228400  0.82203300  0.45641100  1
  Ni  Ni37  1  0.85228400  0.67796700  0.95641100  1
  Ni  Ni38  1  0.14771600  0.17796700  0.54358900  1
  Ni  Ni39  1  0.14771600  0.32203300  0.04358900  1
  Ni  Ni40  1  0.72870900  0.82635800  0.15040100  1
  Ni  Ni41  1  0.72870900  0.67364200  0.65040100  1
  Ni  Ni42  1  0.27129100  0.17364200  0.84959900  1
  Ni  Ni43  1  0.27129100  0.32635800  0.34959900  1
  Ni  Ni44  1  0.25061700  0.58756100  0.53752600  1
  Ni  Ni45  1  0.25061700  0.91243900  0.03752600  1
  Ni  Ni46  1  0.74938300  0.41243900  0.46247400  1
  Ni  Ni47  1  0.74938300  0.08756100  0.96247400  1
  Ni  Ni48  1  0.26922700  0.62766700  0.20289800  1
  Ni  Ni49  1  0.26922700  0.87233300  0.70289800  1
  Ni  Ni50  1  0.73077300  0.37233300  0.79710200  1
  Ni  Ni51  1  0.73077300  0.12766700  0.29710200  1
  Cu  Cu52  1  0.12813600  0.64544100  0.20675000  1
  Cu  Cu53  1  0.12813600  0.85455900  0.70675000  1
  Cu  Cu54  1  0.87186400  0.35455900  0.79325000  1
  Cu  Cu55  1  0.87186400  0.14544100  0.29325000  1
  Cu  Cu56  1  0.72888400  0.75315200  0.41220700  1
  Cu  Cu57  1  0.72888400  0.74684800  0.91220700  1
  Cu  Cu58  1  0.27111600  0.24684800  0.58779300  1
  Cu  Cu59  1  0.27111600  0.25315200  0.08779300  1
  Cu  Cu60  1  0.92238600  0.58112600  0.33763000  1
  Cu  Cu61  1  0.92238600  0.91887400  0.83763000  1
  Cu  Cu62  1  0.07761400  0.41887400  0.66237000  1
  Cu  Cu63  1  0.07761400  0.08112600  0.16237000  1
  Cu  Cu64  1  0.22098800  0.89084200  0.32526800  1
  Cu  Cu65  1  0.22098800  0.60915800  0.82526800  1
  Cu  Cu66  1  0.77901200  0.10915800  0.67473200  1
  Cu  Cu67  1  0.77901200  0.39084200  0.17473200  1
  Cu  Cu68  1  0.54259800  0.48917600  0.14938500  1
  Cu  Cu69  1  0.54259800  0.01082400  0.64938500  1
  Cu  Cu70  1  0.45740200  0.51082400  0.85061500  1
  Cu  Cu71  1  0.45740200  0.98917600  0.35061500  1
  Cu  Cu72  1  0.27479300  0.64876600  0.46600100  1
  Cu  Cu73  1  0.27479300  0.85123400  0.96600100  1
  Cu  Cu74  1  0.72520700  0.35123400  0.53399900  1
  Cu  Cu75  1  0.72520700  0.14876600  0.03399900  1
  Cu  Cu76  1  0.63757600  0.48111100  0.39926400  1
  Cu  Cu77  1  0.63757600  0.01888900  0.89926400  1
  Cu  Cu78  1  0.36242400  0.51888900  0.60073600  1
  Cu  Cu79  1  0.36242400  0.98111100  0.10073600  1
  Cu  Cu80  1  0.40727500  0.66358800  0.27243500  1
  Cu  Cu81  1  0.40727500  0.83641200  0.77243500  1
  Cu  Cu82  1  0.59272500  0.33641200  0.72756500  1
  Cu  Cu83  1  0.59272500  0.16358800  0.22756500  1
  Cu  Cu84  1  0.88619800  0.83626700  0.19775300  1
  Cu  Cu85  1  0.88619800  0.66373300  0.69775300  1
  Cu  Cu86  1  0.11380200  0.16373300  0.80224700  1
  Cu  Cu87  1  0.11380200  0.33626700  0.30224700  1
  Cu  Cu88  1  0.98554600  0.83059300  0.44044800  1
  Cu  Cu89  1  0.98554600  0.66940700  0.94044800  1
  Cu  Cu90  1  0.01445400  0.16940700  0.55955200  1
  Cu  Cu91  1  0.01445400  0.33059300  0.05955200  1
  Cu  Cu92  1  0.63464100  0.74950400  0.16660500  1
  Cu  Cu93  1  0.63464100  0.75049600  0.66660500  1
  Cu  Cu94  1  0.36535900  0.25049600  0.83339500  1
  Cu  Cu95  1  0.36535900  0.24950400  0.33339500  1
