# generated using pymatgen
data_Cu2Ni12C11
_symmetry_space_group_name_H-M   'P 1'
_cell_length_a   12.94591400
_cell_length_b   6.70857700
_cell_length_c   18.47711488
_cell_angle_alpha   87.70041505
_cell_angle_beta   90.00000000
_cell_angle_gamma   90.00000000
_symmetry_Int_Tables_number   1
_chemical_formula_structural   Cu2Ni12C11
_chemical_formula_sum   'Cu8 Ni48 C44'
_cell_volume   1603.42038705
_cell_formula_units_Z   4
loop_
 _symmetry_equiv_pos_site_id
 _symmetry_equiv_pos_as_xyz
  1  'x, y, z'
loop_
 _atom_site_type_symbol
 _atom_site_label
 _atom_site_symmetry_multiplicity
 _atom_site_fract_x
 _atom_site_fract_y
 _atom_site_fract_z
 _atom_site_occupancy
  C  C0  1  0.88639700  0.74499600  0.49642100  1
  C  C1  1  0.11360300  0.25500400  0.50357900  1
  C  C2  1  0.38639700  0.25500400  0.00357900  1
  C  C3  1  0.61360300  0.74499600  0.99642100  1
  Ni  Ni4  1  0.62334900  0.44836500  0.38522400  1
  Ni  Ni5  1  0.37665100  0.55163500  0.61477600  1
  Ni  Ni6  1  0.12334900  0.55163500  0.11477600  1
  Ni  Ni7  1  0.87665100  0.44836500  0.88522400  1
  Ni  Ni8  1  0.78162000  0.61587400  0.41984200  1
  Ni  Ni9  1  0.21838000  0.38412600  0.58015800  1
  Ni  Ni10  1  0.28162000  0.38412600  0.08015800  1
  Ni  Ni11  1  0.71838000  0.61587400  0.91984200  1
  Ni  Ni12  1  0.66052700  0.43323200  0.31467600  1
  Ni  Ni13  1  0.33947300  0.56676800  0.68532400  1
  Ni  Ni14  1  0.16052700  0.56676800  0.18532400  1
  Ni  Ni15  1  0.83947300  0.43323200  0.81467600  1
  Ni  Ni16  1  0.38087400  0.92768900  0.41206600  1
  Ni  Ni17  1  0.61912600  0.07231100  0.58793400  1
  Ni  Ni18  1  0.88087400  0.07231100  0.08793400  1
  Ni  Ni19  1  0.11912600  0.92768900  0.91206600  1
  Ni  Ni20  1  0.68410000  0.53817900  0.43705000  1
  Ni  Ni21  1  0.31590000  0.46182100  0.56295000  1
  Ni  Ni22  1  0.18410000  0.46182100  0.06295000  1
  Ni  Ni23  1  0.81590000  0.53817900  0.93705000  1
  Ni  Ni24  1  0.81252400  0.98343800  0.04074500  1
  Ni  Ni25  1  0.18747600  0.01656200  0.95925500  1
  Ni  Ni26  1  0.31252400  0.01656200  0.45925500  1
  Ni  Ni27  1  0.68747600  0.98343800  0.54074500  1
  Ni  Ni28  1  0.72280300  0.88801900  0.06591900  1
  Ni  Ni29  1  0.27719700  0.11198100  0.93408100  1
  Ni  Ni30  1  0.22280300  0.11198100  0.43408100  1
  Ni  Ni31  1  0.77719700  0.88801900  0.56591900  1
  Ni  Ni32  1  0.70049600  0.89343400  0.13989900  1
  Ni  Ni33  1  0.29950400  0.10656600  0.86010100  1
  Ni  Ni34  1  0.20049600  0.10656600  0.36010100  1
  Ni  Ni35  1  0.79950400  0.89343400  0.63989900  1
  Ni  Ni36  1  0.76747600  0.98337800  0.18783400  1
  Ni  Ni37  1  0.23252400  0.01662200  0.81216600  1
  Ni  Ni38  1  0.26747600  0.01662200  0.31216600  1
  Ni  Ni39  1  0.73252400  0.98337800  0.68783400  1
  Ni  Ni40  1  0.81796100  0.59550700  0.34928300  1
  Ni  Ni41  1  0.18203900  0.40449300  0.65071700  1
  Ni  Ni42  1  0.31796100  0.40449300  0.15071700  1
  Ni  Ni43  1  0.68203900  0.59550700  0.84928300  1
  Ni  Ni44  1  0.35906000  0.93039000  0.33799400  1
  Ni  Ni45  1  0.64094000  0.06961000  0.66200600  1
  Ni  Ni46  1  0.85906000  0.06961000  0.16200600  1
  Ni  Ni47  1  0.14094000  0.93039000  0.83799400  1
  Ni  Ni48  1  0.75833600  0.50658700  0.29669900  1
  Ni  Ni49  1  0.24166400  0.49341300  0.70330100  1
  Ni  Ni50  1  0.25833600  0.49341300  0.20330100  1
  Ni  Ni51  1  0.74166400  0.50658700  0.79669900  1
  Cu  Cu52  1  0.39719000  0.93596100  0.08087800  1
  Cu  Cu53  1  0.60281000  0.06403900  0.91912200  1
  Cu  Cu54  1  0.89719000  0.06403900  0.41912200  1
  Cu  Cu55  1  0.10281000  0.93596100  0.58087800  1
  Cu  Cu56  1  0.62826500  0.42517600  0.07244000  1
  Cu  Cu57  1  0.37173500  0.57482400  0.92756000  1
  Cu  Cu58  1  0.12826500  0.57482400  0.42756000  1
  Cu  Cu59  1  0.87173500  0.42517600  0.57244000  1
  C  C60  1  0.61313000  0.81109200  0.16751300  1
  C  C61  1  0.38687000  0.18890800  0.83248700  1
  C  C62  1  0.11313000  0.18890800  0.33248700  1
  C  C63  1  0.88687000  0.81109200  0.66751300  1
  C  C64  1  0.42605900  0.84963400  0.29227200  1
  C  C65  1  0.57394100  0.15036600  0.70772800  1
  C  C66  1  0.92605900  0.15036600  0.20772800  1
  C  C67  1  0.07394100  0.84963400  0.79227200  1
  C  C68  1  0.60192200  0.34815100  0.26472800  1
  C  C69  1  0.39807800  0.65184900  0.73527200  1
  C  C70  1  0.10192200  0.65184900  0.23527200  1
  C  C71  1  0.89807800  0.34815100  0.76472800  1
  C  C72  1  0.79436600  0.49325400  0.22858700  1
  C  C73  1  0.20563400  0.50674600  0.77141300  1
  C  C74  1  0.29436600  0.50674600  0.27141300  1
  C  C75  1  0.70563400  0.49325400  0.72858700  1
  C  C76  1  0.85477300  0.54787600  0.00451900  1
  C  C77  1  0.14522700  0.45212400  0.99548100  1
  C  C78  1  0.35477300  0.45212400  0.49548100  1
  C  C79  1  0.64522700  0.54787600  0.50451900  1
  C  C80  1  0.74457000  0.98580300  0.25900800  1
  C  C81  1  0.25543000  0.01419700  0.74099200  1
  C  C82  1  0.24457000  0.01419700  0.24099200  1
  C  C83  1  0.75543000  0.98580300  0.75900800  1
  C  C84  1  0.52903900  0.37609900  0.40217100  1
  C  C85  1  0.47096100  0.62390100  0.59782900  1
  C  C86  1  0.02903900  0.62390100  0.09782900  1
  C  C87  1  0.97096100  0.37609900  0.90217100  1
  C  C88  1  0.66353200  0.99111300  0.46964700  1
  C  C89  1  0.33646800  0.00888700  0.53035300  1
  C  C90  1  0.16353200  0.00888700  0.03035300  1
  C  C91  1  0.83646800  0.99111300  0.96964700  1
  C  C92  1  0.91285600  0.66163300  0.32988800  1
  C  C93  1  0.08714400  0.33836700  0.67011200  1
  C  C94  1  0.41285600  0.33836700  0.17011200  1
  C  C95  1  0.58714400  0.66163300  0.82988800  1
  C  C96  1  0.46781000  0.83927000  0.43705200  1
  C  C97  1  0.53219000  0.16073000  0.56294800  1
  C  C98  1  0.96781000  0.16073000  0.06294800  1
  C  C99  1  0.03219000  0.83927000  0.93705200  1
