# generated using pymatgen
data_Cu(NiC6)2
_symmetry_space_group_name_H-M   'P 1'
_cell_length_a   5.65174100
_cell_length_b   7.04610422
_cell_length_c   14.05884518
_cell_angle_alpha   98.90278606
_cell_angle_beta   101.24540168
_cell_angle_gamma   101.56603405
_symmetry_Int_Tables_number   1
_chemical_formula_structural   Cu(NiC6)2
_chemical_formula_sum   'Cu2 Ni4 C24'
_cell_volume   526.90099216
_cell_formula_units_Z   2
loop_
 _symmetry_equiv_pos_site_id
 _symmetry_equiv_pos_as_xyz
  1  'x, y, z'
loop_
 _atom_site_type_symbol
 _atom_site_label
 _atom_site_symmetry_multiplicity
 _atom_site_fract_x
 _atom_site_fract_y
 _atom_site_fract_z
 _atom_site_occupancy
  C  C0  1  0.91345500  0.18109400  0.32456100  1
  C  C1  1  0.08654500  0.81890600  0.67543900  1
  Ni  Ni2  1  0.04937200  0.29055200  0.59329100  1
  Ni  Ni3  1  0.95062800  0.70944800  0.40670900  1
  Ni  Ni4  1  0.29754100  0.06504900  0.12852200  1
  Ni  Ni5  1  0.70245900  0.93495100  0.87147800  1
  Cu  Cu6  1  0.27168600  0.33492400  0.93408100  1
  Cu  Cu7  1  0.72831400  0.66507600  0.06591900  1
  C  C8  1  0.60184300  0.09745900  0.18642900  1
  C  C9  1  0.39815700  0.90254100  0.81357100  1
  C  C10  1  0.31009000  0.36814200  0.01823100  1
  C  C11  1  0.68991000  0.63185800  0.98176900  1
  C  C12  1  0.25213300  0.76537900  0.41157200  1
  C  C13  1  0.74786700  0.23462100  0.58842800  1
  C  C14  1  0.53912500  0.19128500  0.38739500  1
  C  C15  1  0.46087500  0.80871500  0.61260500  1
  C  C16  1  0.25105500  0.50250900  0.23894200  1
  C  C17  1  0.74894500  0.49749100  0.76105800  1
  C  C18  1  0.13689700  0.05484700  0.22007400  1
  C  C19  1  0.86310300  0.94515300  0.77992600  1
  C  C20  1  0.08232000  0.46668900  0.16346000  1
  C  C21  1  0.91768000  0.53331100  0.83654000  1
  C  C22  1  0.11326700  0.31483500  0.48360500  1
  C  C23  1  0.88673300  0.68516500  0.51639500  1
  C  C24  1  0.18389500  0.11607900  0.63285200  1
  C  C25  1  0.81610500  0.88392100  0.36714800  1
  C  C26  1  0.21217100  0.84609100  0.04996500  1
  C  C27  1  0.78782900  0.15390900  0.95003500  1
  C  C28  1  0.19262400  0.50746700  0.67318700  1
  C  C29  1  0.80737600  0.49253300  0.32681300  1
