# generated using pymatgen
data_CuNiC5
_symmetry_space_group_name_H-M   'P 1'
_cell_length_a   2.99259800
_cell_length_b   9.29817400
_cell_length_c   10.84654300
_cell_angle_alpha   90.00000000
_cell_angle_beta   90.00000000
_cell_angle_gamma   90.00000000
_symmetry_Int_Tables_number   1
_chemical_formula_structural   CuNiC5
_chemical_formula_sum   'Cu4 Ni4 C20'
_cell_volume   301.81261810
_cell_formula_units_Z   4
loop_
 _symmetry_equiv_pos_site_id
 _symmetry_equiv_pos_as_xyz
  1  'x, y, z'
loop_
 _atom_site_type_symbol
 _atom_site_label
 _atom_site_symmetry_multiplicity
 _atom_site_fract_x
 _atom_site_fract_y
 _atom_site_fract_z
 _atom_site_occupancy
  C  C0  1  0.50000000  0.25737800  0.90167100  1
  C  C1  1  0.50000000  0.75737800  0.09832900  1
  C  C2  1  0.00000000  0.74168400  0.59657000  1
  C  C3  1  0.00000000  0.24168400  0.40343000  1
  Ni  Ni4  1  0.00000000  0.58369000  0.85265700  1
  Ni  Ni5  1  0.00000000  0.08369000  0.14734300  1
  Ni  Ni6  1  0.00000000  0.56114700  0.36257600  1
  Ni  Ni7  1  0.00000000  0.06114700  0.63742400  1
  Cu  Cu8  1  0.50000000  0.41744200  0.64526200  1
  Cu  Cu9  1  0.50000000  0.91744200  0.35473800  1
  Cu  Cu10  1  0.50000000  0.43457900  0.13754500  1
  Cu  Cu11  1  0.50000000  0.93457900  0.86245500  1
  C  C12  1  0.50000000  0.52623200  0.96317600  1
  C  C13  1  0.50000000  0.02623200  0.03682400  1
  C  C14  1  0.00000000  0.47691400  0.52989000  1
  C  C15  1  0.00000000  0.97691400  0.47011000  1
  C  C16  1  0.50000000  0.19953500  0.60035300  1
  C  C17  1  0.50000000  0.69953500  0.39964700  1
  C  C18  1  0.00000000  0.79018400  0.89981500  1
  C  C19  1  0.00000000  0.29018400  0.10018500  1
  C  C20  1  0.50000000  0.61904000  0.73446200  1
  C  C21  1  0.50000000  0.11904000  0.26553800  1
  C  C22  1  0.00000000  0.39128200  0.77064600  1
  C  C23  1  0.00000000  0.89128200  0.22935400  1
  C  C24  1  0.50000000  0.42482100  0.32672400  1
  C  C25  1  0.50000000  0.92482100  0.67327600  1
  C  C26  1  0.00000000  0.57607300  0.18216800  1
  C  C27  1  0.00000000  0.07607300  0.81783200  1
