# generated using pymatgen
data_Cu2Ni2C21
_symmetry_space_group_name_H-M   'P 1'
_cell_length_a   5.51769163
_cell_length_b   7.17389116
_cell_length_c   9.80399106
_cell_angle_alpha   100.82315514
_cell_angle_beta   96.26020537
_cell_angle_gamma   86.50175999
_symmetry_Int_Tables_number   1
_chemical_formula_structural   Cu2Ni2C21
_chemical_formula_sum   'Cu2 Ni2 C21'
_cell_volume   378.57148081
_cell_formula_units_Z   1
loop_
 _symmetry_equiv_pos_site_id
 _symmetry_equiv_pos_as_xyz
  1  'x, y, z'
loop_
 _atom_site_type_symbol
 _atom_site_label
 _atom_site_symmetry_multiplicity
 _atom_site_fract_x
 _atom_site_fract_y
 _atom_site_fract_z
 _atom_site_occupancy
  Ni  Ni0  1  0.77600000  0.15660500  0.11608600  1
  Ni  Ni1  1  0.26499400  0.81947000  0.83847800  1
  Cu  Cu2  1  0.25870400  0.68008600  0.28508600  1
  Cu  Cu3  1  0.76404400  0.30898600  0.73221700  1
  C  C4  1  0.71542600  0.42999700  0.40088900  1
  C  C5  1  0.26095400  0.31902400  0.92093200  1
  C  C6  1  0.77034300  0.78911200  0.57085100  1
  C  C7  1  0.77166700  0.68037600  0.06438700  1
  C  C8  1  0.19509500  0.22412800  0.44808600  1
  C  C9  1  0.69817500  0.57714100  0.91954200  1
  C  C10  1  0.11185900  0.38897600  0.37625100  1
  C  C11  1  0.76342600  0.59819000  0.61828800  1
  C  C12  1  0.97357000  0.77342200  0.48218600  1
  C  C13  1  0.21732600  0.05135600  0.34222000  1
  C  C14  1  0.47694000  0.19515500  0.87255700  1
  C  C15  1  0.97409100  0.80818600  0.06191100  1
  C  C16  1  0.18333900  0.44565000  0.81739300  1
  C  C17  1  0.99098600  0.20943800  0.53559500  1
  C  C18  1  0.55400500  0.79304500  0.11873200  1
  C  C19  1  0.86576000  0.54507100  0.15777300  1
  C  C20  1  0.32176000  0.41923300  0.06339800  1
  C  C21  1  0.05024400  0.19162300  0.91236100  1
  C  C22  1  0.80879500  0.94026500  0.69650800  1
  C  C23  1  0.42545500  0.26571800  0.54096300  1
  C  C24  1  0.53204200  0.82493400  0.49302400  1
