# generated using pymatgen
data_CuNiC8
_symmetry_space_group_name_H-M   'P 1'
_cell_length_a   5.95908133
_cell_length_b   5.97402481
_cell_length_c   8.43512849
_cell_angle_alpha   90.20971882
_cell_angle_beta   89.81545872
_cell_angle_gamma   89.70517807
_symmetry_Int_Tables_number   1
_chemical_formula_structural   CuNiC8
_chemical_formula_sum   'Cu2 Ni2 C16'
_cell_volume   300.28047810
_cell_formula_units_Z   2
loop_
 _symmetry_equiv_pos_site_id
 _symmetry_equiv_pos_as_xyz
  1  'x, y, z'
loop_
 _atom_site_type_symbol
 _atom_site_label
 _atom_site_symmetry_multiplicity
 _atom_site_fract_x
 _atom_site_fract_y
 _atom_site_fract_z
 _atom_site_occupancy
  C  C0  1  0.99578355  0.01772495  0.24982809  1
  C  C1  1  0.00421645  0.98227505  0.75017191  1
  Ni  Ni2  1  0.50382335  0.52738788  0.25109829  1
  Ni  Ni3  1  0.49617665  0.47261212  0.74890171  1
  Cu  Cu4  1  0.50000000  0.00000000  0.00000000  1
  Cu  Cu5  1  0.00000000  0.50000000  0.50000000  1
  C  C6  1  0.00000000  0.50000000  0.00000000  1
  C  C7  1  0.50000000  0.00000000  0.50000000  1
  C  C8  1  0.21143719  0.23952626  0.96837421  1
  C  C9  1  0.29782988  0.73098925  0.53394742  1
  C  C10  1  0.78856281  0.76047374  0.03162579  1
  C  C11  1  0.70217012  0.26901075  0.46605258  1
  C  C12  1  0.26600786  0.70500798  0.96326061  1
  C  C13  1  0.24028127  0.21342601  0.52785170  1
  C  C14  1  0.73399214  0.29499202  0.03673939  1
  C  C15  1  0.75971873  0.78657399  0.47214830  1
  C  C16  1  0.44916422  0.97728016  0.26402818  1
  C  C17  1  0.07338569  0.49783217  0.23528286  1
  C  C18  1  0.55083578  0.02271984  0.73597182  1
  C  C19  1  0.92661431  0.50216783  0.76471714  1
