# generated using pymatgen
data_Cu7NiC2
_symmetry_space_group_name_H-M   'P 1'
_cell_length_a   7.02800862
_cell_length_b   7.02800862
_cell_length_c   7.02800897
_cell_angle_alpha   59.43248033
_cell_angle_beta   59.43248033
_cell_angle_gamma   59.43248017
_symmetry_Int_Tables_number   1
_chemical_formula_structural   Cu7NiC2
_chemical_formula_sum   'Cu14 Ni2 C4'
_cell_volume   242.29121405
_cell_formula_units_Z   2
loop_
 _symmetry_equiv_pos_site_id
 _symmetry_equiv_pos_as_xyz
  1  'x, y, z'
loop_
 _atom_site_type_symbol
 _atom_site_label
 _atom_site_symmetry_multiplicity
 _atom_site_fract_x
 _atom_site_fract_y
 _atom_site_fract_z
 _atom_site_occupancy
  C  C0  1  0.00000000  0.00000000  0.00000000  1
  C  C1  1  0.00000000  0.00000000  0.50000000  1
  C  C2  1  0.00000000  0.50000000  0.00000000  1
  C  C3  1  0.50000000  0.00000000  0.00000000  1
  Ni  Ni4  1  0.69101800  0.69101800  0.69101800  1
  Ni  Ni5  1  0.30898200  0.30898200  0.30898200  1
  Cu  Cu6  1  0.60777900  0.60777900  0.60777900  1
  Cu  Cu7  1  0.39222100  0.39222100  0.39222100  1
  Cu  Cu8  1  0.50978000  0.16044800  0.16044800  1
  Cu  Cu9  1  0.16044800  0.16044800  0.50978000  1
  Cu  Cu10  1  0.16044800  0.50978000  0.16044800  1
  Cu  Cu11  1  0.49022000  0.83955200  0.83955200  1
  Cu  Cu12  1  0.83955200  0.83955200  0.49022000  1
  Cu  Cu13  1  0.83955200  0.49022000  0.83955200  1
  Cu  Cu14  1  0.08868700  0.74738200  0.74738200  1
  Cu  Cu15  1  0.74738200  0.74738200  0.08868700  1
  Cu  Cu16  1  0.74738200  0.08868700  0.74738200  1
  Cu  Cu17  1  0.91131300  0.25261800  0.25261800  1
  Cu  Cu18  1  0.25261800  0.25261800  0.91131300  1
  Cu  Cu19  1  0.25261800  0.91131300  0.25261800  1
