# generated using pymatgen
data_CuNi3C16
_symmetry_space_group_name_H-M   'P 1'
_cell_length_a   7.70581000
_cell_length_b   7.71041500
_cell_length_c   7.75498200
_cell_angle_alpha   90.00000000
_cell_angle_beta   90.00000000
_cell_angle_gamma   90.00000000
_symmetry_Int_Tables_number   1
_chemical_formula_structural   CuNi3C16
_chemical_formula_sum   'Cu2 Ni6 C32'
_cell_volume   460.76220133
_cell_formula_units_Z   2
loop_
 _symmetry_equiv_pos_site_id
 _symmetry_equiv_pos_as_xyz
  1  'x, y, z'
loop_
 _atom_site_type_symbol
 _atom_site_label
 _atom_site_symmetry_multiplicity
 _atom_site_fract_x
 _atom_site_fract_y
 _atom_site_fract_z
 _atom_site_occupancy
  Ni  Ni0  1  0.75077000  0.75038900  0.25000000  1
  Ni  Ni1  1  0.75054900  0.75058700  0.75000000  1
  Ni  Ni2  1  0.24940100  0.75079800  0.75000000  1
  Ni  Ni3  1  0.75054900  0.24941300  0.25000000  1
  Ni  Ni4  1  0.75077000  0.24961100  0.75000000  1
  Ni  Ni5  1  0.24940100  0.24920200  0.25000000  1
  Cu  Cu6  1  0.24833200  0.75094900  0.25000000  1
  Cu  Cu7  1  0.24833200  0.24905100  0.75000000  1
  C  C8  1  0.49817400  0.00000000  0.00000000  1
  C  C9  1  0.49817400  0.00000000  0.50000000  1
  C  C10  1  0.00144400  0.50000000  0.00000000  1
  C  C11  1  0.00144400  0.50000000  0.50000000  1
  C  C12  1  0.49833300  0.50000000  0.00000000  1
  C  C13  1  0.49833300  0.50000000  0.50000000  1
  C  C14  1  0.99992900  0.00000000  0.00000000  1
  C  C15  1  0.99992900  0.00000000  0.50000000  1
  C  C16  1  0.00388500  0.74321300  0.00287900  1
  C  C17  1  0.00388500  0.74321300  0.49712100  1
  C  C18  1  0.49609200  0.74708700  0.00197300  1
  C  C19  1  0.49609200  0.74708700  0.49802700  1
  C  C20  1  0.00388500  0.25678700  0.99712100  1
  C  C21  1  0.00388500  0.25678700  0.50287900  1
  C  C22  1  0.49609200  0.25291300  0.99802700  1
  C  C23  1  0.49609200  0.25291300  0.50197300  1
  C  C24  1  0.74237200  0.00000000  0.00000000  1
  C  C25  1  0.74237200  0.00000000  0.50000000  1
  C  C26  1  0.25671400  0.00000000  0.00000000  1
  C  C27  1  0.25671400  0.00000000  0.50000000  1
  C  C28  1  0.74812500  0.50000000  0.00000000  1
  C  C29  1  0.74812500  0.50000000  0.50000000  1
  C  C30  1  0.25232300  0.50000000  0.00000000  1
  C  C31  1  0.25232300  0.50000000  0.50000000  1
  C  C32  1  0.00606700  0.99575600  0.25000000  1
  C  C33  1  0.00606700  0.00424400  0.75000000  1
  C  C34  1  0.49607700  0.99675700  0.25000000  1
  C  C35  1  0.49607700  0.00324300  0.75000000  1
  C  C36  1  0.00456900  0.50188700  0.25000000  1
  C  C37  1  0.00456900  0.49811300  0.75000000  1
  C  C38  1  0.49686600  0.50082000  0.25000000  1
  C  C39  1  0.49686600  0.49918000  0.75000000  1
