# generated using pymatgen
data_CuNiC5
_symmetry_space_group_name_H-M   'P 1'
_cell_length_a   6.40932600
_cell_length_b   8.00950932
_cell_length_c   9.04282133
_cell_angle_alpha   115.81662836
_cell_angle_beta   90.00000000
_cell_angle_gamma   90.00000000
_symmetry_Int_Tables_number   1
_chemical_formula_structural   CuNiC5
_chemical_formula_sum   'Cu4 Ni4 C20'
_cell_volume   417.88576269
_cell_formula_units_Z   4
loop_
 _symmetry_equiv_pos_site_id
 _symmetry_equiv_pos_as_xyz
  1  'x, y, z'
loop_
 _atom_site_type_symbol
 _atom_site_label
 _atom_site_symmetry_multiplicity
 _atom_site_fract_x
 _atom_site_fract_y
 _atom_site_fract_z
 _atom_site_occupancy
  Ni  Ni0  1  0.50000000  0.00000000  0.50000000  1
  Ni  Ni1  1  0.00000000  0.50000000  0.00000000  1
  Ni  Ni2  1  0.50000000  0.50000000  0.50000000  1
  Ni  Ni3  1  0.00000000  0.00000000  0.00000000  1
  Cu  Cu4  1  0.54161300  0.24868900  0.99941300  1
  Cu  Cu5  1  0.04161300  0.75131100  0.50058700  1
  Cu  Cu6  1  0.95838700  0.24868900  0.49941300  1
  Cu  Cu7  1  0.45838700  0.75131100  0.00058700  1
  C  C8  1  0.70490400  0.94790900  0.97893400  1
  C  C9  1  0.79509600  0.94790900  0.47893400  1
  C  C10  1  0.60596600  0.25168700  0.50267400  1
  C  C11  1  0.89403400  0.25168700  0.00267400  1
  C  C12  1  0.70323800  0.54874800  0.00689500  1
  C  C13  1  0.29509600  0.05209100  0.02106600  1
  C  C14  1  0.79676200  0.54874800  0.50689500  1
  C  C15  1  0.03073100  0.89838000  0.77262900  1
  C  C16  1  0.51064200  0.38640600  0.27192300  1
  C  C17  1  0.96926900  0.10162000  0.22737100  1
  C  C18  1  0.20323800  0.45125200  0.49310500  1
  C  C19  1  0.39403400  0.74831300  0.49732600  1
  C  C20  1  0.46926900  0.89838000  0.27262900  1
  C  C21  1  0.53073100  0.10162000  0.72737100  1
  C  C22  1  0.48935800  0.61359400  0.72807700  1
  C  C23  1  0.20490400  0.05209100  0.52106600  1
  C  C24  1  0.10596600  0.74831300  0.99732600  1
  C  C25  1  0.98935800  0.38640600  0.77192300  1
  C  C26  1  0.29676200  0.45125200  0.99310500  1
  C  C27  1  0.01064200  0.61359400  0.22807700  1
