# generated using pymatgen
data_CuNi6C
_symmetry_space_group_name_H-M   'P 1'
_cell_length_a   4.85689200
_cell_length_b   6.30473700
_cell_length_c   10.88557500
_cell_angle_alpha   90.00000000
_cell_angle_beta   90.00000000
_cell_angle_gamma   90.00000000
_symmetry_Int_Tables_number   1
_chemical_formula_structural   CuNi6C
_chemical_formula_sum   'Cu2 Ni12 C2'
_cell_volume   333.33183692
_cell_formula_units_Z   2
loop_
 _symmetry_equiv_pos_site_id
 _symmetry_equiv_pos_as_xyz
  1  'x, y, z'
loop_
 _atom_site_type_symbol
 _atom_site_label
 _atom_site_symmetry_multiplicity
 _atom_site_fract_x
 _atom_site_fract_y
 _atom_site_fract_z
 _atom_site_occupancy
  Ni  Ni0  1  0.00000000  0.25579900  0.08566000  1
  Ni  Ni1  1  0.00000000  0.74420100  0.08566000  1
  Ni  Ni2  1  0.00000000  0.50000000  0.83275000  1
  Ni  Ni3  1  0.50000000  0.24554300  0.91715600  1
  Ni  Ni4  1  0.50000000  0.75445700  0.91715600  1
  Ni  Ni5  1  0.50000000  0.50000000  0.66649700  1
  Ni  Ni6  1  0.00000000  0.75579900  0.58566000  1
  Ni  Ni7  1  0.00000000  0.24420100  0.58566000  1
  Ni  Ni8  1  0.00000000  0.00000000  0.33275000  1
  Ni  Ni9  1  0.50000000  0.74554300  0.41715600  1
  Ni  Ni10  1  0.50000000  0.25445700  0.41715600  1
  Ni  Ni11  1  0.50000000  0.00000000  0.16649700  1
  Cu  Cu12  1  0.50000000  0.50000000  0.17548100  1
  Cu  Cu13  1  0.50000000  0.00000000  0.67548100  1
  C  C14  1  0.00000000  0.50000000  0.31963900  1
  C  C15  1  0.00000000  0.00000000  0.81963900  1
