# generated using pymatgen
data_Cu5Ni2C25
_symmetry_space_group_name_H-M   'P 1'
_cell_length_a   2.92884100
_cell_length_b   9.76328500
_cell_length_c   10.23107670
_cell_angle_alpha   79.68459267
_cell_angle_beta   90.00000000
_cell_angle_gamma   90.00000000
_symmetry_Int_Tables_number   1
_chemical_formula_structural   Cu5Ni2C25
_chemical_formula_sum   'Cu5 Ni2 C25'
_cell_volume   287.83010726
_cell_formula_units_Z   1
loop_
 _symmetry_equiv_pos_site_id
 _symmetry_equiv_pos_as_xyz
  1  'x, y, z'
loop_
 _atom_site_type_symbol
 _atom_site_label
 _atom_site_symmetry_multiplicity
 _atom_site_fract_x
 _atom_site_fract_y
 _atom_site_fract_z
 _atom_site_occupancy
  C  C0  1  0.50000000  0.24363100  0.12238600  1
  C  C1  1  0.50000000  0.24785700  0.62685200  1
  C  C2  1  0.00000000  0.00517500  0.24090200  1
  C  C3  1  0.00000000  0.99482500  0.75909800  1
  C  C4  1  0.50000000  0.75214300  0.37314800  1
  C  C5  1  0.50000000  0.75636900  0.87761400  1
  C  C6  1  0.00000000  0.50000000  0.00000000  1
  C  C7  1  0.00000000  0.50000000  0.50000000  1
  C  C8  1  0.50000000  0.00000000  0.00000000  1
  Ni  Ni9  1  0.00000000  0.24210000  0.88236300  1
  Ni  Ni10  1  0.00000000  0.75790000  0.11763700  1
  Cu  Cu11  1  0.00000000  0.25073700  0.37486200  1
  Cu  Cu12  1  0.50000000  0.00000000  0.50000000  1
  Cu  Cu13  1  0.00000000  0.74926300  0.62513800  1
  Cu  Cu14  1  0.50000000  0.50119800  0.25072600  1
  Cu  Cu15  1  0.50000000  0.49880200  0.74927400  1
  C  C16  1  0.50000000  0.36343200  0.92843000  1
  C  C17  1  0.50000000  0.37030200  0.43070400  1
  C  C18  1  0.00000000  0.13701800  0.04837600  1
  C  C19  1  0.00000000  0.11790700  0.55529000  1
  C  C20  1  0.50000000  0.86006200  0.18098200  1
  C  C21  1  0.50000000  0.86740900  0.68050700  1
  C  C22  1  0.00000000  0.61475800  0.80427700  1
  C  C23  1  0.00000000  0.62470100  0.29779600  1
  C  C24  1  0.50000000  0.13259100  0.31949300  1
  C  C25  1  0.50000000  0.13993800  0.81901800  1
  C  C26  1  0.00000000  0.88209300  0.44471000  1
  C  C27  1  0.00000000  0.86298200  0.95162400  1
  C  C28  1  0.50000000  0.62969800  0.56929600  1
  C  C29  1  0.50000000  0.63656800  0.07157000  1
  C  C30  1  0.00000000  0.38524200  0.19572300  1
  C  C31  1  0.00000000  0.37529900  0.70220400  1
