# generated using pymatgen
data_CuNi13C6
_symmetry_space_group_name_H-M   'P 1'
_cell_length_a   8.09362400
_cell_length_b   8.09362400
_cell_length_c   12.82748412
_cell_angle_alpha   108.38978072
_cell_angle_beta   108.38978072
_cell_angle_gamma   90.00000000
_symmetry_Int_Tables_number   1
_chemical_formula_structural   CuNi13C6
_chemical_formula_sum   'Cu2 Ni26 C12'
_cell_volume   752.01912139
_cell_formula_units_Z   2
loop_
 _symmetry_equiv_pos_site_id
 _symmetry_equiv_pos_as_xyz
  1  'x, y, z'
loop_
 _atom_site_type_symbol
 _atom_site_label
 _atom_site_symmetry_multiplicity
 _atom_site_fract_x
 _atom_site_fract_y
 _atom_site_fract_z
 _atom_site_occupancy
  C  C0  1  0.97493000  0.47493000  0.62543000  1
  C  C1  1  0.65050000  0.15050000  0.62543000  1
  C  C2  1  0.15050000  0.97493000  0.62543000  1
  C  C3  1  0.47493000  0.65050000  0.62543000  1
  C  C4  1  0.02507000  0.52507000  0.37457000  1
  C  C5  1  0.34950000  0.84950000  0.37457000  1
  C  C6  1  0.84950000  0.02507000  0.37457000  1
  C  C7  1  0.52507000  0.34950000  0.37457000  1
  C  C8  1  0.60599800  0.60599800  0.21199700  1
  C  C9  1  0.10599800  0.10599800  0.21199700  1
  C  C10  1  0.39400200  0.39400200  0.78800300  1
  C  C11  1  0.89400200  0.89400200  0.78800300  1
  Ni  Ni12  1  0.11807500  0.61807500  0.88018000  1
  Ni  Ni13  1  0.76210500  0.26210500  0.88018000  1
  Ni  Ni14  1  0.26210500  0.11807500  0.88018000  1
  Ni  Ni15  1  0.61807500  0.76210500  0.88018000  1
  Ni  Ni16  1  0.88192500  0.38192500  0.11982000  1
  Ni  Ni17  1  0.23789500  0.73789500  0.11982000  1
  Ni  Ni18  1  0.73789500  0.88192500  0.11982000  1
  Ni  Ni19  1  0.38192500  0.23789500  0.11982000  1
  Ni  Ni20  1  0.71040500  0.56672400  0.00000000  1
  Ni  Ni21  1  0.28959500  0.43327600  0.00000000  1
  Ni  Ni22  1  0.78959500  0.06672400  0.00000000  1
  Ni  Ni23  1  0.21040500  0.93327600  0.00000000  1
  Ni  Ni24  1  0.56672400  0.28959500  0.00000000  1
  Ni  Ni25  1  0.43327600  0.71040500  0.00000000  1
  Ni  Ni26  1  0.06672400  0.21040500  0.00000000  1
  Ni  Ni27  1  0.93327600  0.78959500  0.00000000  1
  Ni  Ni28  1  0.29034700  0.79034700  0.80837200  1
  Ni  Ni29  1  0.51802500  0.01802500  0.80837200  1
  Ni  Ni30  1  0.01802500  0.29034700  0.80837200  1
  Ni  Ni31  1  0.79034700  0.51802500  0.80837200  1
  Ni  Ni32  1  0.70965300  0.20965300  0.19162800  1
  Ni  Ni33  1  0.48197500  0.98197500  0.19162800  1
  Ni  Ni34  1  0.98197500  0.70965300  0.19162800  1
  Ni  Ni35  1  0.20965300  0.48197500  0.19162800  1
  Ni  Ni36  1  0.00000000  0.50000000  0.00000000  1
  Ni  Ni37  1  0.50000000  0.00000000  0.00000000  1
  Cu  Cu38  1  0.25000000  0.25000000  0.50000000  1
  Cu  Cu39  1  0.75000000  0.75000000  0.50000000  1
