# generated using pymatgen
data_Cu3Ni2C19
_symmetry_space_group_name_H-M   'P 1'
_cell_length_a   8.59656000
_cell_length_b   5.15784800
_cell_length_c   5.16334241
_cell_angle_alpha   68.31940743
_cell_angle_beta   90.00000000
_cell_angle_gamma   90.00000000
_symmetry_Int_Tables_number   1
_chemical_formula_structural   Cu3Ni2C19
_chemical_formula_sum   'Cu3 Ni2 C19'
_cell_volume   212.74548938
_cell_formula_units_Z   1
loop_
 _symmetry_equiv_pos_site_id
 _symmetry_equiv_pos_as_xyz
  1  'x, y, z'
loop_
 _atom_site_type_symbol
 _atom_site_label
 _atom_site_symmetry_multiplicity
 _atom_site_fract_x
 _atom_site_fract_y
 _atom_site_fract_z
 _atom_site_occupancy
  C  C0  1  0.16767400  0.00000000  0.50000000  1
  C  C1  1  0.00000000  0.50000000  0.50000000  1
  C  C2  1  0.83232600  0.00000000  0.50000000  1
  C  C3  1  0.66331200  0.50000000  0.50000000  1
  C  C4  1  0.50000000  0.00000000  0.50000000  1
  C  C5  1  0.33668800  0.50000000  0.50000000  1
  C  C6  1  0.50000000  0.50000000  0.00000000  1
  Ni  Ni7  1  0.33342000  0.00000000  0.00000000  1
  Ni  Ni8  1  0.66658000  0.00000000  0.00000000  1
  Cu  Cu9  1  0.16797800  0.50000000  0.00000000  1
  Cu  Cu10  1  0.00000000  0.00000000  0.00000000  1
  Cu  Cu11  1  0.83202200  0.50000000  0.00000000  1
  C  C12  1  0.17156700  0.77035700  0.23826300  1
  C  C13  1  0.00000000  0.26694500  0.21620200  1
  C  C14  1  0.82843300  0.77035700  0.23826300  1
  C  C15  1  0.67662700  0.24583200  0.21116900  1
  C  C16  1  0.50000000  0.78310700  0.23499600  1
  C  C17  1  0.32337300  0.24583200  0.21116900  1
  C  C18  1  0.17156700  0.22964300  0.76173700  1
  C  C19  1  0.00000000  0.73305500  0.78379800  1
  C  C20  1  0.82843300  0.22964300  0.76173700  1
  C  C21  1  0.67662700  0.75416800  0.78883100  1
  C  C22  1  0.50000000  0.21689300  0.76500400  1
  C  C23  1  0.32337300  0.75416800  0.78883100  1
