# generated using pymatgen
data_CuNi2C7
_symmetry_space_group_name_H-M   'P 1'
_cell_length_a   8.58641804
_cell_length_b   8.58641804
_cell_length_c   8.83852239
_cell_angle_alpha   90.00000000
_cell_angle_beta   90.00000000
_cell_angle_gamma   90.00000000
_symmetry_Int_Tables_number   1
_chemical_formula_structural   CuNi2C7
_chemical_formula_sum   'Cu4 Ni8 C28'
_cell_volume   651.63398173
_cell_formula_units_Z   4
loop_
 _symmetry_equiv_pos_site_id
 _symmetry_equiv_pos_as_xyz
  1  'x, y, z'
loop_
 _atom_site_type_symbol
 _atom_site_label
 _atom_site_symmetry_multiplicity
 _atom_site_fract_x
 _atom_site_fract_y
 _atom_site_fract_z
 _atom_site_occupancy
  C  C0  1  0.50000000  0.00000000  0.50000000  1
  C  C1  1  -0.00000000  0.50000000  0.00000000  1
  C  C2  1  0.50000000  0.50000000  0.00000000  1
  C  C3  1  0.50000000  0.50000000  0.50000000  1
  Ni  Ni4  1  0.75622317  0.75622317  0.75000000  1
  Ni  Ni5  1  0.24377683  0.75622317  0.75000000  1
  Ni  Ni6  1  0.75622317  0.75622317  0.25000000  1
  Ni  Ni7  1  0.24377683  0.75622317  0.25000000  1
  Ni  Ni8  1  0.75622317  0.24377683  0.75000000  1
  Ni  Ni9  1  0.24377683  0.24377683  0.75000000  1
  Ni  Ni10  1  0.75622317  0.24377683  0.25000000  1
  Ni  Ni11  1  0.24377683  0.24377683  0.25000000  1
  Cu  Cu12  1  -0.00000000  0.00000000  0.00000000  1
  Cu  Cu13  1  0.50000000  0.00000000  0.00000000  1
  Cu  Cu14  1  -0.00000000  0.00000000  0.50000000  1
  Cu  Cu15  1  -0.00000000  0.50000000  0.50000000  1
  C  C16  1  -0.00000000  0.79381985  0.83820997  1
  C  C17  1  0.50000000  0.76427006  0.71002298  1
  C  C18  1  -0.00000000  0.79381985  0.16179003  1
  C  C19  1  0.50000000  0.76427006  0.28997702  1
  C  C20  1  -0.00000000  0.20618015  0.83820997  1
  C  C21  1  0.50000000  0.23572994  0.71002298  1
  C  C22  1  -0.00000000  0.20618015  0.16179003  1
  C  C23  1  0.50000000  0.23572994  0.28997702  1
  C  C24  1  0.79381985  0.00000000  0.66179003  1
  C  C25  1  0.20618015  0.00000000  0.66179003  1
  C  C26  1  0.79381985  0.00000000  0.33820997  1
  C  C27  1  0.20618015  0.00000000  0.33820997  1
  C  C28  1  0.76427006  0.50000000  0.78997702  1
  C  C29  1  0.23572994  0.50000000  0.78997702  1
  C  C30  1  0.76427006  0.50000000  0.21002298  1
  C  C31  1  0.23572994  0.50000000  0.21002298  1
  C  C32  1  0.69552253  0.82549037  0.00000000  1
  C  C33  1  0.30447747  0.82549037  0.00000000  1
  C  C34  1  0.82549037  0.69552253  0.50000000  1
  C  C35  1  0.17450963  0.69552253  0.50000000  1
  C  C36  1  0.69552253  0.17450963  0.00000000  1
  C  C37  1  0.30447747  0.17450963  0.00000000  1
  C  C38  1  0.82549037  0.30447747  0.50000000  1
  C  C39  1  0.17450963  0.30447747  0.50000000  1
