# generated using pymatgen
data_Cu4Ni3C16
_symmetry_space_group_name_H-M   'P 1'
_cell_length_a   9.13958804
_cell_length_b   9.13958804
_cell_length_c   9.69278129
_cell_angle_alpha   60.18617049
_cell_angle_beta   60.18617049
_cell_angle_gamma   48.80559925
_symmetry_Int_Tables_number   1
_chemical_formula_structural   Cu4Ni3C16
_chemical_formula_sum   'Cu8 Ni6 C32'
_cell_volume   510.43833588
_cell_formula_units_Z   2
loop_
 _symmetry_equiv_pos_site_id
 _symmetry_equiv_pos_as_xyz
  1  'x, y, z'
loop_
 _atom_site_type_symbol
 _atom_site_label
 _atom_site_symmetry_multiplicity
 _atom_site_fract_x
 _atom_site_fract_y
 _atom_site_fract_z
 _atom_site_occupancy
  Ni  Ni0  1  0.07212300  0.26351400  0.10528600  1
  Ni  Ni1  1  0.73648600  0.92787700  0.39471400  1
  Ni  Ni2  1  0.26351400  0.07212300  0.60528600  1
  Ni  Ni3  1  0.38148100  0.61851900  0.75000000  1
  Ni  Ni4  1  0.92787700  0.73648600  0.89471400  1
  Ni  Ni5  1  0.61851900  0.38148100  0.25000000  1
  Cu  Cu6  1  0.53656200  0.09888500  0.70632100  1
  Cu  Cu7  1  0.09888500  0.53656200  0.20632100  1
  Cu  Cu8  1  0.52755100  0.23234800  0.09972100  1
  Cu  Cu9  1  0.23234800  0.52755100  0.59972100  1
  Cu  Cu10  1  0.90111500  0.46343800  0.79367900  1
  Cu  Cu11  1  0.47244900  0.76765200  0.90027900  1
  Cu  Cu12  1  0.76765200  0.47244900  0.40027900  1
  Cu  Cu13  1  0.46343800  0.90111500  0.29367900  1
  C  C14  1  0.78501000  0.21499000  0.75000000  1
  C  C15  1  0.21499000  0.78501000  0.25000000  1
  C  C16  1  0.00000000  0.00000000  0.00000000  1
  C  C17  1  0.00000000  0.00000000  0.50000000  1
  C  C18  1  0.84133800  0.29183500  0.33240600  1
  C  C19  1  0.97535900  0.87548100  0.41710100  1
  C  C20  1  0.45900900  0.63913400  0.09179700  1
  C  C21  1  0.87548100  0.97535900  0.91710100  1
  C  C22  1  0.24068400  0.96495800  0.31457500  1
  C  C23  1  0.05288400  0.51229100  0.62181100  1
  C  C24  1  0.63913400  0.45900800  0.59179700  1
  C  C25  1  0.03504200  0.75931600  0.18542500  1
  C  C26  1  0.94711600  0.48770900  0.37818900  1
  C  C27  1  0.63393700  0.67258300  0.27083500  1
  C  C28  1  0.02464100  0.12451900  0.58289900  1
  C  C29  1  0.75931600  0.03504200  0.68542500  1
  C  C30  1  0.48770900  0.94711600  0.87818900  1
  C  C31  1  0.29183500  0.84133800  0.83240600  1
  C  C32  1  0.67258300  0.63393700  0.77083500  1
  C  C33  1  0.96495800  0.24068400  0.81457500  1
  C  C34  1  0.90761300  0.49427300  0.94147800  1
  C  C35  1  0.36606300  0.32741700  0.72916500  1
  C  C36  1  0.50572700  0.09238700  0.55852200  1
  C  C37  1  0.32741700  0.36606300  0.22916500  1
  C  C38  1  0.51229100  0.05288400  0.12181100  1
  C  C39  1  0.12451900  0.02464100  0.08289900  1
  C  C40  1  0.49427300  0.90761300  0.44147800  1
  C  C41  1  0.54099200  0.36086600  0.90820300  1
  C  C42  1  0.09238700  0.50572700  0.05852200  1
  C  C43  1  0.36086600  0.54099100  0.40820300  1
  C  C44  1  0.70816500  0.15866200  0.16759400  1
  C  C45  1  0.15866200  0.70816500  0.66759400  1
