# generated using pymatgen
data_CuNiC30
_symmetry_space_group_name_H-M   'P 1'
_cell_length_a   4.41531900
_cell_length_b   8.75487900
_cell_length_c   8.83351000
_cell_angle_alpha   90.00000000
_cell_angle_beta   90.00000000
_cell_angle_gamma   90.00000000
_symmetry_Int_Tables_number   1
_chemical_formula_structural   CuNiC30
_chemical_formula_sum   'Cu1 Ni1 C30'
_cell_volume   341.46448421
_cell_formula_units_Z   1
loop_
 _symmetry_equiv_pos_site_id
 _symmetry_equiv_pos_as_xyz
  1  'x, y, z'
loop_
 _atom_site_type_symbol
 _atom_site_label
 _atom_site_symmetry_multiplicity
 _atom_site_fract_x
 _atom_site_fract_y
 _atom_site_fract_z
 _atom_site_occupancy
  Ni  Ni0  1  0.00000000  0.00000000  0.00000000  1
  Cu  Cu1  1  0.00000000  0.00000000  0.50000000  1
  C  C2  1  0.00000000  0.50000000  0.00000000  1
  C  C3  1  0.00000000  0.50000000  0.50000000  1
  C  C4  1  0.50000000  0.00000000  0.24211900  1
  C  C5  1  0.50000000  0.00000000  0.75788100  1
  C  C6  1  0.50000000  0.50000000  0.24838100  1
  C  C7  1  0.50000000  0.50000000  0.75161900  1
  C  C8  1  0.50000000  0.25782000  0.00000000  1
  C  C9  1  0.50000000  0.26339000  0.50000000  1
  C  C10  1  0.50000000  0.74218000  0.00000000  1
  C  C11  1  0.50000000  0.73661000  0.50000000  1
  C  C12  1  0.00000000  0.26075000  0.24534700  1
  C  C13  1  0.00000000  0.26075000  0.75465300  1
  C  C14  1  0.00000000  0.73925000  0.24534700  1
  C  C15  1  0.00000000  0.73925000  0.75465300  1
  C  C16  1  0.00000000  0.26477200  0.00000000  1
  C  C17  1  0.00000000  0.26041000  0.50000000  1
  C  C18  1  0.00000000  0.73522800  0.00000000  1
  C  C19  1  0.00000000  0.73959000  0.50000000  1
  C  C20  1  0.50000000  0.24902100  0.25013700  1
  C  C21  1  0.50000000  0.24902100  0.74986300  1
  C  C22  1  0.50000000  0.75097900  0.25013700  1
  C  C23  1  0.50000000  0.75097900  0.74986300  1
  C  C24  1  0.50000000  0.00000000  0.00000000  1
  C  C25  1  0.50000000  0.00000000  0.50000000  1
  C  C26  1  0.50000000  0.50000000  0.00000000  1
  C  C27  1  0.50000000  0.50000000  0.50000000  1
  C  C28  1  0.00000000  0.00000000  0.25213100  1
  C  C29  1  0.00000000  0.00000000  0.74786900  1
  C  C30  1  0.00000000  0.50000000  0.25125800  1
  C  C31  1  0.00000000  0.50000000  0.74874200  1
