# generated using pymatgen
data_Cu6NiC9
_symmetry_space_group_name_H-M   'P 1'
_cell_length_a   9.20134708
_cell_length_b   9.20134708
_cell_length_c   9.20134708
_cell_angle_alpha   121.28606216
_cell_angle_beta   121.28606216
_cell_angle_gamma   87.78654439
_symmetry_Int_Tables_number   1
_chemical_formula_structural   Cu6NiC9
_chemical_formula_sum   'Cu6 Ni1 C9'
_cell_volume   539.71198477
_cell_formula_units_Z   1
loop_
 _symmetry_equiv_pos_site_id
 _symmetry_equiv_pos_as_xyz
  1  'x, y, z'
loop_
 _atom_site_type_symbol
 _atom_site_label
 _atom_site_symmetry_multiplicity
 _atom_site_fract_x
 _atom_site_fract_y
 _atom_site_fract_z
 _atom_site_occupancy
  C  C0  1  0.80357800  0.00936400  0.50090200  1
  C  C1  1  0.50846200  0.30267600  0.49909800  1
  C  C2  1  0.30267600  0.80357800  0.79421400  1
  C  C3  1  0.00936400  0.50846200  0.20578600  1
  C  C4  1  0.19642200  0.99063600  0.49909800  1
  C  C5  1  0.49153800  0.69732400  0.50090200  1
  C  C6  1  0.69732400  0.19642200  0.20578600  1
  C  C7  1  0.99063600  0.49153800  0.79421400  1
  C  C8  1  0.50000000  0.50000000  0.00000000  1
  Ni  Ni9  1  0.00000000  0.00000000  0.00000000  1
  Cu  Cu10  1  0.85051800  0.67103200  0.52155000  1
  Cu  Cu11  1  0.14948200  0.32896800  0.47845000  1
  Cu  Cu12  1  0.32896800  0.85051800  0.17948600  1
  Cu  Cu13  1  0.67103200  0.14948200  0.82051400  1
  Cu  Cu14  1  0.76030500  0.76030500  0.00000000  1
  Cu  Cu15  1  0.23969500  0.23969500  0.00000000  1
