# generated using pymatgen
data_Cu2Ni8C7
_symmetry_space_group_name_H-M   'P 1'
_cell_length_a   16.54406530
_cell_length_b   16.54406530
_cell_length_c   16.54406530
_cell_angle_alpha   60.00000000
_cell_angle_beta   60.00000000
_cell_angle_gamma   60.00000000
_symmetry_Int_Tables_number   1
_chemical_formula_structural   Cu2Ni8C7
_chemical_formula_sum   'Cu16 Ni64 C56'
_cell_volume   3201.92908209
_cell_formula_units_Z   8
loop_
 _symmetry_equiv_pos_site_id
 _symmetry_equiv_pos_as_xyz
  1  'x, y, z'
loop_
 _atom_site_type_symbol
 _atom_site_label
 _atom_site_symmetry_multiplicity
 _atom_site_fract_x
 _atom_site_fract_y
 _atom_site_fract_z
 _atom_site_occupancy
  C  C0  1  0.50000000  0.00000000  0.50000000  1
  C  C1  1  0.50000000  0.50000000  -0.00000000  1
  C  C2  1  0.00000000  0.50000000  0.50000000  1
  C  C3  1  0.50000000  0.50000000  0.50000000  1
  C  C4  1  0.00000000  0.50000000  -0.00000000  1
  C  C5  1  0.50000000  0.00000000  -0.00000000  1
  C  C6  1  0.00000000  0.00000000  0.50000000  1
  C  C7  1  0.00000000  0.00000000  -0.00000000  1
  Ni  Ni8  1  0.71071994  0.04035260  0.09671238  1
  Ni  Ni9  1  0.65221508  0.09671238  0.04035260  1
  Ni  Ni10  1  0.04035260  0.71071994  0.65221508  1
  Ni  Ni11  1  0.09671238  0.65221508  0.71071994  1
  Ni  Ni12  1  0.04035260  0.09671238  0.71071994  1
  Ni  Ni13  1  0.09671238  0.04035260  0.65221508  1
  Ni  Ni14  1  0.71071994  0.65221508  0.04035260  1
  Ni  Ni15  1  0.65221508  0.71071994  0.09671238  1
  Ni  Ni16  1  0.09671238  0.71071994  0.04035260  1
  Ni  Ni17  1  0.04035260  0.65221508  0.09671238  1
  Ni  Ni18  1  0.65221508  0.04035260  0.71071994  1
  Ni  Ni19  1  0.71071994  0.09671238  0.65221508  1
  Ni  Ni20  1  0.28928006  0.95964740  0.90328762  1
  Ni  Ni21  1  0.34778492  0.90328762  0.95964740  1
  Ni  Ni22  1  0.95964740  0.28928006  0.34778492  1
  Ni  Ni23  1  0.90328762  0.34778492  0.28928006  1
  Ni  Ni24  1  0.95964740  0.90328762  0.28928006  1
  Ni  Ni25  1  0.90328762  0.95964740  0.34778492  1
  Ni  Ni26  1  0.28928006  0.34778492  0.95964740  1
  Ni  Ni27  1  0.34778492  0.28928006  0.90328762  1
  Ni  Ni28  1  0.90328762  0.28928006  0.95964740  1
  Ni  Ni29  1  0.95964740  0.34778492  0.90328762  1
  Ni  Ni30  1  0.34778492  0.95964740  0.28928006  1
  Ni  Ni31  1  0.28928006  0.90328762  0.34778492  1
  Ni  Ni32  1  0.59671238  0.54035260  0.21071994  1
  Ni  Ni33  1  0.54035260  0.59671238  0.15221508  1
  Ni  Ni34  1  0.15221508  0.21071994  0.54035260  1
  Ni  Ni35  1  0.21071994  0.15221508  0.59671238  1
  Ni  Ni36  1  0.21071994  0.59671238  0.54035260  1
  Ni  Ni37  1  0.15221508  0.54035260  0.59671238  1
  Ni  Ni38  1  0.54035260  0.15221508  0.21071994  1
  Ni  Ni39  1  0.59671238  0.21071994  0.15221508  1
  Ni  Ni40  1  0.54035260  0.21071994  0.59671238  1
  Ni  Ni41  1  0.59671238  0.15221508  0.54035260  1
  Ni  Ni42  1  0.21071994  0.54035260  0.15221508  1
  Ni  Ni43  1  0.15221508  0.59671238  0.21071994  1
  Ni  Ni44  1  0.40328762  0.45964740  0.78928006  1
  Ni  Ni45  1  0.45964740  0.40328762  0.84778492  1
  Ni  Ni46  1  0.84778492  0.78928006  0.45964740  1
  Ni  Ni47  1  0.78928006  0.84778492  0.40328762  1
  Ni  Ni48  1  0.78928006  0.40328762  0.45964740  1
  Ni  Ni49  1  0.84778492  0.45964740  0.40328762  1
  Ni  Ni50  1  0.45964740  0.84778492  0.78928006  1
  Ni  Ni51  1  0.40328762  0.78928006  0.84778492  1
  Ni  Ni52  1  0.45964740  0.78928006  0.40328762  1
  Ni  Ni53  1  0.40328762  0.84778492  0.45964740  1
  Ni  Ni54  1  0.78928006  0.45964740  0.84778492  1
  Ni  Ni55  1  0.84778492  0.40328762  0.78928006  1
  Ni  Ni56  1  0.33998352  0.48004944  0.33998352  1
  Ni  Ni57  1  0.33998352  0.33998352  0.48004944  1
  Ni  Ni58  1  0.48004944  0.33998352  0.33998352  1
  Ni  Ni59  1  0.33998352  0.33998352  0.33998352  1
  Ni  Ni60  1  0.66001648  0.51995056  0.66001648  1
  Ni  Ni61  1  0.66001648  0.66001648  0.51995056  1
  Ni  Ni62  1  0.51995056  0.66001648  0.66001648  1
  Ni  Ni63  1  0.66001648  0.66001648  0.66001648  1
  Ni  Ni64  1  0.83998352  0.98004944  0.83998352  1
  Ni  Ni65  1  0.98004944  0.83998352  0.83998352  1
  Ni  Ni66  1  0.83998352  0.83998352  0.98004944  1
  Ni  Ni67  1  0.83998352  0.83998352  0.83998352  1
  Ni  Ni68  1  0.16001648  0.01995056  0.16001648  1
  Ni  Ni69  1  0.01995056  0.16001648  0.16001648  1
  Ni  Ni70  1  0.16001648  0.16001648  0.01995056  1
  Ni  Ni71  1  0.16001648  0.16001648  0.16001648  1
  Cu  Cu72  1  0.37500000  0.37500000  0.37500000  1
  Cu  Cu73  1  0.62500000  0.62500000  0.62500000  1
  Cu  Cu74  1  0.87500000  0.87500000  0.87500000  1
  Cu  Cu75  1  0.12500000  0.12500000  0.12500000  1
  Cu  Cu76  1  0.62500000  0.12500000  0.12500000  1
  Cu  Cu77  1  0.12500000  0.62500000  0.62500000  1
  Cu  Cu78  1  0.12500000  0.12500000  0.62500000  1
  Cu  Cu79  1  0.62500000  0.62500000  0.12500000  1
  Cu  Cu80  1  0.12500000  0.62500000  0.12500000  1
  Cu  Cu81  1  0.62500000  0.12500000  0.62500000  1
  Cu  Cu82  1  0.37500000  0.87500000  0.87500000  1
  Cu  Cu83  1  0.87500000  0.37500000  0.37500000  1
  Cu  Cu84  1  0.87500000  0.87500000  0.37500000  1
  Cu  Cu85  1  0.37500000  0.37500000  0.87500000  1
  Cu  Cu86  1  0.87500000  0.37500000  0.87500000  1
  Cu  Cu87  1  0.37500000  0.87500000  0.37500000  1
  C  C88  1  0.32347227  0.09691733  0.60653467  1
  C  C89  1  0.47307572  0.60653467  0.09691733  1
  C  C90  1  0.09691733  0.32347227  0.47307572  1
  C  C91  1  0.60653467  0.47307572  0.32347227  1
  C  C92  1  0.09691733  0.60653467  0.32347227  1
  C  C93  1  0.60653467  0.09691733  0.47307572  1
  C  C94  1  0.32347227  0.47307572  0.09691733  1
  C  C95  1  0.47307572  0.32347227  0.60653467  1
  C  C96  1  0.60653467  0.32347227  0.09691733  1
  C  C97  1  0.09691733  0.47307572  0.60653467  1
  C  C98  1  0.47307572  0.09691733  0.32347227  1
  C  C99  1  0.32347227  0.60653467  0.47307572  1
  C  C100  1  0.67652773  0.90308267  0.39346533  1
  C  C101  1  0.52692428  0.39346533  0.90308267  1
  C  C102  1  0.90308267  0.67652773  0.52692428  1
  C  C103  1  0.39346533  0.52692428  0.67652773  1
  C  C104  1  0.90308267  0.39346533  0.67652773  1
  C  C105  1  0.39346533  0.90308267  0.52692428  1
  C  C106  1  0.67652773  0.52692428  0.90308267  1
  C  C107  1  0.52692428  0.67652773  0.39346533  1
  C  C108  1  0.39346533  0.67652773  0.90308267  1
  C  C109  1  0.90308267  0.52692428  0.39346533  1
  C  C110  1  0.52692428  0.90308267  0.67652773  1
  C  C111  1  0.67652773  0.39346533  0.52692428  1
  C  C112  1  0.10653467  0.59691733  0.82347227  1
  C  C113  1  0.59691733  0.10653467  0.97307572  1
  C  C114  1  0.97307572  0.82347227  0.59691733  1
  C  C115  1  0.82347227  0.97307572  0.10653467  1
  C  C116  1  0.82347227  0.10653467  0.59691733  1
  C  C117  1  0.97307572  0.59691733  0.10653467  1
  C  C118  1  0.59691733  0.97307572  0.82347227  1
  C  C119  1  0.10653467  0.82347227  0.97307572  1
  C  C120  1  0.59691733  0.82347227  0.10653467  1
  C  C121  1  0.10653467  0.97307572  0.59691733  1
  C  C122  1  0.82347227  0.59691733  0.97307572  1
  C  C123  1  0.97307572  0.10653467  0.82347227  1
  C  C124  1  0.89346533  0.40308267  0.17652773  1
  C  C125  1  0.40308267  0.89346533  0.02692428  1
  C  C126  1  0.02692428  0.17652773  0.40308267  1
  C  C127  1  0.17652773  0.02692428  0.89346533  1
  C  C128  1  0.17652773  0.89346533  0.40308267  1
  C  C129  1  0.02692428  0.40308267  0.89346533  1
  C  C130  1  0.40308267  0.02692428  0.17652773  1
  C  C131  1  0.89346533  0.17652773  0.02692428  1
  C  C132  1  0.40308267  0.17652773  0.89346533  1
  C  C133  1  0.89346533  0.02692428  0.40308267  1
  C  C134  1  0.17652773  0.40308267  0.02692428  1
  C  C135  1  0.02692428  0.89346533  0.17652773  1
