# generated using pymatgen
data_Cu2NiC8
_symmetry_space_group_name_H-M   'P 1'
_cell_length_a   6.55159000
_cell_length_b   7.26088200
_cell_length_c   12.77336171
_cell_angle_alpha   62.44489102
_cell_angle_beta   90.00000000
_cell_angle_gamma   90.00000000
_symmetry_Int_Tables_number   1
_chemical_formula_structural   Cu2NiC8
_chemical_formula_sum   'Cu8 Ni4 C32'
_cell_volume   538.70687560
_cell_formula_units_Z   4
loop_
 _symmetry_equiv_pos_site_id
 _symmetry_equiv_pos_as_xyz
  1  'x, y, z'
loop_
 _atom_site_type_symbol
 _atom_site_label
 _atom_site_symmetry_multiplicity
 _atom_site_fract_x
 _atom_site_fract_y
 _atom_site_fract_z
 _atom_site_occupancy
  C  C0  1  0.35368400  0.74207900  0.52790200  1
  C  C1  1  0.64631600  0.25792100  0.47209800  1
  C  C2  1  0.85368400  0.25792100  0.97209800  1
  C  C3  1  0.14631600  0.74207900  0.02790200  1
  Ni  Ni4  1  0.39827600  0.71166900  0.27087200  1
  Ni  Ni5  1  0.60172400  0.28833100  0.72912800  1
  Ni  Ni6  1  0.89827600  0.28833100  0.22912800  1
  Ni  Ni7  1  0.10172400  0.71166900  0.77087200  1
  Cu  Cu8  1  0.65709100  0.71078200  0.04843600  1
  Cu  Cu9  1  0.34290900  0.28921800  0.95156400  1
  Cu  Cu10  1  0.15709100  0.28921800  0.45156400  1
  Cu  Cu11  1  0.84290900  0.71078200  0.54843600  1
  Cu  Cu12  1  0.90993700  0.80283200  0.27954200  1
  Cu  Cu13  1  0.09006300  0.19716800  0.72045800  1
  Cu  Cu14  1  0.40993700  0.19716800  0.22045800  1
  Cu  Cu15  1  0.59006300  0.80283200  0.77954200  1
  C  C16  1  0.37605300  0.92561800  0.30492200  1
  C  C17  1  0.62394700  0.07438200  0.69507800  1
  C  C18  1  0.87605300  0.07438200  0.19507800  1
  C  C19  1  0.12394700  0.92561800  0.80492200  1
  C  C20  1  0.82711700  0.90994100  0.02264200  1
  C  C21  1  0.17288300  0.09005900  0.97735800  1
  C  C22  1  0.32711700  0.09005900  0.47735800  1
  C  C23  1  0.67288300  0.90994100  0.52264200  1
  C  C24  1  0.61553400  0.27656300  0.27898100  1
  C  C25  1  0.38446600  0.72343700  0.72101900  1
  C  C26  1  0.11553400  0.72343700  0.22101900  1
  C  C27  1  0.88446600  0.27656300  0.77898100  1
  C  C28  1  0.00148900  0.74833300  0.42625300  1
  C  C29  1  0.99851100  0.25166700  0.57374700  1
  C  C30  1  0.50148900  0.25166700  0.07374700  1
  C  C31  1  0.49851100  0.74833300  0.92625300  1
  C  C32  1  0.44546700  0.70539400  0.13364300  1
  C  C33  1  0.55453300  0.29460600  0.86635700  1
  C  C34  1  0.94546700  0.29460600  0.36635700  1
  C  C35  1  0.05453300  0.70539400  0.63364300  1
  C  C36  1  0.84304100  0.50866100  0.08413700  1
  C  C37  1  0.15695900  0.49133900  0.91586300  1
  C  C38  1  0.34304100  0.49133900  0.41586300  1
  C  C39  1  0.65695900  0.50866100  0.58413700  1
  C  C40  1  0.68158800  0.65824100  0.31279600  1
  C  C41  1  0.31841200  0.34175900  0.68720400  1
  C  C42  1  0.18158800  0.34175900  0.18720400  1
  C  C43  1  0.81841200  0.65824100  0.81279600  1
