# generated using pymatgen
data_Cu2NiC11
_symmetry_space_group_name_H-M   'P 1'
_cell_length_a   7.85690776
_cell_length_b   7.85690776
_cell_length_c   7.85690744
_cell_angle_alpha   44.83252087
_cell_angle_beta   44.83252087
_cell_angle_gamma   44.83251759
_symmetry_Int_Tables_number   1
_chemical_formula_structural   Cu2NiC11
_chemical_formula_sum   'Cu2 Ni1 C11'
_cell_volume   219.35721600
_cell_formula_units_Z   1
loop_
 _symmetry_equiv_pos_site_id
 _symmetry_equiv_pos_as_xyz
  1  'x, y, z'
loop_
 _atom_site_type_symbol
 _atom_site_label
 _atom_site_symmetry_multiplicity
 _atom_site_fract_x
 _atom_site_fract_y
 _atom_site_fract_z
 _atom_site_occupancy
  Ni  Ni0  1  0.21339200  0.21339200  0.21339200  1
  Cu  Cu1  1  0.99916500  0.99916500  0.99916500  1
  Cu  Cu2  1  0.79312200  0.79312200  0.79312200  1
  C  C3  1  0.39156000  0.39156000  0.39156000  1
  C  C4  1  0.60434300  0.60434300  0.60434300  1
  C  C5  1  0.26554200  0.78217000  0.26554200  1
  C  C6  1  0.78217000  0.26554200  0.26554200  1
  C  C7  1  0.26554200  0.26554200  0.78217000  1
  C  C8  1  0.73494700  0.21025600  0.73494700  1
  C  C9  1  0.21025600  0.73494700  0.73494700  1
  C  C10  1  0.73494700  0.73494700  0.21025600  1
  C  C11  1  0.99265900  0.50617800  0.50617800  1
  C  C12  1  0.50617800  0.50617800  0.99265900  1
  C  C13  1  0.50617800  0.99265900  0.50617800  1
