# generated using pymatgen
data_CuNi3C2
_symmetry_space_group_name_H-M   'P 1'
_cell_length_a   4.94967977
_cell_length_b   4.94967977
_cell_length_c   7.97611200
_cell_angle_alpha   90.00000000
_cell_angle_beta   90.00000000
_cell_angle_gamma   120.01475284
_symmetry_Int_Tables_number   1
_chemical_formula_structural   CuNi3C2
_chemical_formula_sum   'Cu2 Ni6 C4'
_cell_volume   169.20433987
_cell_formula_units_Z   2
loop_
 _symmetry_equiv_pos_site_id
 _symmetry_equiv_pos_as_xyz
  1  'x, y, z'
loop_
 _atom_site_type_symbol
 _atom_site_label
 _atom_site_symmetry_multiplicity
 _atom_site_fract_x
 _atom_site_fract_y
 _atom_site_fract_z
 _atom_site_occupancy
  C  C0  1  0.66668800  0.33331200  0.56367900  1
  C  C1  1  0.33331200  0.66668800  0.43632100  1
  C  C2  1  0.33331200  0.66668800  0.06367900  1
  C  C3  1  0.66668800  0.33331200  0.93632100  1
  Ni  Ni4  1  0.16997900  0.33994400  0.75000000  1
  Ni  Ni5  1  0.16999700  0.83000300  0.75000000  1
  Ni  Ni6  1  0.66005600  0.83002100  0.75000000  1
  Ni  Ni7  1  0.83002100  0.66005600  0.25000000  1
  Ni  Ni8  1  0.83000300  0.16999700  0.25000000  1
  Ni  Ni9  1  0.33994400  0.16997900  0.25000000  1
  Cu  Cu10  1  0.00000000  0.00000000  0.50000000  1
  Cu  Cu11  1  0.00000000  0.00000000  0.00000000  1
