# generated using pymatgen
data_CuNi4C17
_symmetry_space_group_name_H-M   'P 1'
_cell_length_a   7.88604400
_cell_length_b   7.65891600
_cell_length_c   9.72178460
_cell_angle_alpha   67.90800971
_cell_angle_beta   90.00000000
_cell_angle_gamma   90.00000000
_symmetry_Int_Tables_number   1
_chemical_formula_structural   CuNi4C17
_chemical_formula_sum   'Cu2 Ni8 C34'
_cell_volume   544.07151467
_cell_formula_units_Z   2
loop_
 _symmetry_equiv_pos_site_id
 _symmetry_equiv_pos_as_xyz
  1  'x, y, z'
loop_
 _atom_site_type_symbol
 _atom_site_label
 _atom_site_symmetry_multiplicity
 _atom_site_fract_x
 _atom_site_fract_y
 _atom_site_fract_z
 _atom_site_occupancy
  C  C0  1  0.62254100  0.68768700  0.47072700  1
  C  C1  1  0.12254100  0.31231300  0.02927300  1
  C  C2  1  0.37745900  0.31231300  0.52927300  1
  C  C3  1  0.87745900  0.68768700  0.97072700  1
  C  C4  1  0.50000000  0.50000000  0.00000000  1
  C  C5  1  0.00000000  0.50000000  0.50000000  1
  Ni  Ni6  1  0.55599900  0.89532400  0.70145400  1
  Ni  Ni7  1  0.05599900  0.10467600  0.79854600  1
  Ni  Ni8  1  0.44400100  0.10467600  0.29854600  1
  Ni  Ni9  1  0.94400100  0.89532400  0.20145400  1
  Ni  Ni10  1  0.29702900  0.61287200  0.69432000  1
  Ni  Ni11  1  0.79702900  0.38712800  0.80568000  1
  Ni  Ni12  1  0.70297100  0.38712800  0.30568000  1
  Ni  Ni13  1  0.20297100  0.61287200  0.19432000  1
  Cu  Cu14  1  0.50000000  0.00000000  0.00000000  1
  Cu  Cu15  1  0.00000000  0.00000000  0.50000000  1
  C  C16  1  0.51777800  0.09594000  0.69155100  1
  C  C17  1  0.01777800  0.90406000  0.80844900  1
  C  C18  1  0.48222200  0.90406000  0.30844900  1
  C  C19  1  0.98222200  0.09594000  0.19155100  1
  C  C20  1  0.67661900  0.87741100  0.58491700  1
  C  C21  1  0.17661900  0.12258900  0.91508300  1
  C  C22  1  0.32338100  0.12258900  0.41508300  1
  C  C23  1  0.82338100  0.87741100  0.08491700  1
  C  C24  1  0.61481400  0.77257600  0.86212700  1
  C  C25  1  0.11481400  0.22742400  0.63787300  1
  C  C26  1  0.38518600  0.22742400  0.13787300  1
  C  C27  1  0.88518600  0.77257600  0.36212700  1
  C  C28  1  0.37116900  0.81644000  0.67913400  1
  C  C29  1  0.87116900  0.18356000  0.82086600  1
  C  C30  1  0.62883100  0.18356000  0.32086600  1
  C  C31  1  0.12883100  0.81644000  0.17913400  1
  C  C32  1  0.12585600  0.65585400  0.61349400  1
  C  C33  1  0.62585600  0.34414600  0.88650600  1
  C  C34  1  0.87414400  0.34414600  0.38650600  1
  C  C35  1  0.37414400  0.65585400  0.11349400  1
  C  C36  1  0.42177200  0.52888500  0.61491900  1
  C  C37  1  0.92177200  0.47111500  0.88508100  1
  C  C38  1  0.57822800  0.47111500  0.38508100  1
  C  C39  1  0.07822800  0.52888500  0.11491900  1
  C  C40  1  0.28662900  0.50201600  0.86259400  1
  C  C41  1  0.78662900  0.49798400  0.63740600  1
  C  C42  1  0.71337100  0.49798400  0.13740600  1
  C  C43  1  0.21337100  0.50201600  0.36259400  1
