# generated using pymatgen
data_Cu6Ni3C2
_symmetry_space_group_name_H-M   'P 1'
_cell_length_a   9.84581816
_cell_length_b   5.29120779
_cell_length_c   28.10992884
_cell_angle_alpha   90.00000285
_cell_angle_beta   161.90529534
_cell_angle_gamma   74.41287592
_symmetry_Int_Tables_number   1
_chemical_formula_structural   Cu6Ni3C2
_chemical_formula_sum   'Cu12 Ni6 C4'
_cell_volume   228.11073488
_cell_formula_units_Z   2
loop_
 _symmetry_equiv_pos_site_id
 _symmetry_equiv_pos_as_xyz
  1  'x, y, z'
loop_
 _atom_site_type_symbol
 _atom_site_label
 _atom_site_symmetry_multiplicity
 _atom_site_fract_x
 _atom_site_fract_y
 _atom_site_fract_z
 _atom_site_occupancy
  C  C0  1  0.99522400  0.00191900  0.16428000  1
  C  C1  1  0.99522400  0.00285700  0.66428000  1
  C  C2  1  0.00473200  0.99810400  0.83573400  1
  C  C3  1  0.00473200  0.99716400  0.33573400  1
  Ni  Ni4  1  0.96086700  0.68859000  0.06914700  1
  Ni  Ni5  1  0.00011600  0.67700000  0.75005400  1
  Ni  Ni6  1  0.03903700  0.64944500  0.43084100  1
  Ni  Ni7  1  0.96086700  0.35054300  0.56914700  1
  Ni  Ni8  1  0.03903700  0.31151800  0.93084100  1
  Ni  Ni9  1  0.00011600  0.32288400  0.25005400  1
  Cu  Cu10  1  0.87594700  0.75901000  0.08417300  1
  Cu  Cu11  1  0.14022300  0.61413000  0.83992300  1
  Cu  Cu12  1  0.98943200  0.63705800  0.45765800  1
  Cu  Cu13  1  0.87594700  0.36504400  0.58417300  1
  Cu  Cu14  1  0.98943200  0.37350900  0.95765800  1
  Cu  Cu15  1  0.14022300  0.24564700  0.33992300  1
  Cu  Cu16  1  0.12432900  0.24095800  0.91593400  1
  Cu  Cu17  1  0.85991500  0.38567000  0.16012900  1
  Cu  Cu18  1  0.01018000  0.36316800  0.54222800  1
  Cu  Cu19  1  0.12432900  0.63471300  0.41593400  1
  Cu  Cu20  1  0.01018000  0.62665100  0.04222800  1
  Cu  Cu21  1  0.85991500  0.75441600  0.66012900  1
