# generated using pymatgen
data_Cu18(NiC3)7
_symmetry_space_group_name_H-M   'P 1'
_cell_length_a   10.48660750
_cell_length_b   13.03710012
_cell_length_c   15.52715494
_cell_angle_alpha   90.00000000
_cell_angle_beta   100.72234655
_cell_angle_gamma   90.00000000
_symmetry_Int_Tables_number   1
_chemical_formula_structural   Cu18(NiC3)7
_chemical_formula_sum   'Cu72 Ni28 C84'
_cell_volume   2085.73090778
_cell_formula_units_Z   4
loop_
 _symmetry_equiv_pos_site_id
 _symmetry_equiv_pos_as_xyz
  1  'x, y, z'
loop_
 _atom_site_type_symbol
 _atom_site_label
 _atom_site_symmetry_multiplicity
 _atom_site_fract_x
 _atom_site_fract_y
 _atom_site_fract_z
 _atom_site_occupancy
  C  C0  1  0.94718802  0.96102529  0.61565471  1
  C  C1  1  0.05281198  0.46102529  0.88434529  1
  C  C2  1  0.05281198  0.03897471  0.38434529  1
  C  C3  1  0.94718802  0.53897471  0.11565471  1
  Ni  Ni4  1  0.14567175  0.81846809  0.81411384  1
  Ni  Ni5  1  0.85432825  0.31846809  0.68588616  1
  Ni  Ni6  1  0.85432825  0.18153191  0.18588616  1
  Ni  Ni7  1  0.14567175  0.68153191  0.31411384  1
  Ni  Ni8  1  0.05416630  0.87598934  0.93703750  1
  Ni  Ni9  1  0.94583370  0.37598934  0.56296250  1
  Ni  Ni10  1  0.94583370  0.12401066  0.06296250  1
  Ni  Ni11  1  0.05416630  0.62401066  0.43703750  1
  Ni  Ni12  1  0.12693921  0.00014869  0.83977567  1
  Ni  Ni13  1  0.87306079  0.50014869  0.66022433  1
  Ni  Ni14  1  0.87306079  0.99985131  0.16022433  1
  Ni  Ni15  1  0.12693921  0.49985131  0.33977567  1
  Ni  Ni16  1  0.28979355  0.10808019  0.78862034  1
  Ni  Ni17  1  0.71020645  0.60808019  0.71137966  1
  Ni  Ni18  1  0.71020645  0.89191981  0.21137966  1
  Ni  Ni19  1  0.28979355  0.39191981  0.28862034  1
  Ni  Ni20  1  0.26276434  0.95506622  0.68367526  1
  Ni  Ni21  1  0.73723566  0.45506622  0.81632474  1
  Ni  Ni22  1  0.73723566  0.04493378  0.31632474  1
  Ni  Ni23  1  0.26276434  0.54493378  0.18367526  1
  Ni  Ni24  1  0.31748500  0.76941536  0.73402242  1
  Ni  Ni25  1  0.68251500  0.26941536  0.76597758  1
  Ni  Ni26  1  0.68251500  0.23058464  0.26597758  1
  Ni  Ni27  1  0.31748500  0.73058464  0.23402242  1
  Ni  Ni28  1  0.55337061  0.66198258  0.42901914  1
  Ni  Ni29  1  0.44662939  0.16198258  0.07098086  1
  Ni  Ni30  1  0.44662939  0.33801742  0.57098086  1
  Ni  Ni31  1  0.55337061  0.83801742  0.92901914  1
  Cu  Cu32  1  0.86933095  0.16649304  0.55678588  1
  Cu  Cu33  1  0.13066905  0.66649304  0.94321412  1
  Cu  Cu34  1  0.13066905  0.83350696  0.44321412  1
  Cu  Cu35  1  0.86933095  0.33350696  0.05678588  1
  Cu  Cu36  1  0.82706378  0.08621537  0.47876775  1
  Cu  Cu37  1  0.17293622  0.58621537  0.02123225  1
  Cu  Cu38  1  0.17293622  0.91378463  0.52123225  1
  Cu  Cu39  1  0.82706378  0.41378463  0.97876775  1
  Cu  Cu40  1  0.64513887  0.95375883  0.61325177  1
  Cu  Cu41  1  0.35486113  0.45375883  0.88674823  1
  Cu  Cu42  1  0.35486113  0.04624117  0.38674823  1
  Cu  Cu43  1  0.64513887  0.54624117  0.11325177  1
  Cu  Cu44  1  0.67467657  0.83555805  0.63406745  1
  Cu  Cu45  1  0.32532343  0.33555805  0.86593255  1
  Cu  Cu46  1  0.32532343  0.16444195  0.36593255  1
  Cu  Cu47  1  0.67467657  0.66444195  0.13406745  1
  Cu  Cu48  1  0.81821297  0.91402300  0.43132055  1
  Cu  Cu49  1  0.18178703  0.41402300  0.06867945  1
  Cu  Cu50  1  0.18178703  0.08597700  0.56867945  1
  Cu  Cu51  1  0.81821297  0.58597700  0.93132055  1
  Cu  Cu52  1  0.76706207  0.87227908  0.51561342  1
  Cu  Cu53  1  0.23293793  0.37227908  0.98438658  1
  Cu  Cu54  1  0.23293793  0.12772092  0.48438658  1
  Cu  Cu55  1  0.76706207  0.62772092  0.01561342  1
  Cu  Cu56  1  0.97413849  0.74388548  0.63059917  1
  Cu  Cu57  1  0.02586151  0.24388548  0.86940083  1
  Cu  Cu58  1  0.02586151  0.25611452  0.36940083  1
  Cu  Cu59  1  0.97413849  0.75611452  0.13059917  1
  Cu  Cu60  1  0.87914919  0.76358861  0.69256830  1
  Cu  Cu61  1  0.12085081  0.26358861  0.80743170  1
  Cu  Cu62  1  0.12085081  0.23641139  0.30743170  1
  Cu  Cu63  1  0.87914919  0.73641139  0.19256830  1
  Cu  Cu64  1  0.83532801  0.00728265  0.75656619  1
  Cu  Cu65  1  0.16467199  0.50728265  0.74343381  1
  Cu  Cu66  1  0.16467199  0.99271735  0.24343381  1
  Cu  Cu67  1  0.83532801  0.49271735  0.25656619  1
  Cu  Cu68  1  0.87783516  0.11794011  0.73972819  1
  Cu  Cu69  1  0.12216484  0.61794011  0.76027181  1
  Cu  Cu70  1  0.12216484  0.88205989  0.26027181  1
  Cu  Cu71  1  0.87783516  0.38205989  0.23972819  1
  Cu  Cu72  1  0.98477068  0.91569699  0.04081579  1
  Cu  Cu73  1  0.01522932  0.41569699  0.45918421  1
  Cu  Cu74  1  0.01522932  0.08430301  0.95918421  1
  Cu  Cu75  1  0.98477068  0.58430301  0.54081579  1
  Cu  Cu76  1  0.43510425  0.20625484  0.78705109  1
  Cu  Cu77  1  0.56489575  0.70625484  0.71294891  1
  Cu  Cu78  1  0.56489575  0.79374516  0.21294891  1
  Cu  Cu79  1  0.43510425  0.29374516  0.28705109  1
  Cu  Cu80  1  0.40623339  0.63730328  0.77390652  1
  Cu  Cu81  1  0.59376661  0.13730328  0.72609348  1
  Cu  Cu82  1  0.59376661  0.36269672  0.22609348  1
  Cu  Cu83  1  0.40623339  0.86269672  0.27390652  1
  Cu  Cu84  1  0.59178057  0.51386950  0.42659624  1
  Cu  Cu85  1  0.40821943  0.01386950  0.07340376  1
  Cu  Cu86  1  0.40821943  0.48613050  0.57340376  1
  Cu  Cu87  1  0.59178057  0.98613050  0.92659624  1
  Cu  Cu88  1  0.39845982  0.70810639  0.47065515  1
  Cu  Cu89  1  0.60154018  0.20810639  0.02934485  1
  Cu  Cu90  1  0.60154018  0.29189361  0.52934485  1
  Cu  Cu91  1  0.39845982  0.79189361  0.97065515  1
  Cu  Cu92  1  0.68501742  0.78133066  0.42730360  1
  Cu  Cu93  1  0.31498258  0.28133066  0.07269640  1
  Cu  Cu94  1  0.31498258  0.21866934  0.57269640  1
  Cu  Cu95  1  0.68501742  0.71866934  0.92730360  1
  Cu  Cu96  1  0.47454753  0.02794243  0.67092289  1
  Cu  Cu97  1  0.52545247  0.52794243  0.82907711  1
  Cu  Cu98  1  0.52545247  0.97205757  0.32907711  1
  Cu  Cu99  1  0.47454753  0.47205757  0.17092289  1
  Cu  Cu100  1  0.49882168  0.10959842  0.60213235  1
  Cu  Cu101  1  0.50117832  0.60959842  0.89786765  1
  Cu  Cu102  1  0.50117832  0.89040158  0.39786765  1
  Cu  Cu103  1  0.49882168  0.39040158  0.10213235  1
  C  C104  1  0.82865187  0.09954121  0.54255610  1
  C  C105  1  0.17134813  0.59954121  0.95744390  1
  C  C106  1  0.17134813  0.90045879  0.45744390  1
  C  C107  1  0.82865187  0.40045879  0.04255610  1
  C  C108  1  0.71073056  0.89889191  0.61378644  1
  C  C109  1  0.28926944  0.39889191  0.88621356  1
  C  C110  1  0.28926944  0.10110809  0.38621356  1
  C  C111  1  0.71073056  0.60110809  0.11378644  1
  C  C112  1  0.81235030  0.85025120  0.46760162  1
  C  C113  1  0.18764970  0.35025120  0.03239838  1
  C  C114  1  0.18764970  0.14974880  0.53239838  1
  C  C115  1  0.81235030  0.64974880  0.96760162  1
  C  C116  1  0.96096534  0.78842824  0.67904688  1
  C  C117  1  0.03903466  0.28842824  0.82095312  1
  C  C118  1  0.03903466  0.21157176  0.32095312  1
  C  C119  1  0.96096534  0.71157176  0.17904688  1
  C  C120  1  0.16924355  0.97515344  0.61623509  1
  C  C121  1  0.83075645  0.47515344  0.88376491  1
  C  C122  1  0.83075645  0.02484656  0.38376491  1
  C  C123  1  0.16924355  0.52484656  0.11623509  1
  C  C124  1  0.91150357  0.04769839  0.75063398  1
  C  C125  1  0.08849643  0.54769839  0.74936602  1
  C  C126  1  0.08849643  0.95230161  0.24936602  1
  C  C127  1  0.91150357  0.45230161  0.25063398  1
  C  C128  1  0.14830181  0.91915861  0.78692320  1
  C  C129  1  0.85169819  0.41915861  0.71307680  1
  C  C130  1  0.85169819  0.08084139  0.21307680  1
  C  C131  1  0.14830181  0.58084139  0.28692320  1
  C  C132  1  0.07117484  0.97841285  0.91266090  1
  C  C133  1  0.92882516  0.47841285  0.58733910  1
  C  C134  1  0.92882516  0.02158715  0.08733910  1
  C  C135  1  0.07117484  0.52158715  0.41266090  1
  C  C136  1  0.08741765  0.79651782  0.88520855  1
  C  C137  1  0.91258235  0.29651782  0.61479145  1
  C  C138  1  0.91258235  0.20348218  0.11479145  1
  C  C139  1  0.08741765  0.70348218  0.38520855  1
  C  C140  1  0.18305542  0.09300764  0.83037285  1
  C  C141  1  0.81694458  0.59300764  0.66962715  1
  C  C142  1  0.81694458  0.90699236  0.16962715  1
  C  C143  1  0.18305542  0.40699236  0.33037285  1
  C  C144  1  0.33282358  0.03555576  0.73711905  1
  C  C145  1  0.66717642  0.53555576  0.76288095  1
  C  C146  1  0.66717642  0.96444424  0.26288095  1
  C  C147  1  0.33282358  0.46444424  0.23711905  1
  C  C148  1  0.33113991  0.86046861  0.69557910  1
  C  C149  1  0.66886009  0.36046861  0.80442090  1
  C  C150  1  0.66886009  0.13953139  0.30442090  1
  C  C151  1  0.33113991  0.63953139  0.19557910  1
  C  C152  1  0.21790459  0.74570747  0.78128750  1
  C  C153  1  0.78209541  0.24570747  0.71871250  1
  C  C154  1  0.78209541  0.25429253  0.21871250  1
  C  C155  1  0.21790459  0.75429253  0.28128750  1
  C  C156  1  0.01255336  0.85361504  0.01210583  1
  C  C157  1  0.98744664  0.35361504  0.48789417  1
  C  C158  1  0.98744664  0.14638496  0.98789417  1
  C  C159  1  0.01255336  0.64638496  0.51210583  1
  C  C160  1  0.35033191  0.20116013  0.80702618  1
  C  C161  1  0.64966809  0.70116013  0.69297382  1
  C  C162  1  0.64966809  0.79883987  0.19297382  1
  C  C163  1  0.35033191  0.29883987  0.30702618  1
  C  C164  1  0.40588382  0.69272405  0.72907665  1
  C  C165  1  0.59411618  0.19272405  0.77092335  1
  C  C166  1  0.59411618  0.30727595  0.27092335  1
  C  C167  1  0.40588382  0.80727595  0.22907665  1
  C  C168  1  0.62794666  0.57948304  0.41292286  1
  C  C169  1  0.37205334  0.07948304  0.08707714  1
  C  C170  1  0.37205334  0.42051696  0.58707714  1
  C  C171  1  0.62794666  0.92051696  0.91292286  1
  C  C172  1  0.43379374  0.64386612  0.45353270  1
  C  C173  1  0.56620626  0.14386612  0.04646730  1
  C  C174  1  0.56620626  0.35613388  0.54646730  1
  C  C175  1  0.43379374  0.85613388  0.95353270  1
  C  C176  1  0.58992000  0.76158285  0.41954919  1
  C  C177  1  0.41008000  0.26158285  0.08045081  1
  C  C178  1  0.41008000  0.23841715  0.58045081  1
  C  C179  1  0.58992000  0.73841715  0.91954919  1
  C  C180  1  0.54236515  0.05354049  0.64015056  1
  C  C181  1  0.45763485  0.55354049  0.85984944  1
  C  C182  1  0.45763485  0.94645951  0.35984944  1
  C  C183  1  0.54236515  0.44645951  0.14015056  1
