# generated using pymatgen
data_CuNi6C
_symmetry_space_group_name_H-M   'P 1'
_cell_length_a   5.10513300
_cell_length_b   5.94581400
_cell_length_c   10.81123800
_cell_angle_alpha   90.00000000
_cell_angle_beta   90.00000000
_cell_angle_gamma   90.00000000
_symmetry_Int_Tables_number   1
_chemical_formula_structural   CuNi6C
_chemical_formula_sum   'Cu2 Ni12 C2'
_cell_volume   328.16616982
_cell_formula_units_Z   2
loop_
 _symmetry_equiv_pos_site_id
 _symmetry_equiv_pos_as_xyz
  1  'x, y, z'
loop_
 _atom_site_type_symbol
 _atom_site_label
 _atom_site_symmetry_multiplicity
 _atom_site_fract_x
 _atom_site_fract_y
 _atom_site_fract_z
 _atom_site_occupancy
  Ni  Ni0  1  0.50000000  0.75139100  0.91768900  1
  Ni  Ni1  1  0.50000000  0.24860900  0.91768900  1
  Ni  Ni2  1  0.00000000  0.23579700  0.58484000  1
  Ni  Ni3  1  0.00000000  0.76420300  0.58484000  1
  Ni  Ni4  1  0.00000000  0.50000000  0.83492800  1
  Ni  Ni5  1  0.00000000  0.00000000  0.82366500  1
  Ni  Ni6  1  0.50000000  0.25139100  0.41768900  1
  Ni  Ni7  1  0.50000000  0.74860900  0.41768900  1
  Ni  Ni8  1  0.00000000  0.73579700  0.08484000  1
  Ni  Ni9  1  0.00000000  0.26420300  0.08484000  1
  Ni  Ni10  1  0.00000000  0.00000000  0.33492800  1
  Ni  Ni11  1  0.00000000  0.50000000  0.32366500  1
  Cu  Cu12  1  0.50000000  0.50000000  0.66816100  1
  Cu  Cu13  1  0.50000000  0.00000000  0.16816100  1
  C  C14  1  0.50000000  0.00000000  0.66818300  1
  C  C15  1  0.50000000  0.50000000  0.16818300  1
