# generated using pymatgen
data_Cu2Ni3C11
_symmetry_space_group_name_H-M   'P 1'
_cell_length_a   8.73778607
_cell_length_b   8.97979261
_cell_length_c   20.12078121
_cell_angle_alpha   90.00000000
_cell_angle_beta   90.00000000
_cell_angle_gamma   91.47018048
_symmetry_Int_Tables_number   1
_chemical_formula_structural   Cu2Ni3C11
_chemical_formula_sum   'Cu16 Ni24 C88'
_cell_volume   1578.22735004
_cell_formula_units_Z   8
loop_
 _symmetry_equiv_pos_site_id
 _symmetry_equiv_pos_as_xyz
  1  'x, y, z'
loop_
 _atom_site_type_symbol
 _atom_site_label
 _atom_site_symmetry_multiplicity
 _atom_site_fract_x
 _atom_site_fract_y
 _atom_site_fract_z
 _atom_site_occupancy
  C  C0  1  0.02690608  0.28371836  0.50262233  1
  C  C1  1  0.97309392  0.71628164  0.49737767  1
  C  C2  1  0.47309392  0.71628164  0.00262233  1
  C  C3  1  0.52690608  0.28371836  0.99737767  1
  C  C4  1  0.29226083  0.01834129  0.49347500  1
  C  C5  1  0.70773917  0.98165871  0.50652500  1
  C  C6  1  0.20773917  0.98165871  0.99347500  1
  C  C7  1  0.79226083  0.01834129  0.00652500  1
  C  C8  1  0.25256132  0.23080728  0.76949531  1
  C  C9  1  0.74743868  0.76919272  0.23050469  1
  C  C10  1  0.24743868  0.76919272  0.26949531  1
  C  C11  1  0.75256132  0.23080728  0.73050469  1
  C  C12  1  0.21918310  0.26962688  0.04918156  1
  C  C13  1  0.78081690  0.73037312  0.95081844  1
  C  C14  1  0.28081690  0.73037312  0.54918156  1
  C  C15  1  0.71918310  0.26962688  0.45081844  1
  C  C16  1  0.29216675  0.68873657  0.47189563  1
  C  C17  1  0.70783325  0.31126343  0.52810437  1
  C  C18  1  0.20783325  0.31126343  0.97189563  1
  C  C19  1  0.79216675  0.68873657  0.02810437  1
  C  C20  1  0.18645112  0.25439386  0.28504442  1
  C  C21  1  0.81354888  0.74560614  0.71495558  1
  C  C22  1  0.31354888  0.74560614  0.78504442  1
  C  C23  1  0.68645112  0.25439386  0.21495558  1
  C  C24  1  0.19681696  0.79810122  0.35334364  1
  C  C25  1  0.80318304  0.20189878  0.64665636  1
  C  C26  1  0.30318304  0.20189878  0.85334364  1
  C  C27  1  0.69681696  0.79810122  0.14665636  1
  C  C28  1  0.46182130  0.07913874  0.60936085  1
  C  C29  1  0.53817870  0.92086126  0.39063915  1
  C  C30  1  0.03817870  0.92086126  0.10936085  1
  C  C31  1  0.96182130  0.07913874  0.89063915  1
  C  C32  1  0.25629154  0.26134971  0.36584659  1
  C  C33  1  0.74370846  0.73865029  0.63415341  1
  C  C34  1  0.24370846  0.73865029  0.86584659  1
  C  C35  1  0.75629154  0.26134971  0.13415341  1
  C  C36  1  0.03869568  0.09405136  0.10704211  1
  C  C37  1  0.96130432  0.90594864  0.89295789  1
  C  C38  1  0.46130432  0.90594864  0.60704211  1
  C  C39  1  0.53869568  0.09405136  0.39295789  1
  C  C40  1  0.37579842  0.35378013  0.47284701  1
  C  C41  1  0.62420158  0.64621987  0.52715299  1
  C  C42  1  0.12420158  0.64621987  0.97284701  1
  C  C43  1  0.87579842  0.35378013  0.02715299  1
  C  C44  1  0.40683908  0.48427374  0.10714768  1
  C  C45  1  0.59316092  0.51572626  0.89285232  1
  C  C46  1  0.09316092  0.51572626  0.60714768  1
  C  C47  1  0.90683908  0.48427374  0.39285232  1
  C  C48  1  0.08459034  0.49397152  0.39496805  1
  C  C49  1  0.91540966  0.50602848  0.60503195  1
  C  C50  1  0.41540966  0.50602848  0.89496805  1
  C  C51  1  0.58459034  0.49397152  0.10503195  1
  C  C52  1  0.32250297  0.30391870  0.54636238  1
  C  C53  1  0.67749703  0.69608130  0.45363762  1
  C  C54  1  0.17749703  0.69608130  0.04636238  1
  C  C55  1  0.82250297  0.30391870  0.95363762  1
  C  C56  1  0.34795243  0.63248732  0.33836916  1
  C  C57  1  0.65204757  0.36751268  0.66163084  1
  C  C58  1  0.15204757  0.36751268  0.83836916  1
  C  C59  1  0.84795243  0.63248732  0.16163084  1
  C  C60  1  0.07743925  0.11448796  0.35132351  1
  C  C61  1  0.92256075  0.88551204  0.64867649  1
  C  C62  1  0.42256075  0.88551204  0.85132351  1
  C  C63  1  0.57743925  0.11448796  0.14867649  1
  C  C64  1  0.02063024  0.42512180  0.14810081  1
  C  C65  1  0.97936976  0.57487820  0.85189919  1
  C  C66  1  0.47936976  0.57487820  0.64810081  1
  C  C67  1  0.52063024  0.42512180  0.35189919  1
  C  C68  1  0.10944795  0.09156898  0.64099986  1
  C  C69  1  0.89055205  0.90843102  0.35900014  1
  C  C70  1  0.39055205  0.90843102  0.14099986  1
  C  C71  1  0.60944795  0.09156898  0.85900014  1
  C  C72  1  0.46057093  0.53274508  0.28344909  1
  C  C73  1  0.53942907  0.46725492  0.71655091  1
  C  C74  1  0.03942907  0.46725492  0.78344909  1
  C  C75  1  0.96057093  0.53274508  0.21655091  1
  C  C76  1  0.24702591  0.22771358  0.65522403  1
  C  C77  1  0.75297409  0.77228642  0.34477597  1
  C  C78  1  0.25297409  0.77228642  0.15522403  1
  C  C79  1  0.74702591  0.22771358  0.84477597  1
  C  C80  1  0.45797869  0.02517267  0.20623761  1
  C  C81  1  0.54202131  0.97482733  0.79376239  1
  C  C82  1  0.04202131  0.97482733  0.70623761  1
  C  C83  1  0.95797869  0.02517267  0.29376239  1
  C  C84  1  0.15216480  0.28823350  0.15834479  1
  C  C85  1  0.84783520  0.71176650  0.84165521  1
  C  C86  1  0.34783520  0.71176650  0.65834479  1
  C  C87  1  0.65216480  0.28823350  0.34165521  1
  Ni  Ni88  1  0.35542326  0.58317160  0.40039244  1
  Ni  Ni89  1  0.64457674  0.41682840  0.59960756  1
  Ni  Ni90  1  0.14457674  0.41682840  0.90039244  1
  Ni  Ni91  1  0.85542326  0.58317160  0.09960756  1
  Ni  Ni92  1  0.06593988  0.05825158  0.41204680  1
  Ni  Ni93  1  0.93406012  0.94174842  0.58795320  1
  Ni  Ni94  1  0.43406012  0.94174842  0.91204680  1
  Ni  Ni95  1  0.56593988  0.05825158  0.08795320  1
  Ni  Ni96  1  0.16858987  0.23377739  0.33448826  1
  Ni  Ni97  1  0.83141013  0.76622261  0.66551174  1
  Ni  Ni98  1  0.33141013  0.76622261  0.83448826  1
  Ni  Ni99  1  0.66858987  0.23377739  0.16551174  1
  Ni  Ni100  1  0.45309712  0.46563651  0.40763839  1
  Ni  Ni101  1  0.54690288  0.53436349  0.59236161  1
  Ni  Ni102  1  0.04690288  0.53436349  0.90763839  1
  Ni  Ni103  1  0.95309712  0.46563651  0.09236161  1
  Ni  Ni104  1  0.26562438  0.75005513  0.31931694  1
  Ni  Ni105  1  0.73437562  0.24994487  0.68068306  1
  Ni  Ni106  1  0.23437562  0.24994487  0.81931694  1
  Ni  Ni107  1  0.76562438  0.75005513  0.18068306  1
  Ni  Ni108  1  0.04060716  0.05911302  0.58393815  1
  Ni  Ni109  1  0.95939284  0.94088698  0.41606185  1
  Ni  Ni110  1  0.45939284  0.94088698  0.08393815  1
  Ni  Ni111  1  0.54060716  0.05911302  0.91606185  1
  Cu  Cu112  1  0.49395584  0.49356626  0.07664142  1
  Cu  Cu113  1  0.50604416  0.50643374  0.92335858  1
  Cu  Cu114  1  0.00604416  0.50643374  0.57664142  1
  Cu  Cu115  1  0.99395584  0.49356626  0.42335858  1
  Cu  Cu116  1  0.30422587  0.28633569  0.49867439  1
  Cu  Cu117  1  0.69577413  0.71366431  0.50132561  1
  Cu  Cu118  1  0.19577413  0.71366431  0.99867439  1
  Cu  Cu119  1  0.80422587  0.28633569  0.00132561  1
  Cu  Cu120  1  0.50490649  0.00408643  0.41848589  1
  Cu  Cu121  1  0.49509351  0.99591357  0.58151411  1
  Cu  Cu122  1  0.99509351  0.99591357  0.91848589  1
  Cu  Cu123  1  0.00490649  0.00408643  0.08151411  1
  Cu  Cu124  1  0.25715854  0.24281684  0.00438133  1
  Cu  Cu125  1  0.74284146  0.75718316  0.99561867  1
  Cu  Cu126  1  0.24284146  0.75718316  0.50438133  1
  Cu  Cu127  1  0.75715854  0.24281684  0.49561867  1
