# generated using pymatgen
data_CuNi3C2
_symmetry_space_group_name_H-M   'P 1'
_cell_length_a   5.02491968
_cell_length_b   5.02371820
_cell_length_c   6.87317700
_cell_angle_alpha   90.00000000
_cell_angle_beta   90.00000000
_cell_angle_gamma   120.00790056
_symmetry_Int_Tables_number   1
_chemical_formula_structural   CuNi3C2
_chemical_formula_sum   'Cu2 Ni6 C4'
_cell_volume   150.24774898
_cell_formula_units_Z   2
loop_
 _symmetry_equiv_pos_site_id
 _symmetry_equiv_pos_as_xyz
  1  'x, y, z'
loop_
 _atom_site_type_symbol
 _atom_site_label
 _atom_site_symmetry_multiplicity
 _atom_site_fract_x
 _atom_site_fract_y
 _atom_site_fract_z
 _atom_site_occupancy
  C  C0  1  0.99999300  0.00000000  0.00000000  1
  C  C1  1  0.99999600  0.00000000  0.50000000  1
  Ni  Ni2  1  0.50000100  0.00000000  0.28927500  1
  Ni  Ni3  1  0.49999800  0.50000500  0.28927400  1
  Ni  Ni4  1  0.99999300  0.49999500  0.28927400  1
  Ni  Ni5  1  0.50000100  0.00000000  0.71072500  1
  Ni  Ni6  1  0.49999800  0.50000500  0.71072600  1
  Ni  Ni7  1  0.99999300  0.49999500  0.71072600  1
  Cu  Cu8  1  0.33330000  0.66670300  0.00000000  1
  Cu  Cu9  1  0.66659700  0.33329700  0.00000000  1
  C  C10  1  0.33332800  0.66672500  0.50000000  1
  C  C11  1  0.66660300  0.33327500  0.50000000  1
