# generated using pymatgen
data_Cu5NiC
_symmetry_space_group_name_H-M   'P 1'
_cell_length_a   8.18212100
_cell_length_b   10.04469600
_cell_length_c   10.95113064
_cell_angle_alpha   81.26690235
_cell_angle_beta   90.00000000
_cell_angle_gamma   90.00000000
_symmetry_Int_Tables_number   1
_chemical_formula_structural   Cu5NiC
_chemical_formula_sum   'Cu40 Ni8 C8'
_cell_volume   889.60492652
_cell_formula_units_Z   8
loop_
 _symmetry_equiv_pos_site_id
 _symmetry_equiv_pos_as_xyz
  1  'x, y, z'
loop_
 _atom_site_type_symbol
 _atom_site_label
 _atom_site_symmetry_multiplicity
 _atom_site_fract_x
 _atom_site_fract_y
 _atom_site_fract_z
 _atom_site_occupancy
  C  C0  1  0.26898400  0.91065600  0.13404500  1
  C  C1  1  0.73101600  0.08934400  0.86595500  1
  C  C2  1  0.76898400  0.58934400  0.86595500  1
  C  C3  1  0.23101600  0.41065600  0.13404500  1
  C  C4  1  0.76434600  0.96719800  0.31799200  1
  C  C5  1  0.23565400  0.03280200  0.68200800  1
  C  C6  1  0.26434600  0.53280200  0.68200800  1
  C  C7  1  0.73565400  0.46719800  0.31799200  1
  Ni  Ni8  1  0.64842300  0.68993000  0.53165900  1
  Ni  Ni9  1  0.35157700  0.31007000  0.46834100  1
  Ni  Ni10  1  0.14842300  0.81007000  0.46834100  1
  Ni  Ni11  1  0.85157700  0.18993000  0.53165900  1
  Ni  Ni12  1  0.77270500  0.79306600  0.11674600  1
  Ni  Ni13  1  0.22729500  0.20693400  0.88325400  1
  Ni  Ni14  1  0.27270500  0.70693400  0.88325400  1
  Ni  Ni15  1  0.72729500  0.29306600  0.11674600  1
  Cu  Cu16  1  0.62144400  0.85220900  0.16442600  1
  Cu  Cu17  1  0.37855600  0.14779100  0.83557400  1
  Cu  Cu18  1  0.12144400  0.64779100  0.83557400  1
  Cu  Cu19  1  0.87855600  0.35220900  0.16442600  1
  Cu  Cu20  1  0.91131900  0.85320200  0.18073900  1
  Cu  Cu21  1  0.08868100  0.14679800  0.81926100  1
  Cu  Cu22  1  0.41131900  0.64679800  0.81926100  1
  Cu  Cu23  1  0.58868100  0.35320200  0.18073900  1
  Cu  Cu24  1  0.98166100  0.87217100  0.43633400  1
  Cu  Cu25  1  0.01833900  0.12782900  0.56366600  1
  Cu  Cu26  1  0.48166100  0.62782900  0.56366600  1
  Cu  Cu27  1  0.51833900  0.37217100  0.43633400  1
  Cu  Cu28  1  0.61678300  0.81192100  0.43914400  1
  Cu  Cu29  1  0.38321700  0.18807900  0.56085600  1
  Cu  Cu30  1  0.11678300  0.68807900  0.56085600  1
  Cu  Cu31  1  0.88321700  0.31192100  0.43914400  1
  Cu  Cu32  1  0.28556000  0.67974600  0.01759200  1
  Cu  Cu33  1  0.71444000  0.32025400  0.98240800  1
  Cu  Cu34  1  0.78556000  0.82025400  0.98240800  1
  Cu  Cu35  1  0.21444000  0.17974600  0.01759200  1
  Cu  Cu36  1  0.47345500  0.55186700  0.28837100  1
  Cu  Cu37  1  0.52654500  0.44813300  0.71162900  1
  Cu  Cu38  1  0.97345500  0.94813300  0.71162900  1
  Cu  Cu39  1  0.02654500  0.05186700  0.28837100  1
  Cu  Cu40  1  0.72993500  0.72194700  0.64102500  1
  Cu  Cu41  1  0.27006500  0.27805300  0.35897500  1
  Cu  Cu42  1  0.22993500  0.77805300  0.35897500  1
  Cu  Cu43  1  0.77006500  0.22194700  0.64102500  1
  Cu  Cu44  1  0.74499500  0.59277100  0.46997200  1
  Cu  Cu45  1  0.25500500  0.40722900  0.53002800  1
  Cu  Cu46  1  0.24499500  0.90722900  0.53002800  1
  Cu  Cu47  1  0.75500500  0.09277100  0.46997200  1
  Cu  Cu48  1  0.77457700  0.64247200  0.15858200  1
  Cu  Cu49  1  0.22542300  0.35752800  0.84141800  1
  Cu  Cu50  1  0.27457700  0.85752800  0.84141800  1
  Cu  Cu51  1  0.72542300  0.14247200  0.15858200  1
  Cu  Cu52  1  0.51073000  0.96771000  0.70456000  1
  Cu  Cu53  1  0.48927000  0.03229000  0.29544000  1
  Cu  Cu54  1  0.01073000  0.53229000  0.29544000  1
  Cu  Cu55  1  0.98927000  0.46771000  0.70456000  1
