# generated using pymatgen
data_CuNi6C29
_symmetry_space_group_name_H-M   'P 1'
_cell_length_a   15.04325200
_cell_length_b   7.21957500
_cell_length_c   16.17765681
_cell_angle_alpha   66.69176067
_cell_angle_beta   90.00000000
_cell_angle_gamma   90.00000000
_symmetry_Int_Tables_number   1
_chemical_formula_structural   CuNi6C29
_chemical_formula_sum   'Cu4 Ni24 C116'
_cell_volume   1613.60000546
_cell_formula_units_Z   4
loop_
 _symmetry_equiv_pos_site_id
 _symmetry_equiv_pos_as_xyz
  1  'x, y, z'
loop_
 _atom_site_type_symbol
 _atom_site_label
 _atom_site_symmetry_multiplicity
 _atom_site_fract_x
 _atom_site_fract_y
 _atom_site_fract_z
 _atom_site_occupancy
  C  C0  1  0.63627100  0.35525300  0.38752700  1
  C  C1  1  0.86372900  0.35525300  0.88752700  1
  C  C2  1  0.36372900  0.64474700  0.61247300  1
  C  C3  1  0.13627100  0.64474700  0.11247300  1
  C  C4  1  0.92387200  0.20763400  0.22795600  1
  C  C5  1  0.57612800  0.20763400  0.72795600  1
  C  C6  1  0.07612800  0.79236600  0.77204400  1
  C  C7  1  0.42387200  0.79236600  0.27204400  1
  C  C8  1  0.81141300  0.19909400  0.14476800  1
  C  C9  1  0.68858700  0.19909400  0.64476800  1
  C  C10  1  0.18858700  0.80090600  0.85523200  1
  C  C11  1  0.31141300  0.80090600  0.35523200  1
  C  C12  1  0.66886400  0.16121100  0.11006200  1
  C  C13  1  0.83113600  0.16121100  0.61006200  1
  C  C14  1  0.33113600  0.83878900  0.88993800  1
  C  C15  1  0.16886400  0.83878900  0.38993800  1
  C  C16  1  0.62980100  0.27339700  0.18421500  1
  C  C17  1  0.87019900  0.27339700  0.68421500  1
  C  C18  1  0.37019900  0.72660300  0.81578500  1
  C  C19  1  0.12980100  0.72660300  0.31578500  1
  C  C20  1  0.65244300  0.00909900  0.22729900  1
  C  C21  1  0.84755700  0.00909900  0.72729900  1
  C  C22  1  0.34755700  0.99090100  0.77270100  1
  C  C23  1  0.15244300  0.99090100  0.27270100  1
  C  C24  1  0.99830900  0.22409300  0.34860000  1
  C  C25  1  0.50169100  0.22409300  0.84860000  1
  C  C26  1  0.00169100  0.77590700  0.65140000  1
  C  C27  1  0.49830900  0.77590700  0.15140000  1
  C  C28  1  0.91403300  0.05600700  0.41639500  1
  C  C29  1  0.58596700  0.05600700  0.91639500  1
  C  C30  1  0.08596700  0.94399300  0.58360500  1
  C  C31  1  0.41403300  0.94399300  0.08360500  1
  C  C32  1  0.90273500  0.32156800  0.38140800  1
  C  C33  1  0.59726500  0.32156800  0.88140800  1
  C  C34  1  0.09726500  0.67843200  0.61859200  1
  C  C35  1  0.40273500  0.67843200  0.11859200  1
  C  C36  1  0.86662300  0.83432100  0.12595100  1
  C  C37  1  0.63337700  0.83432100  0.62595100  1
  C  C38  1  0.13337700  0.16567900  0.87404900  1
  C  C39  1  0.36662300  0.16567900  0.37404900  1
  C  C40  1  0.93069500  0.78949600  0.25308100  1
  C  C41  1  0.56930500  0.78949600  0.75308100  1
  C  C42  1  0.06930500  0.21050400  0.74691900  1
  C  C43  1  0.43069500  0.21050400  0.24691900  1
  C  C44  1  0.76431400  0.79974400  0.03049000  1
  C  C45  1  0.73568600  0.79974400  0.53049000  1
  C  C46  1  0.23568600  0.20025600  0.96951000  1
  C  C47  1  0.26431400  0.20025600  0.46951000  1
  C  C48  1  0.67964400  0.80329800  0.10743800  1
  C  C49  1  0.82035600  0.80329800  0.60743800  1
  C  C50  1  0.32035600  0.19670200  0.89256200  1
  C  C51  1  0.17964400  0.19670200  0.39256200  1
  C  C52  1  0.72778300  0.56925000  0.11691600  1
  C  C53  1  0.77221700  0.56925000  0.61691600  1
  C  C54  1  0.27221700  0.43075000  0.88308400  1
  C  C55  1  0.22778300  0.43075000  0.38308400  1
  C  C56  1  0.94039200  0.71511100  0.40474000  1
  C  C57  1  0.55960800  0.71511100  0.90474000  1
  C  C58  1  0.05960800  0.28488900  0.59526000  1
  C  C59  1  0.44039200  0.28488900  0.09526000  1
  C  C60  1  0.86052000  0.51844900  0.42772100  1
  C  C61  1  0.63948000  0.51844900  0.92772100  1
  C  C62  1  0.13948000  0.48155100  0.57227900  1
  C  C63  1  0.36052000  0.48155100  0.07227900  1
  C  C64  1  0.82379600  0.76941600  0.40003800  1
  C  C65  1  0.67620400  0.76941600  0.90003800  1
  C  C66  1  0.17620400  0.23058400  0.59996200  1
  C  C67  1  0.32379600  0.23058400  0.09996200  1
  Ni  Ni68  1  0.67377000  0.15779600  0.17820200  1
  Ni  Ni69  1  0.82623000  0.15779600  0.67820200  1
  Ni  Ni70  1  0.32623000  0.84220400  0.82179800  1
  Ni  Ni71  1  0.17377000  0.84220400  0.32179800  1
  Ni  Ni72  1  0.92670900  0.20290000  0.36095000  1
  Ni  Ni73  1  0.57329100  0.20290000  0.86095000  1
  Ni  Ni74  1  0.07329100  0.79710000  0.63905000  1
  Ni  Ni75  1  0.42670900  0.79710000  0.13905000  1
  Ni  Ni76  1  0.74139600  0.72938000  0.10028200  1
  Ni  Ni77  1  0.75860400  0.72938000  0.60028200  1
  Ni  Ni78  1  0.25860400  0.27062000  0.89971800  1
  Ni  Ni79  1  0.24139600  0.27062000  0.39971800  1
  Ni  Ni80  1  0.87503800  0.67738100  0.38580100  1
  Ni  Ni81  1  0.62496200  0.67738100  0.88580100  1
  Ni  Ni82  1  0.12496200  0.32261900  0.61419900  1
  Ni  Ni83  1  0.37503800  0.32261900  0.11419900  1
  Ni  Ni84  1  0.79621200  0.20042300  0.26998500  1
  Ni  Ni85  1  0.70378800  0.20042300  0.76998500  1
  Ni  Ni86  1  0.20378800  0.79957700  0.73001500  1
  Ni  Ni87  1  0.29621200  0.79957700  0.23001500  1
  Ni  Ni88  1  0.80631800  0.68557500  0.24690800  1
  Ni  Ni89  1  0.69368200  0.68557500  0.74690800  1
  Ni  Ni90  1  0.19368200  0.31442500  0.75309200  1
  Ni  Ni91  1  0.30631800  0.31442500  0.25309200  1
  Cu  Cu92  1  0.53993000  0.82041100  0.43125500  1
  Cu  Cu93  1  0.96007000  0.82041100  0.93125500  1
  Cu  Cu94  1  0.46007000  0.17958900  0.56874500  1
  Cu  Cu95  1  0.03993000  0.17958900  0.06874500  1
  C  C96  1  0.76611400  0.19734200  0.19185000  1
  C  C97  1  0.73388600  0.19734200  0.69185000  1
  C  C98  1  0.23388600  0.80265800  0.80815000  1
  C  C99  1  0.26611400  0.80265800  0.30815000  1
  C  C100  1  0.88498600  0.21711100  0.27798800  1
  C  C101  1  0.61501400  0.21711100  0.77798800  1
  C  C102  1  0.11501400  0.78288900  0.72201200  1
  C  C103  1  0.38498600  0.78288900  0.22201200  1
  C  C104  1  0.81164100  0.75434900  0.15645100  1
  C  C105  1  0.68835900  0.75434900  0.65645100  1
  C  C106  1  0.18835900  0.24565100  0.84354900  1
  C  C107  1  0.31164100  0.24565100  0.34354900  1
  C  C108  1  0.87809300  0.71385200  0.29106000  1
  C  C109  1  0.62190700  0.71385200  0.79106000  1
  C  C110  1  0.12190700  0.28614800  0.70894000  1
  C  C111  1  0.37809300  0.28614800  0.20894000  1
  C  C112  1  0.70311200  0.29503500  0.48824400  1
  C  C113  1  0.79688800  0.29503500  0.98824400  1
  C  C114  1  0.29688800  0.70496500  0.51175600  1
  C  C115  1  0.20311200  0.70496500  0.01175600  1
  C  C116  1  0.56589700  0.40925500  0.29001800  1
  C  C117  1  0.93410300  0.40925500  0.79001800  1
  C  C118  1  0.43410300  0.59074500  0.70998200  1
  C  C119  1  0.06589700  0.59074500  0.20998200  1
  C  C120  1  0.60993100  0.68048700  0.39986900  1
  C  C121  1  0.89006900  0.68048700  0.89986900  1
  C  C122  1  0.39006900  0.31951300  0.60013100  1
  C  C123  1  0.10993100  0.31951300  0.10013100  1
  C  C124  1  0.50062500  0.32212900  0.46593900  1
  C  C125  1  0.99937500  0.32212900  0.96593900  1
  C  C126  1  0.49937500  0.67787100  0.53406100  1
  C  C127  1  0.00062500  0.67787100  0.03406100  1
  C  C128  1  0.60028900  0.00032300  0.44680000  1
  C  C129  1  0.89971100  0.00032300  0.94680000  1
  C  C130  1  0.39971100  0.99967700  0.55320000  1
  C  C131  1  0.10028900  0.99967700  0.05320000  1
  C  C132  1  0.74349400  0.18671100  0.33379200  1
  C  C133  1  0.75650600  0.18671100  0.83379200  1
  C  C134  1  0.25650600  0.81328900  0.66620800  1
  C  C135  1  0.24349400  0.81328900  0.16620800  1
  C  C136  1  0.73663300  0.59883000  0.28922800  1
  C  C137  1  0.76336700  0.59883000  0.78922800  1
  C  C138  1  0.26336700  0.40117000  0.71077200  1
  C  C139  1  0.23663300  0.40117000  0.21077200  1
  C  C140  1  0.45995400  0.91744200  0.35544600  1
  C  C141  1  0.04004600  0.91744200  0.85544600  1
  C  C142  1  0.54004600  0.08255800  0.64455400  1
  C  C143  1  0.95995400  0.08255800  0.14455400  1
