# generated using pymatgen
data_CuNiC16
_symmetry_space_group_name_H-M   'P 1'
_cell_length_a   9.02347768
_cell_length_b   9.02347768
_cell_length_c   9.02347753
_cell_angle_alpha   57.83306727
_cell_angle_beta   57.83306727
_cell_angle_gamma   57.83306418
_symmetry_Int_Tables_number   1
_chemical_formula_structural   CuNiC16
_chemical_formula_sum   'Cu2 Ni2 C32'
_cell_volume   493.67834152
_cell_formula_units_Z   2
loop_
 _symmetry_equiv_pos_site_id
 _symmetry_equiv_pos_as_xyz
  1  'x, y, z'
loop_
 _atom_site_type_symbol
 _atom_site_label
 _atom_site_symmetry_multiplicity
 _atom_site_fract_x
 _atom_site_fract_y
 _atom_site_fract_z
 _atom_site_occupancy
  C  C0  1  0.62155300  0.62155300  0.62155300  1
  C  C1  1  0.12155300  0.12155300  0.12155300  1
  Ni  Ni2  1  0.97311300  0.97311300  0.97311300  1
  Ni  Ni3  1  0.47311300  0.47311300  0.47311300  1
  Cu  Cu4  1  0.76278300  0.76278300  0.76278300  1
  Cu  Cu5  1  0.26278300  0.26278300  0.26278300  1
  C  C6  1  0.07617200  0.37146600  0.64845900  1
  C  C7  1  0.64845900  0.07617200  0.37146600  1
  C  C8  1  0.37146600  0.64845900  0.07617200  1
  C  C9  1  0.14845900  0.87146600  0.57617200  1
  C  C10  1  0.57617100  0.14845900  0.87146600  1
  C  C11  1  0.87146600  0.57617200  0.14845900  1
  C  C12  1  0.10924900  0.33513200  0.48592700  1
  C  C13  1  0.48592700  0.10924900  0.33513200  1
  C  C14  1  0.33513200  0.48592700  0.10924900  1
  C  C15  1  0.98592700  0.83513200  0.60924900  1
  C  C16  1  0.60924900  0.98592700  0.83513200  1
  C  C17  1  0.83513200  0.60924900  0.98592700  1
  C  C18  1  0.89811600  0.53702400  0.68189700  1
  C  C19  1  0.68189700  0.89811600  0.53702400  1
  C  C20  1  0.53702400  0.68189700  0.89811600  1
  C  C21  1  0.18189700  0.03702400  0.39811600  1
  C  C22  1  0.39811600  0.18189700  0.03702400  1
  C  C23  1  0.03702400  0.39811600  0.18189700  1
  C  C24  1  0.05850400  0.19335700  0.83121600  1
  C  C25  1  0.83121600  0.05850400  0.19335700  1
  C  C26  1  0.19335700  0.83121600  0.05850400  1
  C  C27  1  0.33121600  0.69335700  0.55850400  1
  C  C28  1  0.55850400  0.33121600  0.69335700  1
  C  C29  1  0.69335700  0.55850400  0.33121600  1
  C  C30  1  0.24936100  0.39749700  0.62053500  1
  C  C31  1  0.62053500  0.24936100  0.39749700  1
  C  C32  1  0.39749700  0.62053500  0.24936100  1
  C  C33  1  0.12053500  0.89749700  0.74936100  1
  C  C34  1  0.74936100  0.12053500  0.89749700  1
  C  C35  1  0.89749700  0.74936100  0.12053500  1
