# generated using pymatgen
data_Cu3Ni3C5
_symmetry_space_group_name_H-M   'P 1'
_cell_length_a   9.33448500
_cell_length_b   10.15472500
_cell_length_c   11.38237248
_cell_angle_alpha   88.88960060
_cell_angle_beta   90.00000000
_cell_angle_gamma   90.00000000
_symmetry_Int_Tables_number   1
_chemical_formula_structural   Cu3Ni3C5
_chemical_formula_sum   'Cu12 Ni12 C20'
_cell_volume   1078.72255427
_cell_formula_units_Z   4
loop_
 _symmetry_equiv_pos_site_id
 _symmetry_equiv_pos_as_xyz
  1  'x, y, z'
loop_
 _atom_site_type_symbol
 _atom_site_label
 _atom_site_symmetry_multiplicity
 _atom_site_fract_x
 _atom_site_fract_y
 _atom_site_fract_z
 _atom_site_occupancy
  C  C0  1  0.24758000  0.88142300  0.04260100  1
  C  C1  1  0.74758000  0.11857700  0.45739900  1
  C  C2  1  0.75242000  0.11857700  0.95739900  1
  C  C3  1  0.25242000  0.88142300  0.54260100  1
  C  C4  1  0.11953600  0.29578300  0.70961400  1
  C  C5  1  0.61953600  0.70421700  0.79038600  1
  C  C6  1  0.88046400  0.70421700  0.29038600  1
  C  C7  1  0.38046400  0.29578300  0.20961400  1
  C  C8  1  0.11952200  0.36757600  0.86179700  1
  C  C9  1  0.61952200  0.63242400  0.63820300  1
  C  C10  1  0.88047800  0.63242400  0.13820300  1
  C  C11  1  0.38047800  0.36757600  0.36179700  1
  C  C12  1  0.12922200  0.46422400  0.63572000  1
  C  C13  1  0.62922200  0.53577600  0.86428000  1
  C  C14  1  0.87077800  0.53577600  0.36428000  1
  C  C15  1  0.37077800  0.46422400  0.13572000  1
  C  C16  1  0.32149300  0.27579100  0.70947000  1
  C  C17  1  0.82149300  0.72420900  0.79053000  1
  C  C18  1  0.67850700  0.72420900  0.29053000  1
  C  C19  1  0.17850700  0.27579100  0.20947000  1
  Ni  Ni20  1  0.10934900  0.19771000  0.51435400  1
  Ni  Ni21  1  0.60934900  0.80229000  0.98564600  1
  Ni  Ni22  1  0.89065100  0.80229000  0.48564600  1
  Ni  Ni23  1  0.39065100  0.19771000  0.01435400  1
  Ni  Ni24  1  0.08724800  0.07113300  0.79167300  1
  Ni  Ni25  1  0.58724800  0.92886700  0.70832700  1
  Ni  Ni26  1  0.91275200  0.92886700  0.20832700  1
  Ni  Ni27  1  0.41275200  0.07113300  0.29167300  1
  Ni  Ni28  1  0.85688900  0.31402500  0.70488400  1
  Ni  Ni29  1  0.35688900  0.68597500  0.79511600  1
  Ni  Ni30  1  0.14311100  0.68597500  0.29511600  1
  Ni  Ni31  1  0.64311100  0.31402500  0.20488400  1
  Cu  Cu32  1  0.11626700  0.41227700  0.95464000  1
  Cu  Cu33  1  0.61626700  0.58772300  0.54536000  1
  Cu  Cu34  1  0.88373300  0.58772300  0.04536000  1
  Cu  Cu35  1  0.38373300  0.41227700  0.45464000  1
  Cu  Cu36  1  0.13215300  0.56600100  0.58806900  1
  Cu  Cu37  1  0.63215300  0.43399900  0.91193100  1
  Cu  Cu38  1  0.86784700  0.43399900  0.41193100  1
  Cu  Cu39  1  0.36784700  0.56600100  0.08806900  1
  Cu  Cu40  1  0.44491100  0.26267300  0.70623500  1
  Cu  Cu41  1  0.94491100  0.73732700  0.79376500  1
  Cu  Cu42  1  0.55508900  0.73732700  0.29376500  1
  Cu  Cu43  1  0.05508900  0.26267300  0.20623500  1
