# generated using pymatgen
data_Cu11(Ni9C2)2
_symmetry_space_group_name_H-M   'P 1'
_cell_length_a   13.44845114
_cell_length_b   13.44845114
_cell_length_c   13.44845114
_cell_angle_alpha   60.00000000
_cell_angle_beta   60.00000000
_cell_angle_gamma   60.00000000
_symmetry_Int_Tables_number   1
_chemical_formula_structural   Cu11(Ni9C2)2
_chemical_formula_sum   'Cu22 Ni36 C8'
_cell_volume   1719.89451272
_cell_formula_units_Z   2
loop_
 _symmetry_equiv_pos_site_id
 _symmetry_equiv_pos_as_xyz
  1  'x, y, z'
loop_
 _atom_site_type_symbol
 _atom_site_label
 _atom_site_symmetry_multiplicity
 _atom_site_fract_x
 _atom_site_fract_y
 _atom_site_fract_z
 _atom_site_occupancy
  C  C0  1  0.00000000  0.00000000  0.00000000  1
  C  C1  1  0.76732800  0.76732800  0.23267200  1
  C  C2  1  0.23267200  0.76732800  0.23267200  1
  C  C3  1  0.76732800  0.23267200  0.23267200  1
  C  C4  1  0.23267200  0.23267200  0.76732800  1
  C  C5  1  0.76732800  0.23267200  0.76732800  1
  C  C6  1  0.23267200  0.76732800  0.76732800  1
  C  C7  1  0.50000000  0.50000000  0.50000000  1
  Ni  Ni8  1  0.00000000  0.61399900  0.38600100  1
  Ni  Ni9  1  0.00000000  0.00000000  0.38600100  1
  Ni  Ni10  1  0.61399900  0.00000000  0.38600100  1
  Ni  Ni11  1  0.00000000  0.38600100  0.61399900  1
  Ni  Ni12  1  0.61399900  0.38600100  0.00000000  1
  Ni  Ni13  1  0.00000000  0.38600100  0.00000000  1
  Ni  Ni14  1  0.38600100  0.00000000  0.00000000  1
  Ni  Ni15  1  0.38600100  0.61399900  0.00000000  1
  Ni  Ni16  1  0.38600100  0.00000000  0.61399900  1
  Ni  Ni17  1  0.61399900  0.00000000  0.00000000  1
  Ni  Ni18  1  0.00000000  0.00000000  0.61399900  1
  Ni  Ni19  1  0.00000000  0.61399900  0.00000000  1
  Ni  Ni20  1  0.74191200  0.74191200  0.52245200  1
  Ni  Ni21  1  0.99372400  0.74191200  0.52245200  1
  Ni  Ni22  1  0.74191200  0.99372400  0.52245200  1
  Ni  Ni23  1  0.99372400  0.52245200  0.74191200  1
  Ni  Ni24  1  0.74191200  0.52245200  0.74191200  1
  Ni  Ni25  1  0.74191200  0.52245200  0.99372400  1
  Ni  Ni26  1  0.52245200  0.99372400  0.74191200  1
  Ni  Ni27  1  0.52245200  0.74191200  0.99372400  1
  Ni  Ni28  1  0.52245200  0.74191200  0.74191200  1
  Ni  Ni29  1  0.74191200  0.74191200  0.99372400  1
  Ni  Ni30  1  0.74191200  0.99372400  0.74191200  1
  Ni  Ni31  1  0.99372400  0.74191200  0.74191200  1
  Ni  Ni32  1  0.25808800  0.25808800  0.47754800  1
  Ni  Ni33  1  0.00627600  0.25808800  0.47754800  1
  Ni  Ni34  1  0.25808800  0.00627600  0.47754800  1
  Ni  Ni35  1  0.00627600  0.47754800  0.25808800  1
  Ni  Ni36  1  0.25808800  0.47754800  0.25808800  1
  Ni  Ni37  1  0.25808800  0.47754800  0.00627600  1
  Ni  Ni38  1  0.47754800  0.00627600  0.25808800  1
  Ni  Ni39  1  0.47754800  0.25808800  0.00627600  1
  Ni  Ni40  1  0.47754800  0.25808800  0.25808800  1
  Ni  Ni41  1  0.25808800  0.25808800  0.00627600  1
  Ni  Ni42  1  0.25808800  0.00627600  0.25808800  1
  Ni  Ni43  1  0.00627600  0.25808800  0.25808800  1
  Cu  Cu44  1  0.89034100  0.89034100  0.32897800  1
  Cu  Cu45  1  0.89034100  0.32897800  0.89034100  1
  Cu  Cu46  1  0.32897800  0.89034100  0.89034100  1
  Cu  Cu47  1  0.89034100  0.89034100  0.89034100  1
  Cu  Cu48  1  0.10965900  0.10965900  0.67102200  1
  Cu  Cu49  1  0.10965900  0.67102200  0.10965900  1
  Cu  Cu50  1  0.67102200  0.10965900  0.10965900  1
  Cu  Cu51  1  0.10965900  0.10965900  0.10965900  1
  Cu  Cu52  1  0.81551900  0.50000000  0.50000000  1
  Cu  Cu53  1  0.18448100  0.81551900  0.50000000  1
  Cu  Cu54  1  0.50000000  0.18448100  0.50000000  1
  Cu  Cu55  1  0.18448100  0.50000000  0.50000000  1
  Cu  Cu56  1  0.50000000  0.81551900  0.50000000  1
  Cu  Cu57  1  0.81551900  0.18448100  0.50000000  1
  Cu  Cu58  1  0.50000000  0.50000000  0.81551900  1
  Cu  Cu59  1  0.81551900  0.50000000  0.18448100  1
  Cu  Cu60  1  0.18448100  0.50000000  0.81551900  1
  Cu  Cu61  1  0.50000000  0.50000000  0.18448100  1
  Cu  Cu62  1  0.50000000  0.18448100  0.81551900  1
  Cu  Cu63  1  0.50000000  0.81551900  0.18448100  1
  Cu  Cu64  1  0.75000000  0.75000000  0.75000000  1
  Cu  Cu65  1  0.25000000  0.25000000  0.25000000  1
