# generated using pymatgen
data_Cu3(NiC2)8
_symmetry_space_group_name_H-M   'P 1'
_cell_length_a   6.80611000
_cell_length_b   8.82664713
_cell_length_c   12.03005011
_cell_angle_alpha   111.29857276
_cell_angle_beta   91.11334195
_cell_angle_gamma   110.41886325
_symmetry_Int_Tables_number   1
_chemical_formula_structural   Cu3(NiC2)8
_chemical_formula_sum   'Cu6 Ni16 C32'
_cell_volume   622.13502217
_cell_formula_units_Z   2
loop_
 _symmetry_equiv_pos_site_id
 _symmetry_equiv_pos_as_xyz
  1  'x, y, z'
loop_
 _atom_site_type_symbol
 _atom_site_label
 _atom_site_symmetry_multiplicity
 _atom_site_fract_x
 _atom_site_fract_y
 _atom_site_fract_z
 _atom_site_occupancy
  C  C0  1  0.20506200  0.04687500  0.27593000  1
  C  C1  1  0.79493800  0.95312500  0.72407000  1
  Ni  Ni2  1  0.55099600  0.39676200  0.48473700  1
  Ni  Ni3  1  0.44900400  0.60323800  0.51526300  1
  Ni  Ni4  1  0.78473700  0.50913800  0.50356600  1
  Ni  Ni5  1  0.21526300  0.49086200  0.49643400  1
  Ni  Ni6  1  0.35782300  0.77306700  0.27174800  1
  Ni  Ni7  1  0.64217700  0.22693300  0.72825200  1
  Ni  Ni8  1  0.33582900  0.03191100  0.13101000  1
  Ni  Ni9  1  0.66417100  0.96808900  0.86899000  1
  Ni  Ni10  1  0.70493300  0.14276200  0.34989100  1
  Ni  Ni11  1  0.29506700  0.85723800  0.65010900  1
  Ni  Ni12  1  0.63897200  0.09278300  0.27236300  1
  Ni  Ni13  1  0.36102800  0.90721700  0.72763700  1
  Ni  Ni14  1  0.57533000  0.47710100  0.93590400  1
  Ni  Ni15  1  0.42467000  0.52289900  0.06409600  1
  Ni  Ni16  1  0.78635800  0.50469300  0.00729700  1
  Ni  Ni17  1  0.21364200  0.49530700  0.99270300  1
  Cu  Cu18  1  0.06989000  0.47643600  0.17348400  1
  Cu  Cu19  1  0.93011000  0.52356400  0.82651600  1
  Cu  Cu20  1  0.09106900  0.83314200  0.49951900  1
  Cu  Cu21  1  0.90893100  0.16685800  0.50048100  1
  Cu  Cu22  1  0.82188000  0.89585900  0.18496300  1
  Cu  Cu23  1  0.17812000  0.10414100  0.81503700  1
  C  C24  1  0.25357700  0.41544000  0.23392400  1
  C  C25  1  0.74642300  0.58456000  0.76607600  1
  C  C26  1  0.94285100  0.34372300  0.16232200  1
  C  C27  1  0.05714900  0.65627700  0.83767800  1
  C  C28  1  0.01247600  0.65747800  0.12566100  1
  C  C29  1  0.98752400  0.34252200  0.87433900  1
  C  C30  1  0.95676800  0.82781100  0.42652100  1
  C  C31  1  0.04323200  0.17218900  0.57347900  1
  C  C32  1  0.27853900  0.92830400  0.47681400  1
  C  C33  1  0.72146100  0.07169600  0.52318600  1
  C  C34  1  0.03810000  0.74887400  0.58918000  1
  C  C35  1  0.96190000  0.25112600  0.41082000  1
  C  C36  1  0.90679900  0.74834200  0.29749300  1
  C  C37  1  0.09320100  0.25165800  0.70250700  1
  C  C38  1  0.91804300  0.10734100  0.11556800  1
  C  C39  1  0.08195700  0.89265900  0.88443200  1
  C  C40  1  0.65805800  0.83958900  0.14652600  1
  C  C41  1  0.34194200  0.16041100  0.85347400  1
  C  C42  1  0.31174400  0.63818000  0.45483100  1
  C  C43  1  0.68825600  0.36182000  0.54516900  1
  C  C44  1  0.36581100  0.94782700  0.21627900  1
  C  C45  1  0.63418900  0.05217300  0.78372100  1
  C  C46  1  0.58512000  0.12210600  0.30481200  1
  C  C47  1  0.41488000  0.87789400  0.69518800  1
  C  C48  1  0.30177700  0.41034600  0.07318000  1
  C  C49  1  0.69822300  0.58965400  0.92682000  1
  C  C50  1  0.35888900  0.49256200  0.38480400  1
  C  C51  1  0.64111100  0.50743800  0.61519600  1
  C  C52  1  0.34544100  0.26294400  0.97794200  1
  C  C53  1  0.65455900  0.73705600  0.02205800  1
