# generated using pymatgen
data_Cu2(NiC2)3
_symmetry_space_group_name_H-M   'P 1'
_cell_length_a   5.35877200
_cell_length_b   7.79450900
_cell_length_c   8.81154800
_cell_angle_alpha   90.00000000
_cell_angle_beta   90.00000000
_cell_angle_gamma   90.00000000
_symmetry_Int_Tables_number   1
_chemical_formula_structural   Cu2(NiC2)3
_chemical_formula_sum   'Cu4 Ni6 C12'
_cell_volume   368.04951830
_cell_formula_units_Z   2
loop_
 _symmetry_equiv_pos_site_id
 _symmetry_equiv_pos_as_xyz
  1  'x, y, z'
loop_
 _atom_site_type_symbol
 _atom_site_label
 _atom_site_symmetry_multiplicity
 _atom_site_fract_x
 _atom_site_fract_y
 _atom_site_fract_z
 _atom_site_occupancy
  Ni  Ni0  1  0.50000000  0.15371100  0.77903900  1
  Ni  Ni1  1  0.50000000  0.15371100  0.22096100  1
  Ni  Ni2  1  0.00000000  0.84628900  0.72096100  1
  Ni  Ni3  1  0.00000000  0.84628900  0.27903900  1
  Ni  Ni4  1  0.50000000  0.71532600  0.50000000  1
  Ni  Ni5  1  0.00000000  0.28467400  0.00000000  1
  Cu  Cu6  1  0.25000000  0.50000000  0.25000000  1
  Cu  Cu7  1  0.25000000  0.50000000  0.75000000  1
  Cu  Cu8  1  0.75000000  0.50000000  0.25000000  1
  Cu  Cu9  1  0.75000000  0.50000000  0.75000000  1
  C  C10  1  0.50000000  0.76417900  0.18640600  1
  C  C11  1  0.50000000  0.76417900  0.81359400  1
  C  C12  1  0.00000000  0.23582100  0.31359400  1
  C  C13  1  0.00000000  0.23582100  0.68640600  1
  C  C14  1  0.50000000  0.36597900  0.50000000  1
  C  C15  1  0.00000000  0.63402100  0.00000000  1
  C  C16  1  0.00000000  0.56186300  0.50000000  1
  C  C17  1  0.50000000  0.43813700  0.00000000  1
  C  C18  1  0.26046200  0.04099800  0.50000000  1
  C  C19  1  0.73953800  0.04099800  0.50000000  1
  C  C20  1  0.23953800  0.95900200  0.00000000  1
  C  C21  1  0.76046200  0.95900200  0.00000000  1
