# generated using pymatgen
data_CuNi2C3
_symmetry_space_group_name_H-M   'P 1'
_cell_length_a   7.49757911
_cell_length_b   7.49757911
_cell_length_c   28.52157190
_cell_angle_alpha   87.43060950
_cell_angle_beta   87.43060950
_cell_angle_gamma   119.82389056
_symmetry_Int_Tables_number   1
_chemical_formula_structural   CuNi2C3
_chemical_formula_sum   'Cu8 Ni16 C24'
_cell_volume   1385.38622936
_cell_formula_units_Z   8
loop_
 _symmetry_equiv_pos_site_id
 _symmetry_equiv_pos_as_xyz
  1  'x, y, z'
loop_
 _atom_site_type_symbol
 _atom_site_label
 _atom_site_symmetry_multiplicity
 _atom_site_fract_x
 _atom_site_fract_y
 _atom_site_fract_z
 _atom_site_occupancy
  Ni  Ni0  1  0.85354700  0.68487500  0.98562800  1
  Ni  Ni1  1  0.68487500  0.85354700  0.48562800  1
  Ni  Ni2  1  0.51977700  0.02442300  0.98544100  1
  Ni  Ni3  1  0.02442300  0.51977700  0.48544100  1
  Ni  Ni4  1  0.88660100  0.37537000  0.86048900  1
  Ni  Ni5  1  0.37537000  0.88660100  0.36048900  1
  Ni  Ni6  1  0.22640400  0.06231200  0.85983800  1
  Ni  Ni7  1  0.06231200  0.22640400  0.35983800  1
  Ni  Ni8  1  0.91614800  0.09692900  0.73557100  1
  Ni  Ni9  1  0.09692900  0.91614800  0.23557100  1
  Ni  Ni10  1  0.58614100  0.42366800  0.73545500  1
  Ni  Ni11  1  0.42366800  0.58614100  0.23545500  1
  Ni  Ni12  1  0.63237400  0.12585700  0.60969200  1
  Ni  Ni13  1  0.12585700  0.63237400  0.10969200  1
  Ni  Ni14  1  0.29228400  0.47177800  0.61039400  1
  Ni  Ni15  1  0.47177800  0.29228400  0.11039400  1
  Cu  Cu16  1  0.16736500  0.33102000  0.98099900  1
  Cu  Cu17  1  0.33102000  0.16736500  0.48099900  1
  Cu  Cu18  1  0.56362300  0.71410000  0.85634500  1
  Cu  Cu19  1  0.71410000  0.56362300  0.35634500  1
  Cu  Cu20  1  0.27308000  0.75823700  0.73091900  1
  Cu  Cu21  1  0.75823700  0.27308000  0.23091900  1
  Cu  Cu22  1  0.95754600  0.78822600  0.60631000  1
  Cu  Cu23  1  0.78822600  0.95754600  0.10631000  1
  C  C24  1  0.30510300  0.14195000  0.57615000  1
  C  C25  1  0.14195000  0.30510300  0.07615000  1
  C  C26  1  0.51715900  0.68523600  0.95131400  1
  C  C27  1  0.68523600  0.51715900  0.45131400  1
  C  C28  1  0.94219800  0.77245000  0.70134200  1
  C  C29  1  0.77245000  0.94219800  0.20134200  1
  C  C30  1  0.59439100  0.10147200  0.70243800  1
  C  C31  1  0.10147200  0.59439100  0.20243800  1
  C  C32  1  0.26441700  0.43284300  0.70367100  1
  C  C33  1  0.43284300  0.26441700  0.20367100  1
  C  C34  1  0.23512800  0.72905200  0.82610700  1
  C  C35  1  0.72905200  0.23512800  0.32610700  1
  C  C36  1  0.89375800  0.05181400  0.82843500  1
  C  C37  1  0.05181400  0.89375800  0.32843500  1
  C  C38  1  0.86315700  0.36224100  0.95325300  1
  C  C39  1  0.36224100  0.86315700  0.45325300  1
  C  C40  1  0.96825800  0.47412100  0.57792800  1
  C  C41  1  0.47412100  0.96825800  0.07792800  1
  C  C42  1  0.57243300  0.39893000  0.82808100  1
  C  C43  1  0.39893000  0.57243300  0.32808100  1
  C  C44  1  0.19392300  0.02435500  0.95304300  1
  C  C45  1  0.02435500  0.19392300  0.45304300  1
  C  C46  1  0.64472800  0.80359400  0.57852700  1
  C  C47  1  0.80359400  0.64472800  0.07852700  1
