# generated using pymatgen
data_CuNiC10
_symmetry_space_group_name_H-M   'P 1'
_cell_length_a   7.48629671
_cell_length_b   7.48629671
_cell_length_c   4.83304200
_cell_angle_alpha   90.00000000
_cell_angle_beta   90.00000000
_cell_angle_gamma   90.02889894
_symmetry_Int_Tables_number   1
_chemical_formula_structural   CuNiC10
_chemical_formula_sum   'Cu2 Ni2 C20'
_cell_volume   270.86605682
_cell_formula_units_Z   2
loop_
 _symmetry_equiv_pos_site_id
 _symmetry_equiv_pos_as_xyz
  1  'x, y, z'
loop_
 _atom_site_type_symbol
 _atom_site_label
 _atom_site_symmetry_multiplicity
 _atom_site_fract_x
 _atom_site_fract_y
 _atom_site_fract_z
 _atom_site_occupancy
  C  C0  1  0.66264100  0.33735900  0.49405400  1
  C  C1  1  0.33735900  0.66264100  0.49405400  1
  Ni  Ni2  1  0.50000000  0.00000000  0.99700800  1
  Ni  Ni3  1  0.00000000  0.50000000  0.99700800  1
  Cu  Cu4  1  0.83278700  0.83278700  0.50097200  1
  Cu  Cu5  1  0.16721300  0.16721300  0.50097200  1
  C  C6  1  0.86525900  0.13474100  0.05268000  1
  C  C7  1  0.36952200  0.36952200  0.94233700  1
  C  C8  1  0.13474100  0.86525900  0.05268000  1
  C  C9  1  0.63047800  0.63047800  0.94233700  1
  C  C10  1  0.00000000  0.00000000  0.15143100  1
  C  C11  1  0.50000000  0.50000000  0.83891500  1
  C  C12  1  0.85203500  0.14796500  0.76077400  1
  C  C13  1  0.35669400  0.35669400  0.23763100  1
  C  C14  1  0.14796500  0.85203500  0.76077400  1
  C  C15  1  0.64330600  0.64330600  0.23763100  1
  C  C16  1  0.57801500  0.80632000  0.79082700  1
  C  C17  1  0.07791800  0.69402600  0.20166000  1
  C  C18  1  0.42198500  0.19368000  0.79082700  1
  C  C19  1  0.92208200  0.30597400  0.20166000  1
  C  C20  1  0.69402600  0.07791800  0.20166000  1
  C  C21  1  0.19368000  0.42198500  0.79082700  1
  C  C22  1  0.30597400  0.92208200  0.20166000  1
  C  C23  1  0.80632000  0.57801500  0.79082700  1
