# generated using pymatgen
data_Cu(NiC2)2
_symmetry_space_group_name_H-M   'P 1'
_cell_length_a   5.83003695
_cell_length_b   5.83003695
_cell_length_c   6.94332745
_cell_angle_alpha   55.08402329
_cell_angle_beta   55.08402329
_cell_angle_gamma   40.06624897
_symmetry_Int_Tables_number   1
_chemical_formula_structural   Cu(NiC2)2
_chemical_formula_sum   'Cu1 Ni2 C4'
_cell_volume   120.45987538
_cell_formula_units_Z   1
loop_
 _symmetry_equiv_pos_site_id
 _symmetry_equiv_pos_as_xyz
  1  'x, y, z'
loop_
 _atom_site_type_symbol
 _atom_site_label
 _atom_site_symmetry_multiplicity
 _atom_site_fract_x
 _atom_site_fract_y
 _atom_site_fract_z
 _atom_site_occupancy
  C  C0  1  0.42818800  0.42818800  0.29981900  1
  C  C1  1  0.57181200  0.57181200  0.70018100  1
  C  C2  1  0.79286200  0.79286200  0.09240600  1
  C  C3  1  0.20713800  0.20713800  0.90759400  1
  Ni  Ni4  1  0.85788500  0.85788500  0.68219200  1
  Ni  Ni5  1  0.14211500  0.14211500  0.31780800  1
  Cu  Cu6  1  0.00000000  0.00000000  0.00000000  1
