# generated using pymatgen
data_Cu2Ni7C3
_symmetry_space_group_name_H-M   'P 1'
_cell_length_a   22.70123600
_cell_length_b   6.17094900
_cell_length_c   8.07717373
_cell_angle_alpha   56.53568572
_cell_angle_beta   90.00000000
_cell_angle_gamma   90.00000000
_symmetry_Int_Tables_number   1
_chemical_formula_structural   Cu2Ni7C3
_chemical_formula_sum   'Cu8 Ni28 C12'
_cell_volume   943.94434576
_cell_formula_units_Z   4
loop_
 _symmetry_equiv_pos_site_id
 _symmetry_equiv_pos_as_xyz
  1  'x, y, z'
loop_
 _atom_site_type_symbol
 _atom_site_label
 _atom_site_symmetry_multiplicity
 _atom_site_fract_x
 _atom_site_fract_y
 _atom_site_fract_z
 _atom_site_occupancy
  C  C0  1  0.06871600  0.22260500  0.35677300  1
  C  C1  1  0.43128400  0.22260500  0.85677300  1
  C  C2  1  0.93128400  0.77739500  0.64322700  1
  C  C3  1  0.56871600  0.77739500  0.14322700  1
  C  C4  1  0.19269600  0.22329700  0.42721500  1
  C  C5  1  0.30730400  0.22329700  0.92721500  1
  C  C6  1  0.80730400  0.77670300  0.57278500  1
  C  C7  1  0.69269600  0.77670300  0.07278500  1
  C  C8  1  0.14467800  0.69853000  0.76307400  1
  C  C9  1  0.35532200  0.69853000  0.26307400  1
  C  C10  1  0.85532200  0.30147000  0.23692600  1
  C  C11  1  0.64467800  0.30147000  0.73692600  1
  Ni  Ni12  1  0.13272100  0.00980500  0.46440200  1
  Ni  Ni13  1  0.36727900  0.00980500  0.96440200  1
  Ni  Ni14  1  0.86727900  0.99019500  0.53559800  1
  Ni  Ni15  1  0.63272100  0.99019500  0.03559800  1
  Ni  Ni16  1  0.94523100  0.40176600  0.11480200  1
  Ni  Ni17  1  0.55476900  0.40176600  0.61480200  1
  Ni  Ni18  1  0.05476900  0.59823400  0.88519800  1
  Ni  Ni19  1  0.44523100  0.59823400  0.38519800  1
  Ni  Ni20  1  0.00046400  0.31450900  0.20580300  1
  Ni  Ni21  1  0.49953600  0.31450900  0.70580300  1
  Ni  Ni22  1  0.99953600  0.68549100  0.79419700  1
  Ni  Ni23  1  0.50046400  0.68549100  0.29419700  1
  Ni  Ni24  1  0.05323400  0.41955700  0.09135000  1
  Ni  Ni25  1  0.44676600  0.41955700  0.59135000  1
  Ni  Ni26  1  0.94676600  0.58044300  0.90865000  1
  Ni  Ni27  1  0.55323400  0.58044300  0.40865000  1
  Ni  Ni28  1  0.29408100  0.24689800  0.14888700  1
  Ni  Ni29  1  0.20591900  0.24689800  0.64888700  1
  Ni  Ni30  1  0.70591900  0.75310200  0.85111300  1
  Ni  Ni31  1  0.79408100  0.75310200  0.35111300  1
  Ni  Ni32  1  0.26550800  0.22892100  0.30831200  1
  Ni  Ni33  1  0.23449200  0.22892100  0.80831200  1
  Ni  Ni34  1  0.73449200  0.77107900  0.69168800  1
  Ni  Ni35  1  0.76550800  0.77107900  0.19168800  1
  Ni  Ni36  1  0.32014300  0.35269600  0.24780300  1
  Ni  Ni37  1  0.17985700  0.35269600  0.74780300  1
  Ni  Ni38  1  0.67985700  0.64730400  0.75219700  1
  Ni  Ni39  1  0.82014300  0.64730400  0.25219700  1
  Cu  Cu40  1  0.93719200  0.59513600  0.48998300  1
  Cu  Cu41  1  0.56280800  0.59513600  0.98998300  1
  Cu  Cu42  1  0.06280800  0.40486400  0.51001700  1
  Cu  Cu43  1  0.43719200  0.40486400  0.01001700  1
  Cu  Cu44  1  0.18225000  0.62375800  0.21710700  1
  Cu  Cu45  1  0.31775000  0.62375800  0.71710700  1
  Cu  Cu46  1  0.81775000  0.37624200  0.78289300  1
  Cu  Cu47  1  0.68225000  0.37624200  0.28289300  1
