# generated using pymatgen
data_Cu6Ni2C5
_symmetry_space_group_name_H-M   'P 1'
_cell_length_a   8.73591500
_cell_length_b   15.16758500
_cell_length_c   15.77028700
_cell_angle_alpha   90.00000000
_cell_angle_beta   90.00000000
_cell_angle_gamma   90.00000000
_symmetry_Int_Tables_number   1
_chemical_formula_structural   Cu6Ni2C5
_chemical_formula_sum   'Cu48 Ni16 C40'
_cell_volume   2089.60613267
_cell_formula_units_Z   8
loop_
 _symmetry_equiv_pos_site_id
 _symmetry_equiv_pos_as_xyz
  1  'x, y, z'
loop_
 _atom_site_type_symbol
 _atom_site_label
 _atom_site_symmetry_multiplicity
 _atom_site_fract_x
 _atom_site_fract_y
 _atom_site_fract_z
 _atom_site_occupancy
  C  C0  1  0.25000000  0.55523900  0.34409300  1
  C  C1  1  0.25000000  0.94476100  0.84409300  1
  C  C2  1  0.75000000  0.44476100  0.65590700  1
  C  C3  1  0.75000000  0.05523900  0.15590700  1
  C  C4  1  0.25000000  0.24571300  0.03756500  1
  C  C5  1  0.25000000  0.25428700  0.53756500  1
  C  C6  1  0.75000000  0.75428700  0.96243500  1
  C  C7  1  0.75000000  0.74571300  0.46243500  1
  C  C8  1  0.25000000  0.55521600  0.63142900  1
  C  C9  1  0.25000000  0.94478400  0.13142900  1
  C  C10  1  0.75000000  0.44478400  0.36857100  1
  C  C11  1  0.75000000  0.05521600  0.86857100  1
  C  C12  1  0.09092300  0.68647300  0.71736600  1
  C  C13  1  0.40907700  0.81352700  0.21736600  1
  C  C14  1  0.59092300  0.31352700  0.28263400  1
  C  C15  1  0.90907700  0.18647300  0.78263400  1
  C  C16  1  0.90907700  0.31352700  0.28263400  1
  C  C17  1  0.59092300  0.18647300  0.78263400  1
  C  C18  1  0.40907700  0.68647300  0.71736600  1
  C  C19  1  0.09092300  0.81352700  0.21736600  1
  C  C20  1  0.25000000  0.55552300  0.81481200  1
  C  C21  1  0.25000000  0.94447700  0.31481200  1
  C  C22  1  0.75000000  0.44447700  0.18518800  1
  C  C23  1  0.75000000  0.05552300  0.68518800  1
  C  C24  1  0.25000000  0.42161800  0.80041800  1
  C  C25  1  0.25000000  0.07838200  0.30041800  1
  C  C26  1  0.75000000  0.57838200  0.19958200  1
  C  C27  1  0.75000000  0.92161800  0.69958200  1
  C  C28  1  0.25000000  0.62198100  0.92957000  1
  C  C29  1  0.25000000  0.87801900  0.42957000  1
  C  C30  1  0.75000000  0.37801900  0.07043000  1
  C  C31  1  0.75000000  0.12198100  0.57043000  1
  C  C32  1  0.04970800  0.51506900  0.87026400  1
  C  C33  1  0.45029200  0.98493100  0.37026400  1
  C  C34  1  0.54970800  0.48493100  0.12973600  1
  C  C35  1  0.95029200  0.01506900  0.62973600  1
  C  C36  1  0.95029200  0.48493100  0.12973600  1
  C  C37  1  0.54970800  0.01506900  0.62973600  1
  C  C38  1  0.45029200  0.51506900  0.87026400  1
  C  C39  1  0.04970800  0.98493100  0.37026400  1
  Ni  Ni40  1  0.25000000  0.34604600  0.79122000  1
  Ni  Ni41  1  0.25000000  0.15395400  0.29122000  1
  Ni  Ni42  1  0.75000000  0.65395400  0.20878000  1
  Ni  Ni43  1  0.75000000  0.84604600  0.70878000  1
  Ni  Ni44  1  0.25000000  0.65934300  0.99307100  1
  Ni  Ni45  1  0.25000000  0.84065700  0.49307100  1
  Ni  Ni46  1  0.75000000  0.34065700  0.00692900  1
  Ni  Ni47  1  0.75000000  0.15934300  0.50692900  1
  Ni  Ni48  1  0.93777600  0.49265300  0.90240100  1
  Ni  Ni49  1  0.56222400  0.00734700  0.40240100  1
  Ni  Ni50  1  0.43777600  0.50734700  0.09759900  1
  Ni  Ni51  1  0.06222400  0.99265300  0.59759900  1
  Ni  Ni52  1  0.06222400  0.50734700  0.09759900  1
  Ni  Ni53  1  0.43777600  0.99265300  0.59759900  1
  Ni  Ni54  1  0.56222400  0.49265300  0.90240100  1
  Ni  Ni55  1  0.93777600  0.00734700  0.40240100  1
  Cu  Cu56  1  0.25000000  0.44599100  0.28142800  1
  Cu  Cu57  1  0.25000000  0.05400900  0.78142800  1
  Cu  Cu58  1  0.75000000  0.55400900  0.71857200  1
  Cu  Cu59  1  0.75000000  0.94599100  0.21857200  1
  Cu  Cu60  1  0.25000000  0.66421600  0.40494300  1
  Cu  Cu61  1  0.25000000  0.83578400  0.90494300  1
  Cu  Cu62  1  0.75000000  0.33578400  0.59505700  1
  Cu  Cu63  1  0.75000000  0.16421600  0.09505700  1
  Cu  Cu64  1  0.40491300  0.60188800  0.26946100  1
  Cu  Cu65  1  0.09508700  0.89811200  0.76946100  1
  Cu  Cu66  1  0.90491300  0.39811200  0.73053900  1
  Cu  Cu67  1  0.59508700  0.10188800  0.23053900  1
  Cu  Cu68  1  0.59508700  0.39811200  0.73053900  1
  Cu  Cu69  1  0.90491300  0.10188800  0.23053900  1
  Cu  Cu70  1  0.09508700  0.60188800  0.26946100  1
  Cu  Cu71  1  0.40491300  0.89811200  0.76946100  1
  Cu  Cu72  1  0.40746500  0.50852700  0.41628800  1
  Cu  Cu73  1  0.09253500  0.99147300  0.91628800  1
  Cu  Cu74  1  0.90746500  0.49147300  0.58371200  1
  Cu  Cu75  1  0.59253500  0.00852700  0.08371200  1
  Cu  Cu76  1  0.59253500  0.49147300  0.58371200  1
  Cu  Cu77  1  0.90746500  0.00852700  0.08371200  1
  Cu  Cu78  1  0.09253500  0.50852700  0.41628800  1
  Cu  Cu79  1  0.40746500  0.99147300  0.91628800  1
  Cu  Cu80  1  0.25000000  0.12847200  0.08568200  1
  Cu  Cu81  1  0.25000000  0.37152800  0.58568200  1
  Cu  Cu82  1  0.75000000  0.87152800  0.91431800  1
  Cu  Cu83  1  0.75000000  0.62847200  0.41431800  1
  Cu  Cu84  1  0.25000000  0.36261800  0.99139000  1
  Cu  Cu85  1  0.25000000  0.13738200  0.49139000  1
  Cu  Cu86  1  0.75000000  0.63738200  0.00861000  1
  Cu  Cu87  1  0.75000000  0.86261800  0.50861000  1
  Cu  Cu88  1  0.40484900  0.28041000  0.11837900  1
  Cu  Cu89  1  0.09515100  0.21959000  0.61837900  1
  Cu  Cu90  1  0.90484900  0.71959000  0.88162100  1
  Cu  Cu91  1  0.59515100  0.78041000  0.38162100  1
  Cu  Cu92  1  0.59515100  0.71959000  0.88162100  1
  Cu  Cu93  1  0.90484900  0.78041000  0.38162100  1
  Cu  Cu94  1  0.09515100  0.28041000  0.11837900  1
  Cu  Cu95  1  0.40484900  0.21959000  0.61837900  1
  Cu  Cu96  1  0.09449300  0.21196200  0.95791400  1
  Cu  Cu97  1  0.40550700  0.28803800  0.45791400  1
  Cu  Cu98  1  0.59449300  0.78803800  0.04208600  1
  Cu  Cu99  1  0.90550700  0.71196200  0.54208600  1
  Cu  Cu100  1  0.90550700  0.78803800  0.04208600  1
  Cu  Cu101  1  0.59449300  0.71196200  0.54208600  1
  Cu  Cu102  1  0.40550700  0.21196200  0.95791400  1
  Cu  Cu103  1  0.09449300  0.28803800  0.45791400  1
