# generated using pymatgen
data_Cu4Ni3C20
_symmetry_space_group_name_H-M   'P 1'
_cell_length_a   7.84327177
_cell_length_b   7.84327177
_cell_length_c   7.80441201
_cell_angle_alpha   68.85407240
_cell_angle_beta   68.85407240
_cell_angle_gamma   106.30393880
_symmetry_Int_Tables_number   1
_chemical_formula_structural   Cu4Ni3C20
_chemical_formula_sum   'Cu4 Ni3 C20'
_cell_volume   368.10142628
_cell_formula_units_Z   1
loop_
 _symmetry_equiv_pos_site_id
 _symmetry_equiv_pos_as_xyz
  1  'x, y, z'
loop_
 _atom_site_type_symbol
 _atom_site_label
 _atom_site_symmetry_multiplicity
 _atom_site_fract_x
 _atom_site_fract_y
 _atom_site_fract_z
 _atom_site_occupancy
  C  C0  1  0.60658300  0.10500800  0.00021200  1
  C  C1  1  0.10500800  0.60658300  0.00021200  1
  Ni  Ni2  1  0.38589900  0.38589900  0.28658700  1
  Ni  Ni3  1  0.64952500  0.88724900  0.50022400  1
  Ni  Ni4  1  0.88724900  0.64952500  0.50022400  1
  Cu  Cu5  1  0.30726800  0.92941600  0.50007100  1
  Cu  Cu6  1  0.81778100  0.81778100  0.10407000  1
  Cu  Cu7  1  0.42162900  0.42162900  0.88230700  1
  Cu  Cu8  1  0.92941600  0.30726800  0.50007100  1
  C  C9  1  0.93594800  0.43448100  0.00153000  1
  C  C10  1  0.12904600  0.34518300  0.49728000  1
  C  C11  1  0.01770900  0.81132100  0.96869200  1
  C  C12  1  0.81132100  0.01770900  0.96869200  1
  C  C13  1  0.78472100  0.32143600  0.69571500  1
  C  C14  1  0.43448100  0.93594800  0.00153000  1
  C  C15  1  0.48719300  0.28762300  0.03443200  1
  C  C16  1  0.62629500  0.62629500  0.18782100  1
  C  C17  1  0.63053900  0.63053900  0.71288100  1
  C  C18  1  0.28762300  0.48719300  0.03443200  1
  C  C19  1  0.81524400  0.11893700  0.50001100  1
  C  C20  1  0.32143600  0.78472100  0.69571500  1
  C  C21  1  0.51616700  0.97714700  0.30360600  1
  C  C22  1  0.34518300  0.12904600  0.49728000  1
  C  C23  1  0.97714700  0.51616700  0.30360600  1
  C  C24  1  0.84370800  0.84370800  0.28325700  1
  C  C25  1  0.31497500  0.31497500  0.80149200  1
  C  C26  1  0.11893700  0.81524400  0.50001100  1
