# generated using pymatgen
data_CuNi5C8
_symmetry_space_group_name_H-M   'P 1'
_cell_length_a   6.23151281
_cell_length_b   6.23151281
_cell_length_c   5.98507364
_cell_angle_alpha   61.56119344
_cell_angle_beta   61.56119344
_cell_angle_gamma   57.11593563
_symmetry_Int_Tables_number   1
_chemical_formula_structural   CuNi5C8
_chemical_formula_sum   'Cu1 Ni5 C8'
_cell_volume   163.99491957
_cell_formula_units_Z   1
loop_
 _symmetry_equiv_pos_site_id
 _symmetry_equiv_pos_as_xyz
  1  'x, y, z'
loop_
 _atom_site_type_symbol
 _atom_site_label
 _atom_site_symmetry_multiplicity
 _atom_site_fract_x
 _atom_site_fract_y
 _atom_site_fract_z
 _atom_site_occupancy
  Ni  Ni0  1  0.62813300  0.62813300  0.11835200  1
  Ni  Ni1  1  0.37186700  0.37186700  0.88164800  1
  Ni  Ni2  1  0.00000000  0.00000000  0.00000000  1
  Ni  Ni3  1  0.50000000  0.00000000  0.50000000  1
  Ni  Ni4  1  0.00000000  0.50000000  0.50000000  1
  Cu  Cu5  1  0.00000000  0.00000000  0.50000000  1
  C  C6  1  0.22313500  0.22313500  0.29773600  1
  C  C7  1  0.24952200  0.24952200  0.71430500  1
  C  C8  1  0.75047800  0.75047800  0.28569500  1
  C  C9  1  0.77686500  0.77686500  0.70226400  1
  C  C10  1  0.22957700  0.78291800  0.75098900  1
  C  C11  1  0.78291800  0.22957700  0.75098900  1
  C  C12  1  0.21708200  0.77042300  0.24901100  1
  C  C13  1  0.77042300  0.21708200  0.24901100  1
