# generated using pymatgen
data_Cu4NiC16
_symmetry_space_group_name_H-M   'P 1'
_cell_length_a   8.31037500
_cell_length_b   7.03287200
_cell_length_c   9.06504791
_cell_angle_alpha   65.25893317
_cell_angle_beta   90.00000000
_cell_angle_gamma   90.00000000
_symmetry_Int_Tables_number   1
_chemical_formula_structural   Cu4NiC16
_chemical_formula_sum   'Cu8 Ni2 C32'
_cell_volume   481.18155447
_cell_formula_units_Z   2
loop_
 _symmetry_equiv_pos_site_id
 _symmetry_equiv_pos_as_xyz
  1  'x, y, z'
loop_
 _atom_site_type_symbol
 _atom_site_label
 _atom_site_symmetry_multiplicity
 _atom_site_fract_x
 _atom_site_fract_y
 _atom_site_fract_z
 _atom_site_occupancy
  Ni  Ni0  1  0.69563500  0.30081300  0.33109700  1
  Ni  Ni1  1  0.30436500  0.30081300  0.83109700  1
  C  C2  1  0.32446100  0.24707300  0.37205600  1
  C  C3  1  0.15787000  0.77848800  0.61109200  1
  C  C4  1  0.84213000  0.77848800  0.11109200  1
  C  C5  1  0.67553900  0.24707300  0.87205600  1
  Cu  Cu6  1  0.98220700  0.06325600  0.75923400  1
  Cu  Cu7  1  0.48050900  0.53223700  0.03290700  1
  Cu  Cu8  1  0.01779300  0.06325600  0.25923400  1
  Cu  Cu9  1  0.51949100  0.53223700  0.53290700  1
  Cu  Cu10  1  0.48223400  0.94464800  0.73705500  1
  Cu  Cu11  1  0.99171700  0.46225400  0.46568300  1
  Cu  Cu12  1  0.00828300  0.46225400  0.96568300  1
  Cu  Cu13  1  0.51776600  0.94464800  0.23705500  1
  C  C14  1  0.41791400  0.74393300  0.89632300  1
  C  C15  1  0.86587300  0.11788900  0.32119700  1
  C  C16  1  0.13412700  0.11788900  0.82119700  1
  C  C17  1  0.64129400  0.56044500  0.10452500  1
  C  C18  1  0.08816000  0.25761300  0.10599400  1
  C  C19  1  0.33496300  0.98548400  0.61770900  1
  C  C20  1  0.85291700  0.39678200  0.91398300  1
  C  C21  1  0.34395500  0.46502000  0.15950300  1
  C  C22  1  0.50692700  0.37327000  0.45394800  1
  C  C23  1  0.16056900  0.01490000  0.38135600  1
  C  C24  1  0.66503700  0.98548400  0.11770900  1
  C  C25  1  0.99738500  0.88982500  0.20083300  1
  C  C26  1  0.51420600  0.11714300  0.30448500  1
  C  C27  1  0.58208600  0.74393300  0.39632300  1
  C  C28  1  0.83943100  0.01490000  0.88135600  1
  C  C29  1  0.36406500  0.90531400  0.17368200  1
  C  C30  1  0.48579400  0.11714300  0.80448500  1
  C  C31  1  0.14785500  0.52347200  0.84098300  1
  C  C32  1  0.49307300  0.37327000  0.95394800  1
  C  C33  1  0.98267800  0.62267800  0.03515700  1
  C  C34  1  0.14708300  0.39678200  0.41398300  1
  C  C35  1  0.65604500  0.46502000  0.65950300  1
  C  C36  1  0.85214500  0.52347200  0.34098300  1
  C  C37  1  0.63593500  0.90531400  0.67368200  1
  C  C38  1  0.00261500  0.88982500  0.70083300  1
  C  C39  1  0.35870600  0.56044500  0.60452500  1
  C  C40  1  0.01732200  0.62267800  0.53515700  1
  C  C41  1  0.91184000  0.25761300  0.60599400  1
