# generated using pymatgen
data_CuNi3C2
_symmetry_space_group_name_H-M   'P 1'
_cell_length_a   3.49503963
_cell_length_b   3.49503963
_cell_length_c   40.60914700
_cell_angle_alpha   90.00000000
_cell_angle_beta   90.00000000
_cell_angle_gamma   119.99999300
_symmetry_Int_Tables_number   1
_chemical_formula_structural   CuNi3C2
_chemical_formula_sum   'Cu2 Ni6 C4'
_cell_volume   429.59452577
_cell_formula_units_Z   2
loop_
 _symmetry_equiv_pos_site_id
 _symmetry_equiv_pos_as_xyz
  1  'x, y, z'
loop_
 _atom_site_type_symbol
 _atom_site_label
 _atom_site_symmetry_multiplicity
 _atom_site_fract_x
 _atom_site_fract_y
 _atom_site_fract_z
 _atom_site_occupancy
  Ni  Ni0  1  0.00000000  0.00000000  0.32696900  1
  Ni  Ni1  1  0.33333300  0.66666700  0.04880100  1
  Ni  Ni2  1  0.33333300  0.66666700  0.42428700  1
  Ni  Ni3  1  0.33333300  0.66666700  0.13909100  1
  Ni  Ni4  1  0.33333300  0.66666700  0.51504600  1
  Ni  Ni5  1  0.00000000  0.00000000  0.23663700  1
  C  C6  1  0.00000000  0.00000000  0.09392400  1
  C  C7  1  0.33333300  0.66666700  0.28180000  1
  C  C8  1  0.00000000  0.00000000  0.46967400  1
  C  C9  1  0.33333300  0.66666700  0.65751200  1
  Cu  Cu10  1  0.00000000  0.00000000  0.69749600  1
  Cu  Cu11  1  0.00000000  0.00000000  0.61751100  1
