# generated using pymatgen
data_Cu7Ni4C23
_symmetry_space_group_name_H-M   'P 1'
_cell_length_a   10.01704902
_cell_length_b   10.01704902
_cell_length_c   22.63074708
_cell_angle_alpha   90.00000000
_cell_angle_beta   90.00000000
_cell_angle_gamma   120.00000158
_symmetry_Int_Tables_number   1
_chemical_formula_structural   Cu7Ni4C23
_chemical_formula_sum   'Cu14 Ni8 C46'
_cell_volume   1966.56866010
_cell_formula_units_Z   2
loop_
 _symmetry_equiv_pos_site_id
 _symmetry_equiv_pos_as_xyz
  1  'x, y, z'
loop_
 _atom_site_type_symbol
 _atom_site_label
 _atom_site_symmetry_multiplicity
 _atom_site_fract_x
 _atom_site_fract_y
 _atom_site_fract_z
 _atom_site_occupancy
  C  C0  1  0.20664064  0.41328127  0.72022536  1
  C  C1  1  0.20664064  0.79335936  0.72022536  1
  C  C2  1  0.79335936  0.58671873  0.22022536  1
  C  C3  1  0.58671873  0.79335936  0.72022536  1
  C  C4  1  0.79335936  0.20664064  0.22022536  1
  C  C5  1  0.41328127  0.20664064  0.22022536  1
  C  C6  1  0.79337688  0.58675375  0.94625786  1
  C  C7  1  0.79337688  0.20662312  0.94625786  1
  C  C8  1  0.20662312  0.41324625  0.44625786  1
  C  C9  1  0.41324625  0.20662312  0.94625786  1
  C  C10  1  0.20662312  0.79337688  0.44625786  1
  C  C11  1  0.58675375  0.79337688  0.44625786  1
  C  C12  1  0.21220978  0.42441956  0.98984886  1
  C  C13  1  0.21220978  0.78779022  0.98984886  1
  C  C14  1  0.78779022  0.57558044  0.48984886  1
  C  C15  1  0.57558044  0.78779022  0.98984886  1
  C  C16  1  0.78779022  0.21220978  0.48984886  1
  C  C17  1  0.42441956  0.21220978  0.48984886  1
  C  C18  1  0.86985532  0.73971064  0.63520449  1
  C  C19  1  0.86985532  0.13014468  0.63520449  1
  C  C20  1  0.13014468  0.26028936  0.13520449  1
  C  C21  1  0.26028936  0.13014468  0.63520449  1
  C  C22  1  0.13014468  0.86985532  0.13520449  1
  C  C23  1  0.73971064  0.86985532  0.13520449  1
  C  C24  1  0.45605125  0.91210251  0.85675207  1
  C  C25  1  0.45605125  0.54394875  0.85675207  1
  C  C26  1  0.54394875  0.08789749  0.35675207  1
  C  C27  1  0.08789749  0.54394875  0.85675207  1
  C  C28  1  0.54394875  0.45605125  0.35675207  1
  C  C29  1  0.91210251  0.45605125  0.35675207  1
  C  C30  1  -0.00000000  0.00000000  0.99867327  1
  C  C31  1  -0.00000000  0.00000000  0.49867327  1
  C  C32  1  0.46188857  0.92377713  0.58509881  1
  C  C33  1  0.46188857  0.53811143  0.58509881  1
  C  C34  1  0.53811143  0.07622287  0.08509881  1
  C  C35  1  0.07622287  0.53811143  0.58509881  1
  C  C36  1  0.53811143  0.46188857  0.08509881  1
  C  C37  1  0.92377713  0.46188857  0.08509881  1
  C  C38  1  0.79918824  0.59837648  0.78289546  1
  C  C39  1  0.79918824  0.20081176  0.78289546  1
  C  C40  1  0.20081176  0.40162352  0.28289546  1
  C  C41  1  0.40162352  0.20081176  0.78289546  1
  C  C42  1  0.20081176  0.79918824  0.28289546  1
  C  C43  1  0.59837648  0.79918824  0.28289546  1
  C  C44  1  0.66666700  0.33333300  0.64185598  1
  C  C45  1  0.33333300  0.66666700  0.14185598  1
  Ni  Ni46  1  -0.00000000  0.00000000  0.74937629  1
  Ni  Ni47  1  -0.00000000  0.00000000  0.24937629  1
  Ni  Ni48  1  0.10634579  0.21269158  0.86352506  1
  Ni  Ni49  1  0.10634579  0.89365421  0.86352506  1
  Ni  Ni50  1  0.89365421  0.78730842  0.36352506  1
  Ni  Ni51  1  0.78730842  0.89365421  0.86352506  1
  Ni  Ni52  1  0.89365421  0.10634579  0.36352506  1
  Ni  Ni53  1  0.21269158  0.10634579  0.36352506  1
  Cu  Cu54  1  0.52264470  0.04528941  0.71026461  1
  Cu  Cu55  1  0.52264470  0.47735530  0.71026461  1
  Cu  Cu56  1  0.47735530  0.95471059  0.21026461  1
  Cu  Cu57  1  0.95471059  0.47735530  0.71026461  1
  Cu  Cu58  1  0.47735530  0.52264470  0.21026461  1
  Cu  Cu59  1  0.04528941  0.52264470  0.21026461  1
  Cu  Cu60  1  0.66666700  0.33333300  0.86160768  1
  Cu  Cu61  1  0.33333300  0.66666700  0.36160768  1
  Cu  Cu62  1  0.14368676  0.28737352  0.56499634  1
  Cu  Cu63  1  0.14368676  0.85631324  0.56499634  1
  Cu  Cu64  1  0.85631324  0.71262648  0.06499634  1
  Cu  Cu65  1  0.71262648  0.85631324  0.56499634  1
  Cu  Cu66  1  0.85631324  0.14368676  0.06499634  1
  Cu  Cu67  1  0.28737352  0.14368676  0.06499634  1
