# generated using pymatgen
data_Cu15Ni5C3
_symmetry_space_group_name_H-M   'P 1'
_cell_length_a   9.01442800
_cell_length_b   10.54785700
_cell_length_c   11.77291100
_cell_angle_alpha   90.00000000
_cell_angle_beta   90.00000000
_cell_angle_gamma   90.00000000
_symmetry_Int_Tables_number   1
_chemical_formula_structural   Cu15Ni5C3
_chemical_formula_sum   'Cu60 Ni20 C12'
_cell_volume   1119.40248966
_cell_formula_units_Z   4
loop_
 _symmetry_equiv_pos_site_id
 _symmetry_equiv_pos_as_xyz
  1  'x, y, z'
loop_
 _atom_site_type_symbol
 _atom_site_label
 _atom_site_symmetry_multiplicity
 _atom_site_fract_x
 _atom_site_fract_y
 _atom_site_fract_z
 _atom_site_occupancy
  C  C0  1  0.11704900  0.22815500  0.32100000  1
  C  C1  1  0.88295100  0.77184500  0.67900000  1
  C  C2  1  0.88295100  0.77184500  0.32100000  1
  C  C3  1  0.38295100  0.72815500  0.17900000  1
  C  C4  1  0.11704900  0.22815500  0.67900000  1
  C  C5  1  0.61704900  0.27184500  0.82100000  1
  C  C6  1  0.61704900  0.27184500  0.17900000  1
  C  C7  1  0.38295100  0.72815500  0.82100000  1
  C  C8  1  0.00000000  0.00000000  0.00000000  1
  C  C9  1  0.50000000  0.50000000  0.50000000  1
  C  C10  1  0.00000000  0.50000000  0.00000000  1
  C  C11  1  0.50000000  0.00000000  0.50000000  1
  Ni  Ni12  1  0.00000000  0.00000000  0.25881900  1
  Ni  Ni13  1  0.00000000  0.00000000  0.74118100  1
  Ni  Ni14  1  0.50000000  0.50000000  0.24118100  1
  Ni  Ni15  1  0.50000000  0.50000000  0.75881900  1
  Ni  Ni16  1  0.17328700  0.24908800  0.00000000  1
  Ni  Ni17  1  0.82671300  0.75091200  0.00000000  1
  Ni  Ni18  1  0.32671300  0.74908800  0.50000000  1
  Ni  Ni19  1  0.67328700  0.25091200  0.50000000  1
  Ni  Ni20  1  0.40054000  0.15412300  0.29222300  1
  Ni  Ni21  1  0.59946000  0.84587700  0.70777700  1
  Ni  Ni22  1  0.59946000  0.84587700  0.29222300  1
  Ni  Ni23  1  0.09946000  0.65412300  0.20777700  1
  Ni  Ni24  1  0.40054000  0.15412300  0.70777700  1
  Ni  Ni25  1  0.90054000  0.34587700  0.79222300  1
  Ni  Ni26  1  0.90054000  0.34587700  0.20777700  1
  Ni  Ni27  1  0.09946000  0.65412300  0.79222300  1
  Ni  Ni28  1  0.70749100  0.14606300  0.00000000  1
  Ni  Ni29  1  0.29250900  0.85393700  0.00000000  1
  Ni  Ni30  1  0.79250900  0.64606300  0.50000000  1
  Ni  Ni31  1  0.20749100  0.35393700  0.50000000  1
  Cu  Cu32  1  0.31275800  0.11128300  0.36950700  1
  Cu  Cu33  1  0.68724200  0.88871700  0.63049300  1
  Cu  Cu34  1  0.68724200  0.88871700  0.36950700  1
  Cu  Cu35  1  0.18724200  0.61128300  0.13049300  1
  Cu  Cu36  1  0.31275800  0.11128300  0.63049300  1
  Cu  Cu37  1  0.81275800  0.38871700  0.86950700  1
  Cu  Cu38  1  0.81275800  0.38871700  0.13049300  1
  Cu  Cu39  1  0.18724200  0.61128300  0.86950700  1
  Cu  Cu40  1  0.02878100  0.24672900  0.00000000  1
  Cu  Cu41  1  0.97121900  0.75327100  0.00000000  1
  Cu  Cu42  1  0.47121900  0.74672900  0.50000000  1
  Cu  Cu43  1  0.52878100  0.25327100  0.50000000  1
  Cu  Cu44  1  0.03752500  0.37493300  0.20076000  1
  Cu  Cu45  1  0.96247500  0.62506700  0.79924000  1
  Cu  Cu46  1  0.96247500  0.62506700  0.20076000  1
  Cu  Cu47  1  0.46247500  0.87493300  0.29924000  1
  Cu  Cu48  1  0.03752500  0.37493300  0.79924000  1
  Cu  Cu49  1  0.53752500  0.12506700  0.70076000  1
  Cu  Cu50  1  0.53752500  0.12506700  0.29924000  1
  Cu  Cu51  1  0.46247500  0.87493300  0.70076000  1
  Cu  Cu52  1  0.23968900  0.14513400  0.00000000  1
  Cu  Cu53  1  0.76031100  0.85486600  0.00000000  1
  Cu  Cu54  1  0.26031100  0.64513400  0.50000000  1
  Cu  Cu55  1  0.73968900  0.35486600  0.50000000  1
  Cu  Cu56  1  0.59722900  0.21922100  0.00000000  1
  Cu  Cu57  1  0.40277100  0.78077900  0.00000000  1
  Cu  Cu58  1  0.90277100  0.71922100  0.50000000  1
  Cu  Cu59  1  0.09722900  0.28077900  0.50000000  1
  Cu  Cu60  1  0.00000000  0.00000000  0.36334600  1
  Cu  Cu61  1  0.00000000  0.00000000  0.63665400  1
  Cu  Cu62  1  0.50000000  0.50000000  0.13665400  1
  Cu  Cu63  1  0.50000000  0.50000000  0.86334600  1
  Cu  Cu64  1  0.23589300  0.35517000  0.00000000  1
  Cu  Cu65  1  0.76410700  0.64483000  0.00000000  1
  Cu  Cu66  1  0.26410700  0.85517000  0.50000000  1
  Cu  Cu67  1  0.73589300  0.14483000  0.50000000  1
  Cu  Cu68  1  0.26590800  0.39015700  0.40718800  1
  Cu  Cu69  1  0.73409200  0.60984300  0.59281200  1
  Cu  Cu70  1  0.73409200  0.60984300  0.40718800  1
  Cu  Cu71  1  0.23409200  0.89015700  0.09281200  1
  Cu  Cu72  1  0.26590800  0.39015700  0.59281200  1
  Cu  Cu73  1  0.76590800  0.10984300  0.90718800  1
  Cu  Cu74  1  0.76590800  0.10984300  0.09281200  1
  Cu  Cu75  1  0.23409200  0.89015700  0.90718800  1
  Cu  Cu76  1  0.05812000  0.09043900  0.20043300  1
  Cu  Cu77  1  0.94188000  0.90956100  0.79956700  1
  Cu  Cu78  1  0.94188000  0.90956100  0.20043300  1
  Cu  Cu79  1  0.44188000  0.59043900  0.29956700  1
  Cu  Cu80  1  0.05812000  0.09043900  0.79956700  1
  Cu  Cu81  1  0.55812000  0.40956100  0.70043300  1
  Cu  Cu82  1  0.55812000  0.40956100  0.29956700  1
  Cu  Cu83  1  0.44188000  0.59043900  0.70043300  1
  Cu  Cu84  1  0.35339700  0.22397700  0.21535200  1
  Cu  Cu85  1  0.64660300  0.77602300  0.78464800  1
  Cu  Cu86  1  0.64660300  0.77602300  0.21535200  1
  Cu  Cu87  1  0.14660300  0.72397700  0.28464800  1
  Cu  Cu88  1  0.35339700  0.22397700  0.78464800  1
  Cu  Cu89  1  0.85339700  0.27602300  0.71535200  1
  Cu  Cu90  1  0.85339700  0.27602300  0.28464800  1
  Cu  Cu91  1  0.14660300  0.72397700  0.71535200  1
