# generated using pymatgen
data_Cu12NiC12
_symmetry_space_group_name_H-M   'P 1'
_cell_length_a   6.24244700
_cell_length_b   7.22341000
_cell_length_c   11.24913300
_cell_angle_alpha   90.00000000
_cell_angle_beta   90.00000000
_cell_angle_gamma   90.00000000
_symmetry_Int_Tables_number   1
_chemical_formula_structural   Cu12NiC12
_chemical_formula_sum   'Cu24 Ni2 C24'
_cell_volume   507.24313890
_cell_formula_units_Z   2
loop_
 _symmetry_equiv_pos_site_id
 _symmetry_equiv_pos_as_xyz
  1  'x, y, z'
loop_
 _atom_site_type_symbol
 _atom_site_label
 _atom_site_symmetry_multiplicity
 _atom_site_fract_x
 _atom_site_fract_y
 _atom_site_fract_z
 _atom_site_occupancy
  C  C0  1  0.38471400  0.50000000  0.20599500  1
  C  C1  1  0.61528600  0.00000000  0.70599500  1
  C  C2  1  0.62884400  0.00000000  0.37855600  1
  C  C3  1  0.37115600  0.50000000  0.87855600  1
  Ni  Ni4  1  0.99305400  0.50000000  0.49196700  1
  Ni  Ni5  1  0.00694600  0.00000000  0.99196700  1
  Cu  Cu6  1  0.98886600  0.11209900  0.50339000  1
  Cu  Cu7  1  0.98886600  0.88790100  0.50339000  1
  Cu  Cu8  1  0.01113400  0.38790100  0.00339000  1
  Cu  Cu9  1  0.01113400  0.61209900  0.00339000  1
  Cu  Cu10  1  0.29245600  0.89865500  0.23530600  1
  Cu  Cu11  1  0.29245600  0.10134500  0.23530600  1
  Cu  Cu12  1  0.70754400  0.60134500  0.73530600  1
  Cu  Cu13  1  0.70754400  0.39865500  0.73530600  1
  Cu  Cu14  1  0.82762200  0.31800900  0.29648600  1
  Cu  Cu15  1  0.82762200  0.68199100  0.29648600  1
  Cu  Cu16  1  0.17237800  0.18199100  0.79648600  1
  Cu  Cu17  1  0.17237800  0.81800900  0.79648600  1
  Cu  Cu18  1  0.79426300  0.19603200  0.18126200  1
  Cu  Cu19  1  0.79426300  0.80396800  0.18126200  1
  Cu  Cu20  1  0.20573700  0.30396800  0.68126200  1
  Cu  Cu21  1  0.20573700  0.69603200  0.68126200  1
  Cu  Cu22  1  0.59679100  0.32198500  0.50737300  1
  Cu  Cu23  1  0.59679100  0.67801500  0.50737300  1
  Cu  Cu24  1  0.40320900  0.17801500  0.00737300  1
  Cu  Cu25  1  0.40320900  0.82198500  0.00737300  1
  Cu  Cu26  1  0.35341800  0.24737500  0.50057700  1
  Cu  Cu27  1  0.35341800  0.75262500  0.50057700  1
  Cu  Cu28  1  0.64658200  0.25262500  0.00057700  1
  Cu  Cu29  1  0.64658200  0.74737500  0.00057700  1
  C  C30  1  0.99153800  0.50000000  0.33897900  1
  C  C31  1  0.00846200  0.00000000  0.83897900  1
  C  C32  1  0.73537900  0.50000000  0.54769300  1
  C  C33  1  0.26462100  0.00000000  0.04769300  1
  C  C34  1  0.11983800  0.30390400  0.54439400  1
  C  C35  1  0.11983800  0.69609600  0.54439400  1
  C  C36  1  0.88016200  0.19609600  0.04439400  1
  C  C37  1  0.88016200  0.80390400  0.04439400  1
  C  C38  1  0.73100400  0.21941000  0.26286100  1
  C  C39  1  0.73100400  0.78059000  0.26286100  1
  C  C40  1  0.26899600  0.28059000  0.76286100  1
  C  C41  1  0.26899600  0.71941000  0.76286100  1
  C  C42  1  0.50776000  0.20873800  0.48805400  1
  C  C43  1  0.50776000  0.79126200  0.48805400  1
  C  C44  1  0.49224000  0.29126200  0.98805400  1
  C  C45  1  0.49224000  0.70873800  0.98805400  1
  C  C46  1  0.32321000  0.00000000  0.28987900  1
  C  C47  1  0.67679000  0.50000000  0.78987900  1
  C  C48  1  0.89613700  0.00000000  0.49054800  1
  C  C49  1  0.10386300  0.50000000  0.99054800  1
