# generated using pymatgen
data_Cu2(NiC3)3
_symmetry_space_group_name_H-M   'P 1'
_cell_length_a   10.38069200
_cell_length_b   4.84815400
_cell_length_c   7.75121021
_cell_angle_alpha   51.57419883
_cell_angle_beta   90.00000000
_cell_angle_gamma   90.00000000
_symmetry_Int_Tables_number   1
_chemical_formula_structural   Cu2(NiC3)3
_chemical_formula_sum   'Cu4 Ni6 C18'
_cell_volume   305.60705077
_cell_formula_units_Z   2
loop_
 _symmetry_equiv_pos_site_id
 _symmetry_equiv_pos_as_xyz
  1  'x, y, z'
loop_
 _atom_site_type_symbol
 _atom_site_label
 _atom_site_symmetry_multiplicity
 _atom_site_fract_x
 _atom_site_fract_y
 _atom_site_fract_z
 _atom_site_occupancy
  Ni  Ni0  1  0.50000000  0.00000000  0.50000000  1
  Ni  Ni1  1  0.00000000  0.00000000  0.00000000  1
  Ni  Ni2  1  0.77760500  0.25961100  0.24943000  1
  Ni  Ni3  1  0.27760500  0.74038900  0.25057000  1
  Ni  Ni4  1  0.22239500  0.74038900  0.75057000  1
  Ni  Ni5  1  0.72239500  0.25961100  0.74943000  1
  C  C6  1  0.50000000  0.50000000  0.00000000  1
  C  C7  1  0.00000000  0.50000000  0.50000000  1
  Cu  Cu8  1  0.59505200  0.82290100  0.25107200  1
  Cu  Cu9  1  0.09505200  0.17709900  0.24892800  1
  Cu  Cu10  1  0.40494800  0.17709900  0.74892800  1
  Cu  Cu11  1  0.90494800  0.82290100  0.75107200  1
  C  C12  1  0.59332000  0.48217000  0.25277600  1
  C  C13  1  0.09332000  0.51783000  0.24722400  1
  C  C14  1  0.40668000  0.51783000  0.74722400  1
  C  C15  1  0.90668000  0.48217000  0.75277600  1
  C  C16  1  0.94762800  0.03996500  0.24628200  1
  C  C17  1  0.44762800  0.96003500  0.25371800  1
  C  C18  1  0.05237200  0.96003500  0.75371800  1
  C  C19  1  0.55237200  0.03996500  0.74628200  1
  C  C20  1  0.66619400  0.17965900  0.03549700  1
  C  C21  1  0.16619400  0.82034100  0.46450300  1
  C  C22  1  0.33654600  0.24351200  0.53326900  1
  C  C23  1  0.83654600  0.75648800  0.96673100  1
  C  C24  1  0.33380600  0.82034100  0.96450300  1
  C  C25  1  0.83380600  0.17965900  0.53549700  1
  C  C26  1  0.66345400  0.75648800  0.46673100  1
  C  C27  1  0.16345400  0.24351200  0.03326900  1
