# generated using pymatgen
data_Cu4Ni2C5
_symmetry_space_group_name_H-M   'P 1'
_cell_length_a   8.26694200
_cell_length_b   12.50434455
_cell_length_c   12.50434497
_cell_angle_alpha   115.28696681
_cell_angle_beta   102.73106879
_cell_angle_gamma   102.73106922
_symmetry_Int_Tables_number   1
_chemical_formula_structural   Cu4Ni2C5
_chemical_formula_sum   'Cu24 Ni12 C30'
_cell_volume   1065.06575786
_cell_formula_units_Z   6
loop_
 _symmetry_equiv_pos_site_id
 _symmetry_equiv_pos_as_xyz
  1  'x, y, z'
loop_
 _atom_site_type_symbol
 _atom_site_label
 _atom_site_symmetry_multiplicity
 _atom_site_fract_x
 _atom_site_fract_y
 _atom_site_fract_z
 _atom_site_occupancy
  C  C0  1  0.42329600  0.76109300  0.43874300  1
  C  C1  1  0.98455200  0.56125700  0.32235000  1
  C  C2  1  0.66220300  0.67765000  0.23890700  1
  C  C3  1  0.57670400  0.23890700  0.56125700  1
  C  C4  1  0.01544800  0.43874300  0.67765000  1
  C  C5  1  0.33779700  0.32235000  0.76109300  1
  Ni  Ni6  1  0.82450000  0.74590700  0.54638900  1
  Ni  Ni7  1  0.27811100  0.45361100  0.19951800  1
  Ni  Ni8  1  0.07859300  0.80048200  0.25409300  1
  Ni  Ni9  1  0.17550000  0.25409300  0.45361100  1
  Ni  Ni10  1  0.72188900  0.54638900  0.80048200  1
  Ni  Ni11  1  0.92140700  0.19951800  0.74590700  1
  Ni  Ni12  1  0.33664800  0.02266900  0.62557400  1
  Ni  Ni13  1  0.71107400  0.37442600  0.39709500  1
  Ni  Ni14  1  0.31397900  0.60290500  0.97733100  1
  Ni  Ni15  1  0.66335200  0.97733100  0.37442600  1
  Ni  Ni16  1  0.28892600  0.62557400  0.60290500  1
  Ni  Ni17  1  0.68602100  0.39709500  0.02266900  1
  Cu  Cu18  1  0.88760100  0.68703000  0.61305000  1
  Cu  Cu19  1  0.27455200  0.38695000  0.07398000  1
  Cu  Cu20  1  0.20057100  0.92602000  0.31297000  1
  Cu  Cu21  1  0.11239900  0.31297000  0.38695000  1
  Cu  Cu22  1  0.72544800  0.61305000  0.92602000  1
  Cu  Cu23  1  0.79942900  0.07398000  0.68703000  1
  Cu  Cu24  1  0.95016700  0.87174100  0.61734200  1
  Cu  Cu25  1  0.33282500  0.38265800  0.25439900  1
  Cu  Cu26  1  0.07842600  0.74560100  0.12825900  1
  Cu  Cu27  1  0.04983300  0.12825900  0.38265800  1
  Cu  Cu28  1  0.66717500  0.61734200  0.74560100  1
  Cu  Cu29  1  0.92157400  0.25439900  0.87174100  1
  Cu  Cu30  1  0.15815400  0.96023700  0.54011800  1
  Cu  Cu31  1  0.61803600  0.45988200  0.42011900  1
  Cu  Cu32  1  0.19791700  0.57988100  0.03976300  1
  Cu  Cu33  1  0.84184600  0.03976300  0.45988200  1
  Cu  Cu34  1  0.38196400  0.54011800  0.57988100  1
  Cu  Cu35  1  0.80208300  0.42011900  0.96023700  1
  Cu  Cu36  1  0.32454000  0.04121600  0.74304700  1
  Cu  Cu37  1  0.58149200  0.25695300  0.29816900  1
  Cu  Cu38  1  0.28332400  0.70183100  0.95878400  1
  Cu  Cu39  1  0.67546000  0.95878400  0.25695300  1
  Cu  Cu40  1  0.41850800  0.74304700  0.70183100  1
  Cu  Cu41  1  0.71667600  0.29816900  0.04121600  1
  C  C42  1  0.64438800  0.74864000  0.55317200  1
  C  C43  1  0.09121500  0.44682800  0.19546800  1
  C  C44  1  0.89574700  0.80453200  0.25136000  1
  C  C45  1  0.35561200  0.25136000  0.44682800  1
  C  C46  1  0.90878500  0.55317200  0.80453200  1
  C  C47  1  0.10425300  0.19546800  0.74864000  1
  C  C48  1  0.83877600  0.68333300  0.41481300  1
  C  C49  1  0.42396300  0.58518700  0.26852000  1
  C  C50  1  0.15544200  0.73148000  0.31666700  1
  C  C51  1  0.16122400  0.31666700  0.58518700  1
  C  C52  1  0.57603700  0.41481300  0.73148000  1
  C  C53  1  0.84455800  0.26852000  0.68333300  1
  C  C54  1  0.44103600  0.93659700  0.58541800  1
  C  C55  1  0.85561700  0.41458200  0.35117800  1
  C  C56  1  0.50443900  0.64882200  0.06340300  1
  C  C57  1  0.55896400  0.06340300  0.41458200  1
  C  C58  1  0.14438300  0.58541800  0.64882200  1
  C  C59  1  0.49556100  0.35117800  0.93659700  1
  C  C60  1  0.40585200  0.15460200  0.63999700  1
  C  C61  1  0.76585500  0.36000300  0.51460400  1
  C  C62  1  0.25125100  0.48539600  0.84539800  1
  C  C63  1  0.59414800  0.84539800  0.36000300  1
  C  C64  1  0.23414500  0.63999700  0.48539600  1
  C  C65  1  0.74874900  0.51460400  0.15460200  1
