# generated using pymatgen
data_Cu(NiC11)2
_symmetry_space_group_name_H-M   'P 1'
_cell_length_a   12.37905590
_cell_length_b   12.15060978
_cell_length_c   8.33997856
_cell_angle_alpha   71.60642799
_cell_angle_beta   68.65410782
_cell_angle_gamma   39.73946420
_symmetry_Int_Tables_number   1
_chemical_formula_structural   Cu(NiC11)2
_chemical_formula_sum   'Cu2 Ni4 C44'
_cell_volume   745.60762910
_cell_formula_units_Z   2
loop_
 _symmetry_equiv_pos_site_id
 _symmetry_equiv_pos_as_xyz
  1  'x, y, z'
loop_
 _atom_site_type_symbol
 _atom_site_label
 _atom_site_symmetry_multiplicity
 _atom_site_fract_x
 _atom_site_fract_y
 _atom_site_fract_z
 _atom_site_occupancy
  Ni  Ni0  1  0.57417600  0.71985700  0.89274000  1
  Ni  Ni1  1  0.89274000  0.81322700  0.57417600  1
  Ni  Ni2  1  0.43677300  0.35726000  0.53014300  1
  Ni  Ni3  1  0.53014300  0.67582400  0.43677300  1
  Cu  Cu4  1  0.24729300  0.25270700  0.24729300  1
  Cu  Cu5  1  0.99729300  0.00270700  0.99729300  1
  C  C6  1  0.04281800  0.43892900  0.58350300  1
  C  C7  1  0.58350300  0.93475000  0.04281800  1
  C  C8  1  0.31525000  0.66649700  0.81107100  1
  C  C9  1  0.81107100  0.20718200  0.31525000  1
  C  C10  1  0.91242600  0.43607000  0.17313300  1
  C  C11  1  0.17313300  0.47837100  0.91242600  1
  C  C12  1  0.77162900  0.07686700  0.81393000  1
  C  C13  1  0.81393000  0.33757400  0.77162900  1
  C  C14  1  0.50373100  0.99626900  0.50373100  1
  C  C15  1  0.25373100  0.74626900  0.25373100  1
  C  C16  1  0.10931300  0.29219900  0.58013700  1
  C  C17  1  0.58013700  0.01835100  0.10931300  1
  C  C18  1  0.23164900  0.66986300  0.95780100  1
  C  C19  1  0.95780100  0.14068700  0.23164900  1
  C  C20  1  0.08841900  0.49296400  0.44615900  1
  C  C21  1  0.44615900  0.97245800  0.08841900  1
  C  C22  1  0.27754200  0.80384100  0.75703600  1
  C  C23  1  0.75703600  0.16158100  0.27754200  1
  C  C24  1  0.93862700  0.52876200  0.70933200  1
  C  C25  1  0.70933200  0.82327900  0.93862700  1
  C  C26  1  0.42672100  0.54066800  0.72123800  1
  C  C27  1  0.72123800  0.31137300  0.42672100  1
  C  C28  1  0.91062000  0.47007800  0.30487900  1
  C  C29  1  0.30487900  0.31442300  0.91062000  1
  C  C30  1  0.93557700  0.94512100  0.77992200  1
  C  C31  1  0.77992200  0.33938000  0.93557700  1
  C  C32  1  0.05988900  0.31447600  0.08316800  1
  C  C33  1  0.08316800  0.54246600  0.05988900  1
  C  C34  1  0.70753400  0.16683200  0.93552400  1
  C  C35  1  0.93552400  0.19011100  0.70753400  1
  C  C36  1  0.77593700  0.51840500  0.13518700  1
  C  C37  1  0.13518700  0.57047000  0.77593700  1
  C  C38  1  0.67953000  0.11481300  0.73159500  1
  C  C39  1  0.73159500  0.47406300  0.67953000  1
  C  C40  1  0.45353500  0.13781100  0.44699600  1
  C  C41  1  0.44699600  0.96165700  0.45353500  1
  C  C42  1  0.28834300  0.80300400  0.11218900  1
  C  C43  1  0.11218900  0.79646500  0.28834300  1
  C  C44  1  0.60559500  0.89440500  0.60559500  1
  C  C45  1  0.35559500  0.64440500  0.35559500  1
  C  C46  1  0.17816500  0.08639800  0.37472100  1
  C  C47  1  0.37472100  0.36071700  0.17816500  1
  C  C48  1  0.88928300  0.87527900  0.16360200  1
  C  C49  1  0.16360200  0.07183500  0.88928300  1
