# generated using pymatgen
data_Cu6NiC
_symmetry_space_group_name_H-M   'P 1'
_cell_length_a   5.10185000
_cell_length_b   6.47485000
_cell_length_c   10.85929400
_cell_angle_alpha   90.00000000
_cell_angle_beta   90.00000000
_cell_angle_gamma   90.00000000
_symmetry_Int_Tables_number   1
_chemical_formula_structural   Cu6NiC
_chemical_formula_sum   'Cu12 Ni2 C2'
_cell_volume   358.72280651
_cell_formula_units_Z   2
loop_
 _symmetry_equiv_pos_site_id
 _symmetry_equiv_pos_as_xyz
  1  'x, y, z'
loop_
 _atom_site_type_symbol
 _atom_site_label
 _atom_site_symmetry_multiplicity
 _atom_site_fract_x
 _atom_site_fract_y
 _atom_site_fract_z
 _atom_site_occupancy
  Ni  Ni0  1  0.50000000  0.50000000  0.16929400  1
  Ni  Ni1  1  0.50000000  0.00000000  0.66929400  1
  Cu  Cu2  1  0.00000000  0.24858400  0.08253700  1
  Cu  Cu3  1  0.00000000  0.75141600  0.08253700  1
  Cu  Cu4  1  0.00000000  0.50000000  0.83355200  1
  Cu  Cu5  1  0.50000000  0.25561200  0.91922300  1
  Cu  Cu6  1  0.50000000  0.74438800  0.91922300  1
  Cu  Cu7  1  0.50000000  0.50000000  0.66544200  1
  Cu  Cu8  1  0.00000000  0.74858400  0.58253700  1
  Cu  Cu9  1  0.00000000  0.25141600  0.58253700  1
  Cu  Cu10  1  0.00000000  0.00000000  0.33355200  1
  Cu  Cu11  1  0.50000000  0.75561200  0.41922300  1
  Cu  Cu12  1  0.50000000  0.24438800  0.41922300  1
  Cu  Cu13  1  0.50000000  0.00000000  0.16544200  1
  C  C14  1  0.00000000  0.50000000  0.32819200  1
  C  C15  1  0.00000000  0.00000000  0.82819200  1
