# generated using pymatgen
data_Cu2Ni8C15
_symmetry_space_group_name_H-M   'P 1'
_cell_length_a   8.27947800
_cell_length_b   5.61473100
_cell_length_c   11.34490355
_cell_angle_alpha   79.60953137
_cell_angle_beta   90.00000000
_cell_angle_gamma   90.00000000
_symmetry_Int_Tables_number   1
_chemical_formula_structural   Cu2Ni8C15
_chemical_formula_sum   'Cu4 Ni16 C30'
_cell_volume   518.74257710
_cell_formula_units_Z   2
loop_
 _symmetry_equiv_pos_site_id
 _symmetry_equiv_pos_as_xyz
  1  'x, y, z'
loop_
 _atom_site_type_symbol
 _atom_site_label
 _atom_site_symmetry_multiplicity
 _atom_site_fract_x
 _atom_site_fract_y
 _atom_site_fract_z
 _atom_site_occupancy
  C  C0  1  0.06978600  0.36929000  0.36248600  1
  C  C1  1  0.56978600  0.63071000  0.13751400  1
  C  C2  1  0.93021400  0.63071000  0.63751400  1
  C  C3  1  0.43021400  0.36929000  0.86248600  1
  C  C4  1  0.00000000  0.50000000  0.00000000  1
  C  C5  1  0.50000000  0.50000000  0.50000000  1
  Ni  Ni6  1  0.13997000  0.72602600  0.15872700  1
  Ni  Ni7  1  0.63997000  0.27397400  0.34127300  1
  Ni  Ni8  1  0.86003000  0.27397400  0.84127300  1
  Ni  Ni9  1  0.36003000  0.72602600  0.65872700  1
  Ni  Ni10  1  0.94843100  0.72907000  0.18649600  1
  Ni  Ni11  1  0.44843100  0.27093000  0.31350400  1
  Ni  Ni12  1  0.05156900  0.27093000  0.81350400  1
  Ni  Ni13  1  0.55156900  0.72907000  0.68649600  1
  Ni  Ni14  1  0.20082300  0.82147400  0.85149700  1
  Ni  Ni15  1  0.70082300  0.17852600  0.64850300  1
  Ni  Ni16  1  0.79917700  0.17852600  0.14850300  1
  Ni  Ni17  1  0.29917700  0.82147400  0.35149700  1
  Ni  Ni18  1  0.28481800  0.73664900  0.97392100  1
  Ni  Ni19  1  0.78481800  0.26335100  0.52607900  1
  Ni  Ni20  1  0.71518200  0.26335100  0.02607900  1
  Ni  Ni21  1  0.21518200  0.73664900  0.47392100  1
  Cu  Cu22  1  0.28756700  0.12691400  0.13461400  1
  Cu  Cu23  1  0.78756700  0.87308600  0.36538600  1
  Cu  Cu24  1  0.71243300  0.87308600  0.86538600  1
  Cu  Cu25  1  0.21243300  0.12691400  0.63461400  1
  C  C26  1  0.12927700  0.18743000  0.07304500  1
  C  C27  1  0.62927700  0.81257000  0.42695500  1
  C  C28  1  0.87072300  0.81257000  0.92695500  1
  C  C29  1  0.37072300  0.18743000  0.57304500  1
  C  C30  1  0.41642400  0.28763000  0.07647400  1
  C  C31  1  0.91642400  0.71237000  0.42352600  1
  C  C32  1  0.58357600  0.71237000  0.92352600  1
  C  C33  1  0.08357600  0.28763000  0.57647400  1
  C  C34  1  0.32333200  0.86639700  0.12849300  1
  C  C35  1  0.82333200  0.13360300  0.37150700  1
  C  C36  1  0.67666800  0.13360300  0.87150700  1
  C  C37  1  0.17666800  0.86639700  0.62849300  1
  C  C38  1  0.27404800  0.14585700  0.26506100  1
  C  C39  1  0.77404800  0.85414300  0.23493900  1
  C  C40  1  0.72595200  0.85414300  0.73493900  1
  C  C41  1  0.22595200  0.14585700  0.76506100  1
  C  C42  1  0.03917900  0.62682400  0.16647900  1
  C  C43  1  0.53917900  0.37317600  0.33352100  1
  C  C44  1  0.96082100  0.37317600  0.83352100  1
  C  C45  1  0.46082100  0.62682400  0.66647900  1
  C  C46  1  0.22071800  0.67470600  0.91298200  1
  C  C47  1  0.72071800  0.32529400  0.58701800  1
  C  C48  1  0.77928200  0.32529400  0.08701800  1
  C  C49  1  0.27928200  0.67470600  0.41298200  1
