# generated using pymatgen
data_Cu11NiC52
_symmetry_space_group_name_H-M   'P 1'
_cell_length_a   5.87384700
_cell_length_b   8.94963300
_cell_length_c   13.20585028
_cell_angle_alpha   89.98811205
_cell_angle_beta   90.00000000
_cell_angle_gamma   90.00000000
_symmetry_Int_Tables_number   1
_chemical_formula_structural   Cu11NiC52
_chemical_formula_sum   'Cu11 Ni1 C52'
_cell_volume   694.21535665
_cell_formula_units_Z   1
loop_
 _symmetry_equiv_pos_site_id
 _symmetry_equiv_pos_as_xyz
  1  'x, y, z'
loop_
 _atom_site_type_symbol
 _atom_site_label
 _atom_site_symmetry_multiplicity
 _atom_site_fract_x
 _atom_site_fract_y
 _atom_site_fract_z
 _atom_site_occupancy
  C  C0  1  0.50000000  0.86852400  0.31334000  1
  C  C1  1  0.50000000  0.63155300  0.81357100  1
  C  C2  1  0.00000000  0.13093100  0.68708400  1
  C  C3  1  0.00000000  0.36985300  0.18690200  1
  Ni  Ni4  1  0.00000000  0.23881500  0.44017600  1
  Cu  Cu5  1  0.23704800  0.55157300  0.39002600  1
  Cu  Cu6  1  0.76321200  0.94828400  0.89034900  1
  Cu  Cu7  1  0.73793700  0.45017000  0.61041700  1
  Cu  Cu8  1  0.26201100  0.05023300  0.11007000  1
  Cu  Cu9  1  0.26206300  0.45017000  0.61041700  1
  Cu  Cu10  1  0.73798900  0.05023300  0.11007000  1
  Cu  Cu11  1  0.76295200  0.55157300  0.39002600  1
  Cu  Cu12  1  0.23678800  0.94828400  0.89034900  1
  Cu  Cu13  1  0.00000000  0.25655700  0.94125600  1
  Cu  Cu14  1  0.50000000  0.75977100  0.55870800  1
  Cu  Cu15  1  0.50000000  0.73987800  0.05849300  1
  C  C16  1  0.00000000  0.86690900  0.45880000  1
  C  C17  1  0.00000000  0.63099900  0.95880100  1
  C  C18  1  0.50000000  0.13091100  0.54136500  1
  C  C19  1  0.50000000  0.36946800  0.04049500  1
  C  C20  1  0.00000000  0.72766800  0.17811900  1
  C  C21  1  0.00000000  0.77266400  0.67820400  1
  C  C22  1  0.50000000  0.27319600  0.82157700  1
  C  C23  1  0.50000000  0.22761700  0.32113900  1
  C  C24  1  0.50000000  0.56612300  0.22878100  1
  C  C25  1  0.50000000  0.93384600  0.72890900  1
  C  C26  1  0.00000000  0.43425400  0.77168800  1
  C  C27  1  0.00000000  0.06483600  0.27105000  1
  C  C28  1  0.23450200  0.77102800  0.43613500  1
  C  C29  1  0.76638200  0.72855100  0.93594200  1
  C  C30  1  0.73324200  0.22770200  0.56498400  1
  C  C31  1  0.26527300  0.27275400  0.06362300  1
  C  C32  1  0.26675800  0.22770200  0.56498400  1
  C  C33  1  0.73472700  0.27275400  0.06362300  1
  C  C34  1  0.76549800  0.77102800  0.43613500  1
  C  C35  1  0.23361800  0.72855100  0.93594200  1
  C  C36  1  0.00000000  0.60929400  0.27520300  1
  C  C37  1  0.00000000  0.89141900  0.77506000  1
  C  C38  1  0.50000000  0.39125700  0.72467800  1
  C  C39  1  0.50000000  0.10887500  0.22462700  1
  C  C40  1  0.23288600  0.82995300  0.17059600  1
  C  C41  1  0.76697900  0.67049600  0.67085400  1
  C  C42  1  0.73404200  0.17107900  0.82979500  1
  C  C43  1  0.26760000  0.33049300  0.32866300  1
  C  C44  1  0.26595800  0.17107900  0.82979500  1
  C  C45  1  0.73240000  0.33049300  0.32866300  1
  C  C46  1  0.76711400  0.82995300  0.17059600  1
  C  C47  1  0.23302100  0.67049600  0.67085400  1
  C  C48  1  0.50000000  0.52535700  0.10174700  1
  C  C49  1  0.50000000  0.97432500  0.60188600  1
  C  C50  1  0.00000000  0.47641100  0.89709800  1
  C  C51  1  0.00000000  0.02012900  0.39520800  1
  C  C52  1  0.50000000  0.53104700  0.50899800  1
  C  C53  1  0.50000000  0.96854300  0.00919900  1
  C  C54  1  0.00000000  0.47403100  0.49247200  1
  C  C55  1  0.00000000  0.02783900  0.99199000  1
  C  C56  1  0.50000000  0.60898200  0.29845200  1
  C  C57  1  0.50000000  0.89175600  0.79882300  1
  C  C58  1  0.00000000  0.39079100  0.70190400  1
  C  C59  1  0.00000000  0.10967000  0.20163600  1
  C  C60  1  0.00000000  0.60167900  0.08416900  1
  C  C61  1  0.00000000  0.89832500  0.58382200  1
  C  C62  1  0.50000000  0.39837600  0.91566400  1
  C  C63  1  0.50000000  0.10289100  0.41599900  1
