# generated using pymatgen
data_Cu3Ni13C9
_symmetry_space_group_name_H-M   'P 1'
_cell_length_a   6.87103527
_cell_length_b   5.68545700
_cell_length_c   6.90213420
_cell_angle_alpha   88.22772323
_cell_angle_beta   95.10657340
_cell_angle_gamma   87.50532380
_symmetry_Int_Tables_number   1
_chemical_formula_structural   Cu3Ni13C9
_chemical_formula_sum   'Cu3 Ni13 C9'
_cell_volume   268.14283791
_cell_formula_units_Z   1
loop_
 _symmetry_equiv_pos_site_id
 _symmetry_equiv_pos_as_xyz
  1  'x, y, z'
loop_
 _atom_site_type_symbol
 _atom_site_label
 _atom_site_symmetry_multiplicity
 _atom_site_fract_x
 _atom_site_fract_y
 _atom_site_fract_z
 _atom_site_occupancy
  C  C0  1  0.87541700  0.59687400  0.12577000  1
  C  C1  1  0.36535400  0.34951400  0.12265900  1
  C  C2  1  0.15146000  0.70836500  0.40805700  1
  C  C3  1  0.85760700  0.12474400  0.11435900  1
  C  C4  1  0.39276200  0.14547100  0.63542400  1
  C  C5  1  0.14088600  0.86644300  0.87615200  1
  C  C6  1  0.62600400  0.87176100  0.38605900  1
  C  C7  1  0.58973300  0.61822900  0.84299500  1
  C  C8  1  0.89151400  0.36186200  0.63877100  1
  Ni  Ni9  1  0.13719300  0.10886200  0.07203600  1
  Ni  Ni10  1  0.16804200  0.62500000  0.11209800  1
  Ni  Ni11  1  0.57371600  0.60117000  0.13191000  1
  Ni  Ni12  1  0.08245500  0.64378900  0.66250100  1
  Ni  Ni13  1  0.36366100  0.91853100  0.43492200  1
  Ni  Ni14  1  0.10737200  0.12318600  0.67429600  1
  Ni  Ni15  1  0.58746400  0.10908300  0.17515300  1
  Ni  Ni16  1  0.42013400  0.88927200  0.82131400  1
  Ni  Ni17  1  0.66184400  0.11168000  0.57683000  1
  Ni  Ni18  1  0.89147400  0.86040300  0.30971400  1
  Ni  Ni19  1  0.41446400  0.38108100  0.82966000  1
  Ni  Ni20  1  0.67158000  0.60599300  0.58548400  1
  Ni  Ni21  1  0.81240600  0.37653400  0.91024800  1
  Cu  Cu22  1  0.33062900  0.39322200  0.42691600  1
  Cu  Cu23  1  0.93269100  0.37370500  0.34553600  1
  Cu  Cu24  1  0.82414000  0.84236700  0.91113300  1
