# generated using pymatgen
data_Cu5Ni3C4
_symmetry_space_group_name_H-M   'P 1'
_cell_length_a   3.22825100
_cell_length_b   3.65721300
_cell_length_c   11.84226900
_cell_angle_alpha   90.00000000
_cell_angle_beta   90.00000000
_cell_angle_gamma   90.00000000
_symmetry_Int_Tables_number   1
_chemical_formula_structural   Cu5Ni3C4
_chemical_formula_sum   'Cu5 Ni3 C4'
_cell_volume   139.81458277
_cell_formula_units_Z   1
loop_
 _symmetry_equiv_pos_site_id
 _symmetry_equiv_pos_as_xyz
  1  'x, y, z'
loop_
 _atom_site_type_symbol
 _atom_site_label
 _atom_site_symmetry_multiplicity
 _atom_site_fract_x
 _atom_site_fract_y
 _atom_site_fract_z
 _atom_site_occupancy
  C  C0  1  0.00000000  0.00000000  0.13971200  1
  C  C1  1  0.00000000  0.50000000  0.63397800  1
  C  C2  1  0.50000000  0.50000000  0.36508000  1
  C  C3  1  0.50000000  0.00000000  0.86192500  1
  Ni  Ni4  1  0.00000000  0.50000000  0.96568100  1
  Ni  Ni5  1  0.50000000  0.50000000  0.03496300  1
  Ni  Ni6  1  0.50000000  0.00000000  0.53062200  1
  Cu  Cu7  1  0.00000000  0.00000000  0.33950000  1
  Cu  Cu8  1  0.00000000  0.50000000  0.83207700  1
  Cu  Cu9  1  0.50000000  0.50000000  0.16851200  1
  Cu  Cu10  1  0.50000000  0.00000000  0.66302800  1
  Cu  Cu11  1  0.00000000  0.00000000  0.46492300  1
