# generated using pymatgen
data_CuNiC
_symmetry_space_group_name_H-M   'P 1'
_cell_length_a   3.49341800
_cell_length_b   5.88827400
_cell_length_c   6.69972900
_cell_angle_alpha   90.00000000
_cell_angle_beta   90.00000000
_cell_angle_gamma   90.00000000
_symmetry_Int_Tables_number   1
_chemical_formula_structural   CuNiC
_chemical_formula_sum   'Cu4 Ni4 C4'
_cell_volume   137.81478142
_cell_formula_units_Z   4
loop_
 _symmetry_equiv_pos_site_id
 _symmetry_equiv_pos_as_xyz
  1  'x, y, z'
loop_
 _atom_site_type_symbol
 _atom_site_label
 _atom_site_symmetry_multiplicity
 _atom_site_fract_x
 _atom_site_fract_y
 _atom_site_fract_z
 _atom_site_occupancy
  Ni  Ni0  1  0.75000000  0.47437700  0.67358400  1
  Ni  Ni1  1  0.75000000  0.97437700  0.82641600  1
  Ni  Ni2  1  0.25000000  0.52562300  0.32641600  1
  Ni  Ni3  1  0.25000000  0.02562300  0.17358400  1
  Cu  Cu4  1  0.75000000  0.35669700  0.06153400  1
  Cu  Cu5  1  0.75000000  0.85669700  0.43846600  1
  Cu  Cu6  1  0.25000000  0.64330300  0.93846600  1
  Cu  Cu7  1  0.25000000  0.14330300  0.56153400  1
  C  C8  1  0.75000000  0.73034900  0.12468000  1
  C  C9  1  0.75000000  0.23034900  0.37532000  1
  C  C10  1  0.25000000  0.26965100  0.87532000  1
  C  C11  1  0.25000000  0.76965100  0.62468000  1
