# generated using pymatgen
data_Cu2(NiC5)3
_symmetry_space_group_name_H-M   'P 1'
_cell_length_a   8.40660905
_cell_length_b   8.40660905
_cell_length_c   8.40660905
_cell_angle_alpha   70.52877937
_cell_angle_beta   70.52877937
_cell_angle_gamma   109.47122063
_symmetry_Int_Tables_number   1
_chemical_formula_structural   Cu2(NiC5)3
_chemical_formula_sum   'Cu4 Ni6 C30'
_cell_volume   457.34155362
_cell_formula_units_Z   2
loop_
 _symmetry_equiv_pos_site_id
 _symmetry_equiv_pos_as_xyz
  1  'x, y, z'
loop_
 _atom_site_type_symbol
 _atom_site_label
 _atom_site_symmetry_multiplicity
 _atom_site_fract_x
 _atom_site_fract_y
 _atom_site_fract_z
 _atom_site_occupancy
  C  C0  1  0.53671800  0.75000000  0.71328200  1
  C  C1  1  0.96328200  0.25000000  0.78671800  1
  C  C2  1  0.21328200  0.46328200  0.25000000  1
  C  C3  1  0.28671800  0.03671800  0.75000000  1
  C  C4  1  0.25000000  0.78671800  0.46328200  1
  C  C5  1  0.75000000  0.71328200  0.03671800  1
  Ni  Ni6  1  0.47055600  0.25000000  0.27944400  1
  Ni  Ni7  1  0.02944400  0.75000000  0.22055600  1
  Ni  Ni8  1  0.77944400  0.52944400  0.75000000  1
  Ni  Ni9  1  0.72055600  0.97055600  0.25000000  1
  Ni  Ni10  1  0.75000000  0.22055600  0.52944400  1
  Ni  Ni11  1  0.25000000  0.27944400  0.97055600  1
  Cu  Cu12  1  0.50000000  0.00634200  0.00000000  1
  Cu  Cu13  1  0.99365800  0.49365800  0.00634200  1
  Cu  Cu14  1  0.50634200  0.50000000  0.50000000  1
  Cu  Cu15  1  0.00000000  0.00000000  0.49365800  1
  C  C16  1  0.70487100  0.94435900  0.01692800  1
  C  C17  1  0.03871200  0.55564100  0.73948900  1
  C  C18  1  0.46128800  0.72179900  0.48307200  1
  C  C19  1  0.79512900  0.77820100  0.76051100  1
  C  C20  1  0.23948900  0.29512900  0.72179900  1
  C  C21  1  0.51692800  0.96128800  0.77820100  1
  C  C22  1  0.26051100  0.53871200  0.94435900  1
  C  C23  1  0.98307200  0.20487100  0.55564100  1
  C  C24  1  0.05564100  0.76051100  0.96128800  1
  C  C25  1  0.44435900  0.48307200  0.29512900  1
  C  C26  1  0.27820100  0.73948900  0.20487100  1
  C  C27  1  0.22179900  0.01692800  0.53871200  1
  C  C28  1  0.29738500  0.06633900  0.98089700  1
  C  C29  1  0.95276400  0.43366100  0.26895300  1
  C  C30  1  0.54723600  0.27828200  0.51910300  1
  C  C31  1  0.20261500  0.22171800  0.23104700  1
  C  C32  1  0.76895300  0.70261500  0.27828200  1
  C  C33  1  0.48089700  0.04723600  0.22171800  1
  C  C34  1  0.73104700  0.45276400  0.06633900  1
  C  C35  1  0.01910300  0.79738500  0.43366100  1
  C  C36  1  0.93366100  0.23104700  0.04723600  1
  C  C37  1  0.56633900  0.51910300  0.70261500  1
  C  C38  1  0.72171800  0.26895300  0.79738500  1
  C  C39  1  0.77828200  0.98089700  0.45276400  1
