# generated using pymatgen
data_Cu9NiC5
_symmetry_space_group_name_H-M   'P 1'
_cell_length_a   10.28256500
_cell_length_b   10.28256500
_cell_length_c   28.18766900
_cell_angle_alpha   90.00000000
_cell_angle_beta   90.00000000
_cell_angle_gamma   90.00000000
_symmetry_Int_Tables_number   1
_chemical_formula_structural   Cu9NiC5
_chemical_formula_sum   'Cu72 Ni8 C40'
_cell_volume   2980.31446129
_cell_formula_units_Z   8
loop_
 _symmetry_equiv_pos_site_id
 _symmetry_equiv_pos_as_xyz
  1  'x, y, z'
loop_
 _atom_site_type_symbol
 _atom_site_label
 _atom_site_symmetry_multiplicity
 _atom_site_fract_x
 _atom_site_fract_y
 _atom_site_fract_z
 _atom_site_occupancy
  C  C0  1  0.93954000  0.27601500  0.16181600  1
  C  C1  1  0.06046000  0.72398500  0.66181600  1
  C  C2  1  0.77601500  0.56046000  0.41181600  1
  C  C3  1  0.22398500  0.43954000  0.91181600  1
  C  C4  1  0.72398500  0.06046000  0.33818400  1
  C  C5  1  0.27601500  0.93954000  0.83818400  1
  C  C6  1  0.56046000  0.77601500  0.58818400  1
  C  C7  1  0.43954000  0.22398500  0.08818400  1
  C  C8  1  0.98949000  0.34934700  0.30278100  1
  C  C9  1  0.01051000  0.65065300  0.80278100  1
  C  C10  1  0.84934700  0.51051000  0.55278100  1
  C  C11  1  0.15065300  0.48949000  0.05278100  1
  C  C12  1  0.65065300  0.01051000  0.19721900  1
  C  C13  1  0.34934700  0.98949000  0.69721900  1
  C  C14  1  0.51051000  0.84934700  0.44721900  1
  C  C15  1  0.48949000  0.15065300  0.94721900  1
  C  C16  1  0.26702200  0.49833300  0.19926400  1
  C  C17  1  0.73297800  0.50166700  0.69926400  1
  C  C18  1  0.99833300  0.23297800  0.44926400  1
  C  C19  1  0.00166700  0.76702200  0.94926400  1
  C  C20  1  0.50166700  0.73297800  0.30073600  1
  C  C21  1  0.49833300  0.26702200  0.80073600  1
  C  C22  1  0.23297800  0.99833300  0.55073600  1
  C  C23  1  0.76702200  0.00166700  0.05073600  1
  C  C24  1  0.94346200  0.72821400  0.15759900  1
  C  C25  1  0.05653800  0.27178600  0.65759900  1
  C  C26  1  0.22821400  0.55653800  0.40759900  1
  C  C27  1  0.77178600  0.44346200  0.90759900  1
  C  C28  1  0.27178600  0.05653800  0.34240100  1
  C  C29  1  0.72821400  0.94346200  0.84240100  1
  C  C30  1  0.55653800  0.22821400  0.59240100  1
  C  C31  1  0.44346200  0.77178600  0.09240100  1
  C  C32  1  0.70248200  0.48637300  0.04691800  1
  C  C33  1  0.29751800  0.51362700  0.54691800  1
  C  C34  1  0.98637300  0.79751800  0.29691800  1
  C  C35  1  0.01362700  0.20248200  0.79691800  1
  C  C36  1  0.51362700  0.29751800  0.45308200  1
  C  C37  1  0.48637300  0.70248200  0.95308200  1
  C  C38  1  0.79751800  0.98637300  0.70308200  1
  C  C39  1  0.20248200  0.01362700  0.20308200  1
  Ni  Ni40  1  0.14064400  0.99107500  0.05554700  1
  Ni  Ni41  1  0.85935600  0.00892500  0.55554700  1
  Ni  Ni42  1  0.49107500  0.35935600  0.30554700  1
  Ni  Ni43  1  0.50892500  0.64064400  0.80554700  1
  Ni  Ni44  1  0.00892500  0.85935600  0.44445300  1
  Ni  Ni45  1  0.99107500  0.14064400  0.94445300  1
  Ni  Ni46  1  0.35935600  0.49107500  0.69445300  1
  Ni  Ni47  1  0.64064400  0.50892500  0.19445300  1
  Cu  Cu48  1  0.17589600  0.98906600  0.96228100  1
  Cu  Cu49  1  0.82410400  0.01093400  0.46228100  1
  Cu  Cu50  1  0.48906600  0.32410400  0.21228100  1
  Cu  Cu51  1  0.51093400  0.67589600  0.71228100  1
  Cu  Cu52  1  0.01093400  0.82410400  0.53771900  1
  Cu  Cu53  1  0.98906600  0.17589600  0.03771900  1
  Cu  Cu54  1  0.32410400  0.48906600  0.78771900  1
  Cu  Cu55  1  0.67589600  0.51093400  0.28771900  1
  Cu  Cu56  1  0.97925700  0.81266000  0.04994700  1
  Cu  Cu57  1  0.02074300  0.18734000  0.54994700  1
  Cu  Cu58  1  0.31266000  0.52074300  0.29994700  1
  Cu  Cu59  1  0.68734000  0.47925700  0.79994700  1
  Cu  Cu60  1  0.18734000  0.02074300  0.45005300  1
  Cu  Cu61  1  0.81266000  0.97925700  0.95005300  1
  Cu  Cu62  1  0.52074300  0.31266000  0.70005300  1
  Cu  Cu63  1  0.47925700  0.68734000  0.20005300  1
  Cu  Cu64  1  0.01179100  0.00559500  0.14778300  1
  Cu  Cu65  1  0.98820900  0.99440500  0.64778300  1
  Cu  Cu66  1  0.50559500  0.48820900  0.39778300  1
  Cu  Cu67  1  0.49440500  0.51179100  0.89778300  1
  Cu  Cu68  1  0.99440500  0.98820900  0.35221700  1
  Cu  Cu69  1  0.00559500  0.01179100  0.85221700  1
  Cu  Cu70  1  0.48820900  0.50559500  0.60221700  1
  Cu  Cu71  1  0.51179100  0.49440500  0.10221700  1
  Cu  Cu72  1  0.89727600  0.49678400  0.09922600  1
  Cu  Cu73  1  0.10272400  0.50321600  0.59922600  1
  Cu  Cu74  1  0.99678400  0.60272400  0.34922600  1
  Cu  Cu75  1  0.00321600  0.39727600  0.84922600  1
  Cu  Cu76  1  0.50321600  0.10272400  0.40077400  1
  Cu  Cu77  1  0.49678400  0.89727600  0.90077400  1
  Cu  Cu78  1  0.60272400  0.99678400  0.65077400  1
  Cu  Cu79  1  0.39727600  0.00321600  0.15077400  1
  Cu  Cu80  1  0.69316300  0.69316300  0.00000000  1
  Cu  Cu81  1  0.30683700  0.30683700  0.50000000  1
  Cu  Cu82  1  0.19316300  0.80683700  0.25000000  1
  Cu  Cu83  1  0.80683700  0.19316300  0.75000000  1
  Cu  Cu84  1  0.79390700  0.80255800  0.24398500  1
  Cu  Cu85  1  0.20609300  0.19744200  0.74398500  1
  Cu  Cu86  1  0.30255800  0.70609300  0.49398500  1
  Cu  Cu87  1  0.69744200  0.29390700  0.99398500  1
  Cu  Cu88  1  0.19744200  0.20609300  0.25601500  1
  Cu  Cu89  1  0.80255800  0.79390700  0.75601500  1
  Cu  Cu90  1  0.70609300  0.30255800  0.50601500  1
  Cu  Cu91  1  0.29390700  0.69744200  0.00601500  1
  Cu  Cu92  1  0.99666700  0.50092800  0.21828600  1
  Cu  Cu93  1  0.00333300  0.49907200  0.71828600  1
  Cu  Cu94  1  0.00092800  0.50333300  0.46828600  1
  Cu  Cu95  1  0.99907200  0.49666700  0.96828600  1
  Cu  Cu96  1  0.49907200  0.00333300  0.28171400  1
  Cu  Cu97  1  0.50092800  0.99666700  0.78171400  1
  Cu  Cu98  1  0.50333300  0.00092800  0.53171400  1
  Cu  Cu99  1  0.49666700  0.99907200  0.03171400  1
  Cu  Cu100  1  0.70198800  0.82484400  0.12353300  1
  Cu  Cu101  1  0.29801200  0.17515600  0.62353300  1
  Cu  Cu102  1  0.32484400  0.79801200  0.37353300  1
  Cu  Cu103  1  0.67515600  0.20198800  0.87353300  1
  Cu  Cu104  1  0.17515600  0.29801200  0.37646700  1
  Cu  Cu105  1  0.82484400  0.70198800  0.87646700  1
  Cu  Cu106  1  0.79801200  0.32484400  0.62646700  1
  Cu  Cu107  1  0.20198800  0.67515600  0.12646700  1
  Cu  Cu108  1  0.70118900  0.18938500  0.12217500  1
  Cu  Cu109  1  0.29881100  0.81061500  0.62217500  1
  Cu  Cu110  1  0.68938500  0.79881100  0.37217500  1
  Cu  Cu111  1  0.31061500  0.20118900  0.87217500  1
  Cu  Cu112  1  0.81061500  0.29881100  0.37782500  1
  Cu  Cu113  1  0.18938500  0.70118900  0.87782500  1
  Cu  Cu114  1  0.79881100  0.68938500  0.62782500  1
  Cu  Cu115  1  0.20118900  0.31061500  0.12782500  1
  Cu  Cu116  1  0.81695600  0.18304400  0.25000000  1
  Cu  Cu117  1  0.18304400  0.81695600  0.75000000  1
  Cu  Cu118  1  0.68304400  0.68304400  0.50000000  1
  Cu  Cu119  1  0.31695600  0.31695600  0.00000000  1
