# generated using pymatgen
data_Cu15Ni4C25
_symmetry_space_group_name_H-M   'P 1'
_cell_length_a   6.44583584
_cell_length_b   14.72362573
_cell_length_c   19.05499378
_cell_angle_alpha   90.00000000
_cell_angle_beta   90.00000000
_cell_angle_gamma   90.00000000
_symmetry_Int_Tables_number   1
_chemical_formula_structural   Cu15Ni4C25
_chemical_formula_sum   'Cu60 Ni16 C100'
_cell_volume   1808.43465786
_cell_formula_units_Z   4
loop_
 _symmetry_equiv_pos_site_id
 _symmetry_equiv_pos_as_xyz
  1  'x, y, z'
loop_
 _atom_site_type_symbol
 _atom_site_label
 _atom_site_symmetry_multiplicity
 _atom_site_fract_x
 _atom_site_fract_y
 _atom_site_fract_z
 _atom_site_occupancy
  C  C0  1  0.70427948  0.25000000  0.74816015  1
  C  C1  1  0.20427948  0.25000000  0.75183985  1
  C  C2  1  0.29572052  0.75000000  0.25183985  1
  C  C3  1  0.79572052  0.75000000  0.24816015  1
  C  C4  1  0.67104584  0.25000000  0.33679595  1
  C  C5  1  0.17104584  0.25000000  0.16320405  1
  C  C6  1  0.32895416  0.75000000  0.66320405  1
  C  C7  1  0.82895416  0.75000000  0.83679595  1
  C  C8  1  0.49958021  0.25000000  0.02784099  1
  C  C9  1  -0.00041979  0.25000000  0.47215901  1
  C  C10  1  0.50041979  0.75000000  0.97215901  1
  C  C11  1  0.00041979  0.75000000  0.52784099  1
  C  C12  1  0.54887394  0.06076904  0.10709812  1
  C  C13  1  0.04887394  0.43923096  0.39290188  1
  C  C14  1  0.45112606  0.56076904  0.89290188  1
  C  C15  1  0.95112606  0.93923096  0.60709812  1
  C  C16  1  0.45112606  0.93923096  0.89290188  1
  C  C17  1  0.95112606  0.56076904  0.60709812  1
  C  C18  1  0.54887394  0.43923096  0.10709812  1
  C  C19  1  0.04887394  0.06076904  0.39290188  1
  C  C20  1  0.72482798  0.08124658  0.96167206  1
  C  C21  1  0.22482798  0.41875342  0.53832794  1
  C  C22  1  0.27517202  0.58124658  0.03832794  1
  C  C23  1  0.77517202  0.91875342  0.46167206  1
  C  C24  1  0.27517202  0.91875342  0.03832794  1
  C  C25  1  0.77517202  0.58124658  0.46167206  1
  C  C26  1  0.72482798  0.41875342  0.96167206  1
  C  C27  1  0.22482798  0.08124658  0.53832794  1
  C  C28  1  0.81722361  0.51566383  0.05230527  1
  C  C29  1  0.31722361  0.98433617  0.44769473  1
  C  C30  1  0.18277639  0.01566383  0.94769473  1
  C  C31  1  0.68277639  0.48433617  0.55230527  1
  C  C32  1  0.18277639  0.48433617  0.94769473  1
  C  C33  1  0.68277639  0.01566383  0.55230527  1
  C  C34  1  0.81722361  0.98433617  0.05230527  1
  C  C35  1  0.31722361  0.51566383  0.44769473  1
  C  C36  1  0.71304671  0.02177382  0.37098429  1
  C  C37  1  0.21304671  0.47822618  0.12901571  1
  C  C38  1  0.28695329  0.52177382  0.62901571  1
  C  C39  1  0.78695329  0.97822618  0.87098429  1
  C  C40  1  0.28695329  0.97822618  0.62901571  1
  C  C41  1  0.78695329  0.52177382  0.87098429  1
  C  C42  1  0.71304671  0.47822618  0.37098429  1
  C  C43  1  0.21304671  0.02177382  0.12901571  1
  C  C44  1  0.57898661  0.58653624  0.19360240  1
  C  C45  1  0.07898661  0.91346376  0.30639760  1
  C  C46  1  0.42101339  0.08653624  0.80639760  1
  C  C47  1  0.92101339  0.41346376  0.69360240  1
  C  C48  1  0.42101339  0.41346376  0.80639760  1
  C  C49  1  0.92101339  0.08653624  0.69360240  1
  C  C50  1  0.57898661  0.91346376  0.19360240  1
  C  C51  1  0.07898661  0.58653624  0.30639760  1
  C  C52  1  0.52409905  0.66328175  0.14169445  1
  C  C53  1  0.02409905  0.83671825  0.35830555  1
  C  C54  1  0.47590095  0.16328175  0.85830555  1
  C  C55  1  0.97590095  0.33671825  0.64169445  1
  C  C56  1  0.47590095  0.33671825  0.85830555  1
  C  C57  1  0.97590095  0.16328175  0.64169445  1
  C  C58  1  0.52409905  0.83671825  0.14169445  1
  C  C59  1  0.02409905  0.66328175  0.35830555  1
  C  C60  1  0.54487444  0.69710448  0.37620379  1
  C  C61  1  0.04487444  0.80289552  0.12379621  1
  C  C62  1  0.45512556  0.19710448  0.62379621  1
  C  C63  1  0.95512556  0.30289552  0.87620379  1
  C  C64  1  0.45512556  0.30289552  0.62379621  1
  C  C65  1  0.95512556  0.19710448  0.87620379  1
  C  C66  1  0.54487444  0.80289552  0.37620379  1
  C  C67  1  0.04487444  0.69710448  0.12379621  1
  C  C68  1  0.57580189  0.19689813  0.49499635  1
  C  C69  1  0.07580189  0.30310187  0.00500365  1
  C  C70  1  0.42419811  0.69689813  0.50500365  1
  C  C71  1  0.92419811  0.80310187  0.99499635  1
  C  C72  1  0.42419811  0.80310187  0.50500365  1
  C  C73  1  0.92419811  0.69689813  0.99499635  1
  C  C74  1  0.57580189  0.30310187  0.49499635  1
  C  C75  1  0.07580189  0.19689813  0.00500365  1
  C  C76  1  0.59306509  0.06687119  0.26155413  1
  C  C77  1  0.09306509  0.43312881  0.23844587  1
  C  C78  1  0.40693491  0.56687119  0.73844587  1
  C  C79  1  0.90693491  0.93312881  0.76155413  1
  C  C80  1  0.40693491  0.93312881  0.73844587  1
  C  C81  1  0.90693491  0.56687119  0.76155413  1
  C  C82  1  0.59306509  0.43312881  0.26155413  1
  C  C83  1  0.09306509  0.06687119  0.23844587  1
  C  C84  1  0.91734130  0.06493406  0.18207157  1
  C  C85  1  0.41734130  0.43506594  0.31792843  1
  C  C86  1  0.08265870  0.56493406  0.81792843  1
  C  C87  1  0.58265870  0.93506594  0.68207157  1
  C  C88  1  0.08265870  0.93506594  0.81792843  1
  C  C89  1  0.58265870  0.56493406  0.68207157  1
  C  C90  1  0.91734130  0.43506594  0.18207157  1
  C  C91  1  0.41734130  0.06493406  0.31792843  1
  C  C92  1  0.71882647  0.19854434  0.18967772  1
  C  C93  1  0.21882647  0.30145566  0.31032228  1
  C  C94  1  0.28117353  0.69854434  0.81032228  1
  C  C95  1  0.78117353  0.80145566  0.68967772  1
  C  C96  1  0.28117353  0.80145566  0.81032228  1
  C  C97  1  0.78117353  0.69854434  0.68967772  1
  C  C98  1  0.71882647  0.30145566  0.18967772  1
  C  C99  1  0.21882647  0.19854434  0.31032228  1
  Ni  Ni100  1  0.71152643  0.03540807  0.04248445  1
  Ni  Ni101  1  0.21152643  0.46459193  0.45751555  1
  Ni  Ni102  1  0.28847357  0.53540807  0.95751555  1
  Ni  Ni103  1  0.78847357  0.96459193  0.54248445  1
  Ni  Ni104  1  0.28847357  0.96459193  0.95751555  1
  Ni  Ni105  1  0.78847357  0.53540807  0.54248445  1
  Ni  Ni106  1  0.71152643  0.46459193  0.04248445  1
  Ni  Ni107  1  0.21152643  0.03540807  0.45751555  1
  Ni  Ni108  1  0.83137039  0.00116766  0.40514393  1
  Ni  Ni109  1  0.33137039  0.49883234  0.09485607  1
  Ni  Ni110  1  0.16862961  0.50116766  0.59485607  1
  Ni  Ni111  1  0.66862961  0.99883234  0.90514393  1
  Ni  Ni112  1  0.16862961  0.99883234  0.59485607  1
  Ni  Ni113  1  0.66862961  0.50116766  0.90514393  1
  Ni  Ni114  1  0.83137039  0.49883234  0.40514393  1
  Ni  Ni115  1  0.33137039  0.00116766  0.09485607  1
  Cu  Cu116  1  0.65151953  0.03259974  0.17581629  1
  Cu  Cu117  1  0.15151953  0.46740026  0.32418371  1
  Cu  Cu118  1  0.34848047  0.53259974  0.82418371  1
  Cu  Cu119  1  0.84848047  0.96740026  0.67581629  1
  Cu  Cu120  1  0.34848047  0.96740026  0.82418371  1
  Cu  Cu121  1  0.84848047  0.53259974  0.67581629  1
  Cu  Cu122  1  0.65151953  0.46740026  0.17581629  1
  Cu  Cu123  1  0.15151953  0.03259974  0.32418371  1
  Cu  Cu124  1  0.99282215  0.16168508  0.39382344  1
  Cu  Cu125  1  0.49282215  0.33831492  0.10617656  1
  Cu  Cu126  1  0.00717785  0.66168508  0.60617656  1
  Cu  Cu127  1  0.50717785  0.83831492  0.89382344  1
  Cu  Cu128  1  0.00717785  0.83831492  0.60617656  1
  Cu  Cu129  1  0.50717785  0.66168508  0.89382344  1
  Cu  Cu130  1  0.99282215  0.33831492  0.39382344  1
  Cu  Cu131  1  0.49282215  0.16168508  0.10617656  1
  Cu  Cu132  1  0.55386766  0.15375634  0.95781801  1
  Cu  Cu133  1  0.05386766  0.34624366  0.54218199  1
  Cu  Cu134  1  0.44613234  0.65375634  0.04218199  1
  Cu  Cu135  1  0.94613234  0.84624366  0.45781801  1
  Cu  Cu136  1  0.44613234  0.84624366  0.04218199  1
  Cu  Cu137  1  0.94613234  0.65375634  0.45781801  1
  Cu  Cu138  1  0.55386766  0.34624366  0.95781801  1
  Cu  Cu139  1  0.05386766  0.15375634  0.54218199  1
  Cu  Cu140  1  0.55373304  0.60986469  0.44661166  1
  Cu  Cu141  1  0.05373304  0.89013531  0.05338834  1
  Cu  Cu142  1  0.44626696  0.10986469  0.55338834  1
  Cu  Cu143  1  0.94626696  0.39013531  0.94661166  1
  Cu  Cu144  1  0.44626696  0.39013531  0.55338834  1
  Cu  Cu145  1  0.94626696  0.10986469  0.94661166  1
  Cu  Cu146  1  0.55373304  0.89013531  0.44661166  1
  Cu  Cu147  1  0.05373304  0.60986469  0.05338834  1
  Cu  Cu148  1  0.54749406  0.65216056  0.19198622  1
  Cu  Cu149  1  0.04749406  0.84783944  0.30801378  1
  Cu  Cu150  1  0.45250594  0.15216056  0.80801378  1
  Cu  Cu151  1  0.95250594  0.34783944  0.69198622  1
  Cu  Cu152  1  0.45250594  0.34783944  0.80801378  1
  Cu  Cu153  1  0.95250594  0.15216056  0.69198622  1
  Cu  Cu154  1  0.54749406  0.84783944  0.19198622  1
  Cu  Cu155  1  0.04749406  0.65216056  0.30801378  1
  Cu  Cu156  1  0.95455982  0.25000000  0.84425207  1
  Cu  Cu157  1  0.45455982  0.25000000  0.65574793  1
  Cu  Cu158  1  0.04544018  0.75000000  0.15574793  1
  Cu  Cu159  1  0.54544018  0.75000000  0.34425207  1
  Cu  Cu160  1  0.63270561  0.25000000  0.46956233  1
  Cu  Cu161  1  0.13270561  0.25000000  0.03043767  1
  Cu  Cu162  1  0.36729439  0.75000000  0.53043767  1
  Cu  Cu163  1  0.86729439  0.75000000  0.96956233  1
  Cu  Cu164  1  0.56346487  0.08393535  0.31097574  1
  Cu  Cu165  1  0.06346487  0.41606465  0.18902426  1
  Cu  Cu166  1  0.43653513  0.58393535  0.68902426  1
  Cu  Cu167  1  0.93653513  0.91606465  0.81097574  1
  Cu  Cu168  1  0.43653513  0.91606465  0.68902426  1
  Cu  Cu169  1  0.93653513  0.58393535  0.81097574  1
  Cu  Cu170  1  0.56346487  0.41606465  0.31097574  1
  Cu  Cu171  1  0.06346487  0.08393535  0.18902426  1
  Cu  Cu172  1  0.78887398  0.25000000  0.21194996  1
  Cu  Cu173  1  0.28887398  0.25000000  0.28805004  1
  Cu  Cu174  1  0.21112602  0.75000000  0.78805004  1
  Cu  Cu175  1  0.71112602  0.75000000  0.71194996  1
