# generated using pymatgen
data_CuNiC7
_symmetry_space_group_name_H-M   'P 1'
_cell_length_a   5.84597700
_cell_length_b   5.84597700
_cell_length_c   8.41295200
_cell_angle_alpha   90.00000000
_cell_angle_beta   90.00000000
_cell_angle_gamma   90.00000000
_symmetry_Int_Tables_number   1
_chemical_formula_structural   CuNiC7
_chemical_formula_sum   'Cu2 Ni2 C14'
_cell_volume   287.51639590
_cell_formula_units_Z   2
loop_
 _symmetry_equiv_pos_site_id
 _symmetry_equiv_pos_as_xyz
  1  'x, y, z'
loop_
 _atom_site_type_symbol
 _atom_site_label
 _atom_site_symmetry_multiplicity
 _atom_site_fract_x
 _atom_site_fract_y
 _atom_site_fract_z
 _atom_site_occupancy
  C  C0  1  0.50000000  0.50000000  0.00000000  1
  C  C1  1  0.00000000  0.00000000  0.00000000  1
  Ni  Ni2  1  0.00000000  0.50000000  0.24148100  1
  Ni  Ni3  1  0.50000000  0.00000000  0.75851900  1
  Cu  Cu4  1  0.00000000  0.00000000  0.50000000  1
  Cu  Cu5  1  0.50000000  0.50000000  0.50000000  1
  C  C6  1  0.00000000  0.50000000  0.74467400  1
  C  C7  1  0.50000000  0.00000000  0.25532600  1
  C  C8  1  0.00000000  0.50000000  0.96673300  1
  C  C9  1  0.50000000  0.00000000  0.03326700  1
  C  C10  1  0.77077600  0.72922400  0.67289600  1
  C  C11  1  0.22922400  0.27077600  0.67289600  1
  C  C12  1  0.72922400  0.77077600  0.32710400  1
  C  C13  1  0.22922400  0.72922400  0.67289600  1
  C  C14  1  0.77077600  0.27077600  0.67289600  1
  C  C15  1  0.72922400  0.22922400  0.32710400  1
  C  C16  1  0.27077600  0.22922400  0.32710400  1
  C  C17  1  0.27077600  0.77077600  0.32710400  1
