# generated using pymatgen
data_Cu(NiC5)2
_symmetry_space_group_name_H-M   'P 1'
_cell_length_a   8.68392800
_cell_length_b   6.65667800
_cell_length_c   12.27046827
_cell_angle_alpha   88.07146132
_cell_angle_beta   90.00000000
_cell_angle_gamma   90.00000000
_symmetry_Int_Tables_number   1
_chemical_formula_structural   Cu(NiC5)2
_chemical_formula_sum   'Cu4 Ni8 C40'
_cell_volume   708.90630080
_cell_formula_units_Z   4
loop_
 _symmetry_equiv_pos_site_id
 _symmetry_equiv_pos_as_xyz
  1  'x, y, z'
loop_
 _atom_site_type_symbol
 _atom_site_label
 _atom_site_symmetry_multiplicity
 _atom_site_fract_x
 _atom_site_fract_y
 _atom_site_fract_z
 _atom_site_occupancy
  Ni  Ni0  1  0.54533800  0.90270600  0.84422700  1
  Ni  Ni1  1  0.95466200  0.90270600  0.34422700  1
  Ni  Ni2  1  0.91173000  0.38825500  0.13570400  1
  Ni  Ni3  1  0.04533800  0.09729400  0.65577300  1
  Ni  Ni4  1  0.08827000  0.61174500  0.86429600  1
  Ni  Ni5  1  0.41173000  0.61174500  0.36429600  1
  Ni  Ni6  1  0.58827000  0.38825500  0.63570400  1
  Ni  Ni7  1  0.45466200  0.09729400  0.15577300  1
  Cu  Cu8  1  0.83662000  0.89138000  0.05246900  1
  Cu  Cu9  1  0.16338000  0.10862000  0.94753100  1
  Cu  Cu10  1  0.33662000  0.10862000  0.44753100  1
  Cu  Cu11  1  0.66338000  0.89138000  0.55246900  1
  C  C12  1  0.81559200  0.23472800  0.87721500  1
  C  C13  1  0.94113200  0.62445000  0.62397200  1
  C  C14  1  0.05886800  0.37555000  0.37602800  1
  C  C15  1  0.18440800  0.76527200  0.12278500  1
  C  C16  1  0.68440800  0.23472800  0.37721500  1
  C  C17  1  0.55886800  0.62445000  0.12397200  1
  C  C18  1  0.31559200  0.76527200  0.62278500  1
  C  C19  1  0.44113200  0.37555000  0.87602800  1
  C  C20  1  0.75667000  0.96253600  0.40041300  1
  C  C21  1  0.98406700  0.34650600  0.60154400  1
  C  C22  1  0.41999900  0.81122200  0.47212600  1
  C  C23  1  0.91999900  0.18877800  0.02787400  1
  C  C24  1  0.74333000  0.96253600  0.90041300  1
  C  C25  1  0.24333000  0.03746400  0.59958700  1
  C  C26  1  0.89299100  0.91088000  0.61310100  1
  C  C27  1  0.10229500  0.50054800  0.13839500  1
  C  C28  1  0.39770500  0.50054800  0.63839500  1
  C  C29  1  0.12753200  0.70039600  0.71622100  1
  C  C30  1  0.62753200  0.29960400  0.78377900  1
  C  C31  1  0.89770500  0.49945200  0.86160500  1
  C  C32  1  0.10700900  0.08912000  0.38689900  1
  C  C33  1  0.45617100  0.11732400  0.30534200  1
  C  C34  1  0.72251300  0.58937600  0.58645700  1
  C  C35  1  0.77748700  0.58937600  0.08645700  1
  C  C36  1  0.95617100  0.88267600  0.19465800  1
  C  C37  1  0.60229500  0.49945200  0.36160500  1
  C  C38  1  0.54382900  0.88267600  0.69465800  1
  C  C39  1  0.58000100  0.18877800  0.52787400  1
  C  C40  1  0.51593300  0.34650600  0.10154400  1
  C  C41  1  0.87246800  0.29960400  0.28377900  1
  C  C42  1  0.25667000  0.03746400  0.09958700  1
  C  C43  1  0.60700900  0.91088000  0.11310100  1
  C  C44  1  0.08000100  0.81122200  0.97212600  1
  C  C45  1  0.22251300  0.41062400  0.91354300  1
  C  C46  1  0.01593300  0.65349400  0.39845600  1
  C  C47  1  0.48406700  0.65349400  0.89845600  1
  C  C48  1  0.39299100  0.08912000  0.88689900  1
  C  C49  1  0.27748700  0.41062400  0.41354300  1
  C  C50  1  0.37246800  0.70039600  0.21622100  1
  C  C51  1  0.04382900  0.11732400  0.80534200  1
