# generated using pymatgen
data_CuNiC5
_symmetry_space_group_name_H-M   'P 1'
_cell_length_a   6.60962500
_cell_length_b   6.81291300
_cell_length_c   18.25690000
_cell_angle_alpha   90.00000000
_cell_angle_beta   90.00000000
_cell_angle_gamma   90.00000000
_symmetry_Int_Tables_number   1
_chemical_formula_structural   CuNiC5
_chemical_formula_sum   'Cu4 Ni4 C20'
_cell_volume   822.12281412
_cell_formula_units_Z   4
loop_
 _symmetry_equiv_pos_site_id
 _symmetry_equiv_pos_as_xyz
  1  'x, y, z'
loop_
 _atom_site_type_symbol
 _atom_site_label
 _atom_site_symmetry_multiplicity
 _atom_site_fract_x
 _atom_site_fract_y
 _atom_site_fract_z
 _atom_site_occupancy
  Ni  Ni0  1  0.49914100  0.49380300  0.96622600  1
  Ni  Ni1  1  0.00085900  0.50619700  0.46622600  1
  Ni  Ni2  1  0.99914100  0.00619700  0.03377400  1
  Ni  Ni3  1  0.50085900  0.99380300  0.53377400  1
  Cu  Cu4  1  0.29040600  0.47538300  0.22769200  1
  Cu  Cu5  1  0.20959400  0.52461700  0.72769200  1
  Cu  Cu6  1  0.79040600  0.02461700  0.77230800  1
  Cu  Cu7  1  0.70959400  0.97538300  0.27230800  1
  C  C8  1  0.78947900  0.51826500  0.16720200  1
  C  C9  1  0.71052100  0.48173500  0.66720200  1
  C  C10  1  0.28947900  0.98173500  0.83279800  1
  C  C11  1  0.21052100  0.01826500  0.33279800  1
  C  C12  1  0.04441200  0.51244500  0.09707600  1
  C  C13  1  0.45558800  0.48755500  0.59707600  1
  C  C14  1  0.54441200  0.98755500  0.90292400  1
  C  C15  1  0.95558800  0.01244500  0.40292400  1
  C  C16  1  0.61264800  0.43110200  0.77709400  1
  C  C17  1  0.88735200  0.56889800  0.27709400  1
  C  C18  1  0.11264800  0.06889800  0.22290600  1
  C  C19  1  0.38735200  0.93110200  0.72290600  1
  C  C20  1  0.57434200  0.74583300  0.14489400  1
  C  C21  1  0.92565800  0.25416700  0.64489400  1
  C  C22  1  0.07434200  0.75416700  0.85510600  1
  C  C23  1  0.42565800  0.24583300  0.35510600  1
  C  C24  1  0.61180100  0.25683900  0.15467600  1
  C  C25  1  0.88819900  0.74316100  0.65467600  1
  C  C26  1  0.11180100  0.24316100  0.84532400  1
  C  C27  1  0.38819900  0.75683900  0.34532400  1
