# generated using pymatgen
data_CuNi3C2
_symmetry_space_group_name_H-M   'P 1'
_cell_length_a   12.30939768
_cell_length_b   12.30939768
_cell_length_c   16.91910500
_cell_angle_alpha   90.00000000
_cell_angle_beta   90.00000000
_cell_angle_gamma   119.99999826
_symmetry_Int_Tables_number   1
_chemical_formula_structural   CuNi3C2
_chemical_formula_sum   'Cu12 Ni36 C24'
_cell_volume   2220.14648494
_cell_formula_units_Z   12
loop_
 _symmetry_equiv_pos_site_id
 _symmetry_equiv_pos_as_xyz
  1  'x, y, z'
loop_
 _atom_site_type_symbol
 _atom_site_label
 _atom_site_symmetry_multiplicity
 _atom_site_fract_x
 _atom_site_fract_y
 _atom_site_fract_z
 _atom_site_occupancy
  C  C0  1  0.66666700  0.33333300  0.88869500  1
  C  C1  1  0.33333300  0.66666700  0.11130500  1
  C  C2  1  0.33333300  0.66666700  0.38869500  1
  C  C3  1  0.66666700  0.33333300  0.61130500  1
  C  C4  1  0.55484200  0.93444600  0.88273100  1
  C  C5  1  0.44515800  0.06555400  0.11726900  1
  C  C6  1  0.37960400  0.44515800  0.88273100  1
  C  C7  1  0.44515800  0.06555400  0.38273100  1
  C  C8  1  0.62039600  0.55484200  0.11726900  1
  C  C9  1  0.55484200  0.93444600  0.61726900  1
  C  C10  1  0.06555400  0.62039600  0.88273100  1
  C  C11  1  0.62039600  0.55484200  0.38273100  1
  C  C12  1  0.93444600  0.37960400  0.11726900  1
  C  C13  1  0.37960400  0.44515800  0.61726900  1
  C  C14  1  0.93444600  0.37960400  0.38273100  1
  C  C15  1  0.06555400  0.62039600  0.61726900  1
  C  C16  1  0.00000000  0.00000000  0.00000000  1
  C  C17  1  0.00000000  0.00000000  0.50000000  1
  C  C18  1  0.97000100  0.19914000  0.75000000  1
  C  C19  1  0.02999900  0.80086000  0.25000000  1
  C  C20  1  0.22914000  0.02999900  0.75000000  1
  C  C21  1  0.77086000  0.97000100  0.25000000  1
  C  C22  1  0.80086000  0.77086000  0.75000000  1
  C  C23  1  0.19914000  0.22914000  0.25000000  1
  Ni  Ni24  1  0.82607200  0.97548100  0.84751900  1
  Ni  Ni25  1  0.17392800  0.02451900  0.15248100  1
  Ni  Ni26  1  0.14940900  0.17392800  0.84751900  1
  Ni  Ni27  1  0.17392800  0.02451900  0.34751900  1
  Ni  Ni28  1  0.85059100  0.82607200  0.15248100  1
  Ni  Ni29  1  0.82607200  0.97548100  0.65248100  1
  Ni  Ni30  1  0.02451900  0.85059100  0.84751900  1
  Ni  Ni31  1  0.85059100  0.82607200  0.34751900  1
  Ni  Ni32  1  0.97548100  0.14940900  0.15248100  1
  Ni  Ni33  1  0.14940900  0.17392800  0.65248100  1
  Ni  Ni34  1  0.97548100  0.14940900  0.34751900  1
  Ni  Ni35  1  0.02451900  0.85059100  0.65248100  1
  Ni  Ni36  1  0.57882900  0.70338400  0.96753700  1
  Ni  Ni37  1  0.42117100  0.29661600  0.03246300  1
  Ni  Ni38  1  0.12455500  0.42117100  0.96753700  1
  Ni  Ni39  1  0.42117100  0.29661600  0.46753700  1
  Ni  Ni40  1  0.87544500  0.57882900  0.03246300  1
  Ni  Ni41  1  0.57882900  0.70338400  0.53246300  1
  Ni  Ni42  1  0.29661600  0.87544500  0.96753700  1
  Ni  Ni43  1  0.87544500  0.57882900  0.46753700  1
  Ni  Ni44  1  0.70338400  0.12455500  0.03246300  1
  Ni  Ni45  1  0.12455500  0.42117100  0.53246300  1
  Ni  Ni46  1  0.70338400  0.12455500  0.46753700  1
  Ni  Ni47  1  0.29661600  0.87544500  0.53246300  1
  Ni  Ni48  1  0.72825600  0.17886100  0.75000000  1
  Ni  Ni49  1  0.27174400  0.82113900  0.25000000  1
  Ni  Ni50  1  0.45060500  0.27174400  0.75000000  1
  Ni  Ni51  1  0.54939500  0.72825600  0.25000000  1
  Ni  Ni52  1  0.82113900  0.54939500  0.75000000  1
  Ni  Ni53  1  0.17886100  0.45060500  0.25000000  1
  Ni  Ni54  1  0.53470500  0.68124500  0.75000000  1
  Ni  Ni55  1  0.46529500  0.31875500  0.25000000  1
  Ni  Ni56  1  0.14654000  0.46529500  0.75000000  1
  Ni  Ni57  1  0.85346000  0.53470500  0.25000000  1
  Ni  Ni58  1  0.31875500  0.85346000  0.75000000  1
  Ni  Ni59  1  0.68124500  0.14654000  0.25000000  1
  Cu  Cu60  1  0.98092900  0.34451400  0.85416700  1
  Cu  Cu61  1  0.01907100  0.65548600  0.14583300  1
  Cu  Cu62  1  0.36358600  0.01907100  0.85416700  1
  Cu  Cu63  1  0.01907100  0.65548600  0.35416700  1
  Cu  Cu64  1  0.63641400  0.98092900  0.14583300  1
  Cu  Cu65  1  0.98092900  0.34451400  0.64583300  1
  Cu  Cu66  1  0.65548600  0.63641400  0.85416700  1
  Cu  Cu67  1  0.63641400  0.98092900  0.35416700  1
  Cu  Cu68  1  0.34451400  0.36358600  0.14583300  1
  Cu  Cu69  1  0.36358600  0.01907100  0.64583300  1
  Cu  Cu70  1  0.34451400  0.36358600  0.35416700  1
  Cu  Cu71  1  0.65548600  0.63641400  0.64583300  1
