# generated using pymatgen
data_Cu4NiC14
_symmetry_space_group_name_H-M   'P 1'
_cell_length_a   11.06674300
_cell_length_b   8.54593100
_cell_length_c   14.76893852
_cell_angle_alpha   90.00000000
_cell_angle_beta   124.59101101
_cell_angle_gamma   90.00000000
_symmetry_Int_Tables_number   1
_chemical_formula_structural   Cu4NiC14
_chemical_formula_sum   'Cu16 Ni4 C56'
_cell_volume   1149.86611271
_cell_formula_units_Z   4
loop_
 _symmetry_equiv_pos_site_id
 _symmetry_equiv_pos_as_xyz
  1  'x, y, z'
loop_
 _atom_site_type_symbol
 _atom_site_label
 _atom_site_symmetry_multiplicity
 _atom_site_fract_x
 _atom_site_fract_y
 _atom_site_fract_z
 _atom_site_occupancy
  Ni  Ni0  1  0.75029700  0.44499800  0.25585200  1
  Ni  Ni1  1  0.75029700  0.05500200  0.75585200  1
  Ni  Ni2  1  0.24970300  0.55500200  0.74414800  1
  Ni  Ni3  1  0.24970300  0.94499800  0.24414800  1
  Cu  Cu4  1  0.94182800  0.26060500  0.49873600  1
  Cu  Cu5  1  0.94182800  0.23939500  0.99873600  1
  Cu  Cu6  1  0.05817200  0.73939500  0.50126400  1
  Cu  Cu7  1  0.05817200  0.76060500  0.00126400  1
  Cu  Cu8  1  0.99891100  0.17427200  0.33718900  1
  Cu  Cu9  1  0.99891100  0.32572800  0.83718900  1
  Cu  Cu10  1  0.00108900  0.82572800  0.66281100  1
  Cu  Cu11  1  0.00108900  0.67427200  0.16281100  1
  Cu  Cu12  1  0.58898500  0.25021400  0.01477900  1
  Cu  Cu13  1  0.58898500  0.24978600  0.51477900  1
  Cu  Cu14  1  0.41101500  0.74978600  0.98522100  1
  Cu  Cu15  1  0.41101500  0.75021400  0.48522100  1
  Cu  Cu16  1  0.46593800  0.22774900  0.14552800  1
  Cu  Cu17  1  0.46593800  0.27225100  0.64552800  1
  Cu  Cu18  1  0.53406200  0.77225100  0.85447200  1
  Cu  Cu19  1  0.53406200  0.72774900  0.35447200  1
  C  C20  1  0.63924300  0.40131600  0.08343900  1
  C  C21  1  0.63924300  0.09868400  0.58343900  1
  C  C22  1  0.36075700  0.59868400  0.91656100  1
  C  C23  1  0.36075700  0.90131600  0.41656100  1
  C  C24  1  0.85486000  0.40156700  0.42402100  1
  C  C25  1  0.85486000  0.09843300  0.92402100  1
  C  C26  1  0.14514000  0.59843300  0.57597900  1
  C  C27  1  0.14514000  0.90156700  0.07597900  1
  C  C28  1  0.05801200  0.22661100  0.46145300  1
  C  C29  1  0.05801200  0.27338900  0.96145300  1
  C  C30  1  0.94198800  0.77338900  0.53854700  1
  C  C31  1  0.94198800  0.72661100  0.03854700  1
  C  C32  1  0.63134900  0.26453800  0.24824500  1
  C  C33  1  0.63134900  0.23546200  0.74824500  1
  C  C34  1  0.36865100  0.73546200  0.75175500  1
  C  C35  1  0.36865100  0.76453800  0.25175500  1
  C  C36  1  0.91812200  0.33298800  0.27130200  1
  C  C37  1  0.91812200  0.16701200  0.77130200  1
  C  C38  1  0.08187800  0.66701200  0.72869800  1
  C  C39  1  0.08187800  0.83298800  0.22869800  1
  C  C40  1  0.85449700  0.12501200  0.47556800  1
  C  C41  1  0.85449700  0.37498800  0.97556800  1
  C  C42  1  0.14550300  0.87498800  0.52443200  1
  C  C43  1  0.14550300  0.62501200  0.02443200  1
  C  C44  1  0.48031200  0.28464800  0.90157500  1
  C  C45  1  0.48031200  0.21535200  0.40157500  1
  C  C46  1  0.51968800  0.71535200  0.09842500  1
  C  C47  1  0.51968800  0.78464800  0.59842500  1
  C  C48  1  0.04067200  0.31499800  0.60948000  1
  C  C49  1  0.04067200  0.18500200  0.10948000  1
  C  C50  1  0.95932800  0.68500200  0.39052000  1
  C  C51  1  0.95932800  0.81499800  0.89052000  1
  C  C52  1  0.89516400  0.05077900  0.29912800  1
  C  C53  1  0.89516400  0.44922100  0.79912800  1
  C  C54  1  0.10483600  0.94922100  0.70087200  1
  C  C55  1  0.10483600  0.55077900  0.20087200  1
  C  C56  1  0.70538300  0.14336200  0.04628700  1
  C  C57  1  0.70538300  0.35663800  0.54628700  1
  C  C58  1  0.29461700  0.85663800  0.95371300  1
  C  C59  1  0.29461700  0.64336200  0.45371300  1
  C  C60  1  0.12914600  0.16482400  0.33899000  1
  C  C61  1  0.12914600  0.33517600  0.83899000  1
  C  C62  1  0.87085400  0.83517600  0.66101000  1
  C  C63  1  0.87085400  0.66482400  0.16101000  1
  C  C64  1  0.42046900  0.09587000  0.17907200  1
  C  C65  1  0.42046900  0.40413000  0.67907200  1
  C  C66  1  0.57953100  0.90413000  0.82092800  1
  C  C67  1  0.57953100  0.59587000  0.32092800  1
  C  C68  1  0.49262800  0.15674000  0.05828400  1
  C  C69  1  0.49262800  0.34326000  0.55828400  1
  C  C70  1  0.50737200  0.84326000  0.94171600  1
  C  C71  1  0.50737200  0.65674000  0.44171600  1
  C  C72  1  0.38390800  0.36941200  0.10775400  1
  C  C73  1  0.38390800  0.13058800  0.60775400  1
  C  C74  1  0.61609200  0.63058800  0.89224600  1
  C  C75  1  0.61609200  0.86941200  0.39224600  1
