# generated using pymatgen
data_Cu3Ni6C7
_symmetry_space_group_name_H-M   'P 1'
_cell_length_a   11.91120700
_cell_length_b   11.91120700
_cell_length_c   3.99859300
_cell_angle_alpha   90.00000000
_cell_angle_beta   90.00000000
_cell_angle_gamma   90.00000000
_symmetry_Int_Tables_number   1
_chemical_formula_structural   Cu3Ni6C7
_chemical_formula_sum   'Cu6 Ni12 C14'
_cell_volume   567.30778806
_cell_formula_units_Z   2
loop_
 _symmetry_equiv_pos_site_id
 _symmetry_equiv_pos_as_xyz
  1  'x, y, z'
loop_
 _atom_site_type_symbol
 _atom_site_label
 _atom_site_symmetry_multiplicity
 _atom_site_fract_x
 _atom_site_fract_y
 _atom_site_fract_z
 _atom_site_occupancy
  C  C0  1  0.25170600  0.50000000  0.00000000  1
  C  C1  1  0.74829400  0.50000000  0.00000000  1
  C  C2  1  0.50000000  0.74829400  0.00000000  1
  C  C3  1  0.50000000  0.25170600  0.00000000  1
  C  C4  1  0.00000000  0.00000000  0.00000000  1
  C  C5  1  0.20210300  0.20210300  0.00000000  1
  C  C6  1  0.79789700  0.79789700  0.00000000  1
  C  C7  1  0.20210300  0.79789700  0.00000000  1
  C  C8  1  0.79789700  0.20210300  0.00000000  1
  C  C9  1  0.50000000  0.50000000  0.50000000  1
  Ni  Ni10  1  0.11222400  0.37280100  0.50000000  1
  Ni  Ni11  1  0.88777600  0.62719900  0.50000000  1
  Ni  Ni12  1  0.11222400  0.62719900  0.50000000  1
  Ni  Ni13  1  0.88777600  0.37280100  0.50000000  1
  Ni  Ni14  1  0.37280100  0.88777600  0.50000000  1
  Ni  Ni15  1  0.62719900  0.11222400  0.50000000  1
  Ni  Ni16  1  0.37280100  0.11222400  0.50000000  1
  Ni  Ni17  1  0.62719900  0.88777600  0.50000000  1
  Ni  Ni18  1  0.33152900  0.33152900  0.50000000  1
  Ni  Ni19  1  0.66847100  0.66847100  0.50000000  1
  Ni  Ni20  1  0.33152900  0.66847100  0.50000000  1
  Ni  Ni21  1  0.66847100  0.33152900  0.50000000  1
  C  C22  1  0.30598300  0.00000000  0.00000000  1
  C  C23  1  0.69401700  0.00000000  0.00000000  1
  C  C24  1  0.00000000  0.69401700  0.00000000  1
  C  C25  1  0.00000000  0.30598300  0.00000000  1
  Cu  Cu26  1  0.18921400  0.00000000  0.50000000  1
  Cu  Cu27  1  0.81078600  0.00000000  0.50000000  1
  Cu  Cu28  1  0.00000000  0.81078600  0.50000000  1
  Cu  Cu29  1  0.00000000  0.18921400  0.50000000  1
  Cu  Cu30  1  0.00000000  0.50000000  0.00000000  1
  Cu  Cu31  1  0.50000000  0.00000000  0.00000000  1
