# generated using pymatgen
data_Cu4Ni14C29
_symmetry_space_group_name_H-M   'P 1'
_cell_length_a   15.22440239
_cell_length_b   15.22440239
_cell_length_c   19.53273699
_cell_angle_alpha   55.00897637
_cell_angle_beta   55.00897637
_cell_angle_gamma   15.09109652
_symmetry_Int_Tables_number   1
_chemical_formula_structural   Cu4Ni14C29
_chemical_formula_sum   'Cu4 Ni14 C29'
_cell_volume   961.49260210
_cell_formula_units_Z   1
loop_
 _symmetry_equiv_pos_site_id
 _symmetry_equiv_pos_as_xyz
  1  'x, y, z'
loop_
 _atom_site_type_symbol
 _atom_site_label
 _atom_site_symmetry_multiplicity
 _atom_site_fract_x
 _atom_site_fract_y
 _atom_site_fract_z
 _atom_site_occupancy
  Ni  Ni0  1  0.51081900  0.51081900  0.23876300  1
  Ni  Ni1  1  0.50015300  0.50015300  0.74611600  1
  Ni  Ni2  1  0.59132000  0.59132000  0.34374700  1
  Ni  Ni3  1  0.41114300  0.41114300  0.65115400  1
  Ni  Ni4  1  0.43514600  0.43514600  0.12376900  1
  Ni  Ni5  1  0.56284600  0.56284600  0.88137900  1
  Ni  Ni6  1  0.72885800  0.72885800  0.09653200  1
  Ni  Ni7  1  0.27301300  0.27301300  0.90362300  1
  Ni  Ni8  1  0.64674700  0.64674700  0.99084400  1
  Ni  Ni9  1  0.35537000  0.35537000  0.00953500  1
  Ni  Ni10  1  0.88555400  0.88555400  0.32991800  1
  Ni  Ni11  1  0.11851900  0.11851900  0.64322800  1
  Ni  Ni12  1  0.81077300  0.81077300  0.20367500  1
  Ni  Ni13  1  0.18878500  0.18878500  0.79980200  1
  Cu  Cu14  1  0.96068400  0.96068400  0.44705700  1
  Cu  Cu15  1  0.04306100  0.04306100  0.55098500  1
  Cu  Cu16  1  0.67649100  0.67649100  0.43639500  1
  Cu  Cu17  1  0.32598600  0.32598600  0.55018300  1
  C  C18  1  0.21268100  0.21268100  0.23183100  1
  C  C19  1  0.78959000  0.78959000  0.77125300  1
  C  C20  1  0.04107200  0.04107200  0.05854300  1
  C  C21  1  0.94859300  0.94859300  0.96554500  1
  C  C22  1  0.13029700  0.13029700  0.13874600  1
  C  C23  1  0.86508800  0.86508800  0.87053800  1
  C  C24  1  0.29563600  0.29563600  0.32672100  1
  C  C25  1  0.71650700  0.71650700  0.66335300  1
  C  C26  1  0.59761900  0.59761900  0.44675900  1
  C  C27  1  0.39941400  0.39941400  0.54658600  1
  C  C28  1  0.89260800  0.89260800  0.17996700  1
  C  C29  1  0.10666200  0.10666200  0.83537300  1
  C  C30  1  0.81193900  0.81193900  0.07622500  1
  C  C31  1  0.18828100  0.18828100  0.92829300  1
  C  C32  1  0.35157900  0.35157900  0.12981900  1
  C  C33  1  0.65267000  0.65267000  0.87202200  1
  C  C34  1  0.51416300  0.51416300  0.34440500  1
  C  C35  1  0.48467800  0.48467800  0.64578500  1
  C  C36  1  0.43182800  0.43182800  0.23706600  1
  C  C37  1  0.56494200  0.56494200  0.77595800  1
  C  C38  1  0.05331500  0.05331500  0.39894700  1
  C  C39  1  0.94595700  0.94595700  0.58900700  1
  C  C40  1  0.96956200  0.96956200  0.28901500  1
  C  C41  1  0.03071900  0.03071900  0.70196500  1
  C  C42  1  0.72989200  0.72989200  0.97534700  1
  C  C43  1  0.27003100  0.27003100  0.02770900  1
  C  C44  1  0.59059000  0.59059000  0.62367800  1
  C  C45  1  0.37379100  0.37379100  0.41011200  1
  C  C46  1  0.15902800  0.15902800  0.50672800  1
