# generated using pymatgen
data_Cu5Ni2C25
_symmetry_space_group_name_H-M   'P 1'
_cell_length_a   5.10919100
_cell_length_b   7.68969396
_cell_length_c   7.79994963
_cell_angle_alpha   98.73831727
_cell_angle_beta   101.48039191
_cell_angle_gamma   102.69586773
_symmetry_Int_Tables_number   1
_chemical_formula_structural   Cu5Ni2C25
_chemical_formula_sum   'Cu5 Ni2 C25'
_cell_volume   286.77019164
_cell_formula_units_Z   1
loop_
 _symmetry_equiv_pos_site_id
 _symmetry_equiv_pos_as_xyz
  1  'x, y, z'
loop_
 _atom_site_type_symbol
 _atom_site_label
 _atom_site_symmetry_multiplicity
 _atom_site_fract_x
 _atom_site_fract_y
 _atom_site_fract_z
 _atom_site_occupancy
  C  C0  1  0.49874100  0.12305900  0.87188300  1
  C  C1  1  0.49079500  0.99899200  0.49668300  1
  C  C2  1  0.49881500  0.37545100  0.62548500  1
  C  C3  1  0.49788600  0.24893100  0.24844700  1
  C  C4  1  0.50473900  0.63280800  0.36982600  1
  C  C5  1  0.50925800  0.50539100  0.00835500  1
  C  C6  1  0.49750400  0.86764000  0.13091700  1
  C  C7  1  0.50150000  0.74657400  0.74898200  1
  C  C8  1  0.99814400  0.75075700  0.24971600  1
  Ni  Ni9  1  0.00156800  0.99942000  0.00263300  1
  Ni  Ni10  1  0.99723500  0.37660800  0.12530900  1
  Cu  Cu11  1  0.99918900  0.87320100  0.61492800  1
  Cu  Cu12  1  0.99815500  0.62707900  0.88169500  1
  Cu  Cu13  1  0.99379300  0.50617800  0.49493000  1
  Cu  Cu14  1  0.01106600  0.25210400  0.74650600  1
  Cu  Cu15  1  0.99750300  0.12205200  0.37352500  1
  C  C16  1  0.76873900  0.12900000  0.11156100  1
  C  C17  1  0.79043600  0.00497700  0.76113300  1
  C  C18  1  0.77453900  0.37733800  0.89135700  1
  C  C19  1  0.78361500  0.25196000  0.50253700  1
  C  C20  1  0.76216100  0.62379900  0.62728600  1
  C  C21  1  0.76886400  0.48817500  0.24810900  1
  C  C22  1  0.76782400  0.89452000  0.38611300  1
  C  C23  1  0.77307600  0.76050400  0.99093300  1
  C  C24  1  0.24682500  0.12606200  0.62490600  1
  C  C25  1  0.21353200  0.00641000  0.23727400  1
  C  C26  1  0.21244800  0.36259000  0.35735200  1
  C  C27  1  0.22124500  0.24287400  0.00186500  1
  C  C28  1  0.23250200  0.60560900  0.12083700  1
  C  C29  1  0.22541100  0.49594000  0.75256700  1
  C  C30  1  0.22999500  0.87958200  0.88376300  1
  C  C31  1  0.23289700  0.74441300  0.51258800  1
