# generated using pymatgen
data_Cu2NiC8
_symmetry_space_group_name_H-M   'P 1'
_cell_length_a   5.08466975
_cell_length_b   5.08466975
_cell_length_c   10.07554800
_cell_angle_alpha   90.00000000
_cell_angle_beta   90.00000000
_cell_angle_gamma   119.17879701
_symmetry_Int_Tables_number   1
_chemical_formula_structural   Cu2NiC8
_chemical_formula_sum   'Cu4 Ni2 C16'
_cell_volume   227.43611967
_cell_formula_units_Z   2
loop_
 _symmetry_equiv_pos_site_id
 _symmetry_equiv_pos_as_xyz
  1  'x, y, z'
loop_
 _atom_site_type_symbol
 _atom_site_label
 _atom_site_symmetry_multiplicity
 _atom_site_fract_x
 _atom_site_fract_y
 _atom_site_fract_z
 _atom_site_occupancy
  C  C0  1  0.14659900  0.64659900  0.75000000  1
  C  C1  1  0.35340100  0.85340100  0.25000000  1
  C  C2  1  0.64659900  0.14659900  0.75000000  1
  C  C3  1  0.85340100  0.35340100  0.25000000  1
  Ni  Ni4  1  0.00000000  0.00000000  0.00000000  1
  Ni  Ni5  1  0.50000000  0.50000000  0.50000000  1
  Cu  Cu6  1  0.33720800  0.66279200  0.00000000  1
  Cu  Cu7  1  0.83720800  0.16279200  0.50000000  1
  Cu  Cu8  1  0.16279200  0.83720800  0.50000000  1
  Cu  Cu9  1  0.66279200  0.33720800  0.00000000  1
  C  C10  1  0.17853000  0.17853000  0.59762700  1
  C  C11  1  0.32147000  0.32147000  0.09762700  1
  C  C12  1  0.67853000  0.67853000  0.90237300  1
  C  C13  1  0.98377600  0.31591000  0.89291800  1
  C  C14  1  0.82147000  0.82147000  0.40237300  1
  C  C15  1  0.18409000  0.51622400  0.39291800  1
  C  C16  1  0.48377600  0.81591000  0.60708200  1
  C  C17  1  0.68409000  0.01622400  0.10708200  1
  C  C18  1  0.01622400  0.68409000  0.10708200  1
  C  C19  1  0.31591000  0.98377600  0.89291800  1
  C  C20  1  0.51622400  0.18409000  0.39291800  1
  C  C21  1  0.81591000  0.48377600  0.60708200  1
