# generated using pymatgen
data_Cu20(NiC6)3
_symmetry_space_group_name_H-M   'P 1'
_cell_length_a   6.64916000
_cell_length_b   7.64519054
_cell_length_c   18.42490119
_cell_angle_alpha   101.86204085
_cell_angle_beta   90.00000000
_cell_angle_gamma   115.77632290
_symmetry_Int_Tables_number   1
_chemical_formula_structural   Cu20(NiC6)3
_chemical_formula_sum   'Cu40 Ni6 C36'
_cell_volume   821.15096136
_cell_formula_units_Z   2
loop_
 _symmetry_equiv_pos_site_id
 _symmetry_equiv_pos_as_xyz
  1  'x, y, z'
loop_
 _atom_site_type_symbol
 _atom_site_label
 _atom_site_symmetry_multiplicity
 _atom_site_fract_x
 _atom_site_fract_y
 _atom_site_fract_z
 _atom_site_occupancy
  C  C0  1  0.14685200  0.33649500  0.39311000  1
  C  C1  1  0.81035700  0.66350500  0.10689000  1
  C  C2  1  0.85314800  0.66350500  0.60689000  1
  C  C3  1  0.18964300  0.33649500  0.89311000  1
  C  C4  1  0.49434200  0.70551200  0.48167800  1
  C  C5  1  0.78883000  0.29448800  0.01832200  1
  C  C6  1  0.50565800  0.29448800  0.51832200  1
  C  C7  1  0.21117000  0.70551200  0.98167800  1
  C  C8  1  0.27920800  0.74448000  0.48774700  1
  C  C9  1  0.53472800  0.25552000  0.01225300  1
  C  C10  1  0.72079200  0.25552000  0.51225300  1
  C  C11  1  0.46527200  0.74448000  0.98774700  1
  C  C12  1  0.20058300  0.44072900  0.24839900  1
  C  C13  1  0.75985500  0.55927100  0.25160100  1
  C  C14  1  0.79941700  0.55927100  0.75160100  1
  C  C15  1  0.24014500  0.44072900  0.74839900  1
  C  C16  1  0.37076300  0.64228900  0.30484500  1
  C  C17  1  0.72847400  0.35771100  0.19515500  1
  C  C18  1  0.62923700  0.35771100  0.69515500  1
  C  C19  1  0.27152600  0.64228900  0.80484500  1
  C  C20  1  0.69226500  0.01799200  0.39346200  1
  C  C21  1  0.67427400  0.98200800  0.10653800  1
  C  C22  1  0.30773500  0.98200800  0.60653800  1
  C  C23  1  0.32572600  0.01799200  0.89346200  1
  C  C24  1  0.83617200  0.99498800  0.45586200  1
  C  C25  1  0.84118300  0.00501200  0.04413800  1
  C  C26  1  0.16382800  0.00501200  0.54413800  1
  C  C27  1  0.15881700  0.99498800  0.95586200  1
  C  C28  1  0.05223100  0.90562200  0.35662900  1
  C  C29  1  0.14661000  0.09437800  0.14337100  1
  C  C30  1  0.94776900  0.09437800  0.64337100  1
  C  C31  1  0.85339000  0.90562200  0.85662900  1
  C  C32  1  0.31057100  0.02944900  0.34564200  1
  C  C33  1  0.28112200  0.97055100  0.15435800  1
  C  C34  1  0.68942900  0.97055100  0.65435800  1
  C  C35  1  0.71887800  0.02944900  0.84564200  1
  Ni  Ni36  1  0.24731400  0.44191400  0.58814500  1
  Ni  Ni37  1  0.80540000  0.55808600  0.91185500  1
  Ni  Ni38  1  0.75268600  0.55808600  0.41185500  1
  Ni  Ni39  1  0.19460000  0.44191400  0.08814500  1
  Ni  Ni40  1  0.69119400  0.00000000  0.25000000  1
  Ni  Ni41  1  0.30880600  0.00000000  0.75000000  1
  Cu  Cu42  1  0.22497700  0.30560100  0.51300700  1
  Cu  Cu43  1  0.91937700  0.69439900  0.98699300  1
  Cu  Cu44  1  0.77502300  0.69439900  0.48699300  1
  Cu  Cu45  1  0.08062300  0.30560100  0.01300700  1
  Cu  Cu46  1  0.48134100  0.60139100  0.60354800  1
  Cu  Cu47  1  0.87995000  0.39860900  0.89645200  1
  Cu  Cu48  1  0.51865900  0.39860900  0.39645200  1
  Cu  Cu49  1  0.12005000  0.60139100  0.10354800  1
  Cu  Cu50  1  0.09316000  0.53257000  0.58311300  1
  Cu  Cu51  1  0.56059000  0.46743000  0.91688700  1
  Cu  Cu52  1  0.90684000  0.46743000  0.41688700  1
  Cu  Cu53  1  0.43941000  0.53257000  0.08311300  1
  Cu  Cu54  1  0.19132100  0.32369500  0.64548400  1
  Cu  Cu55  1  0.86762600  0.67630500  0.85451600  1
  Cu  Cu56  1  0.80867900  0.67630500  0.35451600  1
  Cu  Cu57  1  0.13237400  0.32369500  0.14548400  1
  Cu  Cu58  1  0.90420700  0.16548500  0.28993600  1
  Cu  Cu59  1  0.73872200  0.83451500  0.21006400  1
  Cu  Cu60  1  0.09579300  0.83451500  0.71006400  1
  Cu  Cu61  1  0.26127800  0.16548500  0.78993600  1
  Cu  Cu62  1  0.52773400  0.92868300  0.30544200  1
  Cu  Cu63  1  0.59905100  0.07131700  0.19455800  1
  Cu  Cu64  1  0.47226600  0.07131700  0.69455800  1
  Cu  Cu65  1  0.40094900  0.92868300  0.80544200  1
  Cu  Cu66  1  0.35191000  0.67623900  0.45424600  1
  Cu  Cu67  1  0.67567100  0.32376100  0.04575400  1
  Cu  Cu68  1  0.64809000  0.32376100  0.54575400  1
  Cu  Cu69  1  0.32432900  0.67623900  0.95424600  1
  Cu  Cu70  1  0.26368500  0.50210200  0.30088600  1
  Cu  Cu71  1  0.76158300  0.49789800  0.19911400  1
  Cu  Cu72  1  0.73631500  0.49789800  0.69911400  1
  Cu  Cu73  1  0.23841700  0.50210200  0.80088600  1
  Cu  Cu74  1  0.81076400  0.09442600  0.43647700  1
  Cu  Cu75  1  0.71633800  0.90557400  0.06352300  1
  Cu  Cu76  1  0.18923600  0.90557400  0.56352300  1
  Cu  Cu77  1  0.28366200  0.09442600  0.93647700  1
  Cu  Cu78  1  0.17917200  0.04093100  0.36626900  1
  Cu  Cu79  1  0.13824200  0.95906900  0.13373100  1
  Cu  Cu80  1  0.82082800  0.95906900  0.63373100  1
  Cu  Cu81  1  0.86175800  0.04093100  0.86626900  1
