# generated using pymatgen
data_CuNiC13
_symmetry_space_group_name_H-M   'P 1'
_cell_length_a   6.30433700
_cell_length_b   7.47493900
_cell_length_c   14.57454700
_cell_angle_alpha   90.00000000
_cell_angle_beta   90.00000000
_cell_angle_gamma   90.00000000
_symmetry_Int_Tables_number   1
_chemical_formula_structural   CuNiC13
_chemical_formula_sum   'Cu4 Ni4 C52'
_cell_volume   686.81874308
_cell_formula_units_Z   4
loop_
 _symmetry_equiv_pos_site_id
 _symmetry_equiv_pos_as_xyz
  1  'x, y, z'
loop_
 _atom_site_type_symbol
 _atom_site_label
 _atom_site_symmetry_multiplicity
 _atom_site_fract_x
 _atom_site_fract_y
 _atom_site_fract_z
 _atom_site_occupancy
  C  C0  1  0.25000000  0.22153500  0.97466800  1
  C  C1  1  0.25000000  0.27846500  0.47466800  1
  C  C2  1  0.75000000  0.77846500  0.02533200  1
  C  C3  1  0.75000000  0.72153500  0.52533200  1
  C  C4  1  0.50555100  0.14846200  0.14426800  1
  C  C5  1  0.99444900  0.35153800  0.64426800  1
  C  C6  1  0.00555100  0.85153800  0.85573200  1
  C  C7  1  0.49444900  0.64846200  0.35573200  1
  C  C8  1  0.49444900  0.85153800  0.85573200  1
  C  C9  1  0.00555100  0.64846200  0.35573200  1
  C  C10  1  0.99444900  0.14846200  0.14426800  1
  C  C11  1  0.50555100  0.35153800  0.64426800  1
  Ni  Ni12  1  0.25000000  0.49023400  0.81553700  1
  Ni  Ni13  1  0.25000000  0.00976600  0.31553700  1
  Ni  Ni14  1  0.75000000  0.50976600  0.18446300  1
  Ni  Ni15  1  0.75000000  0.99023400  0.68446300  1
  Cu  Cu16  1  0.25000000  0.78533800  0.05541900  1
  Cu  Cu17  1  0.25000000  0.71466200  0.55541900  1
  Cu  Cu18  1  0.75000000  0.21466200  0.94458100  1
  Cu  Cu19  1  0.75000000  0.28533800  0.44458100  1
  C  C20  1  0.25000000  0.01710000  0.88093600  1
  C  C21  1  0.25000000  0.48290000  0.38093600  1
  C  C22  1  0.75000000  0.98290000  0.11906400  1
  C  C23  1  0.75000000  0.51710000  0.61906400  1
  C  C24  1  0.25000000  0.29284600  0.12426200  1
  C  C25  1  0.25000000  0.20715400  0.62426200  1
  C  C26  1  0.75000000  0.70715400  0.87573800  1
  C  C27  1  0.75000000  0.79284600  0.37573800  1
  C  C28  1  0.25000000  0.43286600  0.90962100  1
  C  C29  1  0.25000000  0.06713400  0.40962100  1
  C  C30  1  0.75000000  0.56713400  0.09037900  1
  C  C31  1  0.75000000  0.93286600  0.59037900  1
  C  C32  1  0.25000000  0.68948700  0.81941100  1
  C  C33  1  0.25000000  0.81051300  0.31941100  1
  C  C34  1  0.75000000  0.31051300  0.18058900  1
  C  C35  1  0.75000000  0.18948700  0.68058900  1
  C  C36  1  0.07482600  0.41364300  0.76234800  1
  C  C37  1  0.42517400  0.08635700  0.26234800  1
  C  C38  1  0.57482600  0.58635700  0.23765200  1
  C  C39  1  0.92517400  0.91364300  0.73765200  1
  C  C40  1  0.92517400  0.58635700  0.23765200  1
  C  C41  1  0.57482600  0.91364300  0.73765200  1
  C  C42  1  0.42517400  0.41364300  0.76234800  1
  C  C43  1  0.07482600  0.08635700  0.26234800  1
  C  C44  1  0.05063400  0.77091900  0.99029800  1
  C  C45  1  0.44936600  0.72908100  0.49029800  1
  C  C46  1  0.55063400  0.22908100  0.00970200  1
  C  C47  1  0.94936600  0.27091900  0.50970200  1
  C  C48  1  0.94936600  0.22908100  0.00970200  1
  C  C49  1  0.55063400  0.27091900  0.50970200  1
  C  C50  1  0.44936600  0.77091900  0.99029800  1
  C  C51  1  0.05063400  0.72908100  0.49029800  1
  C  C52  1  0.25000000  0.99074400  0.08374200  1
  C  C53  1  0.25000000  0.50925600  0.58374200  1
  C  C54  1  0.75000000  0.00925600  0.91625800  1
  C  C55  1  0.75000000  0.49074400  0.41625800  1
  C  C56  1  0.25000000  0.65983900  0.13340600  1
  C  C57  1  0.25000000  0.84016100  0.63340600  1
  C  C58  1  0.75000000  0.34016100  0.86659400  1
  C  C59  1  0.75000000  0.15983900  0.36659400  1
