# generated using pymatgen
data_Cu3NiC2
_symmetry_space_group_name_H-M   'P 1'
_cell_length_a   3.14350900
_cell_length_b   4.83906000
_cell_length_c   24.03390010
_cell_angle_alpha   89.01214664
_cell_angle_beta   90.00000000
_cell_angle_gamma   90.00000000
_symmetry_Int_Tables_number   1
_chemical_formula_structural   Cu3NiC2
_chemical_formula_sum   'Cu15 Ni5 C10'
_cell_volume   365.54042615
_cell_formula_units_Z   5
loop_
 _symmetry_equiv_pos_site_id
 _symmetry_equiv_pos_as_xyz
  1  'x, y, z'
loop_
 _atom_site_type_symbol
 _atom_site_label
 _atom_site_symmetry_multiplicity
 _atom_site_fract_x
 _atom_site_fract_y
 _atom_site_fract_z
 _atom_site_occupancy
  C  C0  1  0.00000000  0.96439100  0.00491700  1
  C  C1  1  0.00000000  0.01849800  0.80116600  1
  C  C2  1  0.00000000  0.98067100  0.60542100  1
  C  C3  1  0.00000000  0.97481300  0.40561800  1
  C  C4  1  0.00000000  0.97213800  0.20562100  1
  C  C5  1  0.50000000  0.46891300  0.89389300  1
  C  C6  1  0.50000000  0.52301300  0.69775300  1
  C  C7  1  0.50000000  0.51392800  0.49812500  1
  C  C8  1  0.50000000  0.51076400  0.29816200  1
  C  C9  1  0.50000000  0.50536800  0.09795000  1
  Ni  Ni10  1  0.50000000  0.82046200  0.63813900  1
  Ni  Ni11  1  0.50000000  0.81276900  0.43797200  1
  Ni  Ni12  1  0.50000000  0.80117300  0.03656000  1
  Ni  Ni13  1  0.50000000  0.81005300  0.23768300  1
  Ni  Ni14  1  0.00000000  0.30623000  0.86382600  1
  Cu  Cu15  1  0.50000000  0.79980700  0.84513000  1
  Cu  Cu16  1  0.00000000  0.69270400  0.93942300  1
  Cu  Cu17  1  0.00000000  0.71432200  0.54155600  1
  Cu  Cu18  1  0.00000000  0.71229100  0.34124600  1
  Cu  Cu19  1  0.00000000  0.71085200  0.14046900  1
  Cu  Cu20  1  0.00000000  0.70937900  0.74465700  1
  Cu  Cu21  1  0.00000000  0.30460700  0.65587900  1
  Cu  Cu22  1  0.00000000  0.29454900  0.25666000  1
  Cu  Cu23  1  0.00000000  0.28474700  0.05705800  1
  Cu  Cu24  1  0.00000000  0.29739400  0.45677100  1
  Cu  Cu25  1  0.50000000  0.19392300  0.96179500  1
  Cu  Cu26  1  0.50000000  0.21408800  0.75762200  1
  Cu  Cu27  1  0.50000000  0.19792400  0.55932000  1
  Cu  Cu28  1  0.50000000  0.19584200  0.35979100  1
  Cu  Cu29  1  0.50000000  0.19438400  0.15981700  1
