# generated using pymatgen
data_CuNiC10
_symmetry_space_group_name_H-M   'P 1'
_cell_length_a   7.19365763
_cell_length_b   7.19365763
_cell_length_c   5.17762600
_cell_angle_alpha   90.00000000
_cell_angle_beta   90.00000000
_cell_angle_gamma   102.78310618
_symmetry_Int_Tables_number   1
_chemical_formula_structural   CuNiC10
_chemical_formula_sum   'Cu1 Ni1 C10'
_cell_volume   261.29458860
_cell_formula_units_Z   1
loop_
 _symmetry_equiv_pos_site_id
 _symmetry_equiv_pos_as_xyz
  1  'x, y, z'
loop_
 _atom_site_type_symbol
 _atom_site_label
 _atom_site_symmetry_multiplicity
 _atom_site_fract_x
 _atom_site_fract_y
 _atom_site_fract_z
 _atom_site_occupancy
  Ni  Ni0  1  0.32953400  0.67046600  0.50000000  1
  Cu  Cu1  1  0.67064300  0.32935700  0.00000000  1
  C  C2  1  0.85784000  0.85856200  0.24976600  1
  C  C3  1  0.85784000  0.85856200  0.75023300  1
  C  C4  1  0.14143800  0.14216000  0.24976600  1
  C  C5  1  0.14143800  0.14216000  0.75023300  1
  C  C6  1  0.61736200  0.83031800  0.00000000  1
  C  C7  1  0.83434900  0.61968500  0.50000000  1
  C  C8  1  0.38031500  0.16565100  0.50000000  1
  C  C9  1  0.16968200  0.38263800  0.00000000  1
  C  C10  1  0.10805600  0.89194400  0.00000000  1
  C  C11  1  0.89150400  0.10849600  0.50000000  1
