# generated using pymatgen
data_CuNiC
_symmetry_space_group_name_H-M   'P 1'
_cell_length_a   3.25814719
_cell_length_b   3.25814719
_cell_length_c   36.46915200
_cell_angle_alpha   90.00000000
_cell_angle_beta   90.00000000
_cell_angle_gamma   119.99998352
_symmetry_Int_Tables_number   1
_chemical_formula_structural   CuNiC
_chemical_formula_sum   'Cu4 Ni4 C4'
_cell_volume   335.27237318
_cell_formula_units_Z   4
loop_
 _symmetry_equiv_pos_site_id
 _symmetry_equiv_pos_as_xyz
  1  'x, y, z'
loop_
 _atom_site_type_symbol
 _atom_site_label
 _atom_site_symmetry_multiplicity
 _atom_site_fract_x
 _atom_site_fract_y
 _atom_site_fract_z
 _atom_site_occupancy
  C  C0  1  0.00000000  0.00000000  0.09391800  1
  C  C1  1  0.33333300  0.66666700  0.28179000  1
  C  C2  1  0.33333300  0.66666700  0.65757100  1
  C  C3  1  0.00000000  0.00000000  0.46963200  1
  Ni  Ni4  1  0.00000000  0.00000000  0.70408600  1
  Ni  Ni5  1  0.33333300  0.66666700  0.42283800  1
  Ni  Ni6  1  0.33333300  0.66666700  0.51643900  1
  Ni  Ni7  1  0.00000000  0.00000000  0.61106300  1
  Cu  Cu8  1  0.00000000  0.00000000  0.32411000  1
  Cu  Cu9  1  0.33333300  0.66666700  0.05158100  1
  Cu  Cu10  1  0.33333300  0.66666700  0.13625200  1
  Cu  Cu11  1  0.00000000  0.00000000  0.23946700  1
