# generated using pymatgen
data_Cu4NiC15
_symmetry_space_group_name_H-M   'P 1'
_cell_length_a   8.20589100
_cell_length_b   8.23106600
_cell_length_c   11.57724048
_cell_angle_alpha   45.32568366
_cell_angle_beta   90.00000000
_cell_angle_gamma   90.00000000
_symmetry_Int_Tables_number   1
_chemical_formula_structural   Cu4NiC15
_chemical_formula_sum   'Cu8 Ni2 C30'
_cell_volume   556.06625998
_cell_formula_units_Z   2
loop_
 _symmetry_equiv_pos_site_id
 _symmetry_equiv_pos_as_xyz
  1  'x, y, z'
loop_
 _atom_site_type_symbol
 _atom_site_label
 _atom_site_symmetry_multiplicity
 _atom_site_fract_x
 _atom_site_fract_y
 _atom_site_fract_z
 _atom_site_occupancy
  Ni  Ni0  1  0.50000000  0.00000000  0.50000000  1
  Ni  Ni1  1  0.00000000  0.00000000  0.00000000  1
  Cu  Cu2  1  0.74506100  0.96826300  0.76342400  1
  Cu  Cu3  1  0.24506100  0.03173700  0.73657600  1
  Cu  Cu4  1  0.25424500  0.54311500  0.72286800  1
  Cu  Cu5  1  0.75424500  0.45688500  0.77713200  1
  Cu  Cu6  1  0.25493900  0.03173700  0.23657600  1
  Cu  Cu7  1  0.75493900  0.96826300  0.26342400  1
  Cu  Cu8  1  0.24575500  0.54311500  0.22286800  1
  Cu  Cu9  1  0.74575500  0.45688500  0.27713200  1
  C  C10  1  0.00000000  0.50000000  0.50000000  1
  C  C11  1  0.50000000  0.50000000  0.00000000  1
  C  C12  1  0.00000000  0.00000000  0.50000000  1
  C  C13  1  0.50000000  0.00000000  0.00000000  1
  C  C14  1  0.00000000  0.50000000  0.00000000  1
  C  C15  1  0.50000000  0.50000000  0.50000000  1
  C  C16  1  0.46150400  0.78907400  0.96057800  1
  C  C17  1  0.96150400  0.21092600  0.53942200  1
  C  C18  1  0.53849600  0.21092600  0.03942200  1
  C  C19  1  0.03849600  0.78907400  0.46057800  1
  C  C20  1  0.25016900  0.48077100  0.47061500  1
  C  C21  1  0.75016900  0.51922900  0.02938500  1
  C  C22  1  0.74983100  0.51922900  0.52938500  1
  C  C23  1  0.24983100  0.48077100  0.97061500  1
  C  C24  1  0.45867800  0.28691500  0.75048400  1
  C  C25  1  0.95867800  0.71308500  0.74951600  1
  C  C26  1  0.54132200  0.71308500  0.24951600  1
  C  C27  1  0.04132200  0.28691500  0.25048400  1
  C  C28  1  0.22793200  0.98129400  0.54359700  1
  C  C29  1  0.72793200  0.01870600  0.95640300  1
  C  C30  1  0.77206800  0.01870600  0.45640300  1
  C  C31  1  0.27206800  0.98129400  0.04359700  1
  C  C32  1  0.96091700  0.23821000  0.03505200  1
  C  C33  1  0.46091700  0.76179000  0.46494800  1
  C  C34  1  0.03908300  0.76179000  0.96494800  1
  C  C35  1  0.53908300  0.23821000  0.53505200  1
  C  C36  1  0.96382000  0.69266100  0.27227700  1
  C  C37  1  0.46382000  0.30733900  0.22772300  1
  C  C38  1  0.03618000  0.30733900  0.72772300  1
  C  C39  1  0.53618000  0.69266100  0.77227700  1
