# generated using pymatgen
data_CuNiC4
_symmetry_space_group_name_H-M   'P 1'
_cell_length_a   7.39592800
_cell_length_b   5.60197500
_cell_length_c   8.67093014
_cell_angle_alpha   89.85929996
_cell_angle_beta   90.00000000
_cell_angle_gamma   90.00000000
_symmetry_Int_Tables_number   1
_chemical_formula_structural   CuNiC4
_chemical_formula_sum   'Cu4 Ni4 C16'
_cell_volume   359.25119293
_cell_formula_units_Z   4
loop_
 _symmetry_equiv_pos_site_id
 _symmetry_equiv_pos_as_xyz
  1  'x, y, z'
loop_
 _atom_site_type_symbol
 _atom_site_label
 _atom_site_symmetry_multiplicity
 _atom_site_fract_x
 _atom_site_fract_y
 _atom_site_fract_z
 _atom_site_occupancy
  C  C0  1  0.65786100  0.25441200  0.17901400  1
  C  C1  1  0.34213900  0.74558800  0.82098600  1
  C  C2  1  0.15786100  0.74558800  0.32098600  1
  C  C3  1  0.84213900  0.25441200  0.67901400  1
  Ni  Ni4  1  0.20290800  0.27331700  0.06653100  1
  Ni  Ni5  1  0.79709200  0.72668300  0.93346900  1
  Ni  Ni6  1  0.70290800  0.72668300  0.43346900  1
  Ni  Ni7  1  0.29709200  0.27331700  0.56653100  1
  Cu  Cu8  1  0.29907900  0.45036500  0.08213900  1
  Cu  Cu9  1  0.70092100  0.54963500  0.91786100  1
  Cu  Cu10  1  0.79907900  0.54963500  0.41786100  1
  Cu  Cu11  1  0.20092100  0.45036500  0.58213900  1
  C  C12  1  0.05843100  0.24230200  0.17550600  1
  C  C13  1  0.94156900  0.75769800  0.82449400  1
  C  C14  1  0.55843100  0.75769800  0.32449400  1
  C  C15  1  0.44156900  0.24230200  0.67550600  1
  C  C16  1  0.29629100  0.04127400  0.08200600  1
  C  C17  1  0.70370900  0.95872600  0.91799400  1
  C  C18  1  0.79629100  0.95872600  0.41799400  1
  C  C19  1  0.20370900  0.04127400  0.58200600  1
  C  C20  1  0.38667400  0.24179800  0.42276800  1
  C  C21  1  0.61332600  0.75820200  0.57723200  1
  C  C22  1  0.88667400  0.75820200  0.07723200  1
  C  C23  1  0.11332600  0.24179800  0.92276800  1
