# generated using pymatgen
data_Cu3NiC5
_symmetry_space_group_name_H-M   'P 1'
_cell_length_a   5.85355500
_cell_length_b   8.58385432
_cell_length_c   8.58385432
_cell_angle_alpha   120.00000249
_cell_angle_beta   90.00000000
_cell_angle_gamma   90.00000000
_symmetry_Int_Tables_number   1
_chemical_formula_structural   Cu3NiC5
_chemical_formula_sum   'Cu6 Ni2 C10'
_cell_volume   373.52098084
_cell_formula_units_Z   2
loop_
 _symmetry_equiv_pos_site_id
 _symmetry_equiv_pos_as_xyz
  1  'x, y, z'
loop_
 _atom_site_type_symbol
 _atom_site_label
 _atom_site_symmetry_multiplicity
 _atom_site_fract_x
 _atom_site_fract_y
 _atom_site_fract_z
 _atom_site_occupancy
  C  C0  1  0.75000000  0.74681500  0.74681500  1
  C  C1  1  0.25000000  0.25318500  0.25318500  1
  C  C2  1  0.75000000  0.00000000  0.25318500  1
  C  C3  1  0.25000000  0.00000000  0.74681500  1
  C  C4  1  0.75000000  0.25318500  0.00000000  1
  C  C5  1  0.25000000  0.74681500  0.00000000  1
  C  C6  1  0.00000000  0.66666700  0.33333300  1
  C  C7  1  0.00000000  0.33333300  0.66666700  1
  C  C8  1  0.50000000  0.33333300  0.66666700  1
  C  C9  1  0.50000000  0.66666700  0.33333300  1
  Ni  Ni10  1  0.00000000  0.00000000  0.00000000  1
  Ni  Ni11  1  0.50000000  0.00000000  0.00000000  1
  Cu  Cu12  1  0.75000000  0.39317400  0.39317400  1
  Cu  Cu13  1  0.25000000  0.60682600  0.60682600  1
  Cu  Cu14  1  0.75000000  0.00000000  0.60682600  1
  Cu  Cu15  1  0.25000000  0.00000000  0.39317400  1
  Cu  Cu16  1  0.75000000  0.60682600  0.00000000  1
  Cu  Cu17  1  0.25000000  0.39317400  0.00000000  1
