# generated using pymatgen
data_CuNi5C3
_symmetry_space_group_name_H-M   'P 1'
_cell_length_a   5.26386200
_cell_length_b   7.06590733
_cell_length_c   12.89994359
_cell_angle_alpha   90.24989543
_cell_angle_beta   90.23315551
_cell_angle_gamma   101.99419927
_symmetry_Int_Tables_number   1
_chemical_formula_structural   CuNi5C3
_chemical_formula_sum   'Cu4 Ni20 C12'
_cell_volume   469.31478006
_cell_formula_units_Z   4
loop_
 _symmetry_equiv_pos_site_id
 _symmetry_equiv_pos_as_xyz
  1  'x, y, z'
loop_
 _atom_site_type_symbol
 _atom_site_label
 _atom_site_symmetry_multiplicity
 _atom_site_fract_x
 _atom_site_fract_y
 _atom_site_fract_z
 _atom_site_occupancy
  C  C0  1  0.95039500  0.81386300  0.80471800  1
  C  C1  1  0.45254600  0.31370000  0.69725000  1
  C  C2  1  0.04960500  0.18613700  0.19528200  1
  C  C3  1  0.54745400  0.68630000  0.30275000  1
  C  C4  1  0.00000000  0.00000000  0.50000000  1
  C  C5  1  0.50000000  0.00000000  0.00000000  1
  C  C6  1  0.00000000  0.50000000  0.50000000  1
  C  C7  1  0.50000000  0.50000000  0.00000000  1
  C  C8  1  0.42881800  0.79949500  0.61511300  1
  C  C9  1  0.93023400  0.30431000  0.88979200  1
  C  C10  1  0.57118200  0.20050500  0.38488700  1
  C  C11  1  0.06976600  0.69569000  0.11020800  1
  Ni  Ni12  1  0.73537300  0.44481200  0.88780500  1
  Ni  Ni13  1  0.23284800  0.94086600  0.61740600  1
  Ni  Ni14  1  0.26462700  0.55518800  0.11219500  1
  Ni  Ni15  1  0.76715200  0.05913400  0.38259400  1
  Ni  Ni16  1  0.57131800  0.75872400  0.95672300  1
  Ni  Ni17  1  0.06881400  0.26202700  0.54440700  1
  Ni  Ni18  1  0.42868200  0.24127600  0.04327700  1
  Ni  Ni19  1  0.93118600  0.73797300  0.45559300  1
  Ni  Ni20  1  0.69811500  0.93351800  0.59485700  1
  Ni  Ni21  1  0.20760500  0.42683100  0.91207700  1
  Ni  Ni22  1  0.30188500  0.06648200  0.40514300  1
  Ni  Ni23  1  0.79239500  0.57316900  0.08792300  1
  Ni  Ni24  1  0.84829900  0.14813600  0.97511600  1
  Ni  Ni25  1  0.35013100  0.64621500  0.52801900  1
  Ni  Ni26  1  0.15170100  0.85186400  0.02488400  1
  Ni  Ni27  1  0.64986900  0.35378500  0.47198100  1
  Ni  Ni28  1  0.43171800  0.70433900  0.72123300  1
  Ni  Ni29  1  0.93214100  0.20835900  0.78261900  1
  Ni  Ni30  1  0.56828200  0.29566100  0.27876700  1
  Ni  Ni31  1  0.06785900  0.79164100  0.21738100  1
  Cu  Cu32  1  0.89307700  0.54831300  0.63198300  1
  Cu  Cu33  1  0.39445500  0.04276400  0.86855900  1
  Cu  Cu34  1  0.10692300  0.45168700  0.36801700  1
  Cu  Cu35  1  0.60554500  0.95723600  0.13144100  1
