# generated using pymatgen
data_Cu8Ni3C13
_symmetry_space_group_name_H-M   'P 1'
_cell_length_a   7.10117602
_cell_length_b   10.25577569
_cell_length_c   15.78388900
_cell_angle_alpha   90.00000000
_cell_angle_beta   90.00000000
_cell_angle_gamma   93.99775060
_symmetry_Int_Tables_number   1
_chemical_formula_structural   Cu8Ni3C13
_chemical_formula_sum   'Cu32 Ni12 C52'
_cell_volume   1146.71314596
_cell_formula_units_Z   4
loop_
 _symmetry_equiv_pos_site_id
 _symmetry_equiv_pos_as_xyz
  1  'x, y, z'
loop_
 _atom_site_type_symbol
 _atom_site_label
 _atom_site_symmetry_multiplicity
 _atom_site_fract_x
 _atom_site_fract_y
 _atom_site_fract_z
 _atom_site_occupancy
  C  C0  1  0.72568200  0.30367700  0.85331800  1
  C  C1  1  0.27431800  0.19632300  0.35331800  1
  C  C2  1  0.27431800  0.69632300  0.14668200  1
  C  C3  1  0.72568200  0.80367700  0.64668200  1
  C  C4  1  0.01588200  0.25743800  0.72077200  1
  C  C5  1  0.98411800  0.24256200  0.22077200  1
  C  C6  1  0.98411800  0.74256200  0.27922800  1
  C  C7  1  0.01588200  0.75743800  0.77922800  1
  C  C8  1  0.62046800  0.29136500  0.67012600  1
  C  C9  1  0.37953200  0.20863500  0.17012600  1
  C  C10  1  0.37953200  0.70863500  0.32987400  1
  C  C11  1  0.62046800  0.79136500  0.82987400  1
  C  C12  1  0.34000100  0.13287600  0.00854700  1
  C  C13  1  0.65999900  0.36712400  0.50854700  1
  C  C14  1  0.65999900  0.86712400  0.99145300  1
  C  C15  1  0.34000100  0.63287600  0.49145300  1
  C  C16  1  0.85795900  0.18820100  0.59960100  1
  C  C17  1  0.14204100  0.31179900  0.09960100  1
  C  C18  1  0.14204100  0.81179900  0.40039900  1
  C  C19  1  0.85795900  0.68820100  0.90039900  1
  C  C20  1  0.18062100  0.43681100  0.68272900  1
  C  C21  1  0.81937900  0.06318900  0.18272900  1
  C  C22  1  0.81937900  0.56318900  0.31727100  1
  C  C23  1  0.18062100  0.93681100  0.81727100  1
  C  C24  1  0.36590700  0.15808800  0.68823100  1
  C  C25  1  0.63409300  0.34191200  0.18823100  1
  C  C26  1  0.63409300  0.84191200  0.31176900  1
  C  C27  1  0.36590700  0.65808800  0.81176900  1
  C  C28  1  0.07966000  0.42219300  0.93773100  1
  C  C29  1  0.92034000  0.07780700  0.43773100  1
  C  C30  1  0.92034000  0.57780700  0.06226900  1
  C  C31  1  0.07966000  0.92219300  0.56226900  1
  C  C32  1  0.61360400  0.46433800  0.76542600  1
  C  C33  1  0.38639600  0.03566200  0.26542600  1
  C  C34  1  0.38639600  0.53566200  0.23457400  1
  C  C35  1  0.61360400  0.96433800  0.73457400  1
  C  C36  1  0.93982100  0.14427800  0.84127600  1
  C  C37  1  0.06017900  0.35572200  0.34127600  1
  C  C38  1  0.06017900  0.85572200  0.15872400  1
  C  C39  1  0.93982100  0.64427800  0.65872400  1
  C  C40  1  0.25683800  0.25228700  0.95681600  1
  C  C41  1  0.74316200  0.24771300  0.45681600  1
  C  C42  1  0.74316200  0.74771300  0.04318400  1
  C  C43  1  0.25683800  0.75228700  0.54318400  1
  C  C44  1  0.23741900  0.47566000  0.00212500  1
  C  C45  1  0.76258100  0.02434000  0.50212500  1
  C  C46  1  0.76258100  0.52434000  0.99787500  1
  C  C47  1  0.23741900  0.97566000  0.49787500  1
  C  C48  1  0.45491000  0.17569000  0.91406000  1
  C  C49  1  0.54509000  0.32431000  0.41406000  1
  C  C50  1  0.54509000  0.82431000  0.08594000  1
  C  C51  1  0.45491000  0.67569000  0.58594000  1
  Ni  Ni52  1  0.64280700  0.36794900  0.76320800  1
  Ni  Ni53  1  0.35719300  0.13205100  0.26320800  1
  Ni  Ni54  1  0.35719300  0.63205100  0.23679200  1
  Ni  Ni55  1  0.64280700  0.86794900  0.73679200  1
  Ni  Ni56  1  0.84070300  0.24971700  0.64989200  1
  Ni  Ni57  1  0.15929700  0.25028300  0.14989200  1
  Ni  Ni58  1  0.15929700  0.75028300  0.35010800  1
  Ni  Ni59  1  0.84070300  0.74971700  0.85010800  1
  Ni  Ni60  1  0.92016700  0.23370800  0.81585900  1
  Ni  Ni61  1  0.07983300  0.26629200  0.31585900  1
  Ni  Ni62  1  0.07983300  0.76629200  0.18414100  1
  Ni  Ni63  1  0.92016700  0.73370800  0.68414100  1
  Cu  Cu64  1  0.60380400  0.18318000  0.88121000  1
  Cu  Cu65  1  0.39619600  0.31682000  0.38121000  1
  Cu  Cu66  1  0.39619600  0.81682000  0.11879000  1
  Cu  Cu67  1  0.60380400  0.68318000  0.61879000  1
  Cu  Cu68  1  0.09554200  0.40585600  0.72826000  1
  Cu  Cu69  1  0.90445800  0.09414400  0.22826000  1
  Cu  Cu70  1  0.90445800  0.59414400  0.27174000  1
  Cu  Cu71  1  0.09554200  0.90585600  0.77174000  1
  Cu  Cu72  1  0.54354500  0.37678900  0.60403100  1
  Cu  Cu73  1  0.45645500  0.12321100  0.10403100  1
  Cu  Cu74  1  0.45645500  0.62321100  0.39596900  1
  Cu  Cu75  1  0.54354500  0.87678900  0.89596900  1
  Cu  Cu76  1  0.15607200  0.16259000  0.69732100  1
  Cu  Cu77  1  0.84392800  0.33741000  0.19732100  1
  Cu  Cu78  1  0.84392800  0.83741000  0.30267900  1
  Cu  Cu79  1  0.15607200  0.66259000  0.80267900  1
  Cu  Cu80  1  0.51063700  0.15445700  0.68371900  1
  Cu  Cu81  1  0.48936300  0.34554300  0.18371900  1
  Cu  Cu82  1  0.48936300  0.84554300  0.31628100  1
  Cu  Cu83  1  0.51063700  0.65445700  0.81628100  1
  Cu  Cu84  1  0.30079800  0.16074700  0.95049100  1
  Cu  Cu85  1  0.69920200  0.33925300  0.45049100  1
  Cu  Cu86  1  0.69920200  0.83925300  0.04950900  1
  Cu  Cu87  1  0.30079800  0.66074700  0.54950900  1
  Cu  Cu88  1  0.77295500  0.41198900  0.91449400  1
  Cu  Cu89  1  0.22704500  0.08801100  0.41449400  1
  Cu  Cu90  1  0.22704500  0.58801100  0.08550600  1
  Cu  Cu91  1  0.77295500  0.91198900  0.58550600  1
  Cu  Cu92  1  0.19708500  0.40052900  0.96523100  1
  Cu  Cu93  1  0.80291500  0.09947100  0.46523100  1
  Cu  Cu94  1  0.80291500  0.59947100  0.03476900  1
  Cu  Cu95  1  0.19708500  0.90052900  0.53476900  1
