# generated using pymatgen
data_Cu7(Ni2C15)4
_symmetry_space_group_name_H-M   'P 1'
_cell_length_a   10.65720400
_cell_length_b   5.13973400
_cell_length_c   18.02554210
_cell_angle_alpha   89.61350932
_cell_angle_beta   90.00000000
_cell_angle_gamma   90.00000000
_symmetry_Int_Tables_number   1
_chemical_formula_structural   Cu7(Ni2C15)4
_chemical_formula_sum   'Cu7 Ni8 C60'
_cell_volume   987.33009756
_cell_formula_units_Z   1
loop_
 _symmetry_equiv_pos_site_id
 _symmetry_equiv_pos_as_xyz
  1  'x, y, z'
loop_
 _atom_site_type_symbol
 _atom_site_label
 _atom_site_symmetry_multiplicity
 _atom_site_fract_x
 _atom_site_fract_y
 _atom_site_fract_z
 _atom_site_occupancy
  Ni  Ni0  1  0.82583800  0.24497800  0.02749600  1
  Ni  Ni1  1  0.17512100  0.75051400  0.47312600  1
  Ni  Ni2  1  0.32265900  0.75286400  0.97130400  1
  Ni  Ni3  1  0.67759900  0.25076600  0.52853400  1
  Ni  Ni4  1  0.67734100  0.75286400  0.97130400  1
  Ni  Ni5  1  0.32240100  0.25076600  0.52853400  1
  Ni  Ni6  1  0.17416200  0.24497800  0.02749600  1
  Ni  Ni7  1  0.82487900  0.75051400  0.47312600  1
  Cu  Cu8  1  0.00000000  0.21734100  0.18294500  1
  Cu  Cu9  1  0.00000000  0.71579700  0.31723400  1
  Cu  Cu10  1  0.50000000  0.78778600  0.81773800  1
  Cu  Cu11  1  0.50000000  0.28373700  0.68158900  1
  Cu  Cu12  1  0.00000000  0.60678300  0.75108800  1
  Cu  Cu13  1  0.50000000  0.88827700  0.25250200  1
  Cu  Cu14  1  0.50000000  0.38775400  0.24746800  1
  C  C15  1  0.77820300  0.72271600  0.15548900  1
  C  C16  1  0.22154900  0.22286600  0.34480900  1
  C  C17  1  0.27795100  0.28084400  0.84294800  1
  C  C18  1  0.72090400  0.77388500  0.65619500  1
  C  C19  1  0.72204900  0.28084400  0.84294800  1
  C  C20  1  0.27909600  0.77388500  0.65619500  1
  C  C21  1  0.22179700  0.72271600  0.15548900  1
  C  C22  1  0.77845100  0.22286600  0.34480900  1
  C  C23  1  0.00000000  0.77750900  0.94564200  1
  C  C24  1  0.00000000  0.27640800  0.55525600  1
  C  C25  1  0.50000000  0.22196900  0.05405000  1
  C  C26  1  0.50000000  0.72416900  0.44578900  1
  C  C27  1  0.13767800  0.83565500  0.70228100  1
  C  C28  1  0.86029000  0.37591300  0.79781700  1
  C  C29  1  0.63604200  0.14657900  0.29688600  1
  C  C30  1  0.36405100  0.64557800  0.20386000  1
  C  C31  1  0.36395800  0.14657900  0.29688600  1
  C  C32  1  0.63594900  0.64557800  0.20386000  1
  C  C33  1  0.86232200  0.83565500  0.70228100  1
  C  C34  1  0.13971000  0.37591300  0.79781700  1
  C  C35  1  0.36598600  0.07004200  0.62615900  1
  C  C36  1  0.63199400  0.56730200  0.87472600  1
  C  C37  1  0.86638200  0.93042100  0.37449800  1
  C  C38  1  0.13374700  0.43381600  0.12557000  1
  C  C39  1  0.13361800  0.93042100  0.37449800  1
  C  C40  1  0.86625300  0.43381600  0.12557000  1
  C  C41  1  0.63401400  0.07004200  0.62615900  1
  C  C42  1  0.36800600  0.56730200  0.87472600  1
  C  C43  1  0.00000000  0.55917600  0.49134800  1
  C  C44  1  0.00000000  0.06655100  0.00710900  1
  C  C45  1  0.50000000  0.43787600  0.50769200  1
  C  C46  1  0.50000000  0.93627300  0.99230700  1
  C  C47  1  0.00000000  0.37118000  0.64705900  1
  C  C48  1  0.00000000  0.85363900  0.85183400  1
  C  C49  1  0.50000000  0.64205400  0.35092100  1
  C  C50  1  0.50000000  0.13986500  0.14932700  1
  C  C51  1  0.25879600  0.41865200  0.42767200  1
  C  C52  1  0.73954700  0.91976400  0.07228800  1
  C  C53  1  0.75791600  0.58190800  0.57201300  1
  C  C54  1  0.23930200  0.08361900  0.92684900  1
  C  C55  1  0.24208400  0.58190800  0.57201300  1
  C  C56  1  0.76069800  0.08361900  0.92684900  1
  C  C57  1  0.74120400  0.41865200  0.42767200  1
  C  C58  1  0.26045300  0.91976400  0.07228800  1
  C  C59  1  0.37337600  0.55999200  0.71192200  1
  C  C60  1  0.62988300  0.06211300  0.78773800  1
  C  C61  1  0.87275400  0.43425200  0.28867100  1
  C  C62  1  0.12756400  0.93338600  0.21084700  1
  C  C63  1  0.12724600  0.43425200  0.28867100  1
  C  C64  1  0.87243600  0.93338600  0.21084700  1
  C  C65  1  0.62662400  0.55999200  0.71192200  1
  C  C66  1  0.37011700  0.06211300  0.78773800  1
  C  C67  1  0.13827700  0.07608900  0.53637700  1
  C  C68  1  0.86190300  0.57835900  0.96547400  1
  C  C69  1  0.63743200  0.92420500  0.46412200  1
  C  C70  1  0.36272600  0.42211600  0.03584000  1
  C  C71  1  0.36256800  0.92420500  0.46412200  1
  C  C72  1  0.63727400  0.42211600  0.03584000  1
  C  C73  1  0.86172300  0.07608900  0.53637700  1
  C  C74  1  0.13809700  0.57835900  0.96547400  1
