# generated using pymatgen
data_Cu4NiC3
_symmetry_space_group_name_H-M   'P 1'
_cell_length_a   4.27338900
_cell_length_b   4.21154100
_cell_length_c   17.55114234
_cell_angle_alpha   86.44472059
_cell_angle_beta   90.00000000
_cell_angle_gamma   90.00000000
_symmetry_Int_Tables_number   1
_chemical_formula_structural   Cu4NiC3
_chemical_formula_sum   'Cu4 Ni1 C3'
_cell_volume   315.26968670
_cell_formula_units_Z   1
loop_
 _symmetry_equiv_pos_site_id
 _symmetry_equiv_pos_as_xyz
  1  'x, y, z'
loop_
 _atom_site_type_symbol
 _atom_site_label
 _atom_site_symmetry_multiplicity
 _atom_site_fract_x
 _atom_site_fract_y
 _atom_site_fract_z
 _atom_site_occupancy
  Ni  Ni0  1  0.50000000  0.64834100  0.91257200  1
  C  C1  1  0.50000000  0.83980400  0.25070800  1
  C  C2  1  0.00000000  0.15642400  0.74827300  1
  C  C3  1  0.00000000  0.37575400  0.08343100  1
  Cu  Cu4  1  0.50000000  0.90411800  0.09487200  1
  Cu  Cu5  1  0.00000000  0.07333300  0.90229900  1
  Cu  Cu6  1  0.00000000  0.35596700  0.24012000  1
  Cu  Cu7  1  0.50000000  0.64625900  0.76772400  1
