# generated using pymatgen
data_Cu2NiC
_symmetry_space_group_name_H-M   'P 1'
_cell_length_a   5.87806000
_cell_length_b   5.90624800
_cell_length_c   21.47790600
_cell_angle_alpha   90.00000000
_cell_angle_beta   90.00000000
_cell_angle_gamma   90.00000000
_symmetry_Int_Tables_number   1
_chemical_formula_structural   Cu2NiC
_chemical_formula_sum   'Cu16 Ni8 C8'
_cell_volume   745.65447897
_cell_formula_units_Z   8
loop_
 _symmetry_equiv_pos_site_id
 _symmetry_equiv_pos_as_xyz
  1  'x, y, z'
loop_
 _atom_site_type_symbol
 _atom_site_label
 _atom_site_symmetry_multiplicity
 _atom_site_fract_x
 _atom_site_fract_y
 _atom_site_fract_z
 _atom_site_occupancy
  C  C0  1  0.75000000  0.51444700  0.88564500  1
  C  C1  1  0.25000000  0.48555300  0.11435500  1
  C  C2  1  0.25000000  0.51444700  0.61435500  1
  C  C3  1  0.75000000  0.48555300  0.38564500  1
  C  C4  1  0.75000000  0.01638500  0.61943300  1
  C  C5  1  0.25000000  0.98361500  0.38056700  1
  C  C6  1  0.25000000  0.01638500  0.88056700  1
  C  C7  1  0.75000000  0.98361500  0.11943300  1
  Ni  Ni8  1  0.00000000  0.23505300  0.25000000  1
  Ni  Ni9  1  0.50000000  0.76494700  0.75000000  1
  Ni  Ni10  1  0.00000000  0.76494700  0.75000000  1
  Ni  Ni11  1  0.50000000  0.23505300  0.25000000  1
  Ni  Ni12  1  0.00000000  0.73164900  0.25000000  1
  Ni  Ni13  1  0.50000000  0.26835100  0.75000000  1
  Ni  Ni14  1  0.00000000  0.26835100  0.75000000  1
  Ni  Ni15  1  0.50000000  0.73164900  0.25000000  1
  Cu  Cu16  1  0.75000000  0.51663400  0.66268200  1
  Cu  Cu17  1  0.25000000  0.48336600  0.33731800  1
  Cu  Cu18  1  0.25000000  0.51663400  0.83731800  1
  Cu  Cu19  1  0.75000000  0.48336600  0.16268200  1
  Cu  Cu20  1  0.75000000  0.01590200  0.83627600  1
  Cu  Cu21  1  0.25000000  0.98409800  0.16372400  1
  Cu  Cu22  1  0.25000000  0.01590200  0.66372400  1
  Cu  Cu23  1  0.75000000  0.98409800  0.33627600  1
  Cu  Cu24  1  0.03110300  0.21751900  0.49852300  1
  Cu  Cu25  1  0.53110300  0.78248100  0.50147700  1
  Cu  Cu26  1  0.96889700  0.21751900  0.00147700  1
  Cu  Cu27  1  0.46889700  0.78248100  0.99852300  1
  Cu  Cu28  1  0.96889700  0.78248100  0.50147700  1
  Cu  Cu29  1  0.46889700  0.21751900  0.49852300  1
  Cu  Cu30  1  0.03110300  0.78248100  0.99852300  1
  Cu  Cu31  1  0.53110300  0.21751900  0.00147700  1
