# generated using pymatgen
data_CuNiC10
_symmetry_space_group_name_H-M   'P 1'
_cell_length_a   9.54081461
_cell_length_b   9.54081461
_cell_length_c   6.13363800
_cell_angle_alpha   90.00000000
_cell_angle_beta   90.00000000
_cell_angle_gamma   120.00000422
_symmetry_Int_Tables_number   1
_chemical_formula_structural   CuNiC10
_chemical_formula_sum   'Cu2 Ni2 C20'
_cell_volume   483.52581773
_cell_formula_units_Z   2
loop_
 _symmetry_equiv_pos_site_id
 _symmetry_equiv_pos_as_xyz
  1  'x, y, z'
loop_
 _atom_site_type_symbol
 _atom_site_label
 _atom_site_symmetry_multiplicity
 _atom_site_fract_x
 _atom_site_fract_y
 _atom_site_fract_z
 _atom_site_occupancy
  C  C0  1  0.15446000  0.37329300  0.82436700  1
  C  C1  1  0.21883300  0.84554000  0.82436700  1
  C  C2  1  0.62670700  0.78116700  0.82436700  1
  C  C3  1  0.84554000  0.62670700  0.32436700  1
  C  C4  1  0.78116700  0.15446000  0.32436700  1
  C  C5  1  0.37329300  0.21883300  0.32436700  1
  Ni  Ni6  1  0.66666700  0.33333300  0.89610700  1
  Ni  Ni7  1  0.33333300  0.66666700  0.39610700  1
  Cu  Cu8  1  0.00000000  0.00000000  0.49037100  1
  Cu  Cu9  1  0.00000000  0.00000000  0.99037100  1
  C  C10  1  0.43309000  0.51880000  0.55383300  1
  C  C11  1  0.08571000  0.56691000  0.55383300  1
  C  C12  1  0.48120000  0.91429000  0.55383300  1
  C  C13  1  0.56691000  0.48120000  0.05383300  1
  C  C14  1  0.91429000  0.43309000  0.05383300  1
  C  C15  1  0.51880000  0.08571000  0.05383300  1
  C  C16  1  0.66666700  0.33333300  0.52928000  1
  C  C17  1  0.33333300  0.66666700  0.02928000  1
  C  C18  1  0.87196000  0.09556200  0.73389100  1
  C  C19  1  0.22360200  0.12804000  0.73389100  1
  C  C20  1  0.90443800  0.77639800  0.73389100  1
  C  C21  1  0.12804000  0.90443800  0.23389100  1
  C  C22  1  0.77639800  0.87196000  0.23389100  1
  C  C23  1  0.09556200  0.22360200  0.23389100  1
