# generated using pymatgen
data_Cu(NiC2)3
_symmetry_space_group_name_H-M   'P 1'
_cell_length_a   10.72592564
_cell_length_b   8.99853655
_cell_length_c   10.42009113
_cell_angle_alpha   94.09130080
_cell_angle_beta   89.69253427
_cell_angle_gamma   95.40479756
_symmetry_Int_Tables_number   1
_chemical_formula_structural   Cu(NiC2)3
_chemical_formula_sum   'Cu8 Ni24 C48'
_cell_volume   998.69868951
_cell_formula_units_Z   8
loop_
 _symmetry_equiv_pos_site_id
 _symmetry_equiv_pos_as_xyz
  1  'x, y, z'
loop_
 _atom_site_type_symbol
 _atom_site_label
 _atom_site_symmetry_multiplicity
 _atom_site_fract_x
 _atom_site_fract_y
 _atom_site_fract_z
 _atom_site_occupancy
  Ni  Ni0  1  0.34746400  0.79181300  0.44579200  1
  Ni  Ni1  1  0.09422900  0.91614900  0.44212200  1
  Ni  Ni2  1  0.91785900  0.89337700  0.02169900  1
  Ni  Ni3  1  0.67331100  0.18998000  0.73723300  1
  Ni  Ni4  1  0.71850300  0.43442700  0.05602900  1
  Ni  Ni5  1  0.16983800  0.06664200  0.01544800  1
  Ni  Ni6  1  0.14678600  0.24411400  0.59063400  1
  Ni  Ni7  1  0.64227300  0.82999000  0.99184700  1
  Ni  Ni8  1  0.91659700  0.52549900  0.31458200  1
  Ni  Ni9  1  0.85209400  0.13044300  0.52299700  1
  Ni  Ni10  1  0.93832500  0.29194200  0.86628100  1
  Ni  Ni11  1  0.01600200  0.97339700  0.72038800  1
  Ni  Ni12  1  0.56488700  0.53826600  0.85843600  1
  Ni  Ni13  1  0.33999500  0.13467700  0.74300000  1
  Ni  Ni14  1  0.69964400  0.48835500  0.58188900  1
  Ni  Ni15  1  0.19794100  0.40562300  0.89184800  1
  Ni  Ni16  1  0.34457200  0.23882600  0.31335300  1
  Ni  Ni17  1  0.77551200  0.76226600  0.25971900  1
  Ni  Ni18  1  0.11560400  0.63186100  0.67880400  1
  Ni  Ni19  1  0.59169400  0.96496000  0.41672600  1
  Ni  Ni20  1  0.82291000  0.17766600  0.17189300  1
  Ni  Ni21  1  0.12717000  0.70786400  0.95616700  1
  Ni  Ni22  1  0.42258900  0.43290700  0.56276600  1
  Ni  Ni23  1  0.07719300  0.21105100  0.26379400  1
  Cu  Cu24  1  0.37610700  0.84895600  0.90006400  1
  Cu  Cu25  1  0.50382200  0.57997700  0.30504100  1
  Cu  Cu26  1  0.52746700  0.16346200  0.98450500  1
  Cu  Cu27  1  0.37229100  0.93328200  0.19068800  1
  Cu  Cu28  1  0.17758700  0.53533900  0.41166900  1
  Cu  Cu29  1  0.84806600  0.74992700  0.53497300  1
  Cu  Cu30  1  0.59922900  0.85492700  0.68345400  1
  Cu  Cu31  1  0.60646600  0.26990500  0.32057300  1
  C  C32  1  0.98946500  0.19353700  0.69103800  1
  C  C33  1  0.47877300  0.79846000  0.30525900  1
  C  C34  1  0.09817800  0.25277300  0.94839500  1
  C  C35  1  0.51436800  0.09811500  0.76852300  1
  C  C36  1  0.74387300  0.10652700  0.35604600  1
  C  C37  1  0.18484300  0.04686700  0.65666000  1
  C  C38  1  0.64653500  0.61898600  0.02174700  1
  C  C39  1  0.98021700  0.72996700  0.06468500  1
  C  C40  1  0.93469800  0.94658400  0.55058900  1
  C  C41  1  0.05607200  0.49562000  0.83489800  1
  C  C42  1  0.98649200  0.74486500  0.69238400  1
  C  C43  1  0.71502100  0.69235900  0.64772900  1
  C  C44  1  0.11727700  0.45747900  0.56917900  1
  C  C45  1  0.47356200  0.09642800  0.33035300  1
  C  C46  1  0.57654200  0.44399000  0.44661200  1
  C  C47  1  0.17521000  0.73516600  0.52492200  1
  C  C48  1  0.75316000  0.29660900  0.60950500  1
  C  C49  1  0.05904800  0.93418200  0.89926500  1
  C  C50  1  0.66116200  0.24600500  0.13484800  1
  C  C51  1  0.80019400  0.85663100  0.90112900  1
  C  C52  1  0.23489500  0.55322100  0.00566300  1
  C  C53  1  0.46291100  0.89465300  0.54767400  1
  C  C54  1  0.85855300  0.53710500  0.48452800  1
  C  C55  1  0.07316000  0.58146900  0.28195100  1
  C  C56  1  0.32668400  0.12555600  0.92463400  1
  C  C57  1  0.24243300  0.87105400  0.03860600  1
  C  C58  1  0.20615600  0.36360700  0.30755200  1
  C  C59  1  0.35965600  0.58301600  0.44607700  1
  C  C60  1  0.27585100  0.33549400  0.73585000  1
  C  C61  1  0.62752900  0.34095800  0.89799400  1
  C  C62  1  0.92187200  0.76142900  0.34466700  1
  C  C63  1  0.05400800  0.14242000  0.43364000  1
  C  C64  1  0.76656000  0.55176300  0.22659800  1
  C  C65  1  0.25358900  0.89335700  0.34900200  1
  C  C66  1  0.98585900  0.06974100  0.12529900  1
  C  C67  1  0.92207500  0.31524900  0.28922300  1
  C  C68  1  0.44808200  0.37195500  0.23518600  1
  C  C69  1  0.87021700  0.33622000  0.03749500  1
  C  C70  1  0.32042900  0.25632800  0.49585400  1
  C  C71  1  0.69647800  0.79042000  0.41290500  1
  C  C72  1  0.23467600  0.71310300  0.79350800  1
  C  C73  1  0.50572900  0.95323400  0.03985200  1
  C  C74  1  0.23741200  0.12246600  0.19748800  1
  C  C75  1  0.54406300  0.44875000  0.68452000  1
  C  C76  1  0.76540200  0.89769100  0.13893600  1
  C  C77  1  0.69254800  0.02958100  0.59512800  1
  C  C78  1  0.79831600  0.14190400  0.83195800  1
  C  C79  1  0.52973200  0.75690300  0.83880900  1
