# generated using pymatgen
data_Cu2NiC7
_symmetry_space_group_name_H-M   'P 1'
_cell_length_a   9.36822500
_cell_length_b   5.43612800
_cell_length_c   9.86794149
_cell_angle_alpha   77.04160119
_cell_angle_beta   90.00000000
_cell_angle_gamma   90.00000000
_symmetry_Int_Tables_number   1
_chemical_formula_structural   Cu2NiC7
_chemical_formula_sum   'Cu8 Ni4 C28'
_cell_volume   489.74517365
_cell_formula_units_Z   4
loop_
 _symmetry_equiv_pos_site_id
 _symmetry_equiv_pos_as_xyz
  1  'x, y, z'
loop_
 _atom_site_type_symbol
 _atom_site_label
 _atom_site_symmetry_multiplicity
 _atom_site_fract_x
 _atom_site_fract_y
 _atom_site_fract_z
 _atom_site_occupancy
  Ni  Ni0  1  0.48848900  0.55424800  0.24197000  1
  Ni  Ni1  1  0.98848900  0.94575200  0.75803000  1
  Ni  Ni2  1  0.51151100  0.44575200  0.75803000  1
  Ni  Ni3  1  0.01151100  0.05424800  0.24197000  1
  C  C4  1  0.65430700  0.04580400  0.24461100  1
  C  C5  1  0.15430700  0.45419600  0.75538900  1
  C  C6  1  0.34569300  0.95419600  0.75538900  1
  C  C7  1  0.84569300  0.54580400  0.24461100  1
  Cu  Cu8  1  0.33533000  0.17117200  0.05522000  1
  Cu  Cu9  1  0.83533000  0.32882800  0.94478000  1
  Cu  Cu10  1  0.66467000  0.82882800  0.94478000  1
  Cu  Cu11  1  0.16467000  0.67117200  0.05522000  1
  Cu  Cu12  1  0.34507500  0.75925200  0.45600300  1
  Cu  Cu13  1  0.84507500  0.74074800  0.54399700  1
  Cu  Cu14  1  0.65492500  0.24074800  0.54399700  1
  Cu  Cu15  1  0.15492500  0.25925200  0.45600300  1
  C  C16  1  0.29003600  0.48888600  0.38835100  1
  C  C17  1  0.79003600  0.01111400  0.61164900  1
  C  C18  1  0.70996400  0.51111400  0.61164900  1
  C  C19  1  0.20996400  0.98888600  0.38835100  1
  C  C20  1  0.32448100  0.82556700  0.10704800  1
  C  C21  1  0.82448100  0.67443300  0.89295200  1
  C  C22  1  0.67551900  0.17443300  0.89295200  1
  C  C23  1  0.17551900  0.32556700  0.10704800  1
  C  C24  1  0.99276800  0.30397700  0.36863500  1
  C  C25  1  0.49276800  0.19602300  0.63136500  1
  C  C26  1  0.00723200  0.69602300  0.63136500  1
  C  C27  1  0.50723200  0.80397700  0.36863500  1
  C  C28  1  0.02484400  0.78462000  0.13522000  1
  C  C29  1  0.52484400  0.71538000  0.86478000  1
  C  C30  1  0.97515600  0.21538000  0.86478000  1
  C  C31  1  0.47515600  0.28462000  0.13522000  1
  C  C32  1  0.33826000  0.23964900  0.86972400  1
  C  C33  1  0.83826000  0.26035100  0.13027600  1
  C  C34  1  0.66174000  0.76035100  0.13027600  1
  C  C35  1  0.16174000  0.73964900  0.86972400  1
  C  C36  1  0.35343900  0.68414800  0.63812100  1
  C  C37  1  0.85343900  0.81585200  0.36187900  1
  C  C38  1  0.64656100  0.31585200  0.36187900  1
  C  C39  1  0.14656100  0.18414800  0.63812100  1
