# generated using pymatgen
data_CuNi4C15
_symmetry_space_group_name_H-M   'P 1'
_cell_length_a   12.51443202
_cell_length_b   12.51443202
_cell_length_c   12.51443257
_cell_angle_alpha   28.06630933
_cell_angle_beta   28.06630933
_cell_angle_gamma   28.06630856
_symmetry_Int_Tables_number   1
_chemical_formula_structural   CuNi4C15
_chemical_formula_sum   'Cu1 Ni4 C15'
_cell_volume   383.23011634
_cell_formula_units_Z   1
loop_
 _symmetry_equiv_pos_site_id
 _symmetry_equiv_pos_as_xyz
  1  'x, y, z'
loop_
 _atom_site_type_symbol
 _atom_site_label
 _atom_site_symmetry_multiplicity
 _atom_site_fract_x
 _atom_site_fract_y
 _atom_site_fract_z
 _atom_site_occupancy
  Ni  Ni0  1  0.86915600  0.86915600  0.86915600  1
  Ni  Ni1  1  0.13084400  0.13084400  0.13084400  1
  Ni  Ni2  1  0.60015600  0.60015600  0.60015600  1
  Ni  Ni3  1  0.39984400  0.39984400  0.39984400  1
  Cu  Cu4  1  0.00000000  0.00000000  0.00000000  1
  C  C5  1  0.50000000  0.50000000  0.00000000  1
  C  C6  1  0.00000000  0.50000000  0.50000000  1
  C  C7  1  0.50000000  0.00000000  0.50000000  1
  C  C8  1  0.36358800  0.87168800  0.36358800  1
  C  C9  1  0.36358800  0.36358800  0.87168800  1
  C  C10  1  0.87168800  0.36358800  0.36358800  1
  C  C11  1  0.63641200  0.12831200  0.63641200  1
  C  C12  1  0.63641200  0.63641200  0.12831200  1
  C  C13  1  0.12831200  0.63641200  0.63641200  1
  C  C14  1  0.11703500  0.57215800  0.11703500  1
  C  C15  1  0.11703500  0.11703500  0.57215800  1
  C  C16  1  0.57215800  0.11703500  0.11703500  1
  C  C17  1  0.88296500  0.42784200  0.88296500  1
  C  C18  1  0.88296500  0.88296500  0.42784200  1
  C  C19  1  0.42784200  0.88296500  0.88296500  1
