# generated using pymatgen
data_Cu6Ni2C
_symmetry_space_group_name_H-M   'P 1'
_cell_length_a   5.57836754
_cell_length_b   5.57836754
_cell_length_c   4.58391243
_cell_angle_alpha   88.74290560
_cell_angle_beta   88.74290560
_cell_angle_gamma   121.43514633
_symmetry_Int_Tables_number   1
_chemical_formula_structural   Cu6Ni2C
_chemical_formula_sum   'Cu6 Ni2 C1'
_cell_volume   121.58497173
_cell_formula_units_Z   1
loop_
 _symmetry_equiv_pos_site_id
 _symmetry_equiv_pos_as_xyz
  1  'x, y, z'
loop_
 _atom_site_type_symbol
 _atom_site_label
 _atom_site_symmetry_multiplicity
 _atom_site_fract_x
 _atom_site_fract_y
 _atom_site_fract_z
 _atom_site_occupancy
  C  C0  1  0.00036200  0.00036200  0.99396600  1
  Ni  Ni1  1  0.34255500  0.67546200  0.49907100  1
  Ni  Ni2  1  0.67546200  0.34255500  0.49907100  1
  Cu  Cu3  1  0.98293500  0.34747700  0.25798300  1
  Cu  Cu4  1  0.34747700  0.98293500  0.25798300  1
  Cu  Cu5  1  0.68743800  0.68743800  0.24964600  1
  Cu  Cu6  1  0.99633600  0.64697300  0.73939600  1
  Cu  Cu7  1  0.64697300  0.99633600  0.73939600  1
  Cu  Cu8  1  0.32036200  0.32036200  0.76348700  1
