# generated using pymatgen
data_Cu14Ni2C17
_symmetry_space_group_name_H-M   'P 1'
_cell_length_a   9.90784600
_cell_length_b   13.31671377
_cell_length_c   13.35217108
_cell_angle_alpha   75.57172935
_cell_angle_beta   71.61487753
_cell_angle_gamma   70.59330224
_symmetry_Int_Tables_number   1
_chemical_formula_structural   Cu14Ni2C17
_chemical_formula_sum   'Cu28 Ni4 C34'
_cell_volume   1556.13468645
_cell_formula_units_Z   2
loop_
 _symmetry_equiv_pos_site_id
 _symmetry_equiv_pos_as_xyz
  1  'x, y, z'
loop_
 _atom_site_type_symbol
 _atom_site_label
 _atom_site_symmetry_multiplicity
 _atom_site_fract_x
 _atom_site_fract_y
 _atom_site_fract_z
 _atom_site_occupancy
  C  C0  1  0.57823200  0.05708300  0.30914000  1
  C  C1  1  0.07011300  0.31177200  0.06062300  1
  C  C2  1  0.42815800  0.93759400  0.68009400  1
  C  C3  1  0.92977300  0.69104100  0.93525900  1
  C  C4  1  0.30451800  0.15549300  0.51915000  1
  C  C5  1  0.80167700  0.52473800  0.16232300  1
  C  C6  1  0.71113100  0.83287200  0.47183500  1
  C  C7  1  0.19784900  0.47478300  0.83598700  1
  C  C8  1  0.32873400  0.91331000  0.47581500  1
  C  C9  1  0.83139900  0.47544300  0.91281800  1
  C  C10  1  0.67638300  0.08501100  0.52406900  1
  C  C11  1  0.16657000  0.52344000  0.08549800  1
  C  C12  1  0.78481100  0.50984200  0.52355600  1
  C  C13  1  0.27584900  0.52210000  0.51690600  1
  C  C14  1  0.81308200  0.37269200  0.54841000  1
  C  C15  1  0.32089300  0.54515100  0.38103700  1
  C  C16  1  0.74085200  0.44407100  0.65118300  1
  C  C17  1  0.24051900  0.65065000  0.44880900  1
  C  C18  1  0.64005600  0.45450200  0.56772900  1
  C  C19  1  0.14123800  0.56996300  0.44954600  1
  C  C20  1  0.87324500  0.03007200  0.02272400  1
  C  C21  1  0.37983300  0.02196800  0.02587100  1
  C  C22  1  0.03559400  0.96879900  0.94222900  1
  C  C23  1  0.54444800  0.93664700  0.97206800  1
  C  C24  1  0.02133300  0.07801200  0.99031900  1
  C  C25  1  0.52423000  0.98982600  0.07890400  1
  C  C26  1  0.92374200  0.08936100  0.89749200  1
  C  C27  1  0.42802300  0.89711400  0.09018700  1
  C  C28  1  0.23156400  0.83457900  0.23777900  1
  C  C29  1  0.72592200  0.24211400  0.83325100  1
  C  C30  1  0.28666200  0.75234500  0.15934600  1
  C  C31  1  0.78534500  0.16289900  0.75109200  1
  Ni  Ni32  1  0.74534900  0.44537400  0.57160700  1
  Ni  Ni33  1  0.24528700  0.57070500  0.44943600  1
  Ni  Ni34  1  0.96518100  0.04166900  0.96244800  1
  Ni  Ni35  1  0.47049600  0.96059500  0.04193500  1
  Cu  Cu36  1  0.85659000  0.00611700  0.36786800  1
  Cu  Cu37  1  0.32905600  0.31995500  0.95417600  1
  Cu  Cu38  1  0.16773100  0.03936100  0.66819900  1
  Cu  Cu39  1  0.64272700  0.60703400  0.03164400  1
  Cu  Cu40  1  0.22263600  0.10386300  0.38563100  1
  Cu  Cu41  1  0.79655200  0.34038800  0.15170800  1
  Cu  Cu42  1  0.70020700  0.85265300  0.65989100  1
  Cu  Cu43  1  0.28405900  0.60116800  0.89694000  1
  Cu  Cu44  1  0.48301400  0.24074500  0.37216300  1
  Cu  Cu45  1  0.01047700  0.43526300  0.25168700  1
  Cu  Cu46  1  0.41106200  0.77421200  0.63017700  1
  Cu  Cu47  1  0.02343700  0.63428500  0.75238000  1
  Cu  Cu48  1  0.62531700  0.85909400  0.30437900  1
  Cu  Cu49  1  0.06491300  0.35216300  0.81548800  1
  Cu  Cu50  1  0.43488600  0.13369100  0.67215700  1
  Cu  Cu51  1  0.86122900  0.70109000  0.13167100  1
  Cu  Cu52  1  0.62500600  0.10424300  0.11217800  1
  Cu  Cu53  1  0.13201800  0.11368600  0.09313600  1
  Cu  Cu54  1  0.35115100  0.89115700  0.87153400  1
  Cu  Cu55  1  0.82597100  0.88455400  0.88454000  1
  Cu  Cu56  1  0.12286400  0.32634100  0.53995900  1
  Cu  Cu57  1  0.61189800  0.54963700  0.32671900  1
  Cu  Cu58  1  0.87960200  0.64780500  0.45870700  1
  Cu  Cu59  1  0.38000900  0.44964100  0.66429200  1
  Cu  Cu60  1  0.81849000  0.18124200  0.56684700  1
  Cu  Cu61  1  0.30221900  0.56743800  0.18521700  1
  Cu  Cu62  1  0.18083200  0.82195100  0.43238900  1
  Cu  Cu63  1  0.67204800  0.44013100  0.82459400  1
  C  C64  1  0.27968500  0.82683800  0.16258100  1
  C  C65  1  0.77656300  0.16656900  0.82566000  1
