# generated using pymatgen
data_Cu3NiC26
_symmetry_space_group_name_H-M   'P 1'
_cell_length_a   11.76652300
_cell_length_b   7.46354900
_cell_length_c   9.28141862
_cell_angle_alpha   68.49984945
_cell_angle_beta   90.00000000
_cell_angle_gamma   90.00000000
_symmetry_Int_Tables_number   1
_chemical_formula_structural   Cu3NiC26
_chemical_formula_sum   'Cu6 Ni2 C52'
_cell_volume   758.37734361
_cell_formula_units_Z   2
loop_
 _symmetry_equiv_pos_site_id
 _symmetry_equiv_pos_as_xyz
  1  'x, y, z'
loop_
 _atom_site_type_symbol
 _atom_site_label
 _atom_site_symmetry_multiplicity
 _atom_site_fract_x
 _atom_site_fract_y
 _atom_site_fract_z
 _atom_site_occupancy
  C  C0  1  0.25000000  0.98128300  0.96721100  1
  C  C1  1  0.75000000  0.01871700  0.03278900  1
  C  C2  1  0.50000000  0.00000000  0.50000000  1
  C  C3  1  0.00000000  0.00000000  0.50000000  1
  C  C4  1  0.37575700  0.45009200  0.78643300  1
  C  C5  1  0.87575700  0.54990800  0.21356700  1
  C  C6  1  0.62424300  0.54990800  0.21356700  1
  C  C7  1  0.12424300  0.45009200  0.78643300  1
  C  C8  1  0.36721700  0.50990200  0.21736700  1
  C  C9  1  0.86721700  0.49009800  0.78263300  1
  C  C10  1  0.63278300  0.49009800  0.78263300  1
  C  C11  1  0.13278300  0.50990200  0.21736700  1
  C  C12  1  0.50000000  0.50000000  0.50000000  1
  C  C13  1  0.00000000  0.50000000  0.50000000  1
  Ni  Ni14  1  0.25000000  0.78692400  0.42007600  1
  Ni  Ni15  1  0.75000000  0.21307600  0.57992400  1
  Cu  Cu16  1  0.52568500  0.80835100  0.88733000  1
  Cu  Cu17  1  0.02568500  0.19164900  0.11267000  1
  Cu  Cu18  1  0.47431500  0.19164900  0.11267000  1
  Cu  Cu19  1  0.97431500  0.80835100  0.88733000  1
  Cu  Cu20  1  0.25000000  0.17459200  0.57112000  1
  Cu  Cu21  1  0.75000000  0.82540800  0.42888000  1
  C  C22  1  0.25000000  0.66650300  0.25741300  1
  C  C23  1  0.75000000  0.33349700  0.74258700  1
  C  C24  1  0.25000000  0.54742900  0.83932600  1
  C  C25  1  0.75000000  0.45257100  0.16067400  1
  C  C26  1  0.48647900  0.61532600  0.28883700  1
  C  C27  1  0.98647900  0.38467400  0.71116300  1
  C  C28  1  0.51352100  0.38467400  0.71116300  1
  C  C29  1  0.01352100  0.61532600  0.28883700  1
  C  C30  1  0.37346600  0.64293900  0.54702000  1
  C  C31  1  0.87346600  0.35706100  0.45298000  1
  C  C32  1  0.62653400  0.35706100  0.45298000  1
  C  C33  1  0.12653400  0.64293900  0.54702000  1
  C  C34  1  0.25000000  0.41645300  0.14215100  1
  C  C35  1  0.75000000  0.58354700  0.85784900  1
  C  C36  1  0.61818100  0.77533500  0.00541100  1
  C  C37  1  0.11818100  0.22466500  0.99458900  1
  C  C38  1  0.38181900  0.22466500  0.99458900  1
  C  C39  1  0.88181900  0.77533500  0.00541100  1
  C  C40  1  0.41370100  0.81349400  0.95324400  1
  C  C41  1  0.91370100  0.18650600  0.04675600  1
  C  C42  1  0.58629900  0.18650600  0.04675600  1
  C  C43  1  0.08629900  0.81349400  0.95324400  1
  C  C44  1  0.51872500  0.63228700  0.83730800  1
  C  C45  1  0.01872500  0.36771300  0.16269200  1
  C  C46  1  0.48127500  0.36771300  0.16269200  1
  C  C47  1  0.98127500  0.63228700  0.83730800  1
  C  C48  1  0.25000000  0.21484200  0.71695000  1
  C  C49  1  0.75000000  0.78515800  0.28305000  1
  C  C50  1  0.55416800  0.97843500  0.75141500  1
  C  C51  1  0.05416800  0.02156500  0.24858500  1
  C  C52  1  0.44583200  0.02156500  0.24858500  1
  C  C53  1  0.94583200  0.97843500  0.75141500  1
  C  C54  1  0.35484000  0.25565200  0.48022900  1
  C  C55  1  0.85484000  0.74434800  0.51977100  1
  C  C56  1  0.64516000  0.74434800  0.51977100  1
  C  C57  1  0.14516000  0.25565200  0.48022900  1
  C  C58  1  0.25000000  0.95920700  0.61025500  1
  C  C59  1  0.75000000  0.04079300  0.38974500  1
