# generated using pymatgen
data_Cu2NiC6
_symmetry_space_group_name_H-M   'P 1'
_cell_length_a   6.42739000
_cell_length_b   7.06003100
_cell_length_c   9.36728700
_cell_angle_alpha   90.00000000
_cell_angle_beta   90.00000000
_cell_angle_gamma   90.00000000
_symmetry_Int_Tables_number   1
_chemical_formula_structural   Cu2NiC6
_chemical_formula_sum   'Cu8 Ni4 C24'
_cell_volume   425.06474637
_cell_formula_units_Z   4
loop_
 _symmetry_equiv_pos_site_id
 _symmetry_equiv_pos_as_xyz
  1  'x, y, z'
loop_
 _atom_site_type_symbol
 _atom_site_label
 _atom_site_symmetry_multiplicity
 _atom_site_fract_x
 _atom_site_fract_y
 _atom_site_fract_z
 _atom_site_occupancy
  Ni  Ni0  1  0.58052600  0.98169800  0.67636500  1
  Ni  Ni1  1  0.41947400  0.48169800  0.32363500  1
  Ni  Ni2  1  0.08052600  0.48169800  0.82363500  1
  Ni  Ni3  1  0.91947400  0.98169800  0.17636500  1
  Cu  Cu4  1  0.09626400  0.74582200  0.52191000  1
  Cu  Cu5  1  0.40373600  0.74582200  0.02191000  1
  Cu  Cu6  1  0.90373600  0.24582200  0.47809000  1
  Cu  Cu7  1  0.59626400  0.24582200  0.97809000  1
  Cu  Cu8  1  0.92816400  0.52793800  0.17354400  1
  Cu  Cu9  1  0.07183600  0.02793800  0.82645600  1
  Cu  Cu10  1  0.42816400  0.02793800  0.32645600  1
  Cu  Cu11  1  0.57183600  0.52793800  0.67354400  1
  C  C12  1  0.69405800  0.74845800  0.39680200  1
  C  C13  1  0.80594200  0.74845800  0.89680200  1
  C  C14  1  0.30594200  0.24845800  0.60319800  1
  C  C15  1  0.19405800  0.24845800  0.10319800  1
  C  C16  1  0.16426100  0.74735300  0.27697900  1
  C  C17  1  0.33573900  0.74735300  0.77697900  1
  C  C18  1  0.83573900  0.24735300  0.72302100  1
  C  C19  1  0.66426100  0.24735300  0.22302100  1
  C  C20  1  0.02045800  0.75003300  0.99034200  1
  C  C21  1  0.47954200  0.75003300  0.49034200  1
  C  C22  1  0.97954200  0.25003300  0.00965800  1
  C  C23  1  0.52045800  0.25003300  0.50965800  1
  C  C24  1  0.31666400  0.05465000  0.07250400  1
  C  C25  1  0.19223500  0.44494700  0.57262100  1
  C  C26  1  0.68333600  0.55465000  0.92749600  1
  C  C27  1  0.80776500  0.94494700  0.42737900  1
  C  C28  1  0.69223500  0.94494700  0.92737900  1
  C  C29  1  0.81666400  0.55465000  0.42749600  1
  C  C30  1  0.30776500  0.44494700  0.07262100  1
  C  C31  1  0.18333600  0.05465000  0.57250400  1
  C  C32  1  0.63895700  0.74910100  0.22106200  1
  C  C33  1  0.86104300  0.74910100  0.72106200  1
  C  C34  1  0.36104300  0.24910100  0.77893800  1
  C  C35  1  0.13895700  0.24910100  0.27893800  1
