# generated using pymatgen
data_Cu2NiC10
_symmetry_space_group_name_H-M   'P 1'
_cell_length_a   4.48119000
_cell_length_b   9.47848500
_cell_length_c   13.71854300
_cell_angle_alpha   90.00000000
_cell_angle_beta   90.00000000
_cell_angle_gamma   90.00000000
_symmetry_Int_Tables_number   1
_chemical_formula_structural   Cu2NiC10
_chemical_formula_sum   'Cu8 Ni4 C40'
_cell_volume   582.69363503
_cell_formula_units_Z   4
loop_
 _symmetry_equiv_pos_site_id
 _symmetry_equiv_pos_as_xyz
  1  'x, y, z'
loop_
 _atom_site_type_symbol
 _atom_site_label
 _atom_site_symmetry_multiplicity
 _atom_site_fract_x
 _atom_site_fract_y
 _atom_site_fract_z
 _atom_site_occupancy
  C  C0  1  0.45931700  0.52553000  0.64025400  1
  C  C1  1  0.04068300  0.02553000  0.85974600  1
  C  C2  1  0.04068300  0.47447000  0.14025400  1
  C  C3  1  0.45931700  0.97447000  0.35974600  1
  C  C4  1  0.54068300  0.47447000  0.35974600  1
  C  C5  1  0.95931700  0.97447000  0.14025400  1
  C  C6  1  0.95931700  0.52553000  0.85974600  1
  C  C7  1  0.54068300  0.02553000  0.64025400  1
  Ni  Ni8  1  0.92349300  0.75000000  0.50000000  1
  Ni  Ni9  1  0.57650700  0.25000000  0.00000000  1
  Ni  Ni10  1  0.07650700  0.25000000  0.50000000  1
  Ni  Ni11  1  0.42349300  0.75000000  0.00000000  1
  Cu  Cu12  1  0.53134200  0.70386100  0.20050300  1
  Cu  Cu13  1  0.96865800  0.20386100  0.29949700  1
  Cu  Cu14  1  0.96865800  0.29613900  0.70050300  1
  Cu  Cu15  1  0.53134200  0.79613900  0.79949700  1
  Cu  Cu16  1  0.46865800  0.29613900  0.79949700  1
  Cu  Cu17  1  0.03134200  0.79613900  0.70050300  1
  Cu  Cu18  1  0.03134200  0.70386100  0.29949700  1
  Cu  Cu19  1  0.46865800  0.20386100  0.20050300  1
  C  C20  1  0.53692700  0.55178700  0.19270300  1
  C  C21  1  0.96307300  0.05178700  0.30729700  1
  C  C22  1  0.96307300  0.44821300  0.69270300  1
  C  C23  1  0.53692700  0.94821300  0.80729700  1
  C  C24  1  0.46307300  0.44821300  0.80729700  1
  C  C25  1  0.03692700  0.94821300  0.69270300  1
  C  C26  1  0.03692700  0.55178700  0.30729700  1
  C  C27  1  0.46307300  0.05178700  0.19270300  1
  C  C28  1  0.65462700  0.76722300  0.10691900  1
  C  C29  1  0.84537300  0.26722300  0.39308100  1
  C  C30  1  0.84537300  0.23277700  0.60691900  1
  C  C31  1  0.65462700  0.73277700  0.89308100  1
  C  C32  1  0.34537300  0.23277700  0.89308100  1
  C  C33  1  0.15462700  0.73277700  0.60691900  1
  C  C34  1  0.15462700  0.76722300  0.39308100  1
  C  C35  1  0.34537300  0.26722300  0.10691900  1
  C  C36  1  0.22184200  0.75994300  0.21752800  1
  C  C37  1  0.27815800  0.25994300  0.28247200  1
  C  C38  1  0.27815800  0.24005700  0.71752800  1
  C  C39  1  0.22184200  0.74005700  0.78247200  1
  C  C40  1  0.77815800  0.24005700  0.78247200  1
  C  C41  1  0.72184200  0.74005700  0.71752800  1
  C  C42  1  0.72184200  0.75994300  0.28247200  1
  C  C43  1  0.77815800  0.25994300  0.21752800  1
  C  C44  1  0.70384900  0.59873100  0.49563600  1
  C  C45  1  0.79615100  0.09873100  0.00436400  1
  C  C46  1  0.79615100  0.40126900  0.99563600  1
  C  C47  1  0.70384900  0.90126900  0.50436400  1
  C  C48  1  0.29615100  0.40126900  0.50436400  1
  C  C49  1  0.20384900  0.90126900  0.99563600  1
  C  C50  1  0.20384900  0.59873100  0.00436400  1
  C  C51  1  0.29615100  0.09873100  0.49563600  1
