# generated using pymatgen
data_Cu3Ni3C16
_symmetry_space_group_name_H-M   'P 1'
_cell_length_a   5.74863691
_cell_length_b   10.11562843
_cell_length_c   7.97536405
_cell_angle_alpha   99.47189692
_cell_angle_beta   78.64940931
_cell_angle_gamma   96.82105331
_symmetry_Int_Tables_number   1
_chemical_formula_structural   Cu3Ni3C16
_chemical_formula_sum   'Cu6 Ni6 C32'
_cell_volume   446.71311398
_cell_formula_units_Z   2
loop_
 _symmetry_equiv_pos_site_id
 _symmetry_equiv_pos_as_xyz
  1  'x, y, z'
loop_
 _atom_site_type_symbol
 _atom_site_label
 _atom_site_symmetry_multiplicity
 _atom_site_fract_x
 _atom_site_fract_y
 _atom_site_fract_z
 _atom_site_occupancy
  C  C0  1  0.16901000  0.49847100  0.84611100  1
  C  C1  1  0.16406400  0.00151300  0.32054700  1
  C  C2  1  0.66607800  0.49955800  0.83845100  1
  C  C3  1  0.66720800  0.00047900  0.32794300  1
  C  C4  1  0.47666700  0.50416400  0.46792200  1
  C  C5  1  0.44844100  0.99767000  0.95590300  1
  C  C6  1  0.88435300  0.50233600  0.21080400  1
  C  C7  1  0.85665500  0.99577100  0.69882900  1
  Ni  Ni8  1  0.66686100  0.74996200  0.08326200  1
  Ni  Ni9  1  0.66657600  0.24988600  0.58341300  1
  Ni  Ni10  1  0.00005100  0.25385700  0.24825100  1
  Ni  Ni11  1  0.99645800  0.74899700  0.74763200  1
  Ni  Ni12  1  0.33341900  0.24638600  0.91831700  1
  Ni  Ni13  1  0.33691000  0.75087200  0.41893900  1
  Cu  Cu14  1  0.16675100  0.74996800  0.08330700  1
  Cu  Cu15  1  0.50066200  0.75148300  0.74542000  1
  Cu  Cu16  1  0.83272200  0.74841300  0.42114200  1
  Cu  Cu17  1  0.16663400  0.25005000  0.58338000  1
  Cu  Cu18  1  0.50223800  0.25842500  0.24712500  1
  Cu  Cu19  1  0.83103300  0.24163800  0.91970800  1
  C  C20  1  0.25454100  0.14521600  0.11557800  1
  C  C21  1  0.26492000  0.64856100  0.61863700  1
  C  C22  1  0.07875600  0.35482000  0.05109800  1
  C  C23  1  0.06858400  0.85131200  0.54798500  1
  C  C24  1  0.75750800  0.14574200  0.13807200  1
  C  C25  1  0.74987400  0.64357600  0.63965500  1
  C  C26  1  0.57588800  0.35447000  0.02905300  1
  C  C27  1  0.58367100  0.85627500  0.52683500  1
  C  C28  1  0.40841500  0.35717200  0.72945800  1
  C  C29  1  0.40909700  0.85868800  0.22867300  1
  C  C30  1  0.92430300  0.64113300  0.93788300  1
  C  C31  1  0.92488400  0.14302600  0.43732900  1
  C  C32  1  0.90652700  0.35164000  0.70972600  1
  C  C33  1  0.90997400  0.85573300  0.20053500  1
  C  C34  1  0.42360500  0.64431300  0.96592500  1
  C  C35  1  0.42676800  0.14842500  0.45700400  1
  C  C36  1  0.09350000  0.65201500  0.29994500  1
  C  C37  1  0.09117500  0.14565600  0.79344800  1
  C  C38  1  0.23983000  0.84792900  0.86665600  1
  C  C39  1  0.24213500  0.35441000  0.37333500  1
  C  C40  1  0.59376400  0.64169700  0.30795300  1
  C  C41  1  0.57664800  0.13292800  0.80420100  1
  C  C42  1  0.75659400  0.36710800  0.36261600  1
  C  C43  1  0.73958500  0.85826100  0.85866300  1
