# generated using pymatgen
data_Cu5Ni2C25
_symmetry_space_group_name_H-M   'P 1'
_cell_length_a   5.19267800
_cell_length_b   5.92136908
_cell_length_c   10.23960555
_cell_angle_alpha   103.84531258
_cell_angle_beta   95.59059726
_cell_angle_gamma   109.56130720
_symmetry_Int_Tables_number   1
_chemical_formula_structural   Cu5Ni2C25
_chemical_formula_sum   'Cu5 Ni2 C25'
_cell_volume   282.57789194
_cell_formula_units_Z   1
loop_
 _symmetry_equiv_pos_site_id
 _symmetry_equiv_pos_as_xyz
  1  'x, y, z'
loop_
 _atom_site_type_symbol
 _atom_site_label
 _atom_site_symmetry_multiplicity
 _atom_site_fract_x
 _atom_site_fract_y
 _atom_site_fract_z
 _atom_site_occupancy
  C  C0  1  0.62294400  0.93515700  0.87485200  1
  C  C1  1  0.37705600  0.06484300  0.12514800  1
  C  C2  1  0.11437700  0.18997800  0.38176800  1
  C  C3  1  0.87668500  0.31384800  0.61731500  1
  C  C4  1  0.62534200  0.44290900  0.87480800  1
  C  C5  1  0.37465800  0.55709100  0.12519200  1
  C  C6  1  0.12331500  0.68615200  0.38268500  1
  C  C7  1  0.88562300  0.81002200  0.61823200  1
  C  C8  1  0.50000000  0.00000000  0.50000000  1
  Ni  Ni9  1  0.25535500  0.12108600  0.74726400  1
  Ni  Ni10  1  0.74464500  0.87891400  0.25273600  1
  Cu  Cu11  1  0.00283000  0.24858700  0.99982000  1
  Cu  Cu12  1  0.74753200  0.37359900  0.25303200  1
  Cu  Cu13  1  0.50000000  0.50000000  0.50000000  1
  Cu  Cu14  1  0.25246800  0.62640100  0.74696800  1
  Cu  Cu15  1  0.99717000  0.75141300  0.00018000  1
  C  C16  1  0.94651300  0.79568700  0.81898800  1
  C  C17  1  0.70250800  0.92224400  0.06704900  1
  C  C18  1  0.48231900  0.03369900  0.30238400  1
  C  C19  1  0.19937200  0.17275100  0.56954500  1
  C  C20  1  0.97864300  0.27948100  0.81448200  1
  C  C21  1  0.70869100  0.42373300  0.06745200  1
  C  C22  1  0.44731900  0.55128400  0.31766500  1
  C  C23  1  0.19662700  0.65335700  0.57624000  1
  C  C24  1  0.29749200  0.07775600  0.93295100  1
  C  C25  1  0.05348700  0.20431300  0.18101200  1
  C  C26  1  0.80337300  0.34664300  0.42376000  1
  C  C27  1  0.55268100  0.44871600  0.68233500  1
  C  C28  1  0.29130900  0.57626700  0.93254800  1
  C  C29  1  0.02135700  0.72051900  0.18551800  1
  C  C30  1  0.80062800  0.82724900  0.43045500  1
  C  C31  1  0.51768100  0.96630100  0.69761600  1
