# generated using pymatgen
data_Cu(NiC3)2
_symmetry_space_group_name_H-M   'P 1'
_cell_length_a   4.11075400
_cell_length_b   7.36186300
_cell_length_c   21.94678300
_cell_angle_alpha   90.00000000
_cell_angle_beta   90.00000000
_cell_angle_gamma   90.00000000
_symmetry_Int_Tables_number   1
_chemical_formula_structural   Cu(NiC3)2
_chemical_formula_sum   'Cu4 Ni8 C24'
_cell_volume   664.17127520
_cell_formula_units_Z   4
loop_
 _symmetry_equiv_pos_site_id
 _symmetry_equiv_pos_as_xyz
  1  'x, y, z'
loop_
 _atom_site_type_symbol
 _atom_site_label
 _atom_site_symmetry_multiplicity
 _atom_site_fract_x
 _atom_site_fract_y
 _atom_site_fract_z
 _atom_site_occupancy
  C  C0  1  0.25000000  0.50995700  0.30173000  1
  C  C1  1  0.25000000  0.99004300  0.80173000  1
  C  C2  1  0.75000000  0.49004300  0.69827000  1
  C  C3  1  0.75000000  0.00995700  0.19827000  1
  C  C4  1  0.25000000  0.78948100  0.54788000  1
  C  C5  1  0.25000000  0.71051900  0.04788000  1
  C  C6  1  0.75000000  0.21051900  0.45212000  1
  C  C7  1  0.75000000  0.28948100  0.95212000  1
  C  C8  1  0.25000000  0.19161600  0.54349300  1
  C  C9  1  0.25000000  0.30838400  0.04349300  1
  C  C10  1  0.75000000  0.80838400  0.45650700  1
  C  C11  1  0.75000000  0.69161600  0.95650700  1
  Ni  Ni12  1  0.25000000  0.46279200  0.39666900  1
  Ni  Ni13  1  0.25000000  0.03720800  0.89666900  1
  Ni  Ni14  1  0.75000000  0.53720800  0.60333100  1
  Ni  Ni15  1  0.75000000  0.96279200  0.10333100  1
  Ni  Ni16  1  0.75000000  0.53756900  0.17702000  1
  Ni  Ni17  1  0.75000000  0.96243100  0.67702000  1
  Ni  Ni18  1  0.25000000  0.46243100  0.82298000  1
  Ni  Ni19  1  0.25000000  0.03756900  0.32298000  1
  Cu  Cu20  1  0.75000000  0.64534400  0.24313400  1
  Cu  Cu21  1  0.75000000  0.85465600  0.74313400  1
  Cu  Cu22  1  0.25000000  0.35465600  0.75686600  1
  Cu  Cu23  1  0.25000000  0.14534400  0.25686600  1
  C  C24  1  0.75000000  0.46137600  0.12958200  1
  C  C25  1  0.75000000  0.03862400  0.62958200  1
  C  C26  1  0.25000000  0.53862400  0.87041800  1
  C  C27  1  0.25000000  0.96137600  0.37041800  1
  C  C28  1  0.25000000  0.40984900  0.44718300  1
  C  C29  1  0.25000000  0.09015100  0.94718300  1
  C  C30  1  0.75000000  0.59015100  0.55281700  1
  C  C31  1  0.75000000  0.90984900  0.05281700  1
  C  C32  1  0.25000000  0.87282400  0.51323700  1
  C  C33  1  0.25000000  0.62717600  0.01323700  1
  C  C34  1  0.75000000  0.12717600  0.48676300  1
  C  C35  1  0.75000000  0.37282400  0.98676300  1
