# generated using pymatgen
data_CuNiC8
_symmetry_space_group_name_H-M   'P 1'
_cell_length_a   8.24205246
_cell_length_b   8.16728816
_cell_length_c   8.21110016
_cell_angle_alpha   90.00000000
_cell_angle_beta   90.00000000
_cell_angle_gamma   90.00000000
_symmetry_Int_Tables_number   1
_chemical_formula_structural   CuNiC8
_chemical_formula_sum   'Cu4 Ni4 C32'
_cell_volume   552.73199294
_cell_formula_units_Z   4
loop_
 _symmetry_equiv_pos_site_id
 _symmetry_equiv_pos_as_xyz
  1  'x, y, z'
loop_
 _atom_site_type_symbol
 _atom_site_label
 _atom_site_symmetry_multiplicity
 _atom_site_fract_x
 _atom_site_fract_y
 _atom_site_fract_z
 _atom_site_occupancy
  C  C0  1  0.00000000  0.50000000  0.50000000  1
  C  C1  1  0.50000000  0.50000000  -0.00000000  1
  C  C2  1  0.50000000  0.00000000  -0.00000000  1
  C  C3  1  0.00000000  0.00000000  0.50000000  1
  Ni  Ni4  1  0.50000000  0.00000000  0.50000000  1
  Ni  Ni5  1  0.00000000  0.50000000  -0.00000000  1
  Ni  Ni6  1  0.00000000  0.00000000  -0.00000000  1
  Ni  Ni7  1  0.50000000  0.50000000  0.50000000  1
  Cu  Cu8  1  0.25000000  0.25000000  0.25000000  1
  Cu  Cu9  1  0.75000000  0.75000000  0.25000000  1
  Cu  Cu10  1  0.75000000  0.25000000  0.75000000  1
  Cu  Cu11  1  0.25000000  0.75000000  0.75000000  1
  C  C12  1  0.75000000  0.75000000  0.75000000  1
  C  C13  1  0.25000000  0.25000000  0.75000000  1
  C  C14  1  0.25000000  0.75000000  0.25000000  1
  C  C15  1  0.75000000  0.25000000  0.25000000  1
  C  C16  1  0.98485135  0.19299510  0.27767171  1
  C  C17  1  0.01514865  0.80700490  0.27767171  1
  C  C18  1  0.01514865  0.19299510  0.72232829  1
  C  C19  1  0.98485135  0.80700490  0.72232829  1
  C  C20  1  0.29621213  0.98557348  0.20702345  1
  C  C21  1  0.29621213  0.01442652  0.79297655  1
  C  C22  1  0.70378787  0.01442652  0.20702345  1
  C  C23  1  0.70378787  0.98557348  0.79297655  1
  C  C24  1  0.19080596  0.28369246  0.98639350  1
  C  C25  1  0.80919404  0.28369246  0.01360650  1
  C  C26  1  0.19080596  0.71630754  0.01360650  1
  C  C27  1  0.80919404  0.71630754  0.98639350  1
  C  C28  1  0.51514865  0.30700490  0.22232829  1
  C  C29  1  0.48485135  0.69299510  0.22232829  1
  C  C30  1  0.48485135  0.30700490  0.77767171  1
  C  C31  1  0.51514865  0.69299510  0.77767171  1
  C  C32  1  0.20378787  0.51442652  0.29297655  1
  C  C33  1  0.20378787  0.48557348  0.70702345  1
  C  C34  1  0.79621213  0.48557348  0.29297655  1
  C  C35  1  0.79621213  0.51442652  0.70702345  1
  C  C36  1  0.30919404  0.21630754  0.51360650  1
  C  C37  1  0.69080596  0.21630754  0.48639350  1
  C  C38  1  0.30919404  0.78369246  0.48639350  1
  C  C39  1  0.69080596  0.78369246  0.51360650  1
