# generated using pymatgen
data_Cu4Ni3C8
_symmetry_space_group_name_H-M   'P 1'
_cell_length_a   5.76864255
_cell_length_b   5.76864255
_cell_length_c   6.25520486
_cell_angle_alpha   89.98647222
_cell_angle_beta   89.98647222
_cell_angle_gamma   115.37229597
_symmetry_Int_Tables_number   1
_chemical_formula_structural   Cu4Ni3C8
_chemical_formula_sum   'Cu4 Ni3 C8'
_cell_volume   188.07773269
_cell_formula_units_Z   1
loop_
 _symmetry_equiv_pos_site_id
 _symmetry_equiv_pos_as_xyz
  1  'x, y, z'
loop_
 _atom_site_type_symbol
 _atom_site_label
 _atom_site_symmetry_multiplicity
 _atom_site_fract_x
 _atom_site_fract_y
 _atom_site_fract_z
 _atom_site_occupancy
  Ni  Ni0  1  0.69139600  0.30860400  0.50000000  1
  Ni  Ni1  1  0.30860400  0.69139600  0.50000000  1
  Ni  Ni2  1  0.50000000  0.50000000  0.00000000  1
  Cu  Cu3  1  0.03804200  0.68607700  0.12190100  1
  Cu  Cu4  1  0.68607700  0.03804200  0.12190100  1
  Cu  Cu5  1  0.96195800  0.31392300  0.87809900  1
  Cu  Cu6  1  0.31392300  0.96195800  0.87809900  1
  C  C7  1  0.11131000  0.11131000  0.32807200  1
  C  C8  1  0.88869000  0.88869000  0.67192800  1
  C  C9  1  0.05140800  0.35088400  0.20508000  1
  C  C10  1  0.35088400  0.05140800  0.20508000  1
  C  C11  1  0.94859200  0.64911600  0.79492000  1
  C  C12  1  0.64911600  0.94859200  0.79492000  1
  C  C13  1  0.81906200  0.81906200  0.37884500  1
  C  C14  1  0.18093800  0.18093800  0.62115500  1
