# generated using pymatgen
data_Cu3(NiC4)2
_symmetry_space_group_name_H-M   'P 1'
_cell_length_a   9.57036953
_cell_length_b   9.57036953
_cell_length_c   14.11141200
_cell_angle_alpha   90.00000000
_cell_angle_beta   90.00000000
_cell_angle_gamma   119.99999675
_symmetry_Int_Tables_number   1
_chemical_formula_structural   Cu3(NiC4)2
_chemical_formula_sum   'Cu18 Ni12 C48'
_cell_volume   1119.33099992
_cell_formula_units_Z   6
loop_
 _symmetry_equiv_pos_site_id
 _symmetry_equiv_pos_as_xyz
  1  'x, y, z'
loop_
 _atom_site_type_symbol
 _atom_site_label
 _atom_site_symmetry_multiplicity
 _atom_site_fract_x
 _atom_site_fract_y
 _atom_site_fract_z
 _atom_site_occupancy
  C  C0  1  0.66666700  0.33333300  0.98186700  1
  C  C1  1  0.33333300  0.66666700  0.01813300  1
  C  C2  1  0.33333300  0.66666700  0.48186700  1
  C  C3  1  0.66666700  0.33333300  0.51813300  1
  C  C4  1  0.00000000  0.00000000  0.75000000  1
  C  C5  1  0.00000000  0.00000000  0.25000000  1
  Ni  Ni6  1  0.65231800  0.67128700  0.85875400  1
  Ni  Ni7  1  0.34768200  0.32871300  0.14124600  1
  Ni  Ni8  1  0.01896800  0.34768200  0.85875400  1
  Ni  Ni9  1  0.34768200  0.32871300  0.35875400  1
  Ni  Ni10  1  0.98103200  0.65231800  0.14124600  1
  Ni  Ni11  1  0.65231800  0.67128700  0.64124600  1
  Ni  Ni12  1  0.32871300  0.98103200  0.85875400  1
  Ni  Ni13  1  0.98103200  0.65231800  0.35875400  1
  Ni  Ni14  1  0.67128700  0.01896800  0.14124600  1
  Ni  Ni15  1  0.01896800  0.34768200  0.64124600  1
  Ni  Ni16  1  0.67128700  0.01896800  0.35875400  1
  Ni  Ni17  1  0.32871300  0.98103200  0.64124600  1
  Cu  Cu18  1  0.68420500  0.00807300  0.90711800  1
  Cu  Cu19  1  0.31579500  0.99192700  0.09288200  1
  Cu  Cu20  1  0.32386800  0.31579500  0.90711800  1
  Cu  Cu21  1  0.31579500  0.99192700  0.40711800  1
  Cu  Cu22  1  0.67613200  0.68420500  0.09288200  1
  Cu  Cu23  1  0.68420500  0.00807300  0.59288200  1
  Cu  Cu24  1  0.99192700  0.67613200  0.90711800  1
  Cu  Cu25  1  0.67613200  0.68420500  0.40711800  1
  Cu  Cu26  1  0.00807300  0.32386800  0.09288200  1
  Cu  Cu27  1  0.32386800  0.31579500  0.59288200  1
  Cu  Cu28  1  0.00807300  0.32386800  0.40711800  1
  Cu  Cu29  1  0.99192700  0.67613200  0.59288200  1
  Cu  Cu30  1  0.33333300  0.66666700  0.75000000  1
  Cu  Cu31  1  0.66666700  0.33333300  0.25000000  1
  Cu  Cu32  1  0.66666700  0.33333300  0.75000000  1
  Cu  Cu33  1  0.33333300  0.66666700  0.25000000  1
  Cu  Cu34  1  0.00000000  0.00000000  0.00000000  1
  Cu  Cu35  1  0.00000000  0.00000000  0.50000000  1
  C  C36  1  0.95049900  0.15195000  0.85620800  1
  C  C37  1  0.04950100  0.84805000  0.14379200  1
  C  C38  1  0.20145100  0.04950100  0.85620800  1
  C  C39  1  0.04950100  0.84805000  0.35620800  1
  C  C40  1  0.79854900  0.95049900  0.14379200  1
  C  C41  1  0.95049900  0.15195000  0.64379200  1
  C  C42  1  0.84805000  0.79854900  0.85620800  1
  C  C43  1  0.79854900  0.95049900  0.35620800  1
  C  C44  1  0.15195000  0.20145100  0.14379200  1
  C  C45  1  0.20145100  0.04950100  0.64379200  1
  C  C46  1  0.15195000  0.20145100  0.35620800  1
  C  C47  1  0.84805000  0.79854900  0.64379200  1
  C  C48  1  0.87715200  0.39078600  0.88232800  1
  C  C49  1  0.12284800  0.60921400  0.11767200  1
  C  C50  1  0.51363400  0.12284800  0.88232800  1
  C  C51  1  0.12284800  0.60921400  0.38232800  1
  C  C52  1  0.48636600  0.87715200  0.11767200  1
  C  C53  1  0.87715200  0.39078600  0.61767200  1
  C  C54  1  0.60921400  0.48636600  0.88232800  1
  C  C55  1  0.48636600  0.87715200  0.38232800  1
  C  C56  1  0.39078600  0.51363400  0.11767200  1
  C  C57  1  0.51363400  0.12284800  0.61767200  1
  C  C58  1  0.39078600  0.51363400  0.38232800  1
  C  C59  1  0.60921400  0.48636600  0.61767200  1
  C  C60  1  0.55741400  0.73115200  0.93050700  1
  C  C61  1  0.44258600  0.26884800  0.06949300  1
  C  C62  1  0.17373800  0.44258600  0.93050700  1
  C  C63  1  0.44258600  0.26884800  0.43050700  1
  C  C64  1  0.82626200  0.55741400  0.06949300  1
  C  C65  1  0.55741400  0.73115200  0.56949300  1
  C  C66  1  0.26884800  0.82626200  0.93050700  1
  C  C67  1  0.82626200  0.55741400  0.43050700  1
  C  C68  1  0.73115200  0.17373800  0.06949300  1
  C  C69  1  0.17373800  0.44258600  0.56949300  1
  C  C70  1  0.73115200  0.17373800  0.43050700  1
  C  C71  1  0.26884800  0.82626200  0.56949300  1
  C  C72  1  0.58284200  0.67634200  0.75000000  1
  C  C73  1  0.41715800  0.32365800  0.25000000  1
  C  C74  1  0.09350000  0.41715800  0.75000000  1
  C  C75  1  0.90650000  0.58284200  0.25000000  1
  C  C76  1  0.32365800  0.90650000  0.75000000  1
  C  C77  1  0.67634200  0.09350000  0.25000000  1
