# generated using pymatgen
data_Cu(NiC)2
_symmetry_space_group_name_H-M   'P 1'
_cell_length_a   4.18680742
_cell_length_b   4.18700192
_cell_length_c   13.54744301
_cell_angle_alpha   89.99999949
_cell_angle_beta   89.99584886
_cell_angle_gamma   120.00154332
_symmetry_Int_Tables_number   1
_chemical_formula_structural   Cu(NiC)2
_chemical_formula_sum   'Cu2 Ni4 C4'
_cell_volume   205.66829799
_cell_formula_units_Z   2
loop_
 _symmetry_equiv_pos_site_id
 _symmetry_equiv_pos_as_xyz
  1  'x, y, z'
loop_
 _atom_site_type_symbol
 _atom_site_label
 _atom_site_symmetry_multiplicity
 _atom_site_fract_x
 _atom_site_fract_y
 _atom_site_fract_z
 _atom_site_occupancy
  Ni  Ni0  1  0.99997900  0.99999000  0.99765300  1
  Ni  Ni1  1  0.99997900  0.99999000  0.49765300  1
  Ni  Ni2  1  0.33334600  0.66667300  0.31569500  1
  Ni  Ni3  1  0.33334600  0.66667300  0.81569500  1
  Cu  Cu4  1  0.66666100  0.33333100  0.18390200  1
  Cu  Cu5  1  0.66666100  0.33333100  0.68390200  1
  C  C6  1  0.33337400  0.66668700  0.11754800  1
  C  C7  1  0.33337400  0.66668700  0.61754800  1
  C  C8  1  0.66664000  0.33332000  0.38520200  1
  C  C9  1  0.66664000  0.33332000  0.88520200  1
