# generated using pymatgen
data_Cu4NiC9
_symmetry_space_group_name_H-M   'P 1'
_cell_length_a   8.43968500
_cell_length_b   8.71255627
_cell_length_c   8.71255627
_cell_angle_alpha   119.98555854
_cell_angle_beta   90.00000000
_cell_angle_gamma   90.00000000
_symmetry_Int_Tables_number   1
_chemical_formula_structural   Cu4NiC9
_chemical_formula_sum   'Cu8 Ni2 C18'
_cell_volume   554.89555010
_cell_formula_units_Z   2
loop_
 _symmetry_equiv_pos_site_id
 _symmetry_equiv_pos_as_xyz
  1  'x, y, z'
loop_
 _atom_site_type_symbol
 _atom_site_label
 _atom_site_symmetry_multiplicity
 _atom_site_fract_x
 _atom_site_fract_y
 _atom_site_fract_z
 _atom_site_occupancy
  C  C0  1  0.55906200  0.79883300  0.59764100  1
  C  C1  1  0.55901800  0.79881400  0.20118600  1
  C  C2  1  0.55906200  0.40235900  0.20116700  1
  C  C3  1  0.44093800  0.20116700  0.40235900  1
  C  C4  1  0.44098200  0.20118600  0.79881400  1
  C  C5  1  0.44093800  0.59764100  0.79883300  1
  C  C6  1  0.05906200  0.20116700  0.40235900  1
  C  C7  1  0.05901800  0.20118600  0.79881400  1
  C  C8  1  0.05906200  0.59764100  0.79883300  1
  C  C9  1  0.94093800  0.79883300  0.59764100  1
  C  C10  1  0.94098200  0.79881400  0.20118600  1
  C  C11  1  0.94093800  0.40235900  0.20116700  1
  C  C12  1  0.75000000  0.45996200  0.91993300  1
  C  C13  1  0.75000000  0.45996200  0.54003800  1
  C  C14  1  0.75000000  0.08006700  0.54003800  1
  C  C15  1  0.25000000  0.54003800  0.08006700  1
  C  C16  1  0.25000000  0.54003800  0.45996200  1
  C  C17  1  0.25000000  0.91993300  0.45996200  1
  Ni  Ni18  1  0.75000000  0.66669500  0.33330500  1
  Ni  Ni19  1  0.25000000  0.33330500  0.66669500  1
  Cu  Cu20  1  0.75000000  0.11224700  0.22447300  1
  Cu  Cu21  1  0.75000000  0.11224400  0.88775600  1
  Cu  Cu22  1  0.75000000  0.77552700  0.88775300  1
  Cu  Cu23  1  0.25000000  0.88775300  0.77552700  1
  Cu  Cu24  1  0.25000000  0.88775600  0.11224400  1
  Cu  Cu25  1  0.25000000  0.22447300  0.11224700  1
  Cu  Cu26  1  0.50000000  0.00000000  0.00000000  1
  Cu  Cu27  1  0.00000000  0.00000000  0.00000000  1
