# generated using pymatgen
data_CuNi7C6
_symmetry_space_group_name_H-M   'P 1'
_cell_length_a   10.60426300
_cell_length_b   7.44171700
_cell_length_c   12.20572200
_cell_angle_alpha   90.00000000
_cell_angle_beta   90.00000000
_cell_angle_gamma   90.00000000
_symmetry_Int_Tables_number   1
_chemical_formula_structural   CuNi7C6
_chemical_formula_sum   'Cu4 Ni28 C24'
_cell_volume   963.20142120
_cell_formula_units_Z   4
loop_
 _symmetry_equiv_pos_site_id
 _symmetry_equiv_pos_as_xyz
  1  'x, y, z'
loop_
 _atom_site_type_symbol
 _atom_site_label
 _atom_site_symmetry_multiplicity
 _atom_site_fract_x
 _atom_site_fract_y
 _atom_site_fract_z
 _atom_site_occupancy
  Ni  Ni0  1  0.02426200  0.76809300  0.98011600  1
  Ni  Ni1  1  0.47573800  0.73190700  0.48011600  1
  Ni  Ni2  1  0.52426200  0.73190700  0.01988400  1
  Ni  Ni3  1  0.97573800  0.76809300  0.51988400  1
  Ni  Ni4  1  0.97573800  0.23190700  0.01988400  1
  Ni  Ni5  1  0.52426200  0.26809300  0.51988400  1
  Ni  Ni6  1  0.47573800  0.26809300  0.98011600  1
  Ni  Ni7  1  0.02426200  0.23190700  0.48011600  1
  Ni  Ni8  1  0.22200400  0.64486100  0.58763300  1
  Ni  Ni9  1  0.27799600  0.85513900  0.08763300  1
  Ni  Ni10  1  0.72200400  0.85513900  0.41236700  1
  Ni  Ni11  1  0.77799600  0.64486100  0.91236700  1
  Ni  Ni12  1  0.77799600  0.35513900  0.41236700  1
  Ni  Ni13  1  0.72200400  0.14486100  0.91236700  1
  Ni  Ni14  1  0.27799600  0.14486100  0.58763300  1
  Ni  Ni15  1  0.22200400  0.35513900  0.08763300  1
  Ni  Ni16  1  0.21835600  0.56198500  0.83090800  1
  Ni  Ni17  1  0.28164400  0.93801500  0.33090800  1
  Ni  Ni18  1  0.71835600  0.93801500  0.16909200  1
  Ni  Ni19  1  0.78164400  0.56198500  0.66909200  1
  Ni  Ni20  1  0.78164400  0.43801500  0.16909200  1
  Ni  Ni21  1  0.71835600  0.06198500  0.66909200  1
  Ni  Ni22  1  0.28164400  0.06198500  0.83090800  1
  Ni  Ni23  1  0.21835600  0.43801500  0.33090800  1
  Ni  Ni24  1  0.00000000  0.37033700  0.75000000  1
  Ni  Ni25  1  0.50000000  0.12966300  0.25000000  1
  Ni  Ni26  1  0.00000000  0.62966300  0.25000000  1
  Ni  Ni27  1  0.50000000  0.87033700  0.75000000  1
  Cu  Cu28  1  0.00000000  0.97996900  0.75000000  1
  Cu  Cu29  1  0.50000000  0.52003100  0.25000000  1
  Cu  Cu30  1  0.00000000  0.02003100  0.25000000  1
  Cu  Cu31  1  0.50000000  0.47996900  0.75000000  1
  C  C32  1  0.11849300  0.86828300  0.82395900  1
  C  C33  1  0.38150700  0.63171700  0.32395900  1
  C  C34  1  0.61849300  0.63171700  0.17604100  1
  C  C35  1  0.88150700  0.86828300  0.67604100  1
  C  C36  1  0.88150700  0.13171700  0.17604100  1
  C  C37  1  0.61849300  0.36828300  0.67604100  1
  C  C38  1  0.38150700  0.36828300  0.82395900  1
  C  C39  1  0.11849300  0.13171700  0.32395900  1
  C  C40  1  0.20152900  0.38815900  0.50315900  1
  C  C41  1  0.29847100  0.11184100  0.00315900  1
  C  C42  1  0.70152900  0.11184100  0.49684100  1
  C  C43  1  0.79847100  0.38815900  0.99684100  1
  C  C44  1  0.79847100  0.61184100  0.49684100  1
  C  C45  1  0.70152900  0.88815900  0.99684100  1
  C  C46  1  0.29847100  0.88815900  0.50315900  1
  C  C47  1  0.20152900  0.61184100  0.00315900  1
  C  C48  1  0.42434300  0.62929300  0.65321700  1
  C  C49  1  0.07565700  0.87070700  0.15321700  1
  C  C50  1  0.92434300  0.87070700  0.34678300  1
  C  C51  1  0.57565700  0.62929300  0.84678300  1
  C  C52  1  0.57565700  0.37070700  0.34678300  1
  C  C53  1  0.92434300  0.12929300  0.84678300  1
  C  C54  1  0.07565700  0.12929300  0.65321700  1
  C  C55  1  0.42434300  0.37070700  0.15321700  1
