# generated using pymatgen
data_Cu2NiC28
_symmetry_space_group_name_H-M   'P 1'
_cell_length_a   6.33954381
_cell_length_b   9.41103749
_cell_length_c   12.84319000
_cell_angle_alpha   90.00000000
_cell_angle_beta   90.00000000
_cell_angle_gamma   105.50473125
_symmetry_Int_Tables_number   1
_chemical_formula_structural   Cu2NiC28
_chemical_formula_sum   'Cu4 Ni2 C56'
_cell_volume   738.36140582
_cell_formula_units_Z   2
loop_
 _symmetry_equiv_pos_site_id
 _symmetry_equiv_pos_as_xyz
  1  'x, y, z'
loop_
 _atom_site_type_symbol
 _atom_site_label
 _atom_site_symmetry_multiplicity
 _atom_site_fract_x
 _atom_site_fract_y
 _atom_site_fract_z
 _atom_site_occupancy
  Ni  Ni0  1  0.00000000  0.50000000  0.50000000  1
  Ni  Ni1  1  0.00000000  0.00000000  0.00000000  1
  Cu  Cu2  1  0.34414700  0.61872600  0.13662800  1
  Cu  Cu3  1  0.65585300  0.88127400  0.63662800  1
  Cu  Cu4  1  0.65585300  0.38127400  0.86337200  1
  Cu  Cu5  1  0.34414700  0.11872600  0.36337200  1
  C  C6  1  0.32727400  0.72170400  0.40086400  1
  C  C7  1  0.67272600  0.77829600  0.90086400  1
  C  C8  1  0.67272600  0.27829600  0.59913600  1
  C  C9  1  0.32727400  0.22170400  0.09913600  1
  C  C10  1  0.09502600  0.74856300  0.36871300  1
  C  C11  1  0.90497400  0.75143700  0.86871300  1
  C  C12  1  0.90497400  0.25143700  0.63128700  1
  C  C13  1  0.09502600  0.24856300  0.13128700  1
  C  C14  1  0.92764800  0.22406400  0.39567400  1
  C  C15  1  0.07235200  0.27593600  0.89567400  1
  C  C16  1  0.07235200  0.77593600  0.60432600  1
  C  C17  1  0.92764800  0.72406400  0.10432600  1
  C  C18  1  0.99124200  0.34871400  0.30916100  1
  C  C19  1  0.00875800  0.15128600  0.80916100  1
  C  C20  1  0.00875800  0.65128600  0.69083900  1
  C  C21  1  0.99124200  0.84871400  0.19083900  1
  C  C22  1  0.34928100  0.40094000  0.56593900  1
  C  C23  1  0.65071900  0.09906000  0.06593900  1
  C  C24  1  0.65071900  0.59906000  0.43406100  1
  C  C25  1  0.34928100  0.90094000  0.93406100  1
  C  C26  1  0.33416000  0.52447600  0.64662200  1
  C  C27  1  0.66584000  0.97552400  0.14662200  1
  C  C28  1  0.66584000  0.47552400  0.35337800  1
  C  C29  1  0.33416000  0.02447600  0.85337800  1
  C  C30  1  0.73487100  0.90503300  0.35996700  1
  C  C31  1  0.26512900  0.59496700  0.85996700  1
  C  C32  1  0.26512900  0.09496700  0.64003300  1
  C  C33  1  0.73487100  0.40503300  0.14003300  1
  C  C34  1  0.59417700  0.91600700  0.26881700  1
  C  C35  1  0.40582300  0.58399300  0.76881700  1
  C  C36  1  0.40582300  0.08399300  0.73118300  1
  C  C37  1  0.59417700  0.41600700  0.23118300  1
  C  C38  1  0.78149200  0.04279800  0.42348300  1
  C  C39  1  0.21850800  0.45720200  0.92348300  1
  C  C40  1  0.21850800  0.95720200  0.57651700  1
  C  C41  1  0.78149200  0.54279800  0.07651700  1
  C  C42  1  0.61232400  0.77940300  0.42744000  1
  C  C43  1  0.38767600  0.72059700  0.92744000  1
  C  C44  1  0.38767600  0.22059700  0.57256000  1
  C  C45  1  0.61232400  0.27940300  0.07256000  1
  C  C46  1  0.94578300  0.87782500  0.32316100  1
  C  C47  1  0.05421700  0.62217500  0.82316100  1
  C  C48  1  0.05421700  0.12217500  0.67683900  1
  C  C49  1  0.94578300  0.37782500  0.17683900  1
  C  C50  1  0.17044400  0.67246000  0.38696500  1
  C  C51  1  0.82955600  0.82754000  0.88696500  1
  C  C52  1  0.82955600  0.32754000  0.61303500  1
  C  C53  1  0.17044400  0.17246000  0.11303500  1
  C  C54  1  0.01955800  0.32611300  0.38263300  1
  C  C55  1  0.98044200  0.17388700  0.88263300  1
  C  C56  1  0.98044200  0.67388700  0.61736700  1
  C  C57  1  0.01955800  0.82611300  0.11736700  1
  C  C58  1  0.30703400  0.49450900  0.57238600  1
  C  C59  1  0.69296600  0.00549100  0.07238600  1
  C  C60  1  0.69296600  0.50549100  0.42761400  1
  C  C61  1  0.30703400  0.99450900  0.92761400  1
