# generated using pymatgen
data_CuNiC5
_symmetry_space_group_name_H-M   'P 1'
_cell_length_a   5.43127590
_cell_length_b   5.44331651
_cell_length_c   12.87153416
_cell_angle_alpha   89.98811480
_cell_angle_beta   90.01205776
_cell_angle_gamma   90.00166944
_symmetry_Int_Tables_number   1
_chemical_formula_structural   CuNiC5
_chemical_formula_sum   'Cu4 Ni4 C20'
_cell_volume   380.53599864
_cell_formula_units_Z   4
loop_
 _symmetry_equiv_pos_site_id
 _symmetry_equiv_pos_as_xyz
  1  'x, y, z'
loop_
 _atom_site_type_symbol
 _atom_site_label
 _atom_site_symmetry_multiplicity
 _atom_site_fract_x
 _atom_site_fract_y
 _atom_site_fract_z
 _atom_site_occupancy
  Ni  Ni0  1  0.00013400  0.49996300  0.14451300  1
  Ni  Ni1  1  0.49994900  0.50005800  0.64472300  1
  Ni  Ni2  1  0.99998100  0.99996900  0.35555900  1
  Ni  Ni3  1  0.49994600  0.00011000  0.85544800  1
  Cu  Cu4  1  0.49998900  0.99965800  0.14054000  1
  Cu  Cu5  1  0.99995700  0.00009200  0.64057300  1
  Cu  Cu6  1  0.50010100  0.50000500  0.35930700  1
  Cu  Cu7  1  0.99997700  0.49988700  0.85937600  1
  C  C8  1  0.50000200  0.50000500  0.99416400  1
  C  C9  1  0.50000900  0.99997700  0.50614100  1
  C  C10  1  0.00003600  0.50003200  0.49409700  1
  C  C11  1  0.99998100  0.99995800  0.00613200  1
  C  C12  1  0.50009300  0.99989400  0.32078800  1
  C  C13  1  0.99991200  0.00049500  0.82070100  1
  C  C14  1  0.49993800  0.50029400  0.17877500  1
  C  C15  1  0.00002400  0.50013600  0.67908500  1
  C  C16  1  0.99985600  0.49996500  0.33560500  1
  C  C17  1  0.49991000  0.50002000  0.83577200  1
  C  C18  1  0.00020100  0.99964700  0.16444000  1
  C  C19  1  0.50001000  0.00009100  0.66439000  1
  C  C20  1  0.24176700  0.24148300  0.99787100  1
  C  C21  1  0.75874700  0.25800000  0.50223800  1
  C  C22  1  0.75829200  0.75838100  0.99767600  1
  C  C23  1  0.24130500  0.74202900  0.50217100  1
  C  C24  1  0.25802500  0.74147000  0.00199900  1
  C  C25  1  0.74147200  0.75827900  0.49783600  1
  C  C26  1  0.74184800  0.25833500  0.00235500  1
  C  C27  1  0.25853600  0.24177000  0.49772700  1
