# generated using pymatgen
data_Cu2NiC5
_symmetry_space_group_name_H-M   'P 1'
_cell_length_a   7.97802100
_cell_length_b   8.99635100
_cell_length_c   12.83317405
_cell_angle_alpha   89.73909320
_cell_angle_beta   90.00000000
_cell_angle_gamma   90.00000000
_symmetry_Int_Tables_number   1
_chemical_formula_structural   Cu2NiC5
_chemical_formula_sum   'Cu8 Ni4 C20'
_cell_volume   921.06684242
_cell_formula_units_Z   4
loop_
 _symmetry_equiv_pos_site_id
 _symmetry_equiv_pos_as_xyz
  1  'x, y, z'
loop_
 _atom_site_type_symbol
 _atom_site_label
 _atom_site_symmetry_multiplicity
 _atom_site_fract_x
 _atom_site_fract_y
 _atom_site_fract_z
 _atom_site_occupancy
  Ni  Ni0  1  0.46298100  0.49590500  0.82924300  1
  Ni  Ni1  1  0.53701900  0.50409500  0.17075700  1
  Ni  Ni2  1  0.96298100  0.50409500  0.67075700  1
  Ni  Ni3  1  0.03701900  0.49590500  0.32924300  1
  Cu  Cu4  1  0.47895000  0.99938800  0.82201700  1
  Cu  Cu5  1  0.52105000  0.00061200  0.17798300  1
  Cu  Cu6  1  0.97895000  0.00061200  0.67798300  1
  Cu  Cu7  1  0.02105000  0.99938800  0.32201700  1
  Cu  Cu8  1  0.43281600  0.75508000  0.50602400  1
  Cu  Cu9  1  0.56718400  0.24492000  0.49397600  1
  Cu  Cu10  1  0.93281600  0.24492000  0.99397600  1
  Cu  Cu11  1  0.06718400  0.75508000  0.00602400  1
  C  C12  1  0.33809300  0.46724100  0.58422200  1
  C  C13  1  0.66190700  0.53275900  0.41577800  1
  C  C14  1  0.83809300  0.53275900  0.91577800  1
  C  C15  1  0.16190700  0.46724100  0.08422200  1
  C  C16  1  0.66626300  0.79063200  0.68240300  1
  C  C17  1  0.33373700  0.20936800  0.31759700  1
  C  C18  1  0.16626300  0.20936800  0.81759700  1
  C  C19  1  0.83373700  0.79063200  0.18240300  1
  C  C20  1  0.19414300  0.77973100  0.78712900  1
  C  C21  1  0.80585700  0.22026900  0.21287100  1
  C  C22  1  0.69414300  0.22026900  0.71287100  1
  C  C23  1  0.30585700  0.77973100  0.28712900  1
  C  C24  1  0.05225900  0.79066500  0.50387300  1
  C  C25  1  0.94774100  0.20933500  0.49612700  1
  C  C26  1  0.55225900  0.20933500  0.99612700  1
  C  C27  1  0.44774100  0.79066500  0.00387300  1
  C  C28  1  0.84086800  0.96019200  0.89770000  1
  C  C29  1  0.15913200  0.03980800  0.10230000  1
  C  C30  1  0.34086800  0.03980800  0.60230000  1
  C  C31  1  0.65913200  0.96019200  0.39770000  1
