# generated using pymatgen
data_Cu2Ni
_symmetry_space_group_name_H-M   'P 1'
_cell_length_a   7.80100619
_cell_length_b   7.80100619
_cell_length_c   4.92503800
_cell_angle_alpha   90.00000000
_cell_angle_beta   90.00000000
_cell_angle_gamma   158.23187306
_symmetry_Int_Tables_number   1
_chemical_formula_structural   Cu2Ni
_chemical_formula_sum   'Cu4 Ni2'
_cell_volume   111.15029055
_cell_formula_units_Z   2
loop_
 _symmetry_equiv_pos_site_id
 _symmetry_equiv_pos_as_xyz
  1  'x, y, z'
loop_
 _atom_site_type_symbol
 _atom_site_label
 _atom_site_symmetry_multiplicity
 _atom_site_fract_x
 _atom_site_fract_y
 _atom_site_fract_z
 _atom_site_occupancy
  Ni  Ni0  1  0.11071200  0.88928800  0.25000000  1
  Ni  Ni1  1  0.88928800  0.11071200  0.75000000  1
  Cu  Cu2  1  0.43832100  0.56167900  0.25000000  1
  Cu  Cu3  1  0.77858500  0.22141500  0.25000000  1
  Cu  Cu4  1  0.22141500  0.77858500  0.75000000  1
  Cu  Cu5  1  0.56167900  0.43832100  0.75000000  1
