# generated using pymatgen
data_Cu(NiC2)3
_symmetry_space_group_name_H-M   'P 1'
_cell_length_a   11.76859400
_cell_length_b   11.03094300
_cell_length_c   13.38962102
_cell_angle_alpha   82.00627031
_cell_angle_beta   90.00000000
_cell_angle_gamma   90.00000000
_symmetry_Int_Tables_number   1
_chemical_formula_structural   Cu(NiC2)3
_chemical_formula_sum   'Cu8 Ni24 C48'
_cell_volume   1721.33325154
_cell_formula_units_Z   8
loop_
 _symmetry_equiv_pos_site_id
 _symmetry_equiv_pos_as_xyz
  1  'x, y, z'
loop_
 _atom_site_type_symbol
 _atom_site_label
 _atom_site_symmetry_multiplicity
 _atom_site_fract_x
 _atom_site_fract_y
 _atom_site_fract_z
 _atom_site_occupancy
  C  C0  1  0.47999700  0.16935900  0.21838900  1
  C  C1  1  0.97999700  0.83064100  0.28161100  1
  C  C2  1  0.52000300  0.83064100  0.78161100  1
  C  C3  1  0.02000300  0.16935900  0.71838900  1
  C  C4  1  0.72168000  0.17330800  0.22897100  1
  C  C5  1  0.22168000  0.82669200  0.27102900  1
  C  C6  1  0.27832000  0.82669200  0.77102900  1
  C  C7  1  0.77832000  0.17330800  0.72897100  1
  C  C8  1  0.52402100  0.16485900  0.52557500  1
  C  C9  1  0.02402100  0.83514100  0.97442500  1
  C  C10  1  0.47597900  0.83514100  0.47442500  1
  C  C11  1  0.97597900  0.16485900  0.02557500  1
  C  C12  1  0.28202400  0.16253700  0.51344600  1
  C  C13  1  0.78202400  0.83746300  0.98655400  1
  C  C14  1  0.71797600  0.83746300  0.48655400  1
  C  C15  1  0.21797600  0.16253700  0.01344600  1
  C  C16  1  0.61029500  0.18128900  0.04182500  1
  C  C17  1  0.11029500  0.81871100  0.45817500  1
  C  C18  1  0.38970500  0.81871100  0.95817500  1
  C  C19  1  0.88970500  0.18128900  0.54182500  1
  C  C20  1  0.39176200  0.18285300  0.69742600  1
  C  C21  1  0.89176200  0.81714700  0.80257400  1
  C  C22  1  0.60823800  0.81714700  0.30257400  1
  C  C23  1  0.10823800  0.18285300  0.19742600  1
  Ni  Ni24  1  0.49497900  0.15180600  0.10115100  1
  Ni  Ni25  1  0.99497900  0.84819400  0.39884900  1
  Ni  Ni26  1  0.50502100  0.84819400  0.89884900  1
  Ni  Ni27  1  0.00502100  0.15180600  0.60115100  1
  Ni  Ni28  1  0.59811500  0.15390400  0.27930100  1
  Ni  Ni29  1  0.09811500  0.84609600  0.22069900  1
  Ni  Ni30  1  0.40188500  0.84609600  0.72069900  1
  Ni  Ni31  1  0.90188500  0.15390400  0.77930100  1
  Ni  Ni32  1  0.72012100  0.15825600  0.11031200  1
  Ni  Ni33  1  0.22012100  0.84174400  0.38968800  1
  Ni  Ni34  1  0.27987900  0.84174400  0.88968800  1
  Ni  Ni35  1  0.77987900  0.15825600  0.61031200  1
  Ni  Ni36  1  0.40666200  0.14162700  0.46954700  1
  Ni  Ni37  1  0.90666200  0.85837300  0.03045300  1
  Ni  Ni38  1  0.59333800  0.85837300  0.53045300  1
  Ni  Ni39  1  0.09333800  0.14162700  0.96954700  1
  Ni  Ni40  1  0.28284900  0.15313400  0.63553500  1
  Ni  Ni41  1  0.78284900  0.84686600  0.86446500  1
  Ni  Ni42  1  0.71715100  0.84686600  0.36446500  1
  Ni  Ni43  1  0.21715100  0.15313400  0.13553500  1
  Ni  Ni44  1  0.50800600  0.15072800  0.64732500  1
  Ni  Ni45  1  0.00800600  0.84927200  0.85267500  1
  Ni  Ni46  1  0.49199400  0.84927200  0.35267500  1
  Ni  Ni47  1  0.99199400  0.15072800  0.14732500  1
  C  C48  1  0.60551900  0.36557600  0.99017700  1
  C  C49  1  0.10551900  0.63442400  0.50982300  1
  C  C50  1  0.39448100  0.63442400  0.00982300  1
  C  C51  1  0.89448100  0.36557600  0.49017700  1
  C  C52  1  0.43743200  0.35996900  0.21634300  1
  C  C53  1  0.93743200  0.64003100  0.28365700  1
  C  C54  1  0.56256800  0.64003100  0.78365700  1
  C  C55  1  0.06256800  0.35996900  0.71634300  1
  C  C56  1  0.75982300  0.36404200  0.23104100  1
  C  C57  1  0.25982300  0.63595800  0.26895900  1
  C  C58  1  0.24017700  0.63595800  0.76895900  1
  C  C59  1  0.74017700  0.36404200  0.73104100  1
  C  C60  1  0.56140000  0.35399200  0.48068100  1
  C  C61  1  0.06140000  0.64600800  0.01931900  1
  C  C62  1  0.43860000  0.64600800  0.51931900  1
  C  C63  1  0.93860000  0.35399200  0.98068100  1
  C  C64  1  0.24421400  0.35045600  0.46126500  1
  C  C65  1  0.74421400  0.64954400  0.03873500  1
  C  C66  1  0.75578600  0.64954400  0.53873500  1
  C  C67  1  0.25578600  0.35045600  0.96126500  1
  C  C68  1  0.39347000  0.36825000  0.70003400  1
  C  C69  1  0.89347000  0.63175000  0.79996600  1
  C  C70  1  0.60653000  0.63175000  0.29996600  1
  C  C71  1  0.10653000  0.36825000  0.20003400  1
  Cu  Cu72  1  0.61868800  0.12035400  0.95466300  1
  Cu  Cu73  1  0.11868800  0.87964600  0.54533700  1
  Cu  Cu74  1  0.38131200  0.87964600  0.04533700  1
  Cu  Cu75  1  0.88131200  0.12035400  0.45466300  1
  Cu  Cu76  1  0.38366400  0.12687600  0.80015200  1
  Cu  Cu77  1  0.88366400  0.87312400  0.69984800  1
  Cu  Cu78  1  0.61633600  0.87312400  0.19984800  1
  Cu  Cu79  1  0.11633600  0.12687600  0.30015200  1
