# generated using pymatgen
data_Cu14NiC6
_symmetry_space_group_name_H-M   'P 1'
_cell_length_a   11.80798347
_cell_length_b   11.80798347
_cell_length_c   11.80798286
_cell_angle_alpha   61.74574617
_cell_angle_beta   61.74574617
_cell_angle_gamma   61.74574736
_symmetry_Int_Tables_number   1
_chemical_formula_structural   Cu14NiC6
_chemical_formula_sum   'Cu56 Ni4 C24'
_cell_volume   1209.70005203
_cell_formula_units_Z   4
loop_
 _symmetry_equiv_pos_site_id
 _symmetry_equiv_pos_as_xyz
  1  'x, y, z'
loop_
 _atom_site_type_symbol
 _atom_site_label
 _atom_site_symmetry_multiplicity
 _atom_site_fract_x
 _atom_site_fract_y
 _atom_site_fract_z
 _atom_site_occupancy
  C  C0  1  0.19775000  0.74680300  0.15125600  1
  C  C1  1  0.74680300  0.15125600  0.19775000  1
  C  C2  1  0.15125600  0.19775000  0.74680300  1
  C  C3  1  0.80225000  0.25319700  0.84874400  1
  C  C4  1  0.25319700  0.84874400  0.80225000  1
  C  C5  1  0.84874400  0.80225000  0.25319700  1
  C  C6  1  0.27326800  0.96023100  0.01736800  1
  C  C7  1  0.96023100  0.01736800  0.27326800  1
  C  C8  1  0.01736800  0.27326800  0.96023100  1
  C  C9  1  0.72673200  0.03976900  0.98263300  1
  C  C10  1  0.03976900  0.98263300  0.72673200  1
  C  C11  1  0.98263300  0.72673200  0.03976900  1
  C  C12  1  0.25582600  0.83727800  0.31984500  1
  C  C13  1  0.83727800  0.31984500  0.25582600  1
  C  C14  1  0.31984500  0.25582600  0.83727800  1
  C  C15  1  0.74417400  0.16272200  0.68015500  1
  C  C16  1  0.16272200  0.68015500  0.74417400  1
  C  C17  1  0.68015500  0.74417400  0.16272200  1
  C  C18  1  0.48882000  0.70096500  0.94648400  1
  C  C19  1  0.70096500  0.94648400  0.48882000  1
  C  C20  1  0.94648400  0.48882000  0.70096500  1
  C  C21  1  0.51118000  0.29903500  0.05351600  1
  C  C22  1  0.29903500  0.05351600  0.51118000  1
  C  C23  1  0.05351600  0.51118000  0.29903500  1
  Ni  Ni24  1  0.60258600  0.60258600  0.60258600  1
  Ni  Ni25  1  0.39741400  0.39741400  0.39741400  1
  Ni  Ni26  1  0.79510600  0.79510600  0.79510600  1
  Ni  Ni27  1  0.20489400  0.20489400  0.20489400  1
  Cu  Cu28  1  0.08863100  0.08863100  0.08863100  1
  Cu  Cu29  1  0.91136900  0.91136900  0.91136900  1
  Cu  Cu30  1  0.00200900  0.84868400  0.23547800  1
  Cu  Cu31  1  0.84868400  0.23547800  0.00200900  1
  Cu  Cu32  1  0.23547800  0.00200900  0.84868400  1
  Cu  Cu33  1  0.99799100  0.15131600  0.76452200  1
  Cu  Cu34  1  0.15131600  0.76452200  0.99799100  1
  Cu  Cu35  1  0.76452200  0.99799100  0.15131600  1
  Cu  Cu36  1  0.11295700  0.92300500  0.37227700  1
  Cu  Cu37  1  0.92300500  0.37227700  0.11295700  1
  Cu  Cu38  1  0.37227700  0.11295700  0.92300500  1
  Cu  Cu39  1  0.88704300  0.07699500  0.62772300  1
  Cu  Cu40  1  0.07699500  0.62772300  0.88704300  1
  Cu  Cu41  1  0.62772300  0.88704300  0.07699500  1
  Cu  Cu42  1  0.32383600  0.92208500  0.17642100  1
  Cu  Cu43  1  0.92208500  0.17642100  0.32383600  1
  Cu  Cu44  1  0.17642100  0.32383600  0.92208500  1
  Cu  Cu45  1  0.67616400  0.07791500  0.82357900  1
  Cu  Cu46  1  0.07791500  0.82357900  0.67616400  1
  Cu  Cu47  1  0.82357900  0.67616400  0.07791500  1
  Cu  Cu48  1  0.20801100  0.59388300  0.66797300  1
  Cu  Cu49  1  0.59388300  0.66797300  0.20801100  1
  Cu  Cu50  1  0.66797300  0.20801100  0.59388300  1
  Cu  Cu51  1  0.79198900  0.40611700  0.33202700  1
  Cu  Cu52  1  0.40611700  0.33202700  0.79198900  1
  Cu  Cu53  1  0.33202700  0.79198900  0.40611700  1
  Cu  Cu54  1  0.25266200  0.71608500  0.30558600  1
  Cu  Cu55  1  0.71608500  0.30558600  0.25266200  1
  Cu  Cu56  1  0.30558600  0.25266200  0.71608500  1
  Cu  Cu57  1  0.74733800  0.28391500  0.69441400  1
  Cu  Cu58  1  0.28391500  0.69441400  0.74733800  1
  Cu  Cu59  1  0.69441400  0.74733800  0.28391500  1
  Cu  Cu60  1  0.46442300  0.84090700  0.94745700  1
  Cu  Cu61  1  0.84090700  0.94745700  0.46442300  1
  Cu  Cu62  1  0.94745700  0.46442300  0.84090700  1
  Cu  Cu63  1  0.53557700  0.15909300  0.05254300  1
  Cu  Cu64  1  0.15909300  0.05254300  0.53557700  1
  Cu  Cu65  1  0.05254300  0.53557700  0.15909300  1
  Cu  Cu66  1  0.62748100  0.62006800  0.93364600  1
  Cu  Cu67  1  0.62006800  0.93364600  0.62748100  1
  Cu  Cu68  1  0.93364600  0.62748100  0.62006800  1
  Cu  Cu69  1  0.37251900  0.37993200  0.06635400  1
  Cu  Cu70  1  0.37993200  0.06635400  0.37251900  1
  Cu  Cu71  1  0.06635400  0.37251900  0.37993200  1
  Cu  Cu72  1  0.39511700  0.63415300  0.08245000  1
  Cu  Cu73  1  0.63415300  0.08245000  0.39511700  1
  Cu  Cu74  1  0.08245000  0.39511700  0.63415300  1
  Cu  Cu75  1  0.60488300  0.36584700  0.91755000  1
  Cu  Cu76  1  0.36584700  0.91755000  0.60488300  1
  Cu  Cu77  1  0.91755000  0.60488300  0.36584700  1
  Cu  Cu78  1  0.16661500  0.55021800  0.27903200  1
  Cu  Cu79  1  0.55021800  0.27903200  0.16661500  1
  Cu  Cu80  1  0.27903200  0.16661500  0.55021800  1
  Cu  Cu81  1  0.83338500  0.44978200  0.72096800  1
  Cu  Cu82  1  0.44978200  0.72096800  0.83338500  1
  Cu  Cu83  1  0.72096800  0.83338500  0.44978200  1
