# generated using pymatgen
data_Cu4Ni4C3
_symmetry_space_group_name_H-M   'P 1'
_cell_length_a   7.85192500
_cell_length_b   4.44266000
_cell_length_c   13.74154413
_cell_angle_alpha   88.92111207
_cell_angle_beta   90.00000000
_cell_angle_gamma   90.00000000
_symmetry_Int_Tables_number   1
_chemical_formula_structural   Cu4Ni4C3
_chemical_formula_sum   'Cu8 Ni8 C6'
_cell_volume   479.26725505
_cell_formula_units_Z   2
loop_
 _symmetry_equiv_pos_site_id
 _symmetry_equiv_pos_as_xyz
  1  'x, y, z'
loop_
 _atom_site_type_symbol
 _atom_site_label
 _atom_site_symmetry_multiplicity
 _atom_site_fract_x
 _atom_site_fract_y
 _atom_site_fract_z
 _atom_site_occupancy
  C  C0  1  0.95577700  0.28454500  0.34382900  1
  C  C1  1  0.45577700  0.71545500  0.15617100  1
  C  C2  1  0.54422300  0.28454500  0.84382900  1
  C  C3  1  0.04422300  0.71545500  0.65617100  1
  C  C4  1  0.00000000  0.00000000  0.00000000  1
  C  C5  1  0.50000000  0.00000000  0.50000000  1
  Ni  Ni6  1  0.12288200  0.15804900  0.11529500  1
  Ni  Ni7  1  0.62288200  0.84195100  0.38470500  1
  Ni  Ni8  1  0.27852400  0.85048800  0.44857000  1
  Ni  Ni9  1  0.77852400  0.14951200  0.05143000  1
  Ni  Ni10  1  0.37711800  0.15804900  0.61529500  1
  Ni  Ni11  1  0.87711800  0.84195100  0.88470500  1
  Ni  Ni12  1  0.22147600  0.85048800  0.94857000  1
  Ni  Ni13  1  0.72147600  0.14951200  0.55143000  1
  Cu  Cu14  1  0.19946700  0.24635700  0.18254600  1
  Cu  Cu15  1  0.69946700  0.75364300  0.31745400  1
  Cu  Cu16  1  0.35408900  0.76523300  0.92069600  1
  Cu  Cu17  1  0.85408900  0.23476700  0.57930400  1
  Cu  Cu18  1  0.64591100  0.23476700  0.07930400  1
  Cu  Cu19  1  0.14591100  0.76523300  0.42069600  1
  Cu  Cu20  1  0.30053300  0.24635700  0.68254600  1
  Cu  Cu21  1  0.80053300  0.75364300  0.81745400  1
