# generated using pymatgen
data_CuNiC5
_symmetry_space_group_name_H-M   'P 1'
_cell_length_a   7.51642019
_cell_length_b   7.47417114
_cell_length_c   7.47443490
_cell_angle_alpha   59.05459687
_cell_angle_beta   59.81265749
_cell_angle_gamma   59.81316862
_symmetry_Int_Tables_number   1
_chemical_formula_structural   CuNiC5
_chemical_formula_sum   'Cu2 Ni2 C10'
_cell_volume   293.91486141
_cell_formula_units_Z   2
loop_
 _symmetry_equiv_pos_site_id
 _symmetry_equiv_pos_as_xyz
  1  'x, y, z'
loop_
 _atom_site_type_symbol
 _atom_site_label
 _atom_site_symmetry_multiplicity
 _atom_site_fract_x
 _atom_site_fract_y
 _atom_site_fract_z
 _atom_site_occupancy
  Ni  Ni0  1  0.87576500  0.87422000  0.87428400  1
  Ni  Ni1  1  0.12426100  0.12572800  0.12578500  1
  Cu  Cu2  1  0.49981400  0.50016200  0.99985500  1
  Cu  Cu3  1  0.49997500  0.99998900  0.50002700  1
  C  C4  1  0.50004500  0.49999200  0.49997700  1
  C  C5  1  0.00002900  0.49996700  0.50003600  1
  C  C6  1  0.71892700  0.74912700  0.74914000  1
  C  C7  1  0.27093900  0.23611900  0.72208900  1
  C  C8  1  0.27091600  0.72207300  0.23612900  1
  C  C9  1  0.71718700  0.25087300  0.25084300  1
  C  C10  1  0.72911200  0.27790500  0.76387800  1
  C  C11  1  0.28280500  0.74913700  0.74911700  1
  C  C12  1  0.28108100  0.25085000  0.25088300  1
  C  C13  1  0.72914700  0.76385300  0.27795900  1
