# generated using pymatgen
data_Cu5Ni3C2
_symmetry_space_group_name_H-M   'P 1'
_cell_length_a   10.35946300
_cell_length_b   10.35946300
_cell_length_c   5.48654600
_cell_angle_alpha   90.00000000
_cell_angle_beta   90.00000000
_cell_angle_gamma   90.00000000
_symmetry_Int_Tables_number   1
_chemical_formula_structural   Cu5Ni3C2
_chemical_formula_sum   'Cu20 Ni12 C8'
_cell_volume   588.80774232
_cell_formula_units_Z   4
loop_
 _symmetry_equiv_pos_site_id
 _symmetry_equiv_pos_as_xyz
  1  'x, y, z'
loop_
 _atom_site_type_symbol
 _atom_site_label
 _atom_site_symmetry_multiplicity
 _atom_site_fract_x
 _atom_site_fract_y
 _atom_site_fract_z
 _atom_site_occupancy
  C  C0  1  0.56981600  0.73635400  0.50000000  1
  C  C1  1  0.43018400  0.26364600  0.50000000  1
  C  C2  1  0.06981600  0.76364600  0.00000000  1
  C  C3  1  0.93018400  0.23635400  0.00000000  1
  C  C4  1  0.26364600  0.56981600  0.50000000  1
  C  C5  1  0.73635400  0.43018400  0.50000000  1
  C  C6  1  0.23635400  0.06981600  0.00000000  1
  C  C7  1  0.76364600  0.93018400  0.00000000  1
  Ni  Ni8  1  0.87715800  0.85452300  0.50000000  1
  Ni  Ni9  1  0.12284200  0.14547700  0.50000000  1
  Ni  Ni10  1  0.37715800  0.64547700  0.00000000  1
  Ni  Ni11  1  0.62284200  0.35452300  0.00000000  1
  Ni  Ni12  1  0.14547700  0.87715800  0.50000000  1
  Ni  Ni13  1  0.85452300  0.12284200  0.50000000  1
  Ni  Ni14  1  0.35452300  0.37715800  0.00000000  1
  Ni  Ni15  1  0.64547700  0.62284200  0.00000000  1
  Ni  Ni16  1  0.50000000  0.00000000  0.25000000  1
  Ni  Ni17  1  0.00000000  0.50000000  0.75000000  1
  Ni  Ni18  1  0.00000000  0.50000000  0.25000000  1
  Ni  Ni19  1  0.50000000  0.00000000  0.75000000  1
  Cu  Cu20  1  0.67702500  0.17702500  0.25000000  1
  Cu  Cu21  1  0.32297500  0.82297500  0.25000000  1
  Cu  Cu22  1  0.17702500  0.32297500  0.75000000  1
  Cu  Cu23  1  0.82297500  0.67702500  0.75000000  1
  Cu  Cu24  1  0.82297500  0.67702500  0.25000000  1
  Cu  Cu25  1  0.17702500  0.32297500  0.25000000  1
  Cu  Cu26  1  0.67702500  0.17702500  0.75000000  1
  Cu  Cu27  1  0.32297500  0.82297500  0.75000000  1
  Cu  Cu28  1  0.50000000  0.50000000  0.23017100  1
  Cu  Cu29  1  0.00000000  0.00000000  0.73017100  1
  Cu  Cu30  1  0.50000000  0.50000000  0.76982900  1
  Cu  Cu31  1  0.00000000  0.00000000  0.26982900  1
  Cu  Cu32  1  0.67984400  0.97834400  0.50000000  1
  Cu  Cu33  1  0.32015600  0.02165600  0.50000000  1
  Cu  Cu34  1  0.17984400  0.52165600  0.00000000  1
  Cu  Cu35  1  0.82015600  0.47834400  0.00000000  1
  Cu  Cu36  1  0.02165600  0.67984400  0.50000000  1
  Cu  Cu37  1  0.97834400  0.32015600  0.50000000  1
  Cu  Cu38  1  0.47834400  0.17984400  0.00000000  1
  Cu  Cu39  1  0.52165600  0.82015600  0.00000000  1
