# generated using pymatgen
data_CuNiC30
_symmetry_space_group_name_H-M   'P 1'
_cell_length_a   4.52896000
_cell_length_b   8.74644800
_cell_length_c   8.97213900
_cell_angle_alpha   90.00000000
_cell_angle_beta   90.00000000
_cell_angle_gamma   90.00000000
_symmetry_Int_Tables_number   1
_chemical_formula_structural   CuNiC30
_chemical_formula_sum   'Cu1 Ni1 C30'
_cell_volume   355.40717955
_cell_formula_units_Z   1
loop_
 _symmetry_equiv_pos_site_id
 _symmetry_equiv_pos_as_xyz
  1  'x, y, z'
loop_
 _atom_site_type_symbol
 _atom_site_label
 _atom_site_symmetry_multiplicity
 _atom_site_fract_x
 _atom_site_fract_y
 _atom_site_fract_z
 _atom_site_occupancy
  Ni  Ni0  1  0.00000000  0.00000000  0.50000000  1
  Cu  Cu1  1  0.00000000  0.00000000  0.00000000  1
  C  C2  1  0.00000000  0.50000000  0.00000000  1
  C  C3  1  0.00000000  0.50000000  0.50000000  1
  C  C4  1  0.50000000  0.00000000  0.24024900  1
  C  C5  1  0.50000000  0.00000000  0.75975100  1
  C  C6  1  0.50000000  0.50000000  0.24856400  1
  C  C7  1  0.50000000  0.50000000  0.75143600  1
  C  C8  1  0.50000000  0.25793400  0.00000000  1
  C  C9  1  0.50000000  0.26435100  0.50000000  1
  C  C10  1  0.50000000  0.74206600  0.00000000  1
  C  C11  1  0.50000000  0.73564900  0.50000000  1
  C  C12  1  0.00000000  0.26106300  0.24425800  1
  C  C13  1  0.00000000  0.26106300  0.75574200  1
  C  C14  1  0.00000000  0.73893700  0.24425800  1
  C  C15  1  0.00000000  0.73893700  0.75574200  1
  C  C16  1  0.00000000  0.26687100  0.00000000  1
  C  C17  1  0.00000000  0.28171600  0.50000000  1
  C  C18  1  0.00000000  0.73312900  0.00000000  1
  C  C19  1  0.00000000  0.71828400  0.50000000  1
  C  C20  1  0.50000000  0.25126600  0.24935300  1
  C  C21  1  0.50000000  0.25126600  0.75064700  1
  C  C22  1  0.50000000  0.74873400  0.24935300  1
  C  C23  1  0.50000000  0.74873400  0.75064700  1
  C  C24  1  0.50000000  0.00000000  0.00000000  1
  C  C25  1  0.50000000  0.00000000  0.50000000  1
  C  C26  1  0.50000000  0.50000000  0.00000000  1
  C  C27  1  0.50000000  0.50000000  0.50000000  1
  C  C28  1  0.00000000  0.00000000  0.23351400  1
  C  C29  1  0.00000000  0.00000000  0.76648600  1
  C  C30  1  0.00000000  0.50000000  0.24441500  1
  C  C31  1  0.00000000  0.50000000  0.75558500  1
