# generated using pymatgen
data_CuNi3C16
_symmetry_space_group_name_H-M   'P 1'
_cell_length_a   7.59293800
_cell_length_b   5.35208300
_cell_length_c   5.45341919
_cell_angle_alpha   89.88922050
_cell_angle_beta   90.00000000
_cell_angle_gamma   90.00000000
_symmetry_Int_Tables_number   1
_chemical_formula_structural   CuNi3C16
_chemical_formula_sum   'Cu1 Ni3 C16'
_cell_volume   221.61582248
_cell_formula_units_Z   1
loop_
 _symmetry_equiv_pos_site_id
 _symmetry_equiv_pos_as_xyz
  1  'x, y, z'
loop_
 _atom_site_type_symbol
 _atom_site_label
 _atom_site_symmetry_multiplicity
 _atom_site_fract_x
 _atom_site_fract_y
 _atom_site_fract_z
 _atom_site_occupancy
  Ni  Ni0  1  0.00000000  0.00823900  0.95272100  1
  Ni  Ni1  1  0.50000000  0.50808300  0.54391100  1
  Ni  Ni2  1  0.50000000  0.99113600  0.04481500  1
  Cu  Cu3  1  0.00000000  0.48860800  0.44340800  1
  C  C4  1  0.25127300  0.99852600  0.50062000  1
  C  C5  1  0.74860800  0.50127700  0.99673300  1
  C  C6  1  0.74872700  0.99852600  0.50062000  1
  C  C7  1  0.25139200  0.50127700  0.99673300  1
  C  C8  1  0.20197000  0.21255900  0.21388100  1
  C  C9  1  0.79516500  0.29824600  0.70322600  1
  C  C10  1  0.71066400  0.79833800  0.79635300  1
  C  C11  1  0.28344200  0.69919900  0.29868000  1
  C  C12  1  0.28933600  0.79833800  0.79635300  1
  C  C13  1  0.71655800  0.69919900  0.29868000  1
  C  C14  1  0.79803000  0.21255900  0.21388100  1
  C  C15  1  0.20483500  0.29824600  0.70322600  1
  C  C16  1  0.00000000  0.57791400  0.02285200  1
  C  C17  1  0.00000000  0.91270100  0.51881100  1
  C  C18  1  0.50000000  0.42036200  0.97848900  1
  C  C19  1  0.50000000  0.07666500  0.47600800  1
