# generated using pymatgen
data_Cu10Ni6C25
_symmetry_space_group_name_H-M   'P 1'
_cell_length_a   10.03031560
_cell_length_b   10.03031560
_cell_length_c   7.49571200
_cell_angle_alpha   90.00000000
_cell_angle_beta   90.00000000
_cell_angle_gamma   119.99999735
_symmetry_Int_Tables_number   1
_chemical_formula_structural   Cu10Ni6C25
_chemical_formula_sum   'Cu10 Ni6 C25'
_cell_volume   653.08954466
_cell_formula_units_Z   1
loop_
 _symmetry_equiv_pos_site_id
 _symmetry_equiv_pos_as_xyz
  1  'x, y, z'
loop_
 _atom_site_type_symbol
 _atom_site_label
 _atom_site_symmetry_multiplicity
 _atom_site_fract_x
 _atom_site_fract_y
 _atom_site_fract_z
 _atom_site_occupancy
  Ni  Ni0  1  0.69535200  0.73732800  0.75064500  1
  Ni  Ni1  1  0.26267200  0.95802400  0.75064500  1
  Ni  Ni2  1  0.04197600  0.30464800  0.75064500  1
  Ni  Ni3  1  0.63850100  0.93640100  0.25090700  1
  Ni  Ni4  1  0.06359900  0.70210000  0.25090700  1
  Ni  Ni5  1  0.29790000  0.36149900  0.25090700  1
  Cu  Cu6  1  0.00000000  0.00000000  0.50483000  1
  Cu  Cu7  1  0.33333300  0.66666700  0.98858900  1
  Cu  Cu8  1  0.33333300  0.66666700  0.50930600  1
  Cu  Cu9  1  0.00000000  0.00000000  0.99499100  1
  Cu  Cu10  1  0.89078500  0.56012100  0.73069300  1
  Cu  Cu11  1  0.43987900  0.33066300  0.73069300  1
  Cu  Cu12  1  0.66933700  0.10921500  0.73069300  1
  Cu  Cu13  1  0.40951700  0.06978100  0.24479800  1
  Cu  Cu14  1  0.93021900  0.33973700  0.24479800  1
  Cu  Cu15  1  0.66026300  0.59048300  0.24479800  1
  C  C16  1  0.74302200  0.67980500  0.58111500  1
  C  C17  1  0.32019500  0.06321700  0.58111500  1
  C  C18  1  0.93678300  0.25697800  0.58111500  1
  C  C19  1  0.57531100  0.98239700  0.08650600  1
  C  C20  1  0.01760300  0.59291400  0.08650600  1
  C  C21  1  0.40708600  0.42468900  0.08650600  1
  C  C22  1  0.57746800  0.98103800  0.41954700  1
  C  C23  1  0.01896200  0.59642900  0.41954700  1
  C  C24  1  0.40357100  0.42253200  0.41954700  1
  C  C25  1  0.73613500  0.67128200  0.91724100  1
  C  C26  1  0.32871800  0.06485300  0.91724100  1
  C  C27  1  0.93514700  0.26386500  0.91724100  1
  C  C28  1  0.52068900  0.68433500  0.74729300  1
  C  C29  1  0.31566500  0.83635400  0.74729300  1
  C  C30  1  0.16364600  0.47931100  0.74729300  1
  C  C31  1  0.81548000  0.01123000  0.25054500  1
  C  C32  1  0.98877000  0.80424900  0.25054500  1
  C  C33  1  0.19575100  0.18452000  0.25054500  1
  C  C34  1  0.79448800  0.91712800  0.75449400  1
  C  C35  1  0.08287200  0.87736000  0.75449400  1
  C  C36  1  0.12264000  0.20551200  0.75449400  1
  C  C37  1  0.56155500  0.75490300  0.24999900  1
  C  C38  1  0.24509700  0.80665200  0.24999900  1
  C  C39  1  0.19334800  0.43844500  0.24999900  1
  C  C40  1  0.66666700  0.33333300  0.68515600  1
