# generated using pymatgen
data_CuNi6C17
_symmetry_space_group_name_H-M   'P 1'
_cell_length_a   7.34943827
_cell_length_b   7.34943827
_cell_length_c   15.00824126
_cell_angle_alpha   75.42566699
_cell_angle_beta   75.42566699
_cell_angle_gamma   59.52989367
_symmetry_Int_Tables_number   1
_chemical_formula_structural   CuNi6C17
_chemical_formula_sum   'Cu2 Ni12 C34'
_cell_volume   668.70169004
_cell_formula_units_Z   2
loop_
 _symmetry_equiv_pos_site_id
 _symmetry_equiv_pos_as_xyz
  1  'x, y, z'
loop_
 _atom_site_type_symbol
 _atom_site_label
 _atom_site_symmetry_multiplicity
 _atom_site_fract_x
 _atom_site_fract_y
 _atom_site_fract_z
 _atom_site_occupancy
  C  C0  1  0.78700000  0.92131100  0.21180700  1
  C  C1  1  0.92131100  0.78700000  0.71180700  1
  C  C2  1  0.20900600  0.57599300  0.40104000  1
  C  C3  1  0.57599300  0.20900600  0.90104000  1
  Ni  Ni4  1  0.56448800  0.59091300  0.16953500  1
  Ni  Ni5  1  0.59091300  0.56448800  0.66953500  1
  Ni  Ni6  1  0.69294000  0.13313700  0.47747000  1
  Ni  Ni7  1  0.13313700  0.69294000  0.97747000  1
  Ni  Ni8  1  0.11902500  0.04583500  0.49339000  1
  Ni  Ni9  1  0.04583500  0.11902500  0.99339000  1
  Ni  Ni10  1  0.19560600  0.05087500  0.18767500  1
  Ni  Ni11  1  0.05087500  0.19560600  0.68767500  1
  Ni  Ni12  1  0.29278900  0.39749100  0.17156000  1
  Ni  Ni13  1  0.39749100  0.29278900  0.67156000  1
  Ni  Ni14  1  0.59799400  0.77107000  0.45999500  1
  Ni  Ni15  1  0.77107000  0.59799400  0.95999500  1
  Cu  Cu16  1  0.89467700  0.39541700  0.32691600  1
  Cu  Cu17  1  0.39541700  0.89467700  0.82691600  1
  C  C18  1  0.33411000  0.78959600  0.20721700  1
  C  C19  1  0.78959600  0.33411000  0.70721700  1
  C  C20  1  0.36435000  0.15046700  0.15966400  1
  C  C21  1  0.15046700  0.36435000  0.65966400  1
  C  C22  1  0.93981200  0.96655200  0.49996300  1
  C  C23  1  0.96655200  0.93981200  0.99996300  1
  C  C24  1  0.34597500  0.84014200  0.46038100  1
  C  C25  1  0.84014200  0.34597500  0.96038100  1
  C  C26  1  0.06466300  0.11952100  0.10032200  1
  C  C27  1  0.11952100  0.06466300  0.60032200  1
  C  C28  1  0.22210300  0.54993800  0.07414200  1
  C  C29  1  0.54993800  0.22210300  0.57414200  1
  C  C30  1  0.62106300  0.66928700  0.05878700  1
  C  C31  1  0.66928700  0.62106300  0.55878700  1
  C  C32  1  0.60142200  0.99725100  0.45012900  1
  C  C33  1  0.99725100  0.60142200  0.95012900  1
  C  C34  1  0.75065500  0.54124200  0.22268400  1
  C  C35  1  0.54124200  0.75065500  0.72268400  1
  C  C36  1  0.47791500  0.11024600  0.75928900  1
  C  C37  1  0.11024600  0.47791500  0.25928900  1
  C  C38  1  0.66154200  0.75975500  0.87214900  1
  C  C39  1  0.75975500  0.66154200  0.37214900  1
  C  C40  1  0.33216000  0.67337100  0.89701500  1
  C  C41  1  0.67337100  0.33216000  0.39701500  1
  C  C42  1  0.26916200  0.06331800  0.92594400  1
  C  C43  1  0.06331800  0.26916200  0.42594400  1
  C  C44  1  0.12838900  0.03018100  0.78056900  1
  C  C45  1  0.03018100  0.12838900  0.28056900  1
  C  C46  1  0.38857300  0.51427100  0.68425900  1
  C  C47  1  0.51427100  0.38857300  0.18425900  1
