# generated using pymatgen
data_Cu2NiC10
_symmetry_space_group_name_H-M   'P 1'
_cell_length_a   3.85118500
_cell_length_b   3.87001300
_cell_length_c   12.49511535
_cell_angle_alpha   89.83573505
_cell_angle_beta   90.00000000
_cell_angle_gamma   90.00000000
_symmetry_Int_Tables_number   1
_chemical_formula_structural   Cu2NiC10
_chemical_formula_sum   'Cu2 Ni1 C10'
_cell_volume   186.22813338
_cell_formula_units_Z   1
loop_
 _symmetry_equiv_pos_site_id
 _symmetry_equiv_pos_as_xyz
  1  'x, y, z'
loop_
 _atom_site_type_symbol
 _atom_site_label
 _atom_site_symmetry_multiplicity
 _atom_site_fract_x
 _atom_site_fract_y
 _atom_site_fract_z
 _atom_site_occupancy
  C  C0  1  0.50000000  0.48447200  0.79428700  1
  C  C1  1  0.50000000  0.48378200  0.21022200  1
  C  C2  1  0.50000000  0.49772000  0.49568800  1
  Ni  Ni3  1  0.00000000  0.91717000  0.00785800  1
  Cu  Cu4  1  0.00000000  0.99533300  0.62596000  1
  Cu  Cu5  1  0.00000000  0.99605800  0.35930700  1
  C  C6  1  0.50000000  0.99552100  0.61030800  1
  C  C7  1  0.00000000  0.49560200  0.61082000  1
  C  C8  1  0.50000000  0.99763400  0.37990000  1
  C  C9  1  0.00000000  0.49615700  0.37888500  1
  C  C10  1  0.00000000  0.99285200  0.83783400  1
  C  C11  1  0.00000000  0.00071300  0.17761100  1
  C  C12  1  0.50000000  0.56198700  0.01131800  1
