# generated using pymatgen
data_Cu2(NiC7)3
_symmetry_space_group_name_H-M   'P 1'
_cell_length_a   12.50099357
_cell_length_b   12.50099357
_cell_length_c   12.50099357
_cell_angle_alpha   109.47122063
_cell_angle_beta   109.47122063
_cell_angle_gamma   109.47122063
_symmetry_Int_Tables_number   1
_chemical_formula_structural   Cu2(NiC7)3
_chemical_formula_sum   'Cu8 Ni12 C84'
_cell_volume   1503.87487647
_cell_formula_units_Z   4
loop_
 _symmetry_equiv_pos_site_id
 _symmetry_equiv_pos_as_xyz
  1  'x, y, z'
loop_
 _atom_site_type_symbol
 _atom_site_label
 _atom_site_symmetry_multiplicity
 _atom_site_fract_x
 _atom_site_fract_y
 _atom_site_fract_z
 _atom_site_occupancy
  Ni  Ni0  1  0.11939300  0.75000000  0.86939300  1
  Ni  Ni1  1  0.38060700  0.25000000  0.63060700  1
  Ni  Ni2  1  0.25000000  0.63060700  0.38060700  1
  Ni  Ni3  1  0.75000000  0.86939300  0.11939300  1
  Ni  Ni4  1  0.86939300  0.11939300  0.75000000  1
  Ni  Ni5  1  0.63060700  0.38060700  0.25000000  1
  Ni  Ni6  1  0.88060700  0.25000000  0.13060700  1
  Ni  Ni7  1  0.61939300  0.75000000  0.36939300  1
  Ni  Ni8  1  0.75000000  0.36939300  0.61939300  1
  Ni  Ni9  1  0.25000000  0.13060700  0.88060700  1
  Ni  Ni10  1  0.13060700  0.88060700  0.25000000  1
  Ni  Ni11  1  0.36939300  0.61939300  0.75000000  1
  Cu  Cu12  1  0.50000000  0.50000000  0.50000000  1
  Cu  Cu13  1  0.00000000  0.00000000  0.50000000  1
  Cu  Cu14  1  0.00000000  0.50000000  0.00000000  1
  Cu  Cu15  1  0.50000000  0.00000000  0.00000000  1
  Cu  Cu16  1  0.00000000  0.50000000  0.50000000  1
  Cu  Cu17  1  0.00000000  0.00000000  0.00000000  1
  Cu  Cu18  1  0.50000000  0.00000000  0.50000000  1
  Cu  Cu19  1  0.50000000  0.50000000  0.00000000  1
  C  C20  1  0.80419800  0.62837300  0.54813800  1
  C  C21  1  0.91976500  0.87162700  0.67582500  1
  C  C22  1  0.69580200  0.24394000  0.82417500  1
  C  C23  1  0.58023500  0.25606000  0.95186200  1
  C  C24  1  0.25606000  0.95186200  0.58023500  1
  C  C25  1  0.24394000  0.82417500  0.69580200  1
  C  C26  1  0.87162700  0.67582500  0.91976500  1
  C  C27  1  0.62837300  0.54813800  0.80419800  1
  C  C28  1  0.67582500  0.91976500  0.87162700  1
  C  C29  1  0.54813800  0.80419800  0.62837300  1
  C  C30  1  0.95186200  0.58023500  0.25606000  1
  C  C31  1  0.82417500  0.69580200  0.24394000  1
  C  C32  1  0.19580200  0.37162700  0.45186200  1
  C  C33  1  0.08023500  0.12837300  0.32417500  1
  C  C34  1  0.30419800  0.75606000  0.17582500  1
  C  C35  1  0.41976500  0.74394000  0.04813800  1
  C  C36  1  0.74394000  0.04813800  0.41976500  1
  C  C37  1  0.75606000  0.17582500  0.30419800  1
  C  C38  1  0.12837300  0.32417500  0.08023500  1
  C  C39  1  0.37162700  0.45186200  0.19580200  1
  C  C40  1  0.32417500  0.08023500  0.12837300  1
  C  C41  1  0.45186200  0.19580200  0.37162700  1
  C  C42  1  0.04813800  0.41976500  0.74394000  1
  C  C43  1  0.17582500  0.30419800  0.75606000  1
  C  C44  1  0.67999000  0.60951600  0.48819600  1
  C  C45  1  0.87867900  0.89048400  0.57047400  1
  C  C46  1  0.82001000  0.30820500  0.92952600  1
  C  C47  1  0.62132100  0.19179400  0.01180400  1
  C  C48  1  0.19179500  0.01180400  0.62132100  1
  C  C49  1  0.30820600  0.92952600  0.82001000  1
  C  C50  1  0.89048400  0.57047400  0.87867900  1
  C  C51  1  0.60951600  0.48819600  0.67999000  1
  C  C52  1  0.57047400  0.87867900  0.89048400  1
  C  C53  1  0.48819600  0.67999000  0.60951600  1
  C  C54  1  0.01180400  0.62132100  0.19179500  1
  C  C55  1  0.92952600  0.82001000  0.30820600  1
  C  C56  1  0.32001000  0.39048400  0.51180400  1
  C  C57  1  0.12132100  0.10951600  0.42952600  1
  C  C58  1  0.17999000  0.69179400  0.07047400  1
  C  C59  1  0.37867900  0.80820500  0.98819600  1
  C  C60  1  0.80820600  0.98819600  0.37867900  1
  C  C61  1  0.69179500  0.07047400  0.17999000  1
  C  C62  1  0.10951600  0.42952600  0.12132100  1
  C  C63  1  0.39048400  0.51180400  0.32001000  1
  C  C64  1  0.42952600  0.12132100  0.10951600  1
  C  C65  1  0.51180400  0.32001000  0.39048400  1
  C  C66  1  0.98819600  0.37867900  0.80820600  1
  C  C67  1  0.07047400  0.17999000  0.69179500  1
  C  C68  1  0.90836100  0.75000000  0.65836100  1
  C  C69  1  0.59163900  0.25000000  0.84163900  1
  C  C70  1  0.25000000  0.84163900  0.59163900  1
  C  C71  1  0.75000000  0.65836100  0.90836100  1
  C  C72  1  0.65836100  0.90836100  0.75000000  1
  C  C73  1  0.84163900  0.59163900  0.25000000  1
  C  C74  1  0.09163900  0.25000000  0.34163900  1
  C  C75  1  0.40836100  0.75000000  0.15836100  1
  C  C76  1  0.75000000  0.15836100  0.40836100  1
  C  C77  1  0.25000000  0.34163900  0.09163900  1
  C  C78  1  0.34163900  0.09163900  0.25000000  1
  C  C79  1  0.15836100  0.40836100  0.75000000  1
  C  C80  1  0.83227900  0.53022800  0.50851000  1
  C  C81  1  0.97828200  0.96977200  0.80205000  1
  C  C82  1  0.66772200  0.17623200  0.69795000  1
  C  C83  1  0.52171800  0.32376800  0.99149000  1
  C  C84  1  0.32376800  0.99149000  0.52171800  1
  C  C85  1  0.17623200  0.69795000  0.66772100  1
  C  C86  1  0.96977200  0.80205000  0.97828200  1
  C  C87  1  0.53022800  0.50851000  0.83227900  1
  C  C88  1  0.80205000  0.97828200  0.96977200  1
  C  C89  1  0.50851000  0.83227800  0.53022800  1
  C  C90  1  0.99149000  0.52171800  0.32376800  1
  C  C91  1  0.69795000  0.66772100  0.17623200  1
  C  C92  1  0.16772200  0.46977200  0.49149000  1
  C  C93  1  0.02171800  0.03022800  0.19795000  1
  C  C94  1  0.33227800  0.82376800  0.30205000  1
  C  C95  1  0.47828200  0.67623200  0.00851000  1
  C  C96  1  0.67623200  0.00851000  0.47828200  1
  C  C97  1  0.82376800  0.30205000  0.33227800  1
  C  C98  1  0.03022800  0.19795000  0.02171800  1
  C  C99  1  0.46977200  0.49149000  0.16772200  1
  C  C100  1  0.19795000  0.02171800  0.03022800  1
  C  C101  1  0.49149000  0.16772100  0.46977200  1
  C  C102  1  0.00851000  0.47828200  0.67623200  1
  C  C103  1  0.30205000  0.33227800  0.82376800  1
