# generated using pymatgen
data_CuNiC14
_symmetry_space_group_name_H-M   'P 1'
_cell_length_a   6.30050737
_cell_length_b   6.32552990
_cell_length_c   10.42984705
_cell_angle_alpha   90.00000000
_cell_angle_beta   90.00000000
_cell_angle_gamma   120.13146896
_symmetry_Int_Tables_number   1
_chemical_formula_structural   CuNiC14
_chemical_formula_sum   'Cu1 Ni1 C14'
_cell_volume   359.50434404
_cell_formula_units_Z   1
loop_
 _symmetry_equiv_pos_site_id
 _symmetry_equiv_pos_as_xyz
  1  'x, y, z'
loop_
 _atom_site_type_symbol
 _atom_site_label
 _atom_site_symmetry_multiplicity
 _atom_site_fract_x
 _atom_site_fract_y
 _atom_site_fract_z
 _atom_site_occupancy
  C  C0  1  0.16734341  0.33367121  0.62500000  1
  C  C1  1  0.16700716  0.83350308  0.62500000  1
  C  C2  1  0.66709339  0.33347648  0.12500000  1
  C  C3  1  0.66623873  0.33335543  0.62500000  1
  C  C4  1  0.66709339  0.83361592  0.12500000  1
  C  C5  1  0.66623873  0.83288230  0.62500000  1
  C  C6  1  0.33249210  0.16800611  0.37466091  1
  C  C7  1  0.33249210  0.16800611  0.87533909  1
  C  C8  1  0.33249210  0.66448700  0.37466091  1
  C  C9  1  0.33249210  0.66448700  0.87533909  1
  C  C10  1  0.83529421  0.16764760  0.37487096  1
  C  C11  1  0.83529421  0.16764760  0.87512904  1
  C  C12  1  0.83298425  0.66649262  0.37710773  1
  C  C13  1  0.83298425  0.66649262  0.87289227  1
  Ni  Ni14  1  0.16592784  0.33296342  0.12500000  1
  Cu  Cu15  1  0.16653201  0.83326551  0.12500000  1
