# generated using pymatgen
data_Cu6Ni2C
_symmetry_space_group_name_H-M   'P 1'
_cell_length_a   4.83563993
_cell_length_b   4.83563993
_cell_length_c   23.75831300
_cell_angle_alpha   90.00000000
_cell_angle_beta   90.00000000
_cell_angle_gamma   119.99999901
_symmetry_Int_Tables_number   1
_chemical_formula_structural   Cu6Ni2C
_chemical_formula_sum   'Cu24 Ni8 C4'
_cell_volume   481.12081380
_cell_formula_units_Z   4
loop_
 _symmetry_equiv_pos_site_id
 _symmetry_equiv_pos_as_xyz
  1  'x, y, z'
loop_
 _atom_site_type_symbol
 _atom_site_label
 _atom_site_symmetry_multiplicity
 _atom_site_fract_x
 _atom_site_fract_y
 _atom_site_fract_z
 _atom_site_occupancy
  C  C0  1  0.00000000  0.00000000  0.81064700  1
  C  C1  1  0.00000000  0.00000000  0.47854500  1
  C  C2  1  0.00000000  0.00000000  0.14610700  1
  C  C3  1  0.66666700  0.33333300  0.85494300  1
  Ni  Ni4  1  0.66666700  0.33333300  0.52296100  1
  Ni  Ni5  1  0.66666700  0.33333300  0.18991700  1
  Ni  Ni6  1  0.66666700  0.33333300  0.98068000  1
  Ni  Ni7  1  0.66666700  0.33333300  0.64609200  1
  Ni  Ni8  1  0.66666700  0.33333300  0.31311500  1
  Ni  Ni9  1  0.00000000  0.00000000  0.68543700  1
  Ni  Ni10  1  0.00000000  0.00000000  0.35240200  1
  Ni  Ni11  1  0.00000000  0.00000000  0.02046400  1
  Cu  Cu12  1  0.33333300  0.66666700  0.83344500  1
  Cu  Cu13  1  0.33333300  0.66666700  0.50002800  1
  Cu  Cu14  1  0.33333300  0.66666700  0.16692400  1
  Cu  Cu15  1  0.33333300  0.66666700  0.00064700  1
  Cu  Cu16  1  0.33333300  0.66666700  0.66587600  1
  Cu  Cu17  1  0.33333300  0.66666700  0.33333000  1
  Cu  Cu18  1  0.99432600  0.49716300  0.74684900  1
  Cu  Cu19  1  0.99229400  0.49614700  0.41489800  1
  Cu  Cu20  1  0.99386300  0.49693200  0.08229400  1
  Cu  Cu21  1  0.50283700  0.49716300  0.74684900  1
  Cu  Cu22  1  0.50385300  0.49614700  0.41489800  1
  Cu  Cu23  1  0.50306800  0.49693200  0.08229400  1
  Cu  Cu24  1  0.50283700  0.00567400  0.74684900  1
  Cu  Cu25  1  0.50385300  0.00770600  0.41489800  1
  Cu  Cu26  1  0.50306800  0.00613700  0.08229400  1
  Cu  Cu27  1  0.67166200  0.83583100  0.91937800  1
  Cu  Cu28  1  0.67244700  0.83622400  0.58455400  1
  Cu  Cu29  1  0.67207800  0.83603900  0.25150900  1
  Cu  Cu30  1  0.16416900  0.83583100  0.91937800  1
  Cu  Cu31  1  0.16377600  0.83622400  0.58455400  1
  Cu  Cu32  1  0.16396100  0.83603900  0.25150900  1
  Cu  Cu33  1  0.16416900  0.32833800  0.91937800  1
  Cu  Cu34  1  0.16377600  0.32755300  0.58455400  1
  Cu  Cu35  1  0.16396100  0.32792200  0.25150900  1
