# generated using pymatgen
data_Cu4(Ni2C)5
_symmetry_space_group_name_H-M   'P 1'
_cell_length_a   14.19269600
_cell_length_b   14.19269600
_cell_length_c   4.70257600
_cell_angle_alpha   90.00000000
_cell_angle_beta   90.00000000
_cell_angle_gamma   90.00000000
_symmetry_Int_Tables_number   1
_chemical_formula_structural   Cu4(Ni2C)5
_chemical_formula_sum   'Cu8 Ni20 C10'
_cell_volume   947.25220325
_cell_formula_units_Z   2
loop_
 _symmetry_equiv_pos_site_id
 _symmetry_equiv_pos_as_xyz
  1  'x, y, z'
loop_
 _atom_site_type_symbol
 _atom_site_label
 _atom_site_symmetry_multiplicity
 _atom_site_fract_x
 _atom_site_fract_y
 _atom_site_fract_z
 _atom_site_occupancy
  C  C0  1  0.50000000  0.50000000  0.00000000  1
  C  C1  1  0.00000000  0.00000000  0.00000000  1
  C  C2  1  0.67647400  0.17647400  0.50000000  1
  C  C3  1  0.32352600  0.82352600  0.50000000  1
  C  C4  1  0.17647400  0.32352600  0.50000000  1
  C  C5  1  0.82352600  0.67647400  0.50000000  1
  C  C6  1  0.88749500  0.38749500  0.50000000  1
  C  C7  1  0.11250500  0.61250500  0.50000000  1
  C  C8  1  0.38749500  0.11250500  0.50000000  1
  C  C9  1  0.61250500  0.88749500  0.50000000  1
  Ni  Ni10  1  0.56957200  0.06957200  0.00000000  1
  Ni  Ni11  1  0.43042800  0.93042800  0.00000000  1
  Ni  Ni12  1  0.06957200  0.43042800  0.00000000  1
  Ni  Ni13  1  0.93042800  0.56957200  0.00000000  1
  Ni  Ni14  1  0.65523500  0.69816700  0.00000000  1
  Ni  Ni15  1  0.34476500  0.30183300  0.00000000  1
  Ni  Ni16  1  0.15523500  0.80183300  0.00000000  1
  Ni  Ni17  1  0.84476500  0.19816700  0.00000000  1
  Ni  Ni18  1  0.30183300  0.65523500  0.00000000  1
  Ni  Ni19  1  0.69816700  0.34476500  0.00000000  1
  Ni  Ni20  1  0.19816700  0.15523500  0.00000000  1
  Ni  Ni21  1  0.80183300  0.84476500  0.00000000  1
  Ni  Ni22  1  0.66342400  0.50554200  0.50000000  1
  Ni  Ni23  1  0.33657600  0.49445800  0.50000000  1
  Ni  Ni24  1  0.16342400  0.99445800  0.50000000  1
  Ni  Ni25  1  0.83657600  0.00554200  0.50000000  1
  Ni  Ni26  1  0.49445800  0.66342400  0.50000000  1
  Ni  Ni27  1  0.50554200  0.33657600  0.50000000  1
  Ni  Ni28  1  0.00554200  0.16342400  0.50000000  1
  Ni  Ni29  1  0.99445800  0.83657600  0.50000000  1
  Cu  Cu30  1  0.74613800  0.52733400  0.00000000  1
  Cu  Cu31  1  0.25386200  0.47266600  0.00000000  1
  Cu  Cu32  1  0.24613800  0.97266600  0.00000000  1
  Cu  Cu33  1  0.75386200  0.02733400  0.00000000  1
  Cu  Cu34  1  0.47266600  0.74613800  0.00000000  1
  Cu  Cu35  1  0.52733400  0.25386200  0.00000000  1
  Cu  Cu36  1  0.02733400  0.24613800  0.00000000  1
  Cu  Cu37  1  0.97266600  0.75386200  0.00000000  1
