# generated using pymatgen
data_Cu2Ni2C9
_symmetry_space_group_name_H-M   'P 1'
_cell_length_a   5.50472000
_cell_length_b   9.40076800
_cell_length_c   12.34220500
_cell_angle_alpha   90.00000000
_cell_angle_beta   90.00000000
_cell_angle_gamma   90.00000000
_symmetry_Int_Tables_number   1
_chemical_formula_structural   Cu2Ni2C9
_chemical_formula_sum   'Cu8 Ni8 C36'
_cell_volume   638.69177567
_cell_formula_units_Z   4
loop_
 _symmetry_equiv_pos_site_id
 _symmetry_equiv_pos_as_xyz
  1  'x, y, z'
loop_
 _atom_site_type_symbol
 _atom_site_label
 _atom_site_symmetry_multiplicity
 _atom_site_fract_x
 _atom_site_fract_y
 _atom_site_fract_z
 _atom_site_occupancy
  C  C0  1  0.75000000  0.27342500  0.59736700  1
  C  C1  1  0.75000000  0.22657500  0.09736700  1
  C  C2  1  0.25000000  0.72657500  0.40263300  1
  C  C3  1  0.25000000  0.77342500  0.90263300  1
  C  C4  1  0.25000000  0.17355700  0.77801300  1
  C  C5  1  0.25000000  0.32644300  0.27801300  1
  C  C6  1  0.75000000  0.82644300  0.22198700  1
  C  C7  1  0.75000000  0.67355700  0.72198700  1
  C  C8  1  0.25000000  0.86370600  0.65818400  1
  C  C9  1  0.25000000  0.63629400  0.15818400  1
  C  C10  1  0.75000000  0.13629400  0.34181600  1
  C  C11  1  0.75000000  0.36370600  0.84181600  1
  Ni  Ni12  1  0.75000000  0.87182600  0.51522300  1
  Ni  Ni13  1  0.75000000  0.62817400  0.01522300  1
  Ni  Ni14  1  0.25000000  0.12817400  0.48477700  1
  Ni  Ni15  1  0.25000000  0.37182600  0.98477700  1
  Ni  Ni16  1  0.25000000  0.49663300  0.68672800  1
  Ni  Ni17  1  0.25000000  0.00336700  0.18672800  1
  Ni  Ni18  1  0.75000000  0.50336700  0.31327200  1
  Ni  Ni19  1  0.75000000  0.99663300  0.81327200  1
  Cu  Cu20  1  0.25000000  0.50416600  0.57227700  1
  Cu  Cu21  1  0.25000000  0.99583400  0.07227700  1
  Cu  Cu22  1  0.75000000  0.49583400  0.42772300  1
  Cu  Cu23  1  0.75000000  0.00416600  0.92772300  1
  Cu  Cu24  1  0.75000000  0.99718200  0.57760400  1
  Cu  Cu25  1  0.75000000  0.50281800  0.07760400  1
  Cu  Cu26  1  0.25000000  0.00281800  0.42239600  1
  Cu  Cu27  1  0.25000000  0.49718200  0.92239600  1
  C  C28  1  0.97984600  0.78870700  0.54860000  1
  C  C29  1  0.52015400  0.71129300  0.04860000  1
  C  C30  1  0.47984600  0.21129300  0.45140000  1
  C  C31  1  0.02015400  0.28870700  0.95140000  1
  C  C32  1  0.02015400  0.21129300  0.45140000  1
  C  C33  1  0.47984600  0.28870700  0.95140000  1
  C  C34  1  0.52015400  0.78870700  0.54860000  1
  C  C35  1  0.97984600  0.71129300  0.04860000  1
  C  C36  1  0.25000000  0.65028300  0.72980400  1
  C  C37  1  0.25000000  0.84971700  0.22980400  1
  C  C38  1  0.75000000  0.34971700  0.27019600  1
  C  C39  1  0.75000000  0.15028300  0.77019600  1
  C  C40  1  0.98351800  0.91425500  0.78386700  1
  C  C41  1  0.51648200  0.58574500  0.28386700  1
  C  C42  1  0.48351800  0.08574500  0.21613300  1
  C  C43  1  0.01648200  0.41425500  0.71613300  1
  C  C44  1  0.01648200  0.08574500  0.21613300  1
  C  C45  1  0.48351800  0.41425500  0.71613300  1
  C  C46  1  0.51648200  0.91425500  0.78386700  1
  C  C47  1  0.98351800  0.58574500  0.28386700  1
  C  C48  1  0.25000000  0.08288400  0.60447800  1
  C  C49  1  0.25000000  0.41711600  0.10447800  1
  C  C50  1  0.75000000  0.91711600  0.39552200  1
  C  C51  1  0.75000000  0.58288400  0.89552200  1
