# generated using pymatgen
data_Cu12(NiC4)7
_symmetry_space_group_name_H-M   'P 1'
_cell_length_a   11.57654150
_cell_length_b   11.57654150
_cell_length_c   11.57654150
_cell_angle_alpha   60.00000000
_cell_angle_beta   60.00000000
_cell_angle_gamma   60.00000000
_symmetry_Int_Tables_number   1
_chemical_formula_structural   Cu12(NiC4)7
_chemical_formula_sum   'Cu12 Ni7 C28'
_cell_volume   1097.03757133
_cell_formula_units_Z   1
loop_
 _symmetry_equiv_pos_site_id
 _symmetry_equiv_pos_as_xyz
  1  'x, y, z'
loop_
 _atom_site_type_symbol
 _atom_site_label
 _atom_site_symmetry_multiplicity
 _atom_site_fract_x
 _atom_site_fract_y
 _atom_site_fract_z
 _atom_site_occupancy
  C  C0  1  0.50000000  0.50000000  0.84152500  1
  C  C1  1  0.15847500  0.50000000  0.84152500  1
  C  C2  1  0.50000000  0.15847500  0.84152500  1
  C  C3  1  0.15847500  0.84152500  0.50000000  1
  C  C4  1  0.50000000  0.84152500  0.50000000  1
  C  C5  1  0.50000000  0.84152500  0.15847500  1
  C  C6  1  0.84152500  0.15847500  0.50000000  1
  C  C7  1  0.84152500  0.50000000  0.15847500  1
  C  C8  1  0.84152500  0.50000000  0.50000000  1
  C  C9  1  0.50000000  0.50000000  0.15847500  1
  C  C10  1  0.50000000  0.15847500  0.50000000  1
  C  C11  1  0.15847500  0.50000000  0.50000000  1
  C  C12  1  0.13547100  0.13547100  0.59358700  1
  C  C13  1  0.13547100  0.59358700  0.13547100  1
  C  C14  1  0.59358700  0.13547100  0.13547100  1
  C  C15  1  0.13547100  0.13547100  0.13547100  1
  C  C16  1  0.86452900  0.86452900  0.40641300  1
  C  C17  1  0.86452900  0.40641300  0.86452900  1
  C  C18  1  0.40641300  0.86452900  0.86452900  1
  C  C19  1  0.86452900  0.86452900  0.86452900  1
  C  C20  1  0.30369800  0.30369800  0.08890700  1
  C  C21  1  0.30369800  0.08890700  0.30369800  1
  C  C22  1  0.08890700  0.30369800  0.30369800  1
  C  C23  1  0.30369800  0.30369800  0.30369800  1
  C  C24  1  0.69630200  0.69630200  0.91109300  1
  C  C25  1  0.69630200  0.91109300  0.69630200  1
  C  C26  1  0.91109300  0.69630200  0.69630200  1
  C  C27  1  0.69630200  0.69630200  0.69630200  1
  Ni  Ni28  1  0.21410300  0.21410300  0.78589700  1
  Ni  Ni29  1  0.78589700  0.21410300  0.78589700  1
  Ni  Ni30  1  0.21410300  0.78589700  0.78589700  1
  Ni  Ni31  1  0.78589700  0.78589700  0.21410300  1
  Ni  Ni32  1  0.21410300  0.78589700  0.21410300  1
  Ni  Ni33  1  0.78589700  0.21410300  0.21410300  1
  Ni  Ni34  1  0.50000000  0.50000000  0.50000000  1
  Cu  Cu35  1  0.39428300  0.39428300  0.10571700  1
  Cu  Cu36  1  0.10571700  0.39428300  0.10571700  1
  Cu  Cu37  1  0.39428300  0.10571700  0.10571700  1
  Cu  Cu38  1  0.10571700  0.10571700  0.39428300  1
  Cu  Cu39  1  0.39428300  0.10571700  0.39428300  1
  Cu  Cu40  1  0.10571700  0.39428300  0.39428300  1
  Cu  Cu41  1  0.60571700  0.60571700  0.89428300  1
  Cu  Cu42  1  0.89428300  0.60571700  0.89428300  1
  Cu  Cu43  1  0.60571700  0.89428300  0.89428300  1
  Cu  Cu44  1  0.89428300  0.89428300  0.60571700  1
  Cu  Cu45  1  0.60571700  0.89428300  0.60571700  1
  Cu  Cu46  1  0.89428300  0.60571700  0.60571700  1
