# generated using pymatgen
data_Cu14Ni2C7
_symmetry_space_group_name_H-M   'P 1'
_cell_length_a   10.23182219
_cell_length_b   10.23182219
_cell_length_c   5.70660300
_cell_angle_alpha   90.00000000
_cell_angle_beta   90.00000000
_cell_angle_gamma   120.00000124
_symmetry_Int_Tables_number   1
_chemical_formula_structural   Cu14Ni2C7
_chemical_formula_sum   'Cu14 Ni2 C7'
_cell_volume   517.38550258
_cell_formula_units_Z   1
loop_
 _symmetry_equiv_pos_site_id
 _symmetry_equiv_pos_as_xyz
  1  'x, y, z'
loop_
 _atom_site_type_symbol
 _atom_site_label
 _atom_site_symmetry_multiplicity
 _atom_site_fract_x
 _atom_site_fract_y
 _atom_site_fract_z
 _atom_site_occupancy
  C  C0  1  0.64323700  0.76597600  0.74989600  1
  C  C1  1  0.12273900  0.35676300  0.74989600  1
  C  C2  1  0.23402400  0.87726100  0.74989600  1
  C  C3  1  0.35605700  0.23379700  0.24839400  1
  C  C4  1  0.87774000  0.64394300  0.24839400  1
  C  C5  1  0.76620300  0.12226000  0.24839400  1
  C  C6  1  0.00000000  0.00000000  0.51138500  1
  Ni  Ni7  1  0.33333300  0.66666700  0.16489900  1
  Ni  Ni8  1  0.66666700  0.33333300  0.66325700  1
  Cu  Cu9  1  0.33333300  0.66666700  0.53352500  1
  Cu  Cu10  1  0.66666700  0.33333300  0.03221900  1
  Cu  Cu11  1  0.75520300  0.83938200  0.27172200  1
  Cu  Cu12  1  0.08418000  0.24479700  0.27172200  1
  Cu  Cu13  1  0.16061800  0.91582000  0.27172200  1
  Cu  Cu14  1  0.24438400  0.16239600  0.75025800  1
  Cu  Cu15  1  0.91801300  0.75561600  0.75025800  1
  Cu  Cu16  1  0.83760400  0.08198700  0.75025800  1
  Cu  Cu17  1  0.47777900  0.88677400  0.02042500  1
  Cu  Cu18  1  0.40899600  0.52222100  0.02042500  1
  Cu  Cu19  1  0.11322600  0.59100400  0.02042500  1
  Cu  Cu20  1  0.52271700  0.11322100  0.51891700  1
  Cu  Cu21  1  0.59050400  0.47728300  0.51891700  1
  Cu  Cu22  1  0.88677900  0.40949600  0.51891700  1
