# generated using pymatgen
data_CuNiC8
_symmetry_space_group_name_H-M   'P 1'
_cell_length_a   8.03307865
_cell_length_b   9.76452659
_cell_length_c   8.03307897
_cell_angle_alpha   114.11196601
_cell_angle_beta   89.29723031
_cell_angle_gamma   66.16725320
_symmetry_Int_Tables_number   1
_chemical_formula_structural   CuNiC8
_chemical_formula_sum   'Cu4 Ni4 C32'
_cell_volume   514.08491238
_cell_formula_units_Z   4
loop_
 _symmetry_equiv_pos_site_id
 _symmetry_equiv_pos_as_xyz
  1  'x, y, z'
loop_
 _atom_site_type_symbol
 _atom_site_label
 _atom_site_symmetry_multiplicity
 _atom_site_fract_x
 _atom_site_fract_y
 _atom_site_fract_z
 _atom_site_occupancy
  C  C0  1  0.62701600  0.25018300  0.37719900  1
  C  C1  1  0.87701600  0.75018300  0.62719900  1
  C  C2  1  0.12701600  0.25018300  0.87719900  1
  C  C3  1  0.37701600  0.75018300  0.12719900  1
  C  C4  1  0.87298400  0.74981700  0.12280100  1
  C  C5  1  0.12298400  0.24981700  0.37280100  1
  C  C6  1  0.37298400  0.74981700  0.62280100  1
  C  C7  1  0.62298400  0.24981700  0.87280100  1
  Ni  Ni8  1  0.75000000  0.50000000  0.25000000  1
  Ni  Ni9  1  0.00000000  0.00000000  0.50000000  1
  Ni  Ni10  1  0.25000000  0.50000000  0.75000000  1
  Ni  Ni11  1  0.50000000  0.00000000  0.00000000  1
  Cu  Cu12  1  0.50000000  0.00000000  0.50000000  1
  Cu  Cu13  1  0.75000000  0.50000000  0.75000000  1
  Cu  Cu14  1  0.00000000  0.00000000  0.00000000  1
  Cu  Cu15  1  0.25000000  0.50000000  0.25000000  1
  C  C16  1  0.65165900  0.75956400  0.41122300  1
  C  C17  1  0.90165900  0.25956400  0.66122300  1
  C  C18  1  0.15165900  0.75956400  0.91122300  1
  C  C19  1  0.40165900  0.25956400  0.16122300  1
  C  C20  1  0.84834100  0.24043600  0.08877700  1
  C  C21  1  0.09834100  0.74043600  0.33877700  1
  C  C22  1  0.34834100  0.24043600  0.58877700  1
  C  C23  1  0.59834100  0.74043600  0.83877700  1
  C  C24  1  0.76884700  0.46599000  0.49237600  1
  C  C25  1  0.01884700  0.96599000  0.74237600  1
  C  C26  1  0.26884700  0.46599000  0.99237600  1
  C  C27  1  0.51884700  0.96599000  0.24237600  1
  C  C28  1  0.47361400  0.53401000  0.26516400  1
  C  C29  1  0.72361400  0.03401000  0.51516400  1
  C  C30  1  0.97361400  0.53401000  0.76516400  1
  C  C31  1  0.22361400  0.03401000  0.01516400  1
  C  C32  1  0.73115300  0.53401000  0.00762400  1
  C  C33  1  0.98115300  0.03401000  0.25762400  1
  C  C34  1  0.23115300  0.53401000  0.50762400  1
  C  C35  1  0.48115300  0.03401000  0.75762400  1
  C  C36  1  0.02638600  0.46599000  0.23483600  1
  C  C37  1  0.27638600  0.96599000  0.48483600  1
  C  C38  1  0.52638600  0.46599000  0.73483600  1
  C  C39  1  0.77638600  0.96599000  0.98483600  1
