# generated using pymatgen
data_CuNiC8
_symmetry_space_group_name_H-M   'P 1'
_cell_length_a   8.42040440
_cell_length_b   8.54986690
_cell_length_c   8.47702759
_cell_angle_alpha   90.00000000
_cell_angle_beta   90.00000000
_cell_angle_gamma   90.00000000
_symmetry_Int_Tables_number   1
_chemical_formula_structural   CuNiC8
_chemical_formula_sum   'Cu4 Ni4 C32'
_cell_volume   610.28950289
_cell_formula_units_Z   4
loop_
 _symmetry_equiv_pos_site_id
 _symmetry_equiv_pos_as_xyz
  1  'x, y, z'
loop_
 _atom_site_type_symbol
 _atom_site_label
 _atom_site_symmetry_multiplicity
 _atom_site_fract_x
 _atom_site_fract_y
 _atom_site_fract_z
 _atom_site_occupancy
  Ni  Ni0  1  0.00000000  0.00000000  -0.00000000  1
  Ni  Ni1  1  0.50000000  0.50000000  0.50000000  1
  Ni  Ni2  1  0.50000000  0.50000000  -0.00000000  1
  Ni  Ni3  1  0.00000000  0.00000000  0.50000000  1
  C  C4  1  0.75000000  0.75000000  0.75000000  1
  C  C5  1  0.25000000  0.25000000  0.75000000  1
  C  C6  1  0.25000000  0.75000000  0.25000000  1
  C  C7  1  0.75000000  0.25000000  0.25000000  1
  Cu  Cu8  1  0.00000000  0.50000000  0.50000000  1
  Cu  Cu9  1  0.50000000  0.00000000  0.50000000  1
  Cu  Cu10  1  0.50000000  0.00000000  0.00000000  1
  Cu  Cu11  1  0.00000000  0.50000000  0.00000000  1
  C  C12  1  0.25000000  0.25000000  0.25000000  1
  C  C13  1  0.75000000  0.75000000  0.25000000  1
  C  C14  1  0.75000000  0.25000000  0.75000000  1
  C  C15  1  0.25000000  0.75000000  0.75000000  1
  C  C16  1  0.02350045  0.22556541  0.27482736  1
  C  C17  1  0.97649955  0.77443459  0.27482736  1
  C  C18  1  0.97649955  0.22556541  0.72517264  1
  C  C19  1  0.02350045  0.77443459  0.72517264  1
  C  C20  1  0.28086831  0.02091843  0.21848104  1
  C  C21  1  0.28086831  0.97908157  0.78151896  1
  C  C22  1  0.71913169  0.97908157  0.21848104  1
  C  C23  1  0.71913169  0.02091843  0.78151896  1
  C  C24  1  0.21770703  0.27945393  0.02128129  1
  C  C25  1  0.78229297  0.27945393  0.97871871  1
  C  C26  1  0.21770703  0.72054607  0.97871871  1
  C  C27  1  0.78229297  0.72054607  0.02128129  1
  C  C28  1  0.47649955  0.27443459  0.22517264  1
  C  C29  1  0.52350045  0.72556541  0.22517264  1
  C  C30  1  0.52350045  0.27443459  0.77482736  1
  C  C31  1  0.47649955  0.72556541  0.77482736  1
  C  C32  1  0.21913169  0.47908157  0.28151896  1
  C  C33  1  0.21913169  0.52091843  0.71848104  1
  C  C34  1  0.78086831  0.52091843  0.28151896  1
  C  C35  1  0.78086831  0.47908157  0.71848104  1
  C  C36  1  0.28229297  0.22054607  0.47871871  1
  C  C37  1  0.71770703  0.22054607  0.52128129  1
  C  C38  1  0.28229297  0.77945393  0.52128129  1
  C  C39  1  0.71770703  0.77945393  0.47871871  1
