# generated using pymatgen
data_Cu2Ni2C15
_symmetry_space_group_name_H-M   'P 1'
_cell_length_a   10.99952200
_cell_length_b   10.99952200
_cell_length_c   10.99952200
_cell_angle_alpha   90.00000000
_cell_angle_beta   90.00000000
_cell_angle_gamma   90.00000000
_symmetry_Int_Tables_number   1
_chemical_formula_structural   Cu2Ni2C15
_chemical_formula_sum   'Cu8 Ni8 C60'
_cell_volume   1330.82649354
_cell_formula_units_Z   4
loop_
 _symmetry_equiv_pos_site_id
 _symmetry_equiv_pos_as_xyz
  1  'x, y, z'
loop_
 _atom_site_type_symbol
 _atom_site_label
 _atom_site_symmetry_multiplicity
 _atom_site_fract_x
 _atom_site_fract_y
 _atom_site_fract_z
 _atom_site_occupancy
  Ni  Ni0  1  0.11432900  0.61432900  0.88567100  1
  Ni  Ni1  1  0.38567100  0.38567100  0.38567100  1
  Ni  Ni2  1  0.88567100  0.11432900  0.61432900  1
  Ni  Ni3  1  0.61432900  0.88567100  0.11432900  1
  Ni  Ni4  1  0.66109500  0.66109500  0.66109500  1
  Ni  Ni5  1  0.83890500  0.33890500  0.16109500  1
  Ni  Ni6  1  0.33890500  0.16109500  0.83890500  1
  Ni  Ni7  1  0.16109500  0.83890500  0.33890500  1
  Cu  Cu8  1  0.16594700  0.16594700  0.16594700  1
  Cu  Cu9  1  0.33405300  0.83405300  0.66594700  1
  Cu  Cu10  1  0.66594700  0.33405300  0.83405300  1
  Cu  Cu11  1  0.83405300  0.66594700  0.33405300  1
  Cu  Cu12  1  0.94019700  0.94019700  0.94019700  1
  Cu  Cu13  1  0.55980300  0.05980300  0.44019700  1
  Cu  Cu14  1  0.44019700  0.55980300  0.05980300  1
  Cu  Cu15  1  0.05980300  0.44019700  0.55980300  1
  C  C16  1  0.62216000  0.97246600  0.79706700  1
  C  C17  1  0.12216000  0.52753400  0.20293300  1
  C  C18  1  0.29706700  0.87784000  0.02753400  1
  C  C19  1  0.87784000  0.02753400  0.29706700  1
  C  C20  1  0.79706700  0.62216000  0.97246600  1
  C  C21  1  0.70293300  0.37784000  0.47246600  1
  C  C22  1  0.20293300  0.12216000  0.52753400  1
  C  C23  1  0.37784000  0.47246600  0.70293300  1
  C  C24  1  0.02753400  0.29706700  0.87784000  1
  C  C25  1  0.52753400  0.20293300  0.12216000  1
  C  C26  1  0.97246600  0.79706700  0.62216000  1
  C  C27  1  0.47246600  0.70293300  0.37784000  1
  C  C28  1  0.95454400  0.28049900  0.02235600  1
  C  C29  1  0.45454400  0.21950100  0.97764400  1
  C  C30  1  0.04545600  0.78049900  0.47764400  1
  C  C31  1  0.21950100  0.97764400  0.45454400  1
  C  C32  1  0.47764400  0.04545600  0.78049900  1
  C  C33  1  0.97764400  0.45454400  0.21950100  1
  C  C34  1  0.28049900  0.02235600  0.95454400  1
  C  C35  1  0.02235600  0.95454400  0.28049900  1
  C  C36  1  0.78049900  0.47764400  0.04545600  1
  C  C37  1  0.71950100  0.52235600  0.54545600  1
  C  C38  1  0.52235600  0.54545600  0.71950100  1
  C  C39  1  0.54545600  0.71950100  0.52235600  1
  C  C40  1  0.18026700  0.24512000  0.89737900  1
  C  C41  1  0.68026700  0.25488000  0.10262100  1
  C  C42  1  0.81973300  0.74512000  0.60262100  1
  C  C43  1  0.25488000  0.10262100  0.68026700  1
  C  C44  1  0.60262100  0.81973300  0.74512000  1
  C  C45  1  0.10262100  0.68026700  0.25488000  1
  C  C46  1  0.72926300  0.05435700  0.70531500  1
  C  C47  1  0.24512000  0.89737900  0.18026700  1
  C  C48  1  0.74512000  0.60262100  0.81973300  1
  C  C49  1  0.75488000  0.39737900  0.31973300  1
  C  C50  1  0.39737900  0.31973300  0.75488000  1
  C  C51  1  0.31973300  0.75488000  0.39737900  1
  C  C52  1  0.94564300  0.20531500  0.77073700  1
  C  C53  1  0.44564300  0.29468500  0.22926300  1
  C  C54  1  0.05435700  0.70531500  0.72926300  1
  C  C55  1  0.29468500  0.22926300  0.44564300  1
  C  C56  1  0.47284000  0.54755500  0.32388700  1
  C  C57  1  0.32388700  0.47284000  0.54755500  1
  C  C58  1  0.54755500  0.32388700  0.47284000  1
  C  C59  1  0.95244500  0.67611300  0.97284000  1
  C  C60  1  0.82388700  0.02716000  0.45244500  1
  C  C61  1  0.45244500  0.82388700  0.02716000  1
  C  C62  1  0.17611300  0.52716000  0.04755500  1
  C  C63  1  0.67611300  0.97284000  0.95244500  1
  C  C64  1  0.04755500  0.17611300  0.52716000  1
  C  C65  1  0.97284000  0.95244500  0.67611300  1
  C  C66  1  0.52716000  0.04755500  0.17611300  1
  C  C67  1  0.02716000  0.45244500  0.82388700  1
  C  C68  1  0.55435700  0.79468500  0.27073700  1
  C  C69  1  0.27073700  0.55435700  0.79468500  1
  C  C70  1  0.79468500  0.27073700  0.55435700  1
  C  C71  1  0.70531500  0.72926300  0.05435700  1
  C  C72  1  0.77073700  0.94564300  0.20531500  1
  C  C73  1  0.20531500  0.77073700  0.94564300  1
  C  C74  1  0.22926300  0.44564300  0.29468500  1
  C  C75  1  0.89737900  0.18026700  0.24512000  1
