# generated using pymatgen
data_Cu6Ni6C
_symmetry_space_group_name_H-M   'P 1'
_cell_length_a   6.55397459
_cell_length_b   6.55397459
_cell_length_c   6.55397459
_cell_angle_alpha   135.20651601
_cell_angle_beta   99.30741434
_cell_angle_gamma   97.38971655
_symmetry_Int_Tables_number   1
_chemical_formula_structural   Cu6Ni6C
_chemical_formula_sum   'Cu6 Ni6 C1'
_cell_volume   183.35192778
_cell_formula_units_Z   1
loop_
 _symmetry_equiv_pos_site_id
 _symmetry_equiv_pos_as_xyz
  1  'x, y, z'
loop_
 _atom_site_type_symbol
 _atom_site_label
 _atom_site_symmetry_multiplicity
 _atom_site_fract_x
 _atom_site_fract_y
 _atom_site_fract_z
 _atom_site_occupancy
  C  C0  1  0.00000000  0.00000000  0.00000000  1
  Ni  Ni1  1  0.34701200  0.34701200  0.00000000  1
  Ni  Ni2  1  0.65298800  0.65298800  0.00000000  1
  Ni  Ni3  1  0.66382400  0.00000000  0.66382400  1
  Ni  Ni4  1  0.33617600  0.00000000  0.33617600  1
  Ni  Ni5  1  0.80607500  0.30607500  0.50000000  1
  Ni  Ni6  1  0.19392500  0.69392500  0.50000000  1
  Cu  Cu7  1  0.50000000  0.00000000  0.00000000  1
  Cu  Cu8  1  0.50000000  0.50000000  0.50000000  1
  Cu  Cu9  1  0.00000000  0.00000000  0.50000000  1
  Cu  Cu10  1  0.00000000  0.50000000  0.00000000  1
  Cu  Cu11  1  0.23819800  0.50000000  0.73819800  1
  Cu  Cu12  1  0.76180200  0.50000000  0.26180200  1
