# generated using pymatgen
data_CuNiC12
_symmetry_space_group_name_H-M   'P 1'
_cell_length_a   8.41547046
_cell_length_b   8.41547046
_cell_length_c   8.38396091
_cell_angle_alpha   89.98120413
_cell_angle_beta   89.98120413
_cell_angle_gamma   90.21761416
_symmetry_Int_Tables_number   1
_chemical_formula_structural   CuNiC12
_chemical_formula_sum   'Cu4 Ni4 C48'
_cell_volume   593.74896425
_cell_formula_units_Z   4
loop_
 _symmetry_equiv_pos_site_id
 _symmetry_equiv_pos_as_xyz
  1  'x, y, z'
loop_
 _atom_site_type_symbol
 _atom_site_label
 _atom_site_symmetry_multiplicity
 _atom_site_fract_x
 _atom_site_fract_y
 _atom_site_fract_z
 _atom_site_occupancy
  Ni  Ni0  1  0.99964200  0.49979500  0.00874100  1
  Ni  Ni1  1  0.00310200  0.00310200  0.50080100  1
  Ni  Ni2  1  0.49641100  0.49641100  0.49701000  1
  Ni  Ni3  1  0.49979500  0.99964200  0.00874100  1
  C  C4  1  0.75051500  0.75051500  0.74659000  1
  C  C5  1  0.24894300  0.24894300  0.74386400  1
  C  C6  1  0.75152100  0.25115000  0.24659200  1
  C  C7  1  0.25115000  0.75152100  0.24659200  1
  C  C8  1  0.87266300  0.62665700  0.37239500  1
  C  C9  1  0.62889300  0.37471600  0.87432400  1
  C  C10  1  0.87178500  0.87178500  0.12685300  1
  C  C11  1  0.62795500  0.62795500  0.12932100  1
  C  C12  1  0.12646100  0.62601700  0.62326800  1
  C  C13  1  0.62601700  0.12646100  0.62326800  1
  C  C14  1  0.37320000  0.12566800  0.37246700  1
  C  C15  1  0.87476600  0.12640800  0.87457800  1
  C  C16  1  0.37471600  0.62889300  0.87432400  1
  C  C17  1  0.12640800  0.87476600  0.87457800  1
  C  C18  1  0.62665700  0.87266300  0.37239500  1
  C  C19  1  0.12566800  0.37320000  0.37246700  1
  Cu  Cu20  1  0.37465300  0.87490700  0.62537400  1
  Cu  Cu21  1  0.12650700  0.12650700  0.12643900  1
  Cu  Cu22  1  0.87490700  0.37465300  0.62537400  1
  Cu  Cu23  1  0.37225800  0.37225800  0.12789700  1
  C  C24  1  0.61726800  0.11218200  0.37821200  1
  C  C25  1  0.87441500  0.87441500  0.89106500  1
  C  C26  1  0.12111800  0.38335100  0.61009600  1
  C  C27  1  0.39180600  0.62336000  0.12072100  1
  C  C28  1  0.35697700  0.35697700  0.37067200  1
  C  C29  1  0.13336800  0.63946300  0.86709700  1
  C  C30  1  0.64131100  0.85955800  0.14165300  1
  C  C31  1  0.86323800  0.12928200  0.64080500  1
  C  C32  1  0.11218200  0.61726800  0.37821200  1
  C  C33  1  0.62030800  0.62030800  0.88883500  1
  C  C34  1  0.11306200  0.11306200  0.87533800  1
  C  C35  1  0.38198400  0.38198400  0.87750300  1
  C  C36  1  0.88632400  0.38898500  0.37379800  1
  C  C37  1  0.38898500  0.88632400  0.37379800  1
  C  C38  1  0.62358800  0.88145500  0.60757100  1
  C  C39  1  0.10916700  0.87529000  0.11485000  1
  C  C40  1  0.62336000  0.39180600  0.12072100  1
  C  C41  1  0.87529000  0.10916700  0.11485000  1
  C  C42  1  0.38335100  0.12111800  0.61009600  1
  C  C43  1  0.88145500  0.62358800  0.60757100  1
  C  C44  1  0.86133200  0.86133200  0.36211600  1
  C  C45  1  0.37027200  0.86446600  0.87027300  1
  C  C46  1  0.86446600  0.37027200  0.87027300  1
  C  C47  1  0.63946300  0.13336800  0.86709700  1
  C  C48  1  0.14010600  0.14010600  0.36949400  1
  C  C49  1  0.63824500  0.63824500  0.36122000  1
  C  C50  1  0.13088300  0.36778900  0.14498000  1
  C  C51  1  0.63173800  0.36371700  0.63469500  1
  C  C52  1  0.12928200  0.86323800  0.64080500  1
  C  C53  1  0.36371700  0.63173800  0.63469500  1
  C  C54  1  0.85955800  0.64131100  0.14165300  1
  C  C55  1  0.36778900  0.13088300  0.14498000  1
