# generated using pymatgen
data_Cu4NiC7
_symmetry_space_group_name_H-M   'P 1'
_cell_length_a   6.58589100
_cell_length_b   7.78089700
_cell_length_c   8.73469900
_cell_angle_alpha   90.00000000
_cell_angle_beta   90.00000000
_cell_angle_gamma   90.00000000
_symmetry_Int_Tables_number   1
_chemical_formula_structural   Cu4NiC7
_chemical_formula_sum   'Cu16 Ni4 C28'
_cell_volume   447.60213426
_cell_formula_units_Z   4
loop_
 _symmetry_equiv_pos_site_id
 _symmetry_equiv_pos_as_xyz
  1  'x, y, z'
loop_
 _atom_site_type_symbol
 _atom_site_label
 _atom_site_symmetry_multiplicity
 _atom_site_fract_x
 _atom_site_fract_y
 _atom_site_fract_z
 _atom_site_occupancy
  C  C0  1  0.00000000  0.50000000  0.50000000  1
  C  C1  1  0.50000000  0.00000000  0.50000000  1
  C  C2  1  0.50000000  0.50000000  0.00000000  1
  C  C3  1  0.00000000  0.00000000  0.00000000  1
  Ni  Ni4  1  0.75000000  0.25000000  0.75853400  1
  Ni  Ni5  1  0.25000000  0.75000000  0.74146600  1
  Ni  Ni6  1  0.25000000  0.75000000  0.24146600  1
  Ni  Ni7  1  0.75000000  0.25000000  0.25853400  1
  Cu  Cu8  1  0.30977100  0.38141300  0.68054900  1
  Cu  Cu9  1  0.19022900  0.11858700  0.68054900  1
  Cu  Cu10  1  0.80977100  0.61858700  0.81945100  1
  Cu  Cu11  1  0.69022900  0.88141300  0.81945100  1
  Cu  Cu12  1  0.69022900  0.61858700  0.31945100  1
  Cu  Cu13  1  0.80977100  0.88141300  0.31945100  1
  Cu  Cu14  1  0.19022900  0.38141300  0.18054900  1
  Cu  Cu15  1  0.30977100  0.11858700  0.18054900  1
  Cu  Cu16  1  0.37834500  0.36786200  0.49847000  1
  Cu  Cu17  1  0.12165500  0.13213800  0.49847000  1
  Cu  Cu18  1  0.87834500  0.63213800  0.00153000  1
  Cu  Cu19  1  0.62165500  0.86786200  0.00153000  1
  Cu  Cu20  1  0.62165500  0.63213800  0.50153000  1
  Cu  Cu21  1  0.87834500  0.86786200  0.50153000  1
  Cu  Cu22  1  0.12165500  0.36786200  0.99847000  1
  Cu  Cu23  1  0.37834500  0.13213800  0.99847000  1
  C  C24  1  0.26176100  0.34288800  0.57345900  1
  C  C25  1  0.23823900  0.15711200  0.57345900  1
  C  C26  1  0.76176100  0.65711200  0.92654100  1
  C  C27  1  0.73823900  0.84288800  0.92654100  1
  C  C28  1  0.73823900  0.65711200  0.42654100  1
  C  C29  1  0.76176100  0.84288800  0.42654100  1
  C  C30  1  0.23823900  0.34288800  0.07345900  1
  C  C31  1  0.26176100  0.15711200  0.07345900  1
  C  C32  1  0.93299000  0.19300700  0.85848500  1
  C  C33  1  0.56701000  0.30699300  0.85848500  1
  C  C34  1  0.43299000  0.80699300  0.64151500  1
  C  C35  1  0.06701000  0.69300700  0.64151500  1
  C  C36  1  0.06701000  0.80699300  0.14151500  1
  C  C37  1  0.43299000  0.69300700  0.14151500  1
  C  C38  1  0.56701000  0.19300700  0.35848500  1
  C  C39  1  0.93299000  0.30699300  0.35848500  1
  C  C40  1  0.81893600  0.40535800  0.66115700  1
  C  C41  1  0.68106400  0.09464200  0.66115700  1
  C  C42  1  0.31893600  0.59464200  0.83884300  1
  C  C43  1  0.18106400  0.90535800  0.83884300  1
  C  C44  1  0.18106400  0.59464200  0.33884300  1
  C  C45  1  0.31893600  0.90535800  0.33884300  1
  C  C46  1  0.68106400  0.40535800  0.16115700  1
  C  C47  1  0.81893600  0.09464200  0.16115700  1
