# generated using pymatgen
data_Cu3NiC3
_symmetry_space_group_name_H-M   'P 1'
_cell_length_a   10.85193744
_cell_length_b   10.85193744
_cell_length_c   10.85193744
_cell_angle_alpha   109.47122063
_cell_angle_beta   109.47122063
_cell_angle_gamma   109.47122063
_symmetry_Int_Tables_number   1
_chemical_formula_structural   Cu3NiC3
_chemical_formula_sum   'Cu12 Ni4 C12'
_cell_volume   983.78444873
_cell_formula_units_Z   4
loop_
 _symmetry_equiv_pos_site_id
 _symmetry_equiv_pos_as_xyz
  1  'x, y, z'
loop_
 _atom_site_type_symbol
 _atom_site_label
 _atom_site_symmetry_multiplicity
 _atom_site_fract_x
 _atom_site_fract_y
 _atom_site_fract_z
 _atom_site_occupancy
  C  C0  1  0.46971000  0.48485500  0.23485500  1
  C  C1  1  0.75000000  0.23485500  0.26514500  1
  C  C2  1  0.75000000  0.01514500  0.48485500  1
  C  C3  1  0.23485500  0.46971000  0.48485500  1
  C  C4  1  0.26514500  0.75000000  0.23485500  1
  C  C5  1  0.03029000  0.26514500  0.01514500  1
  C  C6  1  0.01514500  0.03029000  0.26514500  1
  C  C7  1  0.48485500  0.75000000  0.01514500  1
  C  C8  1  0.48485500  0.23485500  0.46971000  1
  C  C9  1  0.01514500  0.48485500  0.75000000  1
  C  C10  1  0.26514500  0.01514500  0.03029000  1
  C  C11  1  0.23485500  0.26514500  0.75000000  1
  Ni  Ni12  1  0.25000000  0.25000000  0.25000000  1
  Ni  Ni13  1  0.50000000  0.00000000  0.25000000  1
  Ni  Ni14  1  0.00000000  0.25000000  0.50000000  1
  Ni  Ni15  1  0.25000000  0.50000000  0.00000000  1
  Cu  Cu16  1  0.25000000  0.75314900  0.74685100  1
  Cu  Cu17  1  0.50629700  0.50314900  0.75314900  1
  Cu  Cu18  1  0.99370300  0.74685100  0.99685100  1
  Cu  Cu19  1  0.74685100  0.25000000  0.75314900  1
  Cu  Cu20  1  0.99685100  0.99370300  0.74685100  1
  Cu  Cu21  1  0.25000000  0.99685100  0.50314900  1
  Cu  Cu22  1  0.75314900  0.50629700  0.50314900  1
  Cu  Cu23  1  0.50314900  0.25000000  0.99685100  1
  Cu  Cu24  1  0.75314900  0.74685100  0.25000000  1
  Cu  Cu25  1  0.74685100  0.99685100  0.99370300  1
  Cu  Cu26  1  0.99685100  0.50314900  0.25000000  1
  Cu  Cu27  1  0.50314900  0.75314900  0.50629700  1
