# generated using pymatgen
data_Cu8Ni4C7
_symmetry_space_group_name_H-M   'P 1'
_cell_length_a   5.51158652
_cell_length_b   7.94865073
_cell_length_c   6.01821661
_cell_angle_alpha   90.03308228
_cell_angle_beta   95.93779606
_cell_angle_gamma   85.99107807
_symmetry_Int_Tables_number   1
_chemical_formula_structural   Cu8Ni4C7
_chemical_formula_sum   'Cu8 Ni4 C7'
_cell_volume   261.59400770
_cell_formula_units_Z   1
loop_
 _symmetry_equiv_pos_site_id
 _symmetry_equiv_pos_as_xyz
  1  'x, y, z'
loop_
 _atom_site_type_symbol
 _atom_site_label
 _atom_site_symmetry_multiplicity
 _atom_site_fract_x
 _atom_site_fract_y
 _atom_site_fract_z
 _atom_site_occupancy
  C  C0  1  0.09710700  0.77631400  0.44653800  1
  C  C1  1  0.55388000  0.03256500  0.49434800  1
  C  C2  1  0.61313600  0.64549400  0.23706300  1
  C  C3  1  0.42580400  0.34175300  0.81478900  1
  C  C4  1  0.81148300  0.62423600  0.79643500  1
  C  C5  1  0.06036100  0.32915900  0.31951300  1
  C  C6  1  0.98743900  0.99941500  0.00258100  1
  Ni  Ni7  1  0.84324300  0.76838700  0.08960800  1
  Ni  Ni8  1  0.68246800  0.77833900  0.51872700  1
  Ni  Ni9  1  0.64705300  0.47541100  0.00389800  1
  Ni  Ni10  1  0.33181800  0.24005600  0.54041500  1
  Cu  Cu11  1  0.79368700  0.45814800  0.48370100  1
  Cu  Cu12  1  0.85755300  0.09940400  0.31387200  1
  Cu  Cu13  1  0.68345700  0.13516300  0.83026400  1
  Cu  Cu14  1  0.18959900  0.55742700  0.74375500  1
  Cu  Cu15  1  0.31343000  0.92538600  0.22915200  1
  Cu  Cu16  1  0.28755300  0.55759100  0.28601200  1
  Cu  Cu17  1  0.17221200  0.24558500  0.01380100  1
  Cu  Cu18  1  0.17648900  0.92683200  0.74177900  1
