# generated using pymatgen
data_Cu2Ni33C56
_symmetry_space_group_name_H-M   'P 1'
_cell_length_a   13.05099656
_cell_length_b   13.05099656
_cell_length_c   14.37527538
_cell_angle_alpha   82.62023046
_cell_angle_beta   82.62023046
_cell_angle_gamma   64.97698184
_symmetry_Int_Tables_number   1
_chemical_formula_structural   Cu2Ni33C56
_chemical_formula_sum   'Cu4 Ni66 C112'
_cell_volume   2192.82145670
_cell_formula_units_Z   2
loop_
 _symmetry_equiv_pos_site_id
 _symmetry_equiv_pos_as_xyz
  1  'x, y, z'
loop_
 _atom_site_type_symbol
 _atom_site_label
 _atom_site_symmetry_multiplicity
 _atom_site_fract_x
 _atom_site_fract_y
 _atom_site_fract_z
 _atom_site_occupancy
  C  C0  1  0.95805122  0.36512524  0.59067639  1
  C  C1  1  0.63487476  0.04194878  0.90932361  1
  C  C2  1  0.04194878  0.63487476  0.40932361  1
  C  C3  1  0.36512524  0.95805122  0.09067639  1
  C  C4  1  0.35257726  0.13732918  0.44083673  1
  C  C5  1  0.86267082  0.64742274  0.05916327  1
  C  C6  1  0.64742274  0.86267082  0.55916327  1
  C  C7  1  0.13732918  0.35257726  0.94083673  1
  C  C8  1  0.18450894  0.98442952  0.49103551  1
  C  C9  1  0.01557048  0.81549106  0.00896449  1
  C  C10  1  0.81549106  0.01557048  0.50896449  1
  C  C11  1  0.98442952  0.18450894  0.99103551  1
  C  C12  1  0.05210363  0.26789279  0.30341781  1
  C  C13  1  0.73210721  0.94789637  0.19658219  1
  C  C14  1  0.94789637  0.73210721  0.69658219  1
  C  C15  1  0.26789279  0.05210363  0.80341781  1
  C  C16  1  0.27194979  0.04375985  0.29469215  1
  C  C17  1  0.95624015  0.72805021  0.20530785  1
  C  C18  1  0.72805021  0.95624015  0.70530785  1
  C  C19  1  0.04375985  0.27194979  0.79469215  1
  C  C20  1  0.38729592  0.95607235  0.60605998  1
  C  C21  1  0.04392765  0.61270408  0.89394002  1
  C  C22  1  0.61270408  0.04392765  0.39394002  1
  C  C23  1  0.95607235  0.38729592  0.10605998  1
  C  C24  1  0.93933956  0.17893463  0.48593580  1
  C  C25  1  0.82106537  0.06066044  0.01406420  1
  C  C26  1  0.06066044  0.82106537  0.51406420  1
  C  C27  1  0.17893463  0.93933956  0.98593580  1
  C  C28  1  0.15147521  0.37310367  0.43780849  1
  C  C29  1  0.62689633  0.84852479  0.06219151  1
  C  C30  1  0.84852479  0.62689633  0.56219151  1
  C  C31  1  0.37310367  0.15147521  0.93780849  1
  C  C32  1  0.24967155  0.41574527  0.73464277  1
  C  C33  1  0.58425473  0.75032845  0.76535723  1
  C  C34  1  0.75032845  0.58425473  0.26535723  1
  C  C35  1  0.41574527  0.24967155  0.23464277  1
  C  C36  1  0.56423358  0.23587714  0.69662059  1
  C  C37  1  0.76412286  0.43576642  0.80337941  1
  C  C38  1  0.43576642  0.76412286  0.30337941  1
  C  C39  1  0.23587714  0.56423358  0.19662059  1
  C  C40  1  0.26231526  0.58128892  0.64756445  1
  C  C41  1  0.41871108  0.73768474  0.85243555  1
  C  C42  1  0.73768474  0.41871108  0.35243555  1
  C  C43  1  0.58128892  0.26231526  0.14756445  1
  C  C44  1  0.45793420  0.18753228  0.68770777  1
  C  C45  1  0.81246772  0.54206580  0.81229223  1
  C  C46  1  0.54206580  0.81246772  0.31229223  1
  C  C47  1  0.18753228  0.45793420  0.18770777  1
  C  C48  1  0.66288585  0.52296927  0.59795367  1
  C  C49  1  0.47703073  0.33711415  0.90204633  1
  C  C50  1  0.33711415  0.47703073  0.40204633  1
  C  C51  1  0.52296927  0.66288585  0.09795367  1
  C  C52  1  0.51062243  0.70737375  0.59764360  1
  C  C53  1  0.29262625  0.48937757  0.90235640  1
  C  C54  1  0.48937757  0.29262625  0.40235640  1
  C  C55  1  0.70737375  0.51062243  0.09764360  1
  C  C56  1  0.62227783  0.35318364  0.62245172  1
  C  C57  1  0.64681636  0.37772217  0.87754828  1
  C  C58  1  0.37772217  0.64681636  0.37754828  1
  C  C59  1  0.35318364  0.62227783  0.12245172  1
  C  C60  1  0.53084086  0.22150799  0.58339131  1
  C  C61  1  0.77849201  0.46915914  0.91660869  1
  C  C62  1  0.46915914  0.77849201  0.41660869  1
  C  C63  1  0.22150799  0.53084086  0.08339131  1
  C  C64  1  0.28491241  0.29724645  0.66840884  1
  C  C65  1  0.70275355  0.71508759  0.83159116  1
  C  C66  1  0.71508759  0.70275355  0.33159116  1
  C  C67  1  0.29724645  0.28491241  0.16840884  1
  C  C68  1  0.31829657  0.74046986  0.61769621  1
  C  C69  1  0.25953014  0.68170343  0.88230379  1
  C  C70  1  0.68170343  0.25953014  0.38230379  1
  C  C71  1  0.74046986  0.31829657  0.11769621  1
  C  C72  1  0.24103720  0.43541882  0.60985326  1
  C  C73  1  0.56458118  0.75896280  0.89014674  1
  C  C74  1  0.75896280  0.56458118  0.39014674  1
  C  C75  1  0.43541882  0.24103720  0.10985326  1
  C  C76  1  0.38150976  0.65319153  0.62109335  1
  C  C77  1  0.34680847  0.61849024  0.87890665  1
  C  C78  1  0.61849024  0.34680847  0.37890665  1
  C  C79  1  0.65319153  0.38150976  0.12109335  1
  C  C80  1  0.57620032  0.53001199  0.60884980  1
  C  C81  1  0.46998801  0.42379968  0.89115020  1
  C  C82  1  0.42379968  0.46998801  0.39115020  1
  C  C83  1  0.53001199  0.57620032  0.10884980  1
  C  C84  1  0.28923942  0.37909570  0.66744231  1
  C  C85  1  0.62090430  0.71076058  0.83255769  1
  C  C86  1  0.71076058  0.62090430  0.33255769  1
  C  C87  1  0.37909570  0.28923942  0.16744231  1
  C  C88  1  0.43665615  0.44992440  0.63823743  1
  C  C89  1  0.55007560  0.56334385  0.86176257  1
  C  C90  1  0.56334385  0.55007560  0.36176257  1
  C  C91  1  0.44992440  0.43665615  0.13823743  1
  C  C92  1  0.49546391  0.24537559  0.65509662  1
  C  C93  1  0.75462441  0.50453609  0.84490338  1
  C  C94  1  0.50453609  0.75462441  0.34490338  1
  C  C95  1  0.24537559  0.49546391  0.15509662  1
  C  C96  1  0.55189554  0.43667061  0.62321516  1
  C  C97  1  0.56332939  0.44810446  0.87678484  1
  C  C98  1  0.44810446  0.56332939  0.37678484  1
  C  C99  1  0.43667061  0.55189554  0.12321516  1
  C  C100  1  0.35198172  0.56347127  0.63654769  1
  C  C101  1  0.43652873  0.64801828  0.86345231  1
  C  C102  1  0.64801828  0.43652873  0.36345231  1
  C  C103  1  0.56347127  0.35198172  0.13654769  1
  C  C104  1  0.40831474  0.36125284  0.65335333  1
  C  C105  1  0.63874716  0.59168526  0.84664667  1
  C  C106  1  0.59168526  0.63874716  0.34664667  1
  C  C107  1  0.36125284  0.40831474  0.15335333  1
  C  C108  1  0.49218062  0.63689914  0.60748035  1
  C  C109  1  0.36310086  0.50781938  0.89251965  1
  C  C110  1  0.50781938  0.36310086  0.39251965  1
  C  C111  1  0.63689914  0.49218062  0.10748035  1
  Ni  Ni112  1  0.39295487  0.06547619  0.55531083  1
  Ni  Ni113  1  0.93452381  0.60704513  0.94468917  1
  Ni  Ni114  1  0.60704513  0.93452381  0.44468917  1
  Ni  Ni115  1  0.06547619  0.39295487  0.05531083  1
  Ni  Ni116  1  0.27804570  0.29043570  0.43652653  1
  Ni  Ni117  1  0.70956430  0.72195430  0.06347347  1
  Ni  Ni118  1  0.72195430  0.70956430  0.56347347  1
  Ni  Ni119  1  0.29043570  0.27804570  0.93652653  1
  Ni  Ni120  1  0.08793739  0.35948732  0.53355725  1
  Ni  Ni121  1  0.64051268  0.91206261  0.96644275  1
  Ni  Ni122  1  0.91206261  0.64051268  0.46644275  1
  Ni  Ni123  1  0.35948732  0.08793739  0.03355725  1
  Ni  Ni124  1  0.85213501  0.50583504  0.57628263  1
  Ni  Ni125  1  0.49416496  0.14786499  0.92371737  1
  Ni  Ni126  1  0.14786499  0.49416496  0.42371737  1
  Ni  Ni127  1  0.50583504  0.85213501  0.07628263  1
  Ni  Ni128  1  0.83908025  0.14673966  0.48917296  1
  Ni  Ni129  1  0.85326034  0.16091975  0.01082704  1
  Ni  Ni130  1  0.16091975  0.85326034  0.51082704  1
  Ni  Ni131  1  0.14673966  0.83908025  0.98917296  1
  Ni  Ni132  1  0.90393776  0.28212546  0.54508295  1
  Ni  Ni133  1  0.71787454  0.09606224  0.95491705  1
  Ni  Ni134  1  0.09606224  0.71787454  0.45491705  1
  Ni  Ni135  1  0.28212546  0.90393776  0.04508295  1
  Ni  Ni136  1  0.96662034  0.21778559  0.38233464  1
  Ni  Ni137  1  0.78221441  0.03337966  0.11766536  1
  Ni  Ni138  1  0.03337966  0.78221441  0.61766536  1
  Ni  Ni139  1  0.21778559  0.96662034  0.88233464  1
  Ni  Ni140  1  0.50591782  0.85520046  0.59400920  1
  Ni  Ni141  1  0.14479954  0.49408218  0.90599080  1
  Ni  Ni142  1  0.49408218  0.14479954  0.40599080  1
  Ni  Ni143  1  0.85520046  0.50591782  0.09400920  1
  Ni  Ni144  1  0.30088344  0.92519319  0.56545610  1
  Ni  Ni145  1  0.07480681  0.69911656  0.93454390  1
  Ni  Ni146  1  0.69911656  0.07480681  0.43454390  1
  Ni  Ni147  1  0.92519319  0.30088344  0.06545610  1
  Ni  Ni148  1  0.09381308  0.35721753  0.35703071  1
  Ni  Ni149  1  0.64278247  0.90618692  0.14296929  1
  Ni  Ni150  1  0.90618692  0.64278247  0.64296929  1
  Ni  Ni151  1  0.35721753  0.09381308  0.85703071  1
  Ni  Ni152  1  0.22610469  0.97192717  0.36703161  1
  Ni  Ni153  1  0.02807283  0.77389531  0.13296839  1
  Ni  Ni154  1  0.77389531  0.02807283  0.63296839  1
  Ni  Ni155  1  0.97192717  0.22610469  0.86703161  1
  Ni  Ni156  1  0.17409440  0.15540851  0.25982576  1
  Ni  Ni157  1  0.84459149  0.82590560  0.24017424  1
  Ni  Ni158  1  0.82590560  0.84459149  0.74017424  1
  Ni  Ni159  1  0.15540851  0.17409440  0.75982576  1
  Ni  Ni160  1  0.97078929  0.35333289  0.21210438  1
  Ni  Ni161  1  0.64666711  0.02921071  0.28789562  1
  Ni  Ni162  1  0.02921071  0.64666711  0.78789562  1
  Ni  Ni163  1  0.35333289  0.97078929  0.71210438  1
  Ni  Ni164  1  0.04286972  0.07941640  0.52537428  1
  Ni  Ni165  1  0.92058360  0.95713028  0.97462572  1
  Ni  Ni166  1  0.95713028  0.92058360  0.47462572  1
  Ni  Ni167  1  0.07941640  0.04286972  0.02537428  1
  Ni  Ni168  1  0.36127295  0.07053274  0.33549703  1
  Ni  Ni169  1  0.92946726  0.63872705  0.16450297  1
  Ni  Ni170  1  0.63872705  0.92946726  0.66450297  1
  Ni  Ni171  1  0.07053274  0.36127295  0.83549703  1
  Ni  Ni172  1  0.97325273  0.33062544  0.71031732  1
  Ni  Ni173  1  0.66937456  0.02674727  0.78968268  1
  Ni  Ni174  1  0.02674727  0.66937456  0.28968268  1
  Ni  Ni175  1  0.33062544  0.97325273  0.21031732  1
  Ni  Ni176  1  0.91271746  0.08728254  0.75000000  1
  Ni  Ni177  1  0.08728254  0.91271746  0.25000000  1
  Cu  Cu178  1  0.21318695  0.12353825  0.47336694  1
  Cu  Cu179  1  0.87646175  0.78681305  0.02663306  1
  Cu  Cu180  1  0.78681305  0.87646175  0.52663306  1
  Cu  Cu181  1  0.12353825  0.21318695  0.97336694  1
