# generated using pymatgen
data_CuNiC3
_symmetry_space_group_name_H-M   'P 1'
_cell_length_a   4.22923616
_cell_length_b   4.22923616
_cell_length_c   6.86538700
_cell_angle_alpha   90.00000000
_cell_angle_beta   90.00000000
_cell_angle_gamma   120.00000251
_symmetry_Int_Tables_number   1
_chemical_formula_structural   CuNiC3
_chemical_formula_sum   'Cu1 Ni1 C3'
_cell_volume   106.34559799
_cell_formula_units_Z   1
loop_
 _symmetry_equiv_pos_site_id
 _symmetry_equiv_pos_as_xyz
  1  'x, y, z'
loop_
 _atom_site_type_symbol
 _atom_site_label
 _atom_site_symmetry_multiplicity
 _atom_site_fract_x
 _atom_site_fract_y
 _atom_site_fract_z
 _atom_site_occupancy
  C  C0  1  0.66666700  0.33333300  0.01250100  1
  Ni  Ni1  1  0.33333300  0.66666700  0.62527300  1
  Cu  Cu2  1  0.00000000  0.00000000  0.36139100  1
  C  C3  1  0.00000000  0.00000000  0.74676400  1
  C  C4  1  0.33333300  0.66666700  0.25407200  1
