# generated using pymatgen
data_CuNiC
_symmetry_space_group_name_H-M   'P 1'
_cell_length_a   3.25322879
_cell_length_b   3.25322879
_cell_length_c   36.87791500
_cell_angle_alpha   90.00000000
_cell_angle_beta   90.00000000
_cell_angle_gamma   120.00001599
_symmetry_Int_Tables_number   1
_chemical_formula_structural   CuNiC
_chemical_formula_sum   'Cu4 Ni4 C4'
_cell_volume   338.00734185
_cell_formula_units_Z   4
loop_
 _symmetry_equiv_pos_site_id
 _symmetry_equiv_pos_as_xyz
  1  'x, y, z'
loop_
 _atom_site_type_symbol
 _atom_site_label
 _atom_site_symmetry_multiplicity
 _atom_site_fract_x
 _atom_site_fract_y
 _atom_site_fract_z
 _atom_site_occupancy
  C  C0  1  0.00000000  0.00000000  0.09390100  1
  C  C1  1  0.00000000  0.00000000  0.46965300  1
  C  C2  1  0.33333300  0.66666700  0.28180200  1
  C  C3  1  0.33333300  0.66666700  0.65753700  1
  Ni  Ni4  1  0.00000000  0.00000000  0.32816200  1
  Ni  Ni5  1  0.33333300  0.66666700  0.04786700  1
  Ni  Ni6  1  0.33333300  0.66666700  0.13995500  1
  Ni  Ni7  1  0.00000000  0.00000000  0.23544300  1
  Cu  Cu8  1  0.00000000  0.00000000  0.69955500  1
  Cu  Cu9  1  0.33333300  0.66666700  0.42776800  1
  Cu  Cu10  1  0.33333300  0.66666700  0.51159000  1
  Cu  Cu11  1  0.00000000  0.00000000  0.61551500  1
