# generated using pymatgen
data_Cu5(NiC2)2
_symmetry_space_group_name_H-M   'P 1'
_cell_length_a   7.93601732
_cell_length_b   7.93601732
_cell_length_c   17.49379544
_cell_angle_alpha   90.00000000
_cell_angle_beta   90.00000000
_cell_angle_gamma   90.00000000
_symmetry_Int_Tables_number   1
_chemical_formula_structural   Cu5(NiC2)2
_chemical_formula_sum   'Cu20 Ni8 C16'
_cell_volume   1101.76572532
_cell_formula_units_Z   4
loop_
 _symmetry_equiv_pos_site_id
 _symmetry_equiv_pos_as_xyz
  1  'x, y, z'
loop_
 _atom_site_type_symbol
 _atom_site_label
 _atom_site_symmetry_multiplicity
 _atom_site_fract_x
 _atom_site_fract_y
 _atom_site_fract_z
 _atom_site_occupancy
  Ni  Ni0  1  0.07364657  0.92635343  0.25000000  1
  Ni  Ni1  1  0.42635343  0.92635343  0.75000000  1
  Ni  Ni2  1  0.07364657  0.57364657  0.75000000  1
  Ni  Ni3  1  0.42635343  0.57364657  0.25000000  1
  Ni  Ni4  1  0.92635343  0.07364657  0.75000000  1
  Ni  Ni5  1  0.57364657  0.07364657  0.25000000  1
  Ni  Ni6  1  0.92635343  0.42635343  0.25000000  1
  Ni  Ni7  1  0.57364657  0.42635343  0.75000000  1
  Cu  Cu8  1  0.75000000  0.75000000  0.41476764  1
  Cu  Cu9  1  0.75000000  0.75000000  0.91476764  1
  Cu  Cu10  1  0.25000000  0.25000000  0.58523236  1
  Cu  Cu11  1  0.25000000  0.25000000  0.08523236  1
  Cu  Cu12  1  0.13424425  0.57874866  0.43628498  1
  Cu  Cu13  1  0.36575575  0.57874866  0.93628498  1
  Cu  Cu14  1  0.13424425  0.92125134  0.93628498  1
  Cu  Cu15  1  0.36575575  0.92125134  0.43628498  1
  Cu  Cu16  1  0.57874866  0.13424425  0.93628498  1
  Cu  Cu17  1  0.92125134  0.13424425  0.43628498  1
  Cu  Cu18  1  0.57874866  0.36575575  0.43628498  1
  Cu  Cu19  1  0.92125134  0.36575575  0.93628498  1
  Cu  Cu20  1  0.86575575  0.42125134  0.56371502  1
  Cu  Cu21  1  0.63424425  0.42125134  0.06371502  1
  Cu  Cu22  1  0.86575575  0.07874866  0.06371502  1
  Cu  Cu23  1  0.63424425  0.07874866  0.56371502  1
  Cu  Cu24  1  0.42125134  0.86575575  0.06371502  1
  Cu  Cu25  1  0.07874866  0.86575575  0.56371502  1
  Cu  Cu26  1  0.42125134  0.63424425  0.56371502  1
  Cu  Cu27  1  0.07874866  0.63424425  0.06371502  1
  C  C28  1  0.63453733  0.05249838  0.42105445  1
  C  C29  1  0.86546267  0.05249838  0.92105445  1
  C  C30  1  0.63453733  0.44750162  0.92105445  1
  C  C31  1  0.86546267  0.44750162  0.42105445  1
  C  C32  1  0.05249838  0.63453733  0.92105445  1
  C  C33  1  0.44750162  0.63453733  0.42105445  1
  C  C34  1  0.05249838  0.86546267  0.42105445  1
  C  C35  1  0.44750162  0.86546267  0.92105445  1
  C  C36  1  0.36546267  0.94750162  0.57894555  1
  C  C37  1  0.13453733  0.94750162  0.07894555  1
  C  C38  1  0.36546267  0.55249838  0.07894555  1
  C  C39  1  0.13453733  0.55249838  0.57894555  1
  C  C40  1  0.94750162  0.36546267  0.07894555  1
  C  C41  1  0.55249838  0.36546267  0.57894555  1
  C  C42  1  0.94750162  0.13453733  0.57894555  1
  C  C43  1  0.55249838  0.13453733  0.07894555  1
