# generated using pymatgen
data_Cu10Ni2C3
_symmetry_space_group_name_H-M   'P 1'
_cell_length_a   12.61904428
_cell_length_b   12.61904428
_cell_length_c   13.40314900
_cell_angle_alpha   90.00000000
_cell_angle_beta   90.00000000
_cell_angle_gamma   120.00000147
_symmetry_Int_Tables_number   1
_chemical_formula_structural   Cu10Ni2C3
_chemical_formula_sum   'Cu60 Ni12 C18'
_cell_volume   1848.37633465
_cell_formula_units_Z   6
loop_
 _symmetry_equiv_pos_site_id
 _symmetry_equiv_pos_as_xyz
  1  'x, y, z'
loop_
 _atom_site_type_symbol
 _atom_site_label
 _atom_site_symmetry_multiplicity
 _atom_site_fract_x
 _atom_site_fract_y
 _atom_site_fract_z
 _atom_site_occupancy
  C  C0  1  0.94905200  0.63132500  0.57688100  1
  C  C1  1  0.36867500  0.31772700  0.57688100  1
  C  C2  1  0.68227300  0.05094800  0.57688100  1
  C  C3  1  0.05094800  0.36867500  0.07688100  1
  C  C4  1  0.63132500  0.68227300  0.07688100  1
  C  C5  1  0.31772700  0.94905200  0.07688100  1
  C  C6  1  0.05094800  0.36867500  0.42311900  1
  C  C7  1  0.63132500  0.68227300  0.42311900  1
  C  C8  1  0.31772700  0.94905200  0.42311900  1
  C  C9  1  0.94905200  0.63132500  0.92311900  1
  C  C10  1  0.36867500  0.31772700  0.92311900  1
  C  C11  1  0.68227300  0.05094800  0.92311900  1
  C  C12  1  0.15972300  0.76119100  0.75000000  1
  C  C13  1  0.23880900  0.39853200  0.75000000  1
  C  C14  1  0.60146800  0.84027700  0.75000000  1
  C  C15  1  0.84027700  0.23880900  0.25000000  1
  C  C16  1  0.76119100  0.60146800  0.25000000  1
  C  C17  1  0.39853200  0.15972300  0.25000000  1
  Ni  Ni18  1  0.67111000  0.57250600  0.75000000  1
  Ni  Ni19  1  0.42749400  0.09860400  0.75000000  1
  Ni  Ni20  1  0.90139600  0.32889000  0.75000000  1
  Ni  Ni21  1  0.32889000  0.42749400  0.25000000  1
  Ni  Ni22  1  0.57250600  0.90139600  0.25000000  1
  Ni  Ni23  1  0.09860400  0.67111000  0.25000000  1
  Ni  Ni24  1  0.66666700  0.33333300  0.44716800  1
  Ni  Ni25  1  0.33333300  0.66666700  0.94716800  1
  Ni  Ni26  1  0.33333300  0.66666700  0.55283200  1
  Ni  Ni27  1  0.66666700  0.33333300  0.05283200  1
  Ni  Ni28  1  0.00000000  0.00000000  0.50000000  1
  Ni  Ni29  1  0.00000000  0.00000000  0.00000000  1
  Cu  Cu30  1  0.90922100  0.73532400  0.58783400  1
  Cu  Cu31  1  0.26467600  0.17389700  0.58783400  1
  Cu  Cu32  1  0.82610300  0.09077900  0.58783400  1
  Cu  Cu33  1  0.09077900  0.26467600  0.08783400  1
  Cu  Cu34  1  0.73532400  0.82610300  0.08783400  1
  Cu  Cu35  1  0.17389700  0.90922100  0.08783400  1
  Cu  Cu36  1  0.09077900  0.26467600  0.41216600  1
  Cu  Cu37  1  0.73532400  0.82610300  0.41216600  1
  Cu  Cu38  1  0.17389700  0.90922100  0.41216600  1
  Cu  Cu39  1  0.90922100  0.73532400  0.91216600  1
  Cu  Cu40  1  0.26467600  0.17389700  0.91216600  1
  Cu  Cu41  1  0.82610300  0.09077900  0.91216600  1
  Cu  Cu42  1  0.83735700  0.50293700  0.62123100  1
  Cu  Cu43  1  0.49706300  0.33441900  0.62123100  1
  Cu  Cu44  1  0.66558100  0.16264300  0.62123100  1
  Cu  Cu45  1  0.16264300  0.49706300  0.12123100  1
  Cu  Cu46  1  0.50293700  0.66558100  0.12123100  1
  Cu  Cu47  1  0.33441900  0.83735700  0.12123100  1
  Cu  Cu48  1  0.16264300  0.49706300  0.37876900  1
  Cu  Cu49  1  0.50293700  0.66558100  0.37876900  1
  Cu  Cu50  1  0.33441900  0.83735700  0.37876900  1
  Cu  Cu51  1  0.83735700  0.50293700  0.87876900  1
  Cu  Cu52  1  0.49706300  0.33441900  0.87876900  1
  Cu  Cu53  1  0.66558100  0.16264300  0.87876900  1
  Cu  Cu54  1  0.96149700  0.60959100  0.45758600  1
  Cu  Cu55  1  0.39040900  0.35190700  0.45758600  1
  Cu  Cu56  1  0.64809300  0.03850300  0.45758600  1
  Cu  Cu57  1  0.03850300  0.39040900  0.95758600  1
  Cu  Cu58  1  0.60959100  0.64809300  0.95758600  1
  Cu  Cu59  1  0.35190700  0.96149700  0.95758600  1
  Cu  Cu60  1  0.03850300  0.39040900  0.54241400  1
  Cu  Cu61  1  0.60959100  0.64809300  0.54241400  1
  Cu  Cu62  1  0.35190700  0.96149700  0.54241400  1
  Cu  Cu63  1  0.96149700  0.60959100  0.04241400  1
  Cu  Cu64  1  0.39040900  0.35190700  0.04241400  1
  Cu  Cu65  1  0.64809300  0.03850300  0.04241400  1
  Cu  Cu66  1  0.08786000  0.67339000  0.64184400  1
  Cu  Cu67  1  0.32661000  0.41447000  0.64184400  1
  Cu  Cu68  1  0.58553000  0.91214000  0.64184400  1
  Cu  Cu69  1  0.91214000  0.32661000  0.14184400  1
  Cu  Cu70  1  0.67339000  0.58553000  0.14184400  1
  Cu  Cu71  1  0.41447000  0.08786000  0.14184400  1
  Cu  Cu72  1  0.91214000  0.32661000  0.35815600  1
  Cu  Cu73  1  0.67339000  0.58553000  0.35815600  1
  Cu  Cu74  1  0.41447000  0.08786000  0.35815600  1
  Cu  Cu75  1  0.08786000  0.67339000  0.85815600  1
  Cu  Cu76  1  0.32661000  0.41447000  0.85815600  1
  Cu  Cu77  1  0.58553000  0.91214000  0.85815600  1
  Cu  Cu78  1  0.14464400  0.87917400  0.75000000  1
  Cu  Cu79  1  0.12082600  0.26547000  0.75000000  1
  Cu  Cu80  1  0.73453000  0.85535600  0.75000000  1
  Cu  Cu81  1  0.85535600  0.12082600  0.25000000  1
  Cu  Cu82  1  0.87917400  0.73453000  0.25000000  1
  Cu  Cu83  1  0.26547000  0.14464400  0.25000000  1
  Cu  Cu84  1  0.30086300  0.80036100  0.75000000  1
  Cu  Cu85  1  0.19963900  0.50050200  0.75000000  1
  Cu  Cu86  1  0.49949800  0.69913700  0.75000000  1
  Cu  Cu87  1  0.69913700  0.19963900  0.25000000  1
  Cu  Cu88  1  0.80036100  0.49949800  0.25000000  1
  Cu  Cu89  1  0.50050200  0.30086300  0.25000000  1
