# generated using pymatgen
data_Cu12Ni4C
_symmetry_space_group_name_H-M   'P 1'
_cell_length_a   14.89232784
_cell_length_b   14.89232784
_cell_length_c   14.89232784
_cell_angle_alpha   60.00000000
_cell_angle_beta   60.00000000
_cell_angle_gamma   60.00000000
_symmetry_Int_Tables_number   1
_chemical_formula_structural   Cu12Ni4C
_chemical_formula_sum   'Cu24 Ni8 C2'
_cell_volume   2335.46179072
_cell_formula_units_Z   2
loop_
 _symmetry_equiv_pos_site_id
 _symmetry_equiv_pos_as_xyz
  1  'x, y, z'
loop_
 _atom_site_type_symbol
 _atom_site_label
 _atom_site_symmetry_multiplicity
 _atom_site_fract_x
 _atom_site_fract_y
 _atom_site_fract_z
 _atom_site_occupancy
  C  C0  1  0.00000000  0.00000000  0.00000000  1
  C  C1  1  0.25000000  0.25000000  0.25000000  1
  Ni  Ni2  1  0.37410500  0.37410500  0.37410500  1
  Ni  Ni3  1  0.37410500  0.37410500  0.87768500  1
  Ni  Ni4  1  0.37410500  0.87768500  0.37410500  1
  Ni  Ni5  1  0.87589500  0.87589500  0.37231500  1
  Ni  Ni6  1  0.87589500  0.87589500  0.87589500  1
  Ni  Ni7  1  0.87768500  0.37410500  0.37410500  1
  Ni  Ni8  1  0.87589500  0.37231500  0.87589500  1
  Ni  Ni9  1  0.37231500  0.87589500  0.87589500  1
  Cu  Cu10  1  0.92975100  0.30763000  0.30763000  1
  Cu  Cu11  1  0.30763000  0.92975100  0.45498900  1
  Cu  Cu12  1  0.30763000  0.45498900  0.92975100  1
  Cu  Cu13  1  0.30763000  0.92975100  0.30763000  1
  Cu  Cu14  1  0.32024900  0.94237000  0.79501100  1
  Cu  Cu15  1  0.32024900  0.94237000  0.94237000  1
  Cu  Cu16  1  0.45498900  0.30763000  0.30763000  1
  Cu  Cu17  1  0.45498900  0.30763000  0.92975100  1
  Cu  Cu18  1  0.94237000  0.32024900  0.94237000  1
  Cu  Cu19  1  0.94237000  0.32024900  0.79501100  1
  Cu  Cu20  1  0.92975100  0.30763000  0.45498900  1
  Cu  Cu21  1  0.94237000  0.79501100  0.94237000  1
  Cu  Cu22  1  0.94237000  0.79501100  0.32024900  1
  Cu  Cu23  1  0.30763000  0.45498900  0.30763000  1
  Cu  Cu24  1  0.79501100  0.94237000  0.32024900  1
  Cu  Cu25  1  0.79501100  0.94237000  0.94237000  1
  Cu  Cu26  1  0.30763000  0.30763000  0.92975100  1
  Cu  Cu27  1  0.45498900  0.92975100  0.30763000  1
  Cu  Cu28  1  0.30763000  0.30763000  0.45498900  1
  Cu  Cu29  1  0.92975100  0.45498900  0.30763000  1
  Cu  Cu30  1  0.79501100  0.32024900  0.94237000  1
  Cu  Cu31  1  0.94237000  0.94237000  0.32024900  1
  Cu  Cu32  1  0.32024900  0.79501100  0.94237000  1
  Cu  Cu33  1  0.94237000  0.94237000  0.79501100  1
