# generated using pymatgen
data_Cu2NiC4
_symmetry_space_group_name_H-M   'P 1'
_cell_length_a   6.00801532
_cell_length_b   6.00801532
_cell_length_c   20.23669712
_cell_angle_alpha   79.35020651
_cell_angle_beta   79.35020651
_cell_angle_gamma   60.17063275
_symmetry_Int_Tables_number   1
_chemical_formula_structural   Cu2NiC4
_chemical_formula_sum   'Cu16 Ni8 C32'
_cell_volume   619.06760710
_cell_formula_units_Z   8
loop_
 _symmetry_equiv_pos_site_id
 _symmetry_equiv_pos_as_xyz
  1  'x, y, z'
loop_
 _atom_site_type_symbol
 _atom_site_label
 _atom_site_symmetry_multiplicity
 _atom_site_fract_x
 _atom_site_fract_y
 _atom_site_fract_z
 _atom_site_occupancy
  Ni  Ni0  1  0.65460100  0.65460100  0.03038600  1
  Ni  Ni1  1  0.12267100  0.12267100  0.12488000  1
  Ni  Ni2  1  0.90235500  0.90235500  0.28107000  1
  Ni  Ni3  1  0.37292300  0.37292300  0.37425300  1
  Ni  Ni4  1  0.62583700  0.62583700  0.62418700  1
  Ni  Ni5  1  0.50004300  0.50004300  0.49890000  1
  Ni  Ni6  1  0.87711900  0.87711900  0.87459100  1
  Ni  Ni7  1  0.74939700  0.74939700  0.75074400  1
  Cu  Cu8  1  0.62783900  0.12386500  0.12507100  1
  Cu  Cu9  1  0.25005800  0.25005800  0.25079800  1
  Cu  Cu10  1  0.12386500  0.62783900  0.12507100  1
  Cu  Cu11  1  0.15432900  0.15432900  0.53128100  1
  Cu  Cu12  1  0.87507000  0.37323700  0.37384600  1
  Cu  Cu13  1  0.59666500  0.59666500  0.21955900  1
  Cu  Cu14  1  0.40800400  0.40800400  0.78044300  1
  Cu  Cu15  1  0.37323700  0.87507000  0.37384600  1
  Cu  Cu16  1  0.12484900  0.62487500  0.62453700  1
  Cu  Cu17  1  0.84440300  0.84440300  0.46689500  1
  Cu  Cu18  1  0.62487500  0.12484900  0.62453700  1
  Cu  Cu19  1  0.87628300  0.37799000  0.87633300  1
  Cu  Cu20  1  0.37799000  0.87628300  0.87633300  1
  Cu  Cu21  1  0.09423300  0.09423300  0.71865300  1
  Cu  Cu22  1  0.00025100  0.00025100  0.00204800  1
  Cu  Cu23  1  0.34720100  0.34720100  0.97131100  1
  C  C24  1  0.28241000  0.82194200  0.06265800  1
  C  C25  1  0.93119000  0.93119000  0.17973400  1
  C  C26  1  0.82194200  0.28241000  0.06265800  1
  C  C27  1  0.82407800  0.82407800  0.06727300  1
  C  C28  1  0.42730000  0.42730000  0.18193300  1
  C  C29  1  0.52763100  0.07619400  0.31248300  1
  C  C30  1  0.43121800  0.95979900  0.18850800  1
  C  C31  1  0.17000600  0.17000600  0.43287200  1
  C  C32  1  0.07619400  0.52763100  0.31248300  1
  C  C33  1  0.31903900  0.31903900  0.06935900  1
  C  C34  1  0.07407400  0.07407400  0.31581300  1
  C  C35  1  0.95979900  0.43121800  0.18850800  1
  C  C36  1  0.79496100  0.31990400  0.56378600  1
  C  C37  1  0.68550500  0.68550500  0.42725500  1
  C  C38  1  0.67834600  0.20265200  0.43452300  1
  C  C39  1  0.42470000  0.42470000  0.68190100  1
  C  C40  1  0.31990400  0.79496100  0.56378600  1
  C  C41  1  0.57343300  0.57343300  0.31713300  1
  C  C42  1  0.31410900  0.31410900  0.57093500  1
  C  C43  1  0.20265200  0.67834600  0.43452300  1
  C  C44  1  0.93613000  0.93613000  0.67872600  1
  C  C45  1  0.05110900  0.56536000  0.81419000  1
  C  C46  1  0.92929400  0.45389400  0.68616100  1
  C  C47  1  0.68718800  0.68718800  0.92888000  1
  C  C48  1  0.56536000  0.05110900  0.81419000  1
  C  C49  1  0.82583000  0.82583000  0.56685300  1
  C  C50  1  0.56438200  0.56438200  0.82296200  1
  C  C51  1  0.45389400  0.92929400  0.68616100  1
  C  C52  1  0.17702200  0.17702200  0.93402100  1
  C  C53  1  0.18370500  0.71144600  0.94014000  1
  C  C54  1  0.07199800  0.07199800  0.81987900  1
  C  C55  1  0.71144600  0.18370500  0.94014000  1
