# generated using pymatgen
data_Cu2Ni2C7
_symmetry_space_group_name_H-M   'P 1'
_cell_length_a   9.53943707
_cell_length_b   9.53943707
_cell_length_c   11.02551916
_cell_angle_alpha   54.81287516
_cell_angle_beta   54.81287516
_cell_angle_gamma   70.60052338
_symmetry_Int_Tables_number   1
_chemical_formula_structural   Cu2Ni2C7
_chemical_formula_sum   'Cu8 Ni8 C28'
_cell_volume   670.16283605
_cell_formula_units_Z   4
loop_
 _symmetry_equiv_pos_site_id
 _symmetry_equiv_pos_as_xyz
  1  'x, y, z'
loop_
 _atom_site_type_symbol
 _atom_site_label
 _atom_site_symmetry_multiplicity
 _atom_site_fract_x
 _atom_site_fract_y
 _atom_site_fract_z
 _atom_site_occupancy
  Ni  Ni0  1  0.74709200  0.75070800  0.22788600  1
  Ni  Ni1  1  0.02393100  0.52237700  0.47597900  1
  Ni  Ni2  1  0.77191900  0.22808100  0.50000000  1
  Ni  Ni3  1  0.24929200  0.25290800  0.77211400  1
  Ni  Ni4  1  0.47762300  0.97606900  0.52402100  1
  Ni  Ni5  1  0.72566800  0.27433200  0.00000000  1
  Ni  Ni6  1  0.02453900  0.99950900  0.25002500  1
  Ni  Ni7  1  0.00049100  0.97546100  0.74997500  1
  Cu  Cu8  1  0.74567100  0.74864900  0.75372500  1
  Cu  Cu9  1  0.50019600  0.99886300  0.00103700  1
  Cu  Cu10  1  0.25191700  0.74808300  0.50000000  1
  Cu  Cu11  1  0.25135100  0.25432900  0.24627500  1
  Cu  Cu12  1  0.00113700  0.49980400  0.99896300  1
  Cu  Cu13  1  0.25322400  0.74677600  0.00000000  1
  Cu  Cu14  1  0.47599600  0.49925900  0.77425600  1
  Cu  Cu15  1  0.50074100  0.52400400  0.22574400  1
  C  C16  1  0.49215700  0.74894500  0.75039500  1
  C  C17  1  0.49842900  0.25842200  0.00085500  1
  C  C18  1  0.24923500  0.49409400  0.75759200  1
  C  C19  1  0.25105500  0.50784300  0.24960500  1
  C  C20  1  0.74157800  0.50157100  0.99914500  1
  C  C21  1  0.50590600  0.75076500  0.24240800  1
  C  C22  1  0.00985900  0.75690200  0.48743700  1
  C  C23  1  0.00303300  0.23765400  0.25526400  1
  C  C24  1  0.24595700  0.00655200  0.00708900  1
  C  C25  1  0.24309800  0.99014100  0.51256300  1
  C  C26  1  0.76234600  0.99696700  0.74473600  1
  C  C27  1  0.99344800  0.75404300  0.99291100  1
  C  C28  1  0.51924100  0.26337000  0.71003600  1
  C  C29  1  0.53804300  0.75674700  0.47543700  1
  C  C30  1  0.77673300  0.47982100  0.72899500  1
  C  C31  1  0.73663000  0.48075900  0.28996400  1
  C  C32  1  0.24325300  0.46195700  0.52456300  1
  C  C33  1  0.52017900  0.22326700  0.27100500  1
  C  C34  1  0.98226600  0.23169500  0.99846400  1
  C  C35  1  0.96034100  0.74801000  0.26993000  1
  C  C36  1  0.73050300  0.02055800  0.48266800  1
  C  C37  1  0.76830500  0.01773400  0.00153600  1
  C  C38  1  0.25199000  0.03965900  0.73007000  1
  C  C39  1  0.97944200  0.26949700  0.51733200  1
  C  C40  1  0.23985800  0.50022300  0.00908500  1
  C  C41  1  0.49977700  0.76014200  0.99091500  1
  C  C42  1  0.25397100  0.99996900  0.25096000  1
  C  C43  1  0.00003100  0.74602900  0.74904000  1
