# generated using pymatgen
data_Cu(NiC10)2
_symmetry_space_group_name_H-M   'P 1'
_cell_length_a   6.06956124
_cell_length_b   6.06956124
_cell_length_c   25.46371500
_cell_angle_alpha   90.00000000
_cell_angle_beta   90.00000000
_cell_angle_gamma   119.99999168
_symmetry_Int_Tables_number   1
_chemical_formula_structural   Cu(NiC10)2
_chemical_formula_sum   'Cu2 Ni4 C40'
_cell_volume   812.39459965
_cell_formula_units_Z   2
loop_
 _symmetry_equiv_pos_site_id
 _symmetry_equiv_pos_as_xyz
  1  'x, y, z'
loop_
 _atom_site_type_symbol
 _atom_site_label
 _atom_site_symmetry_multiplicity
 _atom_site_fract_x
 _atom_site_fract_y
 _atom_site_fract_z
 _atom_site_occupancy
  C  C0  1  0.33333300  0.66666700  0.54149200  1
  C  C1  1  0.66666700  0.33333300  0.45850800  1
  C  C2  1  0.66666700  0.33333300  0.04149200  1
  C  C3  1  0.33333300  0.66666700  0.95850800  1
  C  C4  1  0.00000000  0.00000000  0.13636300  1
  C  C5  1  0.00000000  0.00000000  0.86363700  1
  C  C6  1  0.00000000  0.00000000  0.63636300  1
  C  C7  1  0.00000000  0.00000000  0.36363700  1
  C  C8  1  0.33333300  0.66666700  0.25000000  1
  C  C9  1  0.66666700  0.33333300  0.75000000  1
  Ni  Ni10  1  0.33333300  0.66666700  0.10435000  1
  Ni  Ni11  1  0.66666700  0.33333300  0.89565000  1
  Ni  Ni12  1  0.66666700  0.33333300  0.60435000  1
  Ni  Ni13  1  0.33333300  0.66666700  0.39565000  1
  Cu  Cu14  1  0.00000000  0.00000000  0.00000000  1
  Cu  Cu15  1  0.00000000  0.00000000  0.50000000  1
  C  C16  1  0.33333300  0.66666700  0.68199000  1
  C  C17  1  0.66666700  0.33333300  0.31801000  1
  C  C18  1  0.66666700  0.33333300  0.18199000  1
  C  C19  1  0.33333300  0.66666700  0.81801000  1
  C  C20  1  0.50664600  0.01329200  0.15929000  1
  C  C21  1  0.49335400  0.98670800  0.84071000  1
  C  C22  1  0.98670800  0.49335400  0.15929000  1
  C  C23  1  0.49335400  0.98670800  0.65929000  1
  C  C24  1  0.01329200  0.50664600  0.84071000  1
  C  C25  1  0.50664600  0.01329200  0.34071000  1
  C  C26  1  0.50664600  0.49335400  0.15929000  1
  C  C27  1  0.01329200  0.50664600  0.65929000  1
  C  C28  1  0.49335400  0.50664600  0.84071000  1
  C  C29  1  0.98670800  0.49335400  0.34071000  1
  C  C30  1  0.49335400  0.50664600  0.65929000  1
  C  C31  1  0.50664600  0.49335400  0.34071000  1
  C  C32  1  0.16152500  0.32305000  0.04979500  1
  C  C33  1  0.83847500  0.67695000  0.95020500  1
  C  C34  1  0.67695000  0.83847500  0.04979500  1
  C  C35  1  0.83847500  0.67695000  0.54979500  1
  C  C36  1  0.32305000  0.16152500  0.95020500  1
  C  C37  1  0.16152500  0.32305000  0.45020500  1
  C  C38  1  0.16152500  0.83847500  0.04979500  1
  C  C39  1  0.32305000  0.16152500  0.54979500  1
  C  C40  1  0.83847500  0.16152500  0.95020500  1
  C  C41  1  0.67695000  0.83847500  0.45020500  1
  C  C42  1  0.83847500  0.16152500  0.54979500  1
  C  C43  1  0.16152500  0.83847500  0.45020500  1
  C  C44  1  0.33333300  0.66666700  0.75000000  1
  C  C45  1  0.66666700  0.33333300  0.25000000  1
