# generated using pymatgen
data_Cu5Ni3C28
_symmetry_space_group_name_H-M   'P 1'
_cell_length_a   11.26728294
_cell_length_b   15.51637075
_cell_length_c   11.38834613
_cell_angle_alpha   90.09128489
_cell_angle_beta   91.34115072
_cell_angle_gamma   90.55792106
_symmetry_Int_Tables_number   1
_chemical_formula_structural   Cu5Ni3C28
_chemical_formula_sum   'Cu20 Ni12 C112'
_cell_volume   1990.35116497
_cell_formula_units_Z   4
loop_
 _symmetry_equiv_pos_site_id
 _symmetry_equiv_pos_as_xyz
  1  'x, y, z'
loop_
 _atom_site_type_symbol
 _atom_site_label
 _atom_site_symmetry_multiplicity
 _atom_site_fract_x
 _atom_site_fract_y
 _atom_site_fract_z
 _atom_site_occupancy
  C  C0  1  0.98492810  0.12387345  0.53074343  1
  C  C1  1  0.51989898  0.37957671  0.99185010  1
  C  C2  1  0.24790711  0.38514923  0.26176244  1
  C  C3  1  0.23027914  0.12027469  0.22452473  1
  C  C4  1  0.97485751  0.12223522  0.02757827  1
  C  C5  1  0.97953312  0.62084207  0.53507725  1
  C  C6  1  0.97999687  0.62220141  0.01694098  1
  C  C7  1  0.54809315  0.12553731  0.47812041  1
  C  C8  1  0.54696379  0.12441424  0.97839300  1
  C  C9  1  0.54677754  0.62750080  0.47894279  1
  C  C10  1  0.55630327  0.62444447  0.97773532  1
  C  C11  1  0.51315422  0.37331634  0.49099596  1
  C  C12  1  0.52776375  0.86827446  0.98239186  1
  C  C13  1  0.51856118  0.87202681  0.47791080  1
  C  C14  1  0.95377380  0.38444130  0.01340919  1
  C  C15  1  0.95088481  0.38812132  0.51549669  1
  C  C16  1  0.95313919  0.87896681  0.00861705  1
  C  C17  1  0.95152884  0.87938261  0.50930282  1
  C  C18  1  0.24529855  0.39531038  0.71384798  1
  C  C19  1  0.24605676  0.88642938  0.27421407  1
  C  C20  1  0.24410123  0.88947401  0.75428980  1
  C  C21  1  0.73584907  0.38327402  0.26275496  1
  C  C22  1  0.74153384  0.38079803  0.76740943  1
  C  C23  1  0.73586931  0.85944859  0.24815581  1
  C  C24  1  0.73157248  0.86109723  0.74865579  1
  C  C25  1  0.23276517  0.11633621  0.74327887  1
  C  C26  1  0.23114846  0.62080758  0.21973991  1
  C  C27  1  0.21572814  0.61521124  0.73324937  1
  C  C28  1  0.75474213  0.12472355  0.24920732  1
  C  C29  1  0.75525839  0.12643641  0.75114199  1
  C  C30  1  0.77389087  0.61779208  0.25082651  1
  C  C31  1  0.76909883  0.61579071  0.75152929  1
  Ni  Ni32  1  0.98113919  0.99394005  0.26592963  1
  Ni  Ni33  1  0.98083911  0.99496192  0.76804736  1
  Ni  Ni34  1  -0.00017986  0.50084637  0.26987051  1
  Ni  Ni35  1  0.24152902  0.96647144  0.02271670  1
  Ni  Ni36  1  0.23673428  0.97869216  0.52122243  1
  Ni  Ni37  1  0.24169180  0.47381915  0.01314279  1
  Ni  Ni38  1  0.26123428  0.24839258  0.93999544  1
  Ni  Ni39  1  0.26782771  0.23412333  0.45674425  1
  Ni  Ni40  1  0.26455494  0.73809707  0.94388082  1
  Ni  Ni41  1  0.98747106  0.25565692  0.27928205  1
  Ni  Ni42  1  0.99710901  0.25701117  0.78249415  1
  Ni  Ni43  1  0.00517219  0.75208551  0.27756356  1
  Cu  Cu44  1  0.99131173  0.49556801  0.75852246  1
  Cu  Cu45  1  0.50333724  0.98948562  0.22472255  1
  Cu  Cu46  1  0.50014418  0.99095988  0.72817892  1
  Cu  Cu47  1  0.50337480  0.50682930  0.23774177  1
  Cu  Cu48  1  0.49135373  0.49480763  0.72601742  1
  Cu  Cu49  1  0.22694071  0.52535069  0.50489278  1
  Cu  Cu50  1  0.74312089  0.00021909  0.99261984  1
  Cu  Cu51  1  0.74016425  0.00005480  0.49372682  1
  Cu  Cu52  1  0.75349336  0.50355660  0.00361773  1
  Cu  Cu53  1  0.74028070  0.50280519  0.50370235  1
  Cu  Cu54  1  0.27545491  0.73306683  0.44450760  1
  Cu  Cu55  1  0.74711930  0.25010343  0.00727983  1
  Cu  Cu56  1  0.74295264  0.25125360  0.50608132  1
  Cu  Cu57  1  0.75458155  0.74881255  0.99783540  1
  Cu  Cu58  1  0.75162358  0.74979524  0.50088036  1
  Cu  Cu59  1  0.99234964  0.75556207  0.77021034  1
  Cu  Cu60  1  0.50607742  0.25348549  0.25357684  1
  Cu  Cu61  1  0.50089588  0.25465187  0.75177406  1
  Cu  Cu62  1  0.50933432  0.74149541  0.24704910  1
  Cu  Cu63  1  0.49599708  0.74653155  0.74827634  1
  C  C64  1  0.57122569  0.24604041  0.09348312  1
  C  C65  1  0.57044104  0.25196011  0.59191588  1
  C  C66  1  0.60117234  0.75645893  0.09376881  1
  C  C67  1  0.55391424  0.75371194  0.58347402  1
  C  C68  1  0.38959728  0.18678865  0.36919214  1
  C  C69  1  0.38582843  0.18909464  0.87591628  1
  C  C70  1  0.39971565  0.65971668  0.33882815  1
  C  C71  1  0.39366393  0.68377252  0.88354826  1
  C  C72  1  0.91015172  0.24454057  0.41173247  1
  C  C73  1  0.91917937  0.23821497  0.91533022  1
  C  C74  1  0.93396481  0.73850150  0.41572824  1
  C  C75  1  0.90942293  0.74415617  0.92541846  1
  C  C76  1  0.16092429  0.24623629  0.33025291  1
  C  C77  1  0.17622187  0.25850607  0.80049144  1
  C  C78  1  0.17533660  0.75211078  0.28715330  1
  C  C79  1  0.18253298  0.75263687  0.80665795  1
  C  C80  1  0.65567447  0.23057549  0.34632640  1
  C  C81  1  0.65542556  0.23682023  0.84478008  1
  C  C82  1  0.66516765  0.72715127  0.34814171  1
  C  C83  1  0.65268706  0.72350140  0.83874653  1
  C  C84  1  0.87444470  0.27119169  0.15963842  1
  C  C85  1  0.89002853  0.26514318  0.65769074  1
  C  C86  1  0.88840973  0.78034905  0.16674930  1
  C  C87  1  0.85781646  0.77876313  0.64322078  1
  C  C88  1  0.35778881  0.52160113  0.11180661  1
  C  C89  1  0.34641427  0.52021329  0.64161070  1
  C  C90  1  0.35364701  0.01616791  0.11940175  1
  C  C91  1  0.34666284  0.01910166  0.63302687  1
  C  C92  1  0.86988159  0.48035147  0.16365970  1
  C  C93  1  0.83863660  0.47730433  0.64786163  1
  C  C94  1  0.86055135  0.97191228  0.16494897  1
  C  C95  1  0.85879764  0.97712555  0.66644803  1
  C  C96  1  0.20014709  0.01398327  0.37250314  1
  C  C97  1  0.22514029  0.00646530  0.87592740  1
  C  C98  1  0.16641101  0.51322853  0.33908607  1
  C  C99  1  0.21472607  0.50215941  0.86345139  1
  C  C100  1  0.62609346  0.03166333  0.33934084  1
  C  C101  1  0.62887765  0.03363497  0.83841646  1
  C  C102  1  0.64835136  0.52504533  0.35142869  1
  C  C103  1  0.62159426  0.51602762  0.83946042  1
  C  C104  1  0.89722357  0.01169365  0.40310205  1
  C  C105  1  0.89953619  0.01327094  0.90827878  1
  C  C106  1  0.91272437  0.51600933  0.40073957  1
  C  C107  1  0.89562049  0.51224626  0.90158495  1
  C  C108  1  0.10806674  0.47575138  0.09815731  1
  C  C109  1  0.09275628  0.47761273  0.61851020  1
  C  C110  1  0.10779339  0.97571676  0.11138130  1
  C  C111  1  0.10396160  0.96985175  0.61182904  1
  C  C112  1  0.61172526  0.50062984  0.09944054  1
  C  C113  1  0.57884304  0.49862230  0.58643447  1
  C  C114  1  0.59775854  0.98742801  0.07799740  1
  C  C115  1  0.59447291  0.98607021  0.58050701  1
  C  C116  1  0.01924042  0.37581799  0.29437062  1
  C  C117  1  0.01195582  0.37563482  0.80746056  1
  C  C118  1  0.02993518  0.88321834  0.31151257  1
  C  C119  1  0.03394438  0.88756321  0.81394161  1
  C  C120  1  0.46745061  0.38183309  0.29080753  1
  C  C121  1  0.44099428  0.37744000  0.78580523  1
  C  C122  1  0.45674488  0.86700270  0.28126982  1
  C  C123  1  0.44900880  0.87192895  0.79360607  1
  C  C124  1  0.00153249  0.12274992  0.23616925  1
  C  C125  1  0.02052639  0.11868791  0.75070196  1
  C  C126  1  0.00379786  0.62737609  0.22748374  1
  C  C127  1  0.99734504  0.62078038  0.73919227  1
  C  C128  1  0.17523403  0.18126083  0.03120566  1
  C  C129  1  0.20057003  0.16139170  0.55753992  1
  C  C130  1  0.18167242  0.66553255  0.03038447  1
  C  C131  1  0.18281012  0.65292457  0.54327406  1
  C  C132  1  0.75887417  0.12121373  0.04171511  1
  C  C133  1  0.75267153  0.12247774  0.54331341  1
  C  C134  1  0.76586909  0.62761598  0.04206117  1
  C  C135  1  0.75764423  0.62814227  0.54358707  1
  C  C136  1  0.30067513  0.34084303  0.51489001  1
  C  C137  1  0.28724568  0.35451522  0.02067869  1
  C  C138  1  0.28924279  0.86755341  0.49370422  1
  C  C139  1  0.28863860  0.85019438  0.01387337  1
  C  C140  1  0.74145962  0.37926207  0.46733869  1
  C  C141  1  0.74809853  0.37914900  0.97439749  1
  C  C142  1  0.74427615  0.87395333  0.45557755  1
  C  C143  1  0.74405243  0.87456846  0.95689429  1
