# generated using pymatgen
data_Cu2NiC3
_symmetry_space_group_name_H-M   'P 1'
_cell_length_a   13.38017435
_cell_length_b   13.38017435
_cell_length_c   3.73272900
_cell_angle_alpha   90.00000000
_cell_angle_beta   90.00000000
_cell_angle_gamma   120.00000175
_symmetry_Int_Tables_number   1
_chemical_formula_structural   Cu2NiC3
_chemical_formula_sum   'Cu12 Ni6 C18'
_cell_volume   578.73617579
_cell_formula_units_Z   6
loop_
 _symmetry_equiv_pos_site_id
 _symmetry_equiv_pos_as_xyz
  1  'x, y, z'
loop_
 _atom_site_type_symbol
 _atom_site_label
 _atom_site_symmetry_multiplicity
 _atom_site_fract_x
 _atom_site_fract_y
 _atom_site_fract_z
 _atom_site_occupancy
  C  C0  1  0.60185600  0.48565800  0.75000000  1
  C  C1  1  0.51434200  0.11619800  0.75000000  1
  C  C2  1  0.88380200  0.39814400  0.75000000  1
  C  C3  1  0.39814400  0.51434200  0.25000000  1
  C  C4  1  0.48565800  0.88380200  0.25000000  1
  C  C5  1  0.11619800  0.60185600  0.25000000  1
  C  C6  1  0.94496500  0.71179100  0.75000000  1
  C  C7  1  0.28820900  0.23317400  0.75000000  1
  C  C8  1  0.76682600  0.05503500  0.75000000  1
  C  C9  1  0.05503500  0.28820900  0.25000000  1
  C  C10  1  0.71179100  0.76682600  0.25000000  1
  C  C11  1  0.23317400  0.94496500  0.25000000  1
  C  C12  1  0.28075100  0.79349300  0.75000000  1
  C  C13  1  0.20650700  0.48725800  0.75000000  1
  C  C14  1  0.51274200  0.71924900  0.75000000  1
  C  C15  1  0.71924900  0.20650700  0.25000000  1
  C  C16  1  0.79349300  0.51274200  0.25000000  1
  C  C17  1  0.48725800  0.28075100  0.25000000  1
  Ni  Ni18  1  0.01418500  0.58788300  0.75000000  1
  Ni  Ni19  1  0.41211700  0.42630200  0.75000000  1
  Ni  Ni20  1  0.57369800  0.98581500  0.75000000  1
  Ni  Ni21  1  0.98581500  0.41211700  0.25000000  1
  Ni  Ni22  1  0.58788300  0.57369800  0.25000000  1
  Ni  Ni23  1  0.42630200  0.01418500  0.25000000  1
  Cu  Cu24  1  0.10463500  0.89965500  0.75000000  1
  Cu  Cu25  1  0.10034500  0.20497900  0.75000000  1
  Cu  Cu26  1  0.79502100  0.89536500  0.75000000  1
  Cu  Cu27  1  0.89536500  0.10034500  0.25000000  1
  Cu  Cu28  1  0.89965500  0.79502100  0.25000000  1
  Cu  Cu29  1  0.20497900  0.10463500  0.25000000  1
  Cu  Cu30  1  0.75266800  0.68606500  0.75000000  1
  Cu  Cu31  1  0.31393500  0.06660400  0.75000000  1
  Cu  Cu32  1  0.93339600  0.24733200  0.75000000  1
  Cu  Cu33  1  0.24733200  0.31393500  0.25000000  1
  Cu  Cu34  1  0.68606500  0.93339600  0.25000000  1
  Cu  Cu35  1  0.06660400  0.75266800  0.25000000  1
