# generated using pymatgen
data_Cu2Ni4C
_symmetry_space_group_name_H-M   'P 1'
_cell_length_a   3.84524600
_cell_length_b   10.91555200
_cell_length_c   14.71731800
_cell_angle_alpha   90.00000000
_cell_angle_beta   90.00000000
_cell_angle_gamma   90.00000000
_symmetry_Int_Tables_number   1
_chemical_formula_structural   Cu2Ni4C
_chemical_formula_sum   'Cu12 Ni24 C6'
_cell_volume   617.72973330
_cell_formula_units_Z   6
loop_
 _symmetry_equiv_pos_site_id
 _symmetry_equiv_pos_as_xyz
  1  'x, y, z'
loop_
 _atom_site_type_symbol
 _atom_site_label
 _atom_site_symmetry_multiplicity
 _atom_site_fract_x
 _atom_site_fract_y
 _atom_site_fract_z
 _atom_site_occupancy
  C  C0  1  0.00000000  0.12203200  0.72701300  1
  C  C1  1  0.00000000  0.87796800  0.27298700  1
  C  C2  1  0.50000000  0.37796800  0.22701300  1
  C  C3  1  0.50000000  0.62203200  0.77298700  1
  C  C4  1  0.00000000  0.00000000  0.00000000  1
  C  C5  1  0.50000000  0.50000000  0.50000000  1
  Ni  Ni6  1  0.00000000  0.07109700  0.43818400  1
  Ni  Ni7  1  0.00000000  0.92890300  0.56181600  1
  Ni  Ni8  1  0.50000000  0.42890300  0.93818400  1
  Ni  Ni9  1  0.50000000  0.57109700  0.06181600  1
  Ni  Ni10  1  0.00000000  0.39717500  0.05336100  1
  Ni  Ni11  1  0.00000000  0.60282500  0.94663900  1
  Ni  Ni12  1  0.50000000  0.10282500  0.55336100  1
  Ni  Ni13  1  0.50000000  0.89717500  0.44663900  1
  Ni  Ni14  1  0.00000000  0.57785300  0.33006800  1
  Ni  Ni15  1  0.00000000  0.42214700  0.66993200  1
  Ni  Ni16  1  0.50000000  0.92214700  0.83006800  1
  Ni  Ni17  1  0.50000000  0.07785300  0.16993200  1
  Ni  Ni18  1  0.00000000  0.26570700  0.53551000  1
  Ni  Ni19  1  0.00000000  0.73429300  0.46449000  1
  Ni  Ni20  1  0.50000000  0.23429300  0.03551000  1
  Ni  Ni21  1  0.50000000  0.76570700  0.96449000  1
  Ni  Ni22  1  0.00000000  0.74364100  0.08863400  1
  Ni  Ni23  1  0.00000000  0.25635900  0.91136600  1
  Ni  Ni24  1  0.50000000  0.75635900  0.58863400  1
  Ni  Ni25  1  0.50000000  0.24364100  0.41136600  1
  Ni  Ni26  1  0.00000000  0.17442100  0.28729500  1
  Ni  Ni27  1  0.00000000  0.82557900  0.71270500  1
  Ni  Ni28  1  0.50000000  0.32557900  0.78729500  1
  Ni  Ni29  1  0.50000000  0.67442100  0.21270500  1
  Cu  Cu30  1  0.00000000  0.37155200  0.38355900  1
  Cu  Cu31  1  0.00000000  0.62844800  0.61644100  1
  Cu  Cu32  1  0.50000000  0.12844800  0.88355900  1
  Cu  Cu33  1  0.50000000  0.87155200  0.11644100  1
  Cu  Cu34  1  0.00000000  0.55601400  0.16461900  1
  Cu  Cu35  1  0.00000000  0.44398600  0.83538100  1
  Cu  Cu36  1  0.50000000  0.94398600  0.66461900  1
  Cu  Cu37  1  0.50000000  0.05601400  0.33538100  1
  Cu  Cu38  1  0.00000000  0.20538500  0.13119100  1
  Cu  Cu39  1  0.00000000  0.79461500  0.86880900  1
  Cu  Cu40  1  0.50000000  0.29461500  0.63119100  1
  Cu  Cu41  1  0.50000000  0.70538500  0.36880900  1
