# generated using pymatgen
data_Cu3Ni5C14
_symmetry_space_group_name_H-M   'P 1'
_cell_length_a   7.99008800
_cell_length_b   7.99008800
_cell_length_c   12.02288800
_cell_angle_alpha   90.00000000
_cell_angle_beta   90.00000000
_cell_angle_gamma   90.00000000
_symmetry_Int_Tables_number   1
_chemical_formula_structural   Cu3Ni5C14
_chemical_formula_sum   'Cu6 Ni10 C28'
_cell_volume   767.55927937
_cell_formula_units_Z   2
loop_
 _symmetry_equiv_pos_site_id
 _symmetry_equiv_pos_as_xyz
  1  'x, y, z'
loop_
 _atom_site_type_symbol
 _atom_site_label
 _atom_site_symmetry_multiplicity
 _atom_site_fract_x
 _atom_site_fract_y
 _atom_site_fract_z
 _atom_site_occupancy
  Ni  Ni0  1  0.00000000  0.00000000  0.50000000  1
  Ni  Ni1  1  0.50000000  0.50000000  0.00000000  1
  Ni  Ni2  1  0.22344700  0.72344700  0.25000000  1
  Ni  Ni3  1  0.77655300  0.27655300  0.75000000  1
  Ni  Ni4  1  0.77655300  0.27655300  0.25000000  1
  Ni  Ni5  1  0.27655300  0.22344700  0.25000000  1
  Ni  Ni6  1  0.22344700  0.72344700  0.75000000  1
  Ni  Ni7  1  0.72344700  0.77655300  0.75000000  1
  Ni  Ni8  1  0.72344700  0.77655300  0.25000000  1
  Ni  Ni9  1  0.27655300  0.22344700  0.75000000  1
  Cu  Cu10  1  0.00000000  0.00000000  0.00000000  1
  Cu  Cu11  1  0.50000000  0.50000000  0.50000000  1
  Cu  Cu12  1  0.00000000  0.50000000  0.00000000  1
  Cu  Cu13  1  0.50000000  0.00000000  0.00000000  1
  Cu  Cu14  1  0.50000000  0.00000000  0.50000000  1
  Cu  Cu15  1  0.00000000  0.50000000  0.50000000  1
  C  C16  1  0.24801000  0.06161900  0.00000000  1
  C  C17  1  0.75199000  0.93838100  0.00000000  1
  C  C18  1  0.93838100  0.24801000  0.00000000  1
  C  C19  1  0.25199000  0.56161900  0.50000000  1
  C  C20  1  0.06161900  0.75199000  0.00000000  1
  C  C21  1  0.74801000  0.43838100  0.50000000  1
  C  C22  1  0.56161900  0.74801000  0.50000000  1
  C  C23  1  0.43838100  0.25199000  0.50000000  1
  C  C24  1  0.00000000  0.00000000  0.16761800  1
  C  C25  1  0.00000000  0.00000000  0.83238200  1
  C  C26  1  0.50000000  0.50000000  0.33238200  1
  C  C27  1  0.50000000  0.50000000  0.66761800  1
  C  C28  1  0.03523400  0.32215700  0.38299800  1
  C  C29  1  0.96476600  0.67784300  0.61700200  1
  C  C30  1  0.96476600  0.67784300  0.38299800  1
  C  C31  1  0.67784300  0.03523400  0.38299800  1
  C  C32  1  0.46476600  0.82215700  0.11700200  1
  C  C33  1  0.03523400  0.32215700  0.61700200  1
  C  C34  1  0.32215700  0.96476600  0.61700200  1
  C  C35  1  0.53523400  0.17784300  0.88299800  1
  C  C36  1  0.32215700  0.96476600  0.38299800  1
  C  C37  1  0.53523400  0.17784300  0.11700200  1
  C  C38  1  0.67784300  0.03523400  0.61700200  1
  C  C39  1  0.46476600  0.82215700  0.88299800  1
  C  C40  1  0.82215700  0.53523400  0.11700200  1
  C  C41  1  0.17784300  0.46476600  0.88299800  1
  C  C42  1  0.17784300  0.46476600  0.11700200  1
  C  C43  1  0.82215700  0.53523400  0.88299800  1
