# generated using pymatgen
data_Cu8Ni2C
_symmetry_space_group_name_H-M   'P 1'
_cell_length_a   12.58270800
_cell_length_b   8.24986200
_cell_length_c   9.97139300
_cell_angle_alpha   90.00000000
_cell_angle_beta   90.00000000
_cell_angle_gamma   90.00000000
_symmetry_Int_Tables_number   1
_chemical_formula_structural   Cu8Ni2C
_chemical_formula_sum   'Cu64 Ni16 C8'
_cell_volume   1035.08647893
_cell_formula_units_Z   8
loop_
 _symmetry_equiv_pos_site_id
 _symmetry_equiv_pos_as_xyz
  1  'x, y, z'
loop_
 _atom_site_type_symbol
 _atom_site_label
 _atom_site_symmetry_multiplicity
 _atom_site_fract_x
 _atom_site_fract_y
 _atom_site_fract_z
 _atom_site_occupancy
  C  C0  1  0.69300100  0.25000000  0.84796800  1
  C  C1  1  0.19300100  0.25000000  0.65203200  1
  C  C2  1  0.30699900  0.75000000  0.15203200  1
  C  C3  1  0.80699900  0.75000000  0.34796800  1
  C  C4  1  0.55798500  0.25000000  0.29603000  1
  C  C5  1  0.05798500  0.25000000  0.20397000  1
  C  C6  1  0.44201500  0.75000000  0.70397000  1
  C  C7  1  0.94201500  0.75000000  0.79603000  1
  Ni  Ni8  1  0.66632300  0.25000000  0.48272600  1
  Ni  Ni9  1  0.16632300  0.25000000  0.01727400  1
  Ni  Ni10  1  0.33367700  0.75000000  0.51727400  1
  Ni  Ni11  1  0.83367700  0.75000000  0.98272600  1
  Ni  Ni12  1  0.88762000  0.25000000  0.12125600  1
  Ni  Ni13  1  0.38762000  0.25000000  0.37874400  1
  Ni  Ni14  1  0.11238000  0.75000000  0.87874400  1
  Ni  Ni15  1  0.61238000  0.75000000  0.62125600  1
  Ni  Ni16  1  0.58723400  0.01575000  0.16558500  1
  Ni  Ni17  1  0.08723400  0.48425000  0.33441500  1
  Ni  Ni18  1  0.41276600  0.51575000  0.83441500  1
  Ni  Ni19  1  0.91276600  0.98425000  0.66558500  1
  Ni  Ni20  1  0.41276600  0.98425000  0.83441500  1
  Ni  Ni21  1  0.91276600  0.51575000  0.66558500  1
  Ni  Ni22  1  0.58723400  0.48425000  0.16558500  1
  Ni  Ni23  1  0.08723400  0.01575000  0.33441500  1
  Cu  Cu24  1  0.72833000  0.25000000  0.38696800  1
  Cu  Cu25  1  0.22833000  0.25000000  0.11303200  1
  Cu  Cu26  1  0.27167000  0.75000000  0.61303200  1
  Cu  Cu27  1  0.77167000  0.75000000  0.88696800  1
  Cu  Cu28  1  0.71038000  0.25000000  0.58923000  1
  Cu  Cu29  1  0.21038000  0.25000000  0.91077000  1
  Cu  Cu30  1  0.28962000  0.75000000  0.41077000  1
  Cu  Cu31  1  0.78962000  0.75000000  0.08923000  1
  Cu  Cu32  1  0.60823000  0.37057800  0.47057700  1
  Cu  Cu33  1  0.10823000  0.12942200  0.02942300  1
  Cu  Cu34  1  0.39177000  0.87057800  0.52942300  1
  Cu  Cu35  1  0.89177000  0.62942200  0.97057700  1
  Cu  Cu36  1  0.39177000  0.62942200  0.52942300  1
  Cu  Cu37  1  0.89177000  0.87057800  0.97057700  1
  Cu  Cu38  1  0.60823000  0.12942200  0.47057700  1
  Cu  Cu39  1  0.10823000  0.37057800  0.02942300  1
  Cu  Cu40  1  0.88710100  0.25000000  0.24558600  1
  Cu  Cu41  1  0.38710100  0.25000000  0.25441400  1
  Cu  Cu42  1  0.11289900  0.75000000  0.75441400  1
  Cu  Cu43  1  0.61289900  0.75000000  0.74558600  1
  Cu  Cu44  1  0.79920900  0.25000000  0.07563500  1
  Cu  Cu45  1  0.29920900  0.25000000  0.42436500  1
  Cu  Cu46  1  0.20079100  0.75000000  0.92436500  1
  Cu  Cu47  1  0.70079100  0.75000000  0.57563500  1
  Cu  Cu48  1  0.93936400  0.37032800  0.08641000  1
  Cu  Cu49  1  0.43936400  0.12967200  0.41359000  1
  Cu  Cu50  1  0.06063600  0.87032800  0.91359000  1
  Cu  Cu51  1  0.56063600  0.62967200  0.58641000  1
  Cu  Cu52  1  0.06063600  0.62967200  0.91359000  1
  Cu  Cu53  1  0.56063600  0.87032800  0.58641000  1
  Cu  Cu54  1  0.93936400  0.12967200  0.08641000  1
  Cu  Cu55  1  0.43936400  0.37032800  0.41359000  1
  Cu  Cu56  1  0.58135700  0.89530500  0.09740700  1
  Cu  Cu57  1  0.08135700  0.60469500  0.40259300  1
  Cu  Cu58  1  0.41864300  0.39530500  0.90259300  1
  Cu  Cu59  1  0.91864300  0.10469500  0.59740700  1
  Cu  Cu60  1  0.41864300  0.10469500  0.90259300  1
  Cu  Cu61  1  0.91864300  0.39530500  0.59740700  1
  Cu  Cu62  1  0.58135700  0.60469500  0.09740700  1
  Cu  Cu63  1  0.08135700  0.89530500  0.40259300  1
  Cu  Cu64  1  0.55257900  0.99003700  0.28011600  1
  Cu  Cu65  1  0.05257900  0.50996300  0.21988400  1
  Cu  Cu66  1  0.44742100  0.49003700  0.71988400  1
  Cu  Cu67  1  0.94742100  0.00996300  0.78011600  1
  Cu  Cu68  1  0.44742100  0.00996300  0.71988400  1
  Cu  Cu69  1  0.94742100  0.49003700  0.78011600  1
  Cu  Cu70  1  0.55257900  0.50996300  0.28011600  1
  Cu  Cu71  1  0.05257900  0.99003700  0.21988400  1
  Cu  Cu72  1  0.67796200  0.07012400  0.17695600  1
  Cu  Cu73  1  0.17796200  0.42987600  0.32304400  1
  Cu  Cu74  1  0.32203800  0.57012400  0.82304400  1
  Cu  Cu75  1  0.82203800  0.92987600  0.67695600  1
  Cu  Cu76  1  0.32203800  0.92987600  0.82304400  1
  Cu  Cu77  1  0.82203800  0.57012400  0.67695600  1
  Cu  Cu78  1  0.67796200  0.42987600  0.17695600  1
  Cu  Cu79  1  0.17796200  0.07012400  0.32304400  1
  Cu  Cu80  1  0.53101300  0.12334400  0.11560500  1
  Cu  Cu81  1  0.03101300  0.37665600  0.38439500  1
  Cu  Cu82  1  0.46898700  0.62334400  0.88439500  1
  Cu  Cu83  1  0.96898700  0.87665600  0.61560500  1
  Cu  Cu84  1  0.46898700  0.87665600  0.88439500  1
  Cu  Cu85  1  0.96898700  0.62334400  0.61560500  1
  Cu  Cu86  1  0.53101300  0.37665600  0.11560500  1
  Cu  Cu87  1  0.03101300  0.12334400  0.38439500  1
