# generated using pymatgen
data_CuNi2C13
_symmetry_space_group_name_H-M   'P 1'
_cell_length_a   5.40829071
_cell_length_b   5.40829071
_cell_length_c   8.24791217
_cell_angle_alpha   66.32041790
_cell_angle_beta   66.32041790
_cell_angle_gamma   69.88767403
_symmetry_Int_Tables_number   1
_chemical_formula_structural   CuNi2C13
_chemical_formula_sum   'Cu1 Ni2 C13'
_cell_volume   197.48330660
_cell_formula_units_Z   1
loop_
 _symmetry_equiv_pos_site_id
 _symmetry_equiv_pos_as_xyz
  1  'x, y, z'
loop_
 _atom_site_type_symbol
 _atom_site_label
 _atom_site_symmetry_multiplicity
 _atom_site_fract_x
 _atom_site_fract_y
 _atom_site_fract_z
 _atom_site_occupancy
  Ni  Ni0  1  0.50000000  0.00000000  0.50000000  1
  Ni  Ni1  1  0.00000000  0.50000000  0.50000000  1
  Cu  Cu2  1  0.00000000  0.00000000  0.00000000  1
  C  C3  1  0.00000000  0.00000000  0.50000000  1
  C  C4  1  0.58015100  0.58015100  0.20574200  1
  C  C5  1  0.41984900  0.41984900  0.79425800  1
  C  C6  1  0.84536600  0.84536600  0.54535600  1
  C  C7  1  0.15463400  0.15463400  0.45464400  1
  C  C8  1  0.68040700  0.22535000  0.25808500  1
  C  C9  1  0.31959300  0.77465000  0.74191500  1
  C  C10  1  0.77465000  0.31959300  0.74191500  1
  C  C11  1  0.22535000  0.68040700  0.25808500  1
  C  C12  1  0.67981600  0.67981600  0.33148800  1
  C  C13  1  0.32018400  0.32018400  0.66851200  1
  C  C14  1  0.28268000  0.28268000  0.01964600  1
  C  C15  1  0.71732000  0.71732000  0.98035400  1
