# generated using pymatgen
data_Cu2Ni2C15
_symmetry_space_group_name_H-M   'P 1'
_cell_length_a   8.65354966
_cell_length_b   8.65354966
_cell_length_c   8.65354966
_cell_angle_alpha   142.01080051
_cell_angle_beta   142.01080051
_cell_angle_gamma   54.81253085
_symmetry_Int_Tables_number   1
_chemical_formula_structural   Cu2Ni2C15
_chemical_formula_sum   'Cu2 Ni2 C15'
_cell_volume   243.77375686
_cell_formula_units_Z   1
loop_
 _symmetry_equiv_pos_site_id
 _symmetry_equiv_pos_as_xyz
  1  'x, y, z'
loop_
 _atom_site_type_symbol
 _atom_site_label
 _atom_site_symmetry_multiplicity
 _atom_site_fract_x
 _atom_site_fract_y
 _atom_site_fract_z
 _atom_site_occupancy
  Ni  Ni0  1  0.25000000  0.75000000  0.50000000  1
  Ni  Ni1  1  0.75000000  0.25000000  0.50000000  1
  Cu  Cu2  1  0.00000000  0.50000000  0.50000000  1
  Cu  Cu3  1  0.50000000  0.00000000  0.50000000  1
  C  C4  1  0.62230600  0.62230600  0.00000000  1
  C  C5  1  0.12106900  0.12106900  0.00000000  1
  C  C6  1  0.87893100  0.87893100  0.00000000  1
  C  C7  1  0.37769400  0.37769400  0.00000000  1
  C  C8  1  0.84000000  0.36800100  0.00000000  1
  C  C9  1  0.36800100  0.84000000  0.00000000  1
  C  C10  1  0.16000000  0.63199900  0.00000000  1
  C  C11  1  0.63199900  0.16000000  0.00000000  1
  C  C12  1  0.84000000  0.84000000  0.47199900  1
  C  C13  1  0.36800100  0.36800100  0.52800100  1
  C  C14  1  0.16000000  0.16000000  0.52800100  1
  C  C15  1  0.63199900  0.63199900  0.47199900  1
  C  C16  1  0.76142100  0.76142100  0.00000000  1
  C  C17  1  0.23857900  0.23857900  0.00000000  1
  C  C18  1  0.00000000  0.00000000  0.00000000  1
