# generated using pymatgen
data_Cu2Ni4C3
_symmetry_space_group_name_H-M   'P 1'
_cell_length_a   12.92812800
_cell_length_b   12.92812800
_cell_length_c   12.92812800
_cell_angle_alpha   90.00000000
_cell_angle_beta   90.00000000
_cell_angle_gamma   90.00000000
_symmetry_Int_Tables_number   1
_chemical_formula_structural   Cu2Ni4C3
_chemical_formula_sum   'Cu16 Ni32 C24'
_cell_volume   2160.76198253
_cell_formula_units_Z   8
loop_
 _symmetry_equiv_pos_site_id
 _symmetry_equiv_pos_as_xyz
  1  'x, y, z'
loop_
 _atom_site_type_symbol
 _atom_site_label
 _atom_site_symmetry_multiplicity
 _atom_site_fract_x
 _atom_site_fract_y
 _atom_site_fract_z
 _atom_site_occupancy
  Ni  Ni0  1  0.25083800  0.52701000  0.98752900  1
  Ni  Ni1  1  0.74916200  0.02701000  0.51247100  1
  Ni  Ni2  1  0.24916200  0.47299000  0.48752900  1
  Ni  Ni3  1  0.75083800  0.97299000  0.01247100  1
  Ni  Ni4  1  0.98752900  0.25083800  0.52701000  1
  Ni  Ni5  1  0.51247100  0.74916200  0.02701000  1
  Ni  Ni6  1  0.48752900  0.24916200  0.47299000  1
  Ni  Ni7  1  0.01247100  0.75083800  0.97299000  1
  Ni  Ni8  1  0.52701000  0.98752900  0.25083800  1
  Ni  Ni9  1  0.02701000  0.51247100  0.74916200  1
  Ni  Ni10  1  0.47299000  0.48752900  0.24916200  1
  Ni  Ni11  1  0.97299000  0.01247100  0.75083800  1
  Ni  Ni12  1  0.74916200  0.47299000  0.01247100  1
  Ni  Ni13  1  0.25083800  0.97299000  0.48752900  1
  Ni  Ni14  1  0.75083800  0.52701000  0.51247100  1
  Ni  Ni15  1  0.24916200  0.02701000  0.98752900  1
  Ni  Ni16  1  0.01247100  0.74916200  0.47299000  1
  Ni  Ni17  1  0.48752900  0.25083800  0.97299000  1
  Ni  Ni18  1  0.51247100  0.75083800  0.52701000  1
  Ni  Ni19  1  0.98752900  0.24916200  0.02701000  1
  Ni  Ni20  1  0.47299000  0.01247100  0.74916200  1
  Ni  Ni21  1  0.97299000  0.48752900  0.25083800  1
  Ni  Ni22  1  0.52701000  0.51247100  0.75083800  1
  Ni  Ni23  1  0.02701000  0.98752900  0.24916200  1
  Ni  Ni24  1  0.27990700  0.72009300  0.22009300  1
  Ni  Ni25  1  0.72009300  0.22009300  0.27990700  1
  Ni  Ni26  1  0.22009300  0.27990700  0.72009300  1
  Ni  Ni27  1  0.77990700  0.77990700  0.77990700  1
  Ni  Ni28  1  0.72009300  0.27990700  0.77990700  1
  Ni  Ni29  1  0.27990700  0.77990700  0.72009300  1
  Ni  Ni30  1  0.77990700  0.72009300  0.27990700  1
  Ni  Ni31  1  0.22009300  0.22009300  0.22009300  1
  Cu  Cu32  1  0.05445600  0.94554400  0.44554400  1
  Cu  Cu33  1  0.94554400  0.44554400  0.05445600  1
  Cu  Cu34  1  0.44554400  0.05445600  0.94554400  1
  Cu  Cu35  1  0.55445600  0.55445600  0.55445600  1
  Cu  Cu36  1  0.94554400  0.05445600  0.55445600  1
  Cu  Cu37  1  0.05445600  0.55445600  0.94554400  1
  Cu  Cu38  1  0.55445600  0.94554400  0.05445600  1
  Cu  Cu39  1  0.44554400  0.44554400  0.44554400  1
  Cu  Cu40  1  0.39601600  0.60398400  0.10398400  1
  Cu  Cu41  1  0.60398400  0.10398400  0.39601600  1
  Cu  Cu42  1  0.10398400  0.39601600  0.60398400  1
  Cu  Cu43  1  0.89601600  0.89601600  0.89601600  1
  Cu  Cu44  1  0.60398400  0.39601600  0.89601600  1
  Cu  Cu45  1  0.39601600  0.89601600  0.60398400  1
  Cu  Cu46  1  0.89601600  0.60398400  0.39601600  1
  Cu  Cu47  1  0.10398400  0.10398400  0.10398400  1
  C  C48  1  0.23450500  0.68557600  0.42970600  1
  C  C49  1  0.76549500  0.18557600  0.07029400  1
  C  C50  1  0.26549500  0.31442400  0.92970600  1
  C  C51  1  0.73450500  0.81442400  0.57029400  1
  C  C52  1  0.42970600  0.23450500  0.68557600  1
  C  C53  1  0.07029400  0.76549500  0.18557600  1
  C  C54  1  0.92970600  0.26549500  0.31442400  1
  C  C55  1  0.57029400  0.73450500  0.81442400  1
  C  C56  1  0.68557600  0.42970600  0.23450500  1
  C  C57  1  0.18557600  0.07029400  0.76549500  1
  C  C58  1  0.31442400  0.92970600  0.26549500  1
  C  C59  1  0.81442400  0.57029400  0.73450500  1
  C  C60  1  0.76549500  0.31442400  0.57029400  1
  C  C61  1  0.23450500  0.81442400  0.92970600  1
  C  C62  1  0.73450500  0.68557600  0.07029400  1
  C  C63  1  0.26549500  0.18557600  0.42970600  1
  C  C64  1  0.57029400  0.76549500  0.31442400  1
  C  C65  1  0.92970600  0.23450500  0.81442400  1
  C  C66  1  0.07029400  0.73450500  0.68557600  1
  C  C67  1  0.42970600  0.26549500  0.18557600  1
  C  C68  1  0.31442400  0.57029400  0.76549500  1
  C  C69  1  0.81442400  0.92970600  0.23450500  1
  C  C70  1  0.68557600  0.07029400  0.73450500  1
  C  C71  1  0.18557600  0.42970600  0.26549500  1
