# generated using pymatgen
data_Cu7(Ni2C)2
_symmetry_space_group_name_H-M   'P 1'
_cell_length_a   7.37257200
_cell_length_b   12.79351600
_cell_length_c   11.07058958
_cell_angle_alpha   90.00000000
_cell_angle_beta   110.36390773
_cell_angle_gamma   90.00000000
_symmetry_Int_Tables_number   1
_chemical_formula_structural   Cu7(Ni2C)2
_chemical_formula_sum   'Cu28 Ni16 C8'
_cell_volume   978.92992551
_cell_formula_units_Z   4
loop_
 _symmetry_equiv_pos_site_id
 _symmetry_equiv_pos_as_xyz
  1  'x, y, z'
loop_
 _atom_site_type_symbol
 _atom_site_label
 _atom_site_symmetry_multiplicity
 _atom_site_fract_x
 _atom_site_fract_y
 _atom_site_fract_z
 _atom_site_occupancy
  C  C0  1  0.50000000  0.00000000  0.50000000  1
  C  C1  1  0.50000000  0.50000000  0.00000000  1
  C  C2  1  0.50000000  0.00000000  0.00000000  1
  C  C3  1  0.50000000  0.50000000  0.50000000  1
  C  C4  1  0.21051400  0.21413700  0.15104100  1
  C  C5  1  0.21051400  0.28586300  0.65104100  1
  C  C6  1  0.78948600  0.78586300  0.84895900  1
  C  C7  1  0.78948600  0.71413700  0.34895900  1
  Ni  Ni8  1  0.90117300  0.34035400  0.04860800  1
  Ni  Ni9  1  0.90117300  0.15964600  0.54860800  1
  Ni  Ni10  1  0.09882700  0.65964600  0.95139200  1
  Ni  Ni11  1  0.09882700  0.84035400  0.45139200  1
  Ni  Ni12  1  0.17075000  0.98854500  0.17979000  1
  Ni  Ni13  1  0.17075000  0.51145500  0.67979000  1
  Ni  Ni14  1  0.82925000  0.01145500  0.82021000  1
  Ni  Ni15  1  0.82925000  0.48854500  0.32021000  1
  Ni  Ni16  1  0.49245500  0.32454700  0.26714700  1
  Ni  Ni17  1  0.49245500  0.17545300  0.76714700  1
  Ni  Ni18  1  0.50754500  0.67545300  0.73285300  1
  Ni  Ni19  1  0.50754500  0.82454700  0.23285300  1
  Ni  Ni20  1  0.14702700  0.19212700  0.37994200  1
  Ni  Ni21  1  0.14702700  0.30787300  0.87994200  1
  Ni  Ni22  1  0.85297300  0.80787300  0.62005800  1
  Ni  Ni23  1  0.85297300  0.69212700  0.12005800  1
  Cu  Cu24  1  0.25323800  0.90363000  0.37115300  1
  Cu  Cu25  1  0.25323800  0.59637000  0.87115300  1
  Cu  Cu26  1  0.74676200  0.09637000  0.62884700  1
  Cu  Cu27  1  0.74676200  0.40363000  0.12884700  1
  Cu  Cu28  1  0.36113000  0.14101900  0.50312600  1
  Cu  Cu29  1  0.36113000  0.35898100  0.00312600  1
  Cu  Cu30  1  0.63887000  0.85898100  0.49687400  1
  Cu  Cu31  1  0.63887000  0.64101900  0.99687400  1
  Cu  Cu32  1  0.53880400  0.06757800  0.33070800  1
  Cu  Cu33  1  0.53880400  0.43242200  0.83070800  1
  Cu  Cu34  1  0.46119600  0.93242200  0.66929200  1
  Cu  Cu35  1  0.46119600  0.56757800  0.16929200  1
  Cu  Cu36  1  0.50019100  0.14305000  0.92366800  1
  Cu  Cu37  1  0.50019100  0.35695000  0.42366800  1
  Cu  Cu38  1  0.49980900  0.85695000  0.07633200  1
  Cu  Cu39  1  0.49980900  0.64305000  0.57633200  1
  Cu  Cu40  1  0.21121300  0.08495800  0.06198200  1
  Cu  Cu41  1  0.21121300  0.41504200  0.56198200  1
  Cu  Cu42  1  0.78878700  0.91504200  0.93801800  1
  Cu  Cu43  1  0.78878700  0.58495800  0.43801800  1
  Cu  Cu44  1  0.68110000  0.05317500  0.18056300  1
  Cu  Cu45  1  0.68110000  0.44682500  0.68056300  1
  Cu  Cu46  1  0.31890000  0.94682500  0.81943700  1
  Cu  Cu47  1  0.31890000  0.55317500  0.31943700  1
  Cu  Cu48  1  0.67870400  0.02208900  0.29498900  1
  Cu  Cu49  1  0.67870400  0.47791100  0.79498900  1
  Cu  Cu50  1  0.32129600  0.97791100  0.70501100  1
  Cu  Cu51  1  0.32129600  0.52208900  0.20501100  1
