# generated using pymatgen
data_Cu12Ni3C4
_symmetry_space_group_name_H-M   'P 1'
_cell_length_a   11.27702916
_cell_length_b   11.27702916
_cell_length_c   11.27702825
_cell_angle_alpha   114.79190583
_cell_angle_beta   114.79190583
_cell_angle_gamma   114.79190458
_symmetry_Int_Tables_number   1
_chemical_formula_structural   Cu12Ni3C4
_chemical_formula_sum   'Cu24 Ni6 C8'
_cell_volume   817.62319632
_cell_formula_units_Z   2
loop_
 _symmetry_equiv_pos_site_id
 _symmetry_equiv_pos_as_xyz
  1  'x, y, z'
loop_
 _atom_site_type_symbol
 _atom_site_label
 _atom_site_symmetry_multiplicity
 _atom_site_fract_x
 _atom_site_fract_y
 _atom_site_fract_z
 _atom_site_occupancy
  C  C0  1  0.50143000  0.50143000  0.50143000  1
  C  C1  1  0.00143000  0.00143000  0.00143000  1
  C  C2  1  0.52884500  0.06949100  0.29339400  1
  C  C3  1  0.06949100  0.29339400  0.52884500  1
  C  C4  1  0.29339400  0.52884500  0.06949100  1
  C  C5  1  0.79339400  0.56949100  0.02884500  1
  C  C6  1  0.56949100  0.02884500  0.79339400  1
  C  C7  1  0.02884500  0.79339400  0.56949100  1
  Ni  Ni8  1  0.53242800  0.35924300  0.14628000  1
  Ni  Ni9  1  0.35924300  0.14628000  0.53242800  1
  Ni  Ni10  1  0.14628000  0.53242800  0.35924300  1
  Ni  Ni11  1  0.64628000  0.85924300  0.03242800  1
  Ni  Ni12  1  0.85924300  0.03242800  0.64628000  1
  Ni  Ni13  1  0.03242800  0.64628000  0.85924300  1
  Cu  Cu14  1  0.71709100  0.11100400  0.18660200  1
  Cu  Cu15  1  0.11100400  0.18660200  0.71709100  1
  Cu  Cu16  1  0.18660200  0.71709100  0.11100400  1
  Cu  Cu17  1  0.68660200  0.61100400  0.21709100  1
  Cu  Cu18  1  0.61100400  0.21709100  0.68660200  1
  Cu  Cu19  1  0.21709100  0.68660200  0.61100400  1
  Cu  Cu20  1  0.31555400  0.31430900  0.12847100  1
  Cu  Cu21  1  0.31430900  0.12847100  0.31555400  1
  Cu  Cu22  1  0.12847100  0.31555400  0.31430900  1
  Cu  Cu23  1  0.62847100  0.81430900  0.81555400  1
  Cu  Cu24  1  0.81430900  0.81555400  0.62847100  1
  Cu  Cu25  1  0.81555400  0.62847100  0.81430900  1
  Cu  Cu26  1  0.70145800  0.41375600  0.38243500  1
  Cu  Cu27  1  0.41375600  0.38243500  0.70145800  1
  Cu  Cu28  1  0.38243500  0.70145800  0.41375600  1
  Cu  Cu29  1  0.88243500  0.91375600  0.20145800  1
  Cu  Cu30  1  0.91375600  0.20145800  0.88243500  1
  Cu  Cu31  1  0.20145800  0.88243500  0.91375600  1
  Cu  Cu32  1  0.37987400  0.64689300  0.91844400  1
  Cu  Cu33  1  0.64689300  0.91844400  0.37987400  1
  Cu  Cu34  1  0.91844400  0.37987400  0.64689300  1
  Cu  Cu35  1  0.41844400  0.14689300  0.87987400  1
  Cu  Cu36  1  0.14689300  0.87987400  0.41844400  1
  Cu  Cu37  1  0.87987400  0.41844400  0.14689300  1
