# generated using pymatgen
data_Cu2Ni2C45
_symmetry_space_group_name_H-M   'P 1'
_cell_length_a   12.10961206
_cell_length_b   12.10961206
_cell_length_c   8.69069288
_cell_angle_alpha   87.33952307
_cell_angle_beta   87.33952307
_cell_angle_gamma   152.50069117
_symmetry_Int_Tables_number   1
_chemical_formula_structural   Cu2Ni2C45
_chemical_formula_sum   'Cu2 Ni2 C45'
_cell_volume   577.12039297
_cell_formula_units_Z   1
loop_
 _symmetry_equiv_pos_site_id
 _symmetry_equiv_pos_as_xyz
  1  'x, y, z'
loop_
 _atom_site_type_symbol
 _atom_site_label
 _atom_site_symmetry_multiplicity
 _atom_site_fract_x
 _atom_site_fract_y
 _atom_site_fract_z
 _atom_site_occupancy
  C  C0  1  0.07172100  0.50988000  0.66519700  1
  C  C1  1  0.49012000  0.92827900  0.33480300  1
  C  C2  1  0.92827900  0.49012000  0.33480300  1
  C  C3  1  0.50988000  0.07172100  0.66519700  1
  C  C4  1  0.89449700  0.60602500  0.63675400  1
  C  C5  1  0.66817000  0.80663500  0.34971900  1
  C  C6  1  0.39397500  0.10550300  0.36324600  1
  C  C7  1  0.10550300  0.39397500  0.36324600  1
  C  C8  1  0.33183000  0.19336500  0.65028100  1
  C  C9  1  0.28496100  0.71503900  0.00000000  1
  C  C10  1  0.19336500  0.33183000  0.65028100  1
  C  C11  1  0.00000000  0.00000000  0.00000000  1
  C  C12  1  0.42638400  0.57361600  0.00000000  1
  C  C13  1  0.80663500  0.66817000  0.34971900  1
  C  C14  1  0.60602500  0.89449700  0.63675400  1
  C  C15  1  0.57361600  0.42638400  0.00000000  1
  C  C16  1  0.71503900  0.28496100  0.00000000  1
  Ni  Ni17  1  0.23666000  0.23666000  0.32082400  1
  Ni  Ni18  1  0.76334000  0.76334000  0.67917600  1
  Cu  Cu19  1  0.85985300  0.14014700  0.00000000  1
  Cu  Cu20  1  0.14014700  0.85985300  0.00000000  1
  C  C21  1  0.66302900  0.96880800  0.39313400  1
  C  C22  1  0.17154100  0.62408100  0.37408800  1
  C  C23  1  0.95111400  0.95111400  0.33557200  1
  C  C24  1  0.35449800  0.35449800  0.13086900  1
  C  C25  1  0.82845900  0.37591900  0.62591200  1
  C  C26  1  0.33697100  0.03119200  0.60686600  1
  C  C27  1  0.99576400  0.55499200  0.12134700  1
  C  C28  1  0.00423600  0.44500800  0.87865300  1
  C  C29  1  0.64550200  0.64550200  0.86913100  1
  C  C30  1  0.14751700  0.28712000  0.89129900  1
  C  C31  1  0.26183500  0.38068000  0.40120600  1
  C  C32  1  0.03119200  0.33697100  0.60686600  1
  C  C33  1  0.44500800  0.00423600  0.87865300  1
  C  C34  1  0.71288000  0.85248300  0.10870100  1
  C  C35  1  0.61932000  0.73816500  0.59879400  1
  C  C36  1  0.04888600  0.04888600  0.66442800  1
  C  C37  1  0.28712000  0.14751700  0.89129900  1
  C  C38  1  0.85248300  0.71288000  0.10870100  1
  C  C39  1  0.55499200  0.99576400  0.12134700  1
  C  C40  1  0.18819400  0.47320400  0.12192200  1
  C  C41  1  0.81180600  0.52679600  0.87807800  1
  C  C42  1  0.38068000  0.26183500  0.40120600  1
  C  C43  1  0.47320400  0.18819400  0.12192200  1
  C  C44  1  0.62408100  0.17154100  0.37408800  1
  C  C45  1  0.73816500  0.61932000  0.59879400  1
  C  C46  1  0.52679600  0.81180600  0.87807800  1
  C  C47  1  0.96880800  0.66302900  0.39313400  1
  C  C48  1  0.37591900  0.82845900  0.62591200  1
