# generated using pymatgen
data_Cu14Ni2C15
_symmetry_space_group_name_H-M   'P 1'
_cell_length_a   12.64051600
_cell_length_b   6.31594200
_cell_length_c   9.30106988
_cell_angle_alpha   74.58247917
_cell_angle_beta   90.00000000
_cell_angle_gamma   90.00000000
_symmetry_Int_Tables_number   1
_chemical_formula_structural   Cu14Ni2C15
_chemical_formula_sum   'Cu28 Ni4 C30'
_cell_volume   715.84542386
_cell_formula_units_Z   2
loop_
 _symmetry_equiv_pos_site_id
 _symmetry_equiv_pos_as_xyz
  1  'x, y, z'
loop_
 _atom_site_type_symbol
 _atom_site_label
 _atom_site_symmetry_multiplicity
 _atom_site_fract_x
 _atom_site_fract_y
 _atom_site_fract_z
 _atom_site_occupancy
  C  C0  1  0.14981200  0.65389700  0.62864900  1
  C  C1  1  0.64981200  0.34610300  0.87135100  1
  C  C2  1  0.85018800  0.34610300  0.37135100  1
  C  C3  1  0.35018800  0.65389700  0.12864900  1
  C  C4  1  0.50000000  0.00000000  0.50000000  1
  C  C5  1  0.00000000  0.00000000  0.00000000  1
  C  C6  1  0.40573200  0.68255800  0.71300600  1
  C  C7  1  0.90573200  0.31744200  0.78699400  1
  C  C8  1  0.59426800  0.31744200  0.28699400  1
  C  C9  1  0.09426800  0.68255800  0.21300600  1
  C  C10  1  0.37162500  0.91252300  0.74324400  1
  C  C11  1  0.87162500  0.08747700  0.75675600  1
  C  C12  1  0.62837500  0.08747700  0.25675600  1
  C  C13  1  0.12837500  0.91252300  0.24324400  1
  C  C14  1  0.40041100  0.06656800  0.22953400  1
  C  C15  1  0.90041100  0.93343200  0.27046600  1
  C  C16  1  0.59958900  0.93343200  0.77046600  1
  C  C17  1  0.09958900  0.06656800  0.72953400  1
  C  C18  1  0.31246500  0.00784100  0.35634900  1
  C  C19  1  0.81246500  0.99215900  0.14365100  1
  C  C20  1  0.68753500  0.99215900  0.64365100  1
  C  C21  1  0.18753500  0.00784100  0.85634900  1
  C  C22  1  0.56021100  0.65502700  0.40407000  1
  C  C23  1  0.06021100  0.34497300  0.09593000  1
  C  C24  1  0.43978900  0.34497300  0.59593000  1
  C  C25  1  0.93978900  0.65502700  0.90407000  1
  C  C26  1  0.64232500  0.66425700  0.53113400  1
  C  C27  1  0.14232500  0.33574300  0.96886600  1
  C  C28  1  0.35767500  0.33574300  0.46886600  1
  C  C29  1  0.85767500  0.66425700  0.03113400  1
  Ni  Ni30  1  0.35983700  0.26914300  0.90338100  1
  Ni  Ni31  1  0.85983700  0.73085700  0.59661900  1
  Ni  Ni32  1  0.64016300  0.73085700  0.09661900  1
  Ni  Ni33  1  0.14016300  0.26914300  0.40338100  1
  Cu  Cu34  1  0.26651200  0.41139000  0.91165300  1
  Cu  Cu35  1  0.76651200  0.58861000  0.58834700  1
  Cu  Cu36  1  0.73348800  0.58861000  0.08834700  1
  Cu  Cu37  1  0.23348800  0.41139000  0.41165300  1
  Cu  Cu38  1  0.42225700  0.22551000  0.04396700  1
  Cu  Cu39  1  0.92225700  0.77449000  0.45603300  1
  Cu  Cu40  1  0.57774300  0.77449000  0.95603300  1
  Cu  Cu41  1  0.07774300  0.22551000  0.54396700  1
  Cu  Cu42  1  0.42861300  0.38927800  0.77615300  1
  Cu  Cu43  1  0.92861300  0.61072200  0.72384700  1
  Cu  Cu44  1  0.57138700  0.61072200  0.22384700  1
  Cu  Cu45  1  0.07138700  0.38927800  0.27615300  1
  Cu  Cu46  1  0.32242300  0.05697600  0.87693200  1
  Cu  Cu47  1  0.82242300  0.94302400  0.62306800  1
  Cu  Cu48  1  0.67757700  0.94302400  0.12306800  1
  Cu  Cu49  1  0.17757700  0.05697600  0.37693200  1
  Cu  Cu50  1  0.38354500  0.83587900  0.66457600  1
  Cu  Cu51  1  0.88354500  0.16412100  0.83542400  1
  Cu  Cu52  1  0.61645500  0.16412100  0.33542400  1
  Cu  Cu53  1  0.11645500  0.83587900  0.16457600  1
  Cu  Cu54  1  0.38635800  0.97373500  0.33183100  1
  Cu  Cu55  1  0.88635800  0.02626500  0.16816900  1
  Cu  Cu56  1  0.61364200  0.02626500  0.66816900  1
  Cu  Cu57  1  0.11364200  0.97373500  0.83183100  1
  Cu  Cu58  1  0.56679300  0.69285400  0.50075700  1
  Cu  Cu59  1  0.06679300  0.30714600  0.99924300  1
  Cu  Cu60  1  0.43320700  0.30714600  0.49924300  1
  Cu  Cu61  1  0.93320700  0.69285400  0.00075700  1
