# generated using pymatgen
data_Cu2Ni2C
_symmetry_space_group_name_H-M   'P 1'
_cell_length_a   6.95201231
_cell_length_b   6.95201231
_cell_length_c   6.95201231
_cell_angle_alpha   135.59513619
_cell_angle_beta   125.83600713
_cell_angle_gamma   72.54957119
_symmetry_Int_Tables_number   1
_chemical_formula_structural   Cu2Ni2C
_chemical_formula_sum   'Cu4 Ni4 C2'
_cell_volume   186.40035456
_cell_formula_units_Z   2
loop_
 _symmetry_equiv_pos_site_id
 _symmetry_equiv_pos_as_xyz
  1  'x, y, z'
loop_
 _atom_site_type_symbol
 _atom_site_label
 _atom_site_symmetry_multiplicity
 _atom_site_fract_x
 _atom_site_fract_y
 _atom_site_fract_z
 _atom_site_occupancy
  C  C0  1  0.00000000  0.75000000  0.75000000  1
  C  C1  1  0.00000000  0.25000000  0.25000000  1
  Ni  Ni2  1  0.07098700  0.35605100  0.71493500  1
  Ni  Ni3  1  0.92901300  0.64394900  0.28506500  1
  Ni  Ni4  1  0.35888400  0.14394900  0.21493500  1
  Ni  Ni5  1  0.64111600  0.85605100  0.78506500  1
  Cu  Cu6  1  0.47339600  0.60590100  0.86749500  1
  Cu  Cu7  1  0.26159400  0.89409900  0.36749500  1
  Cu  Cu8  1  0.73840600  0.10590100  0.63250500  1
  Cu  Cu9  1  0.52660400  0.39409900  0.13250500  1
