# generated using pymatgen
data_Cu6Ni6C5
_symmetry_space_group_name_H-M   'P 1'
_cell_length_a   12.56521600
_cell_length_b   4.78020900
_cell_length_c   12.59855930
_cell_angle_alpha   80.14492962
_cell_angle_beta   90.00000000
_cell_angle_gamma   90.00000000
_symmetry_Int_Tables_number   1
_chemical_formula_structural   Cu6Ni6C5
_chemical_formula_sum   'Cu12 Ni12 C10'
_cell_volume   745.55804110
_cell_formula_units_Z   2
loop_
 _symmetry_equiv_pos_site_id
 _symmetry_equiv_pos_as_xyz
  1  'x, y, z'
loop_
 _atom_site_type_symbol
 _atom_site_label
 _atom_site_symmetry_multiplicity
 _atom_site_fract_x
 _atom_site_fract_y
 _atom_site_fract_z
 _atom_site_occupancy
  C  C0  1  0.00000000  0.00000000  0.00000000  1
  C  C1  1  0.50000000  0.00000000  0.50000000  1
  C  C2  1  0.88249400  0.50299400  0.30201700  1
  C  C3  1  0.11750600  0.49700600  0.69798300  1
  C  C4  1  0.38249400  0.49700600  0.19798300  1
  C  C5  1  0.61750600  0.50299400  0.80201700  1
  C  C6  1  0.58366400  0.36052400  0.27878800  1
  C  C7  1  0.41633600  0.63947600  0.72121200  1
  C  C8  1  0.08366400  0.63947600  0.22121200  1
  C  C9  1  0.91633600  0.36052400  0.77878800  1
  Ni  Ni10  1  0.97134500  0.61110400  0.27275300  1
  Ni  Ni11  1  0.02865500  0.38889600  0.72724700  1
  Ni  Ni12  1  0.47134500  0.38889600  0.22724700  1
  Ni  Ni13  1  0.52865500  0.61110400  0.77275300  1
  Ni  Ni14  1  0.79694400  0.41250200  0.33164400  1
  Ni  Ni15  1  0.20305600  0.58749800  0.66835600  1
  Ni  Ni16  1  0.29694400  0.58749800  0.16835600  1
  Ni  Ni17  1  0.70305600  0.41250200  0.83164400  1
  Ni  Ni18  1  0.78841300  0.94921600  0.03416300  1
  Ni  Ni19  1  0.21158700  0.05078400  0.96583700  1
  Ni  Ni20  1  0.28841300  0.05078400  0.46583700  1
  Ni  Ni21  1  0.71158700  0.94921600  0.53416300  1
  Cu  Cu22  1  0.66365600  0.81138800  0.46751800  1
  Cu  Cu23  1  0.33634400  0.18861200  0.53248200  1
  Cu  Cu24  1  0.16365600  0.18861200  0.03248200  1
  Cu  Cu25  1  0.83634400  0.81138800  0.96751800  1
  Cu  Cu26  1  0.35042400  0.89797400  0.41435800  1
  Cu  Cu27  1  0.64957600  0.10202600  0.58564200  1
  Cu  Cu28  1  0.85042400  0.10202600  0.08564200  1
  Cu  Cu29  1  0.14957600  0.89797400  0.91435800  1
  Cu  Cu30  1  0.69247300  0.93839200  0.04851900  1
  Cu  Cu31  1  0.30752700  0.06160800  0.95148100  1
  Cu  Cu32  1  0.19247300  0.06160800  0.45148100  1
  Cu  Cu33  1  0.80752700  0.93839200  0.54851900  1
