# generated using pymatgen
data_Cu2NiC8
_symmetry_space_group_name_H-M   'P 1'
_cell_length_a   8.38315500
_cell_length_b   10.20683786
_cell_length_c   10.24793520
_cell_angle_alpha   94.46421638
_cell_angle_beta   90.00000000
_cell_angle_gamma   90.00000000
_symmetry_Int_Tables_number   1
_chemical_formula_structural   Cu2NiC8
_chemical_formula_sum   'Cu12 Ni6 C48'
_cell_volume   874.20943907
_cell_formula_units_Z   6
loop_
 _symmetry_equiv_pos_site_id
 _symmetry_equiv_pos_as_xyz
  1  'x, y, z'
loop_
 _atom_site_type_symbol
 _atom_site_label
 _atom_site_symmetry_multiplicity
 _atom_site_fract_x
 _atom_site_fract_y
 _atom_site_fract_z
 _atom_site_occupancy
  Ni  Ni0  1  0.43160500  0.13524700  0.57220700  1
  Ni  Ni1  1  0.92293400  0.50000000  0.75000000  1
  Ni  Ni2  1  0.43160500  0.86475300  0.92779300  1
  Ni  Ni3  1  0.07706600  0.50000000  0.25000000  1
  Ni  Ni4  1  0.56839500  0.86475300  0.42779300  1
  Ni  Ni5  1  0.56839500  0.13524700  0.07220700  1
  Cu  Cu6  1  0.22955200  0.16465800  0.28657800  1
  Cu  Cu7  1  0.74286200  0.16840900  0.37671600  1
  Cu  Cu8  1  0.25713800  0.16840900  0.87671600  1
  Cu  Cu9  1  0.77044800  0.16465800  0.78657800  1
  Cu  Cu10  1  0.26945700  0.48454100  0.95684100  1
  Cu  Cu11  1  0.74286200  0.83159100  0.12328400  1
  Cu  Cu12  1  0.73054300  0.48454100  0.45684100  1
  Cu  Cu13  1  0.25713800  0.83159100  0.62328400  1
  Cu  Cu14  1  0.26945700  0.51545900  0.54315900  1
  Cu  Cu15  1  0.73054300  0.51545900  0.04315900  1
  Cu  Cu16  1  0.77044800  0.83534200  0.71342200  1
  Cu  Cu17  1  0.22955200  0.83534200  0.21342200  1
  C  C18  1  0.93555900  0.80715600  0.40965900  1
  C  C19  1  0.06444100  0.19284400  0.59034100  1
  C  C20  1  0.44470900  0.50000000  0.25000000  1
  C  C21  1  0.93555900  0.19284400  0.09034100  1
  C  C22  1  0.55529100  0.50000000  0.75000000  1
  C  C23  1  0.06444100  0.80715600  0.90965900  1
  C  C24  1  0.75733600  0.18885300  0.95629100  1
  C  C25  1  0.75741600  0.83901100  0.29218900  1
  C  C26  1  0.83988000  0.00000000  0.75000000  1
  C  C27  1  0.90701600  0.50010000  0.11368900  1
  C  C28  1  0.40487600  0.93291000  0.56756700  1
  C  C29  1  0.91586000  0.26222100  0.72237000  1
  C  C30  1  0.34420600  0.32086800  0.92777400  1
  C  C31  1  0.09298400  0.50010000  0.61368900  1
  C  C32  1  0.73184200  0.48312000  0.87415900  1
  C  C33  1  0.40487600  0.06709000  0.93243300  1
  C  C34  1  0.73184200  0.51688000  0.62584100  1
  C  C35  1  0.40856300  0.57236400  0.87990500  1
  C  C36  1  0.91539900  0.85567900  0.04568100  1
  C  C37  1  0.08414000  0.26222100  0.22237000  1
  C  C38  1  0.65579400  0.67913200  0.07222600  1
  C  C39  1  0.34420600  0.67913200  0.57222600  1
  C  C40  1  0.91586000  0.73777900  0.77763000  1
  C  C41  1  0.59512400  0.06709000  0.43243300  1
  C  C42  1  0.24266400  0.18885300  0.45629100  1
  C  C43  1  0.59143700  0.42763600  0.12009500  1
  C  C44  1  0.40019100  0.81220200  0.29142700  1
  C  C45  1  0.26815800  0.51688000  0.12584100  1
  C  C46  1  0.08460100  0.85567900  0.54568100  1
  C  C47  1  0.26815800  0.48312000  0.37415900  1
  C  C48  1  0.90701600  0.49990000  0.38631100  1
  C  C49  1  0.59143700  0.57236400  0.37990500  1
  C  C50  1  0.09298400  0.49990000  0.88631100  1
  C  C51  1  0.59980900  0.81220200  0.79142700  1
  C  C52  1  0.59980900  0.18779800  0.70857300  1
  C  C53  1  0.08460100  0.14432100  0.95431900  1
  C  C54  1  0.08414000  0.73777900  0.27763000  1
  C  C55  1  0.75733600  0.81114700  0.54370900  1
  C  C56  1  0.16012000  0.00000000  0.25000000  1
  C  C57  1  0.24258400  0.83901100  0.79218900  1
  C  C58  1  0.59512400  0.93291000  0.06756700  1
  C  C59  1  0.91539900  0.14432100  0.45431900  1
  C  C60  1  0.24266400  0.81114700  0.04370900  1
  C  C61  1  0.75741600  0.16098900  0.20781100  1
  C  C62  1  0.40856300  0.42763600  0.62009500  1
  C  C63  1  0.65579400  0.32086800  0.42777400  1
  C  C64  1  0.24258400  0.16098900  0.70781100  1
  C  C65  1  0.40019100  0.18779800  0.20857300  1
