# generated using pymatgen
data_CuNiC8
_symmetry_space_group_name_H-M   'P 1'
_cell_length_a   9.06014800
_cell_length_b   5.44673400
_cell_length_c   9.86147555
_cell_angle_alpha   76.58865934
_cell_angle_beta   90.00000000
_cell_angle_gamma   90.00000000
_symmetry_Int_Tables_number   1
_chemical_formula_structural   CuNiC8
_chemical_formula_sum   'Cu4 Ni4 C32'
_cell_volume   473.37537894
_cell_formula_units_Z   4
loop_
 _symmetry_equiv_pos_site_id
 _symmetry_equiv_pos_as_xyz
  1  'x, y, z'
loop_
 _atom_site_type_symbol
 _atom_site_label
 _atom_site_symmetry_multiplicity
 _atom_site_fract_x
 _atom_site_fract_y
 _atom_site_fract_z
 _atom_site_occupancy
  Ni  Ni0  1  0.49127600  0.55914700  0.24499300  1
  Ni  Ni1  1  0.99127600  0.94085300  0.75500700  1
  Ni  Ni2  1  0.50872400  0.44085300  0.75500700  1
  Ni  Ni3  1  0.00872400  0.05914700  0.24499300  1
  Cu  Cu4  1  0.65386800  0.05073500  0.24435500  1
  Cu  Cu5  1  0.15386800  0.44926500  0.75564500  1
  Cu  Cu6  1  0.34613200  0.94926500  0.75564500  1
  Cu  Cu7  1  0.84613200  0.55073500  0.24435500  1
  C  C8  1  0.33889300  0.17461800  0.05580800  1
  C  C9  1  0.83889300  0.32538200  0.94419200  1
  C  C10  1  0.66110700  0.82538200  0.94419200  1
  C  C11  1  0.16110700  0.67461800  0.05580800  1
  C  C12  1  0.34400900  0.76253900  0.45903900  1
  C  C13  1  0.84400900  0.73746100  0.54096100  1
  C  C14  1  0.65599100  0.23746100  0.54096100  1
  C  C15  1  0.15599100  0.26253900  0.45903900  1
  C  C16  1  0.28873200  0.49915300  0.38651000  1
  C  C17  1  0.78873200  0.00084700  0.61349000  1
  C  C18  1  0.71126800  0.50084700  0.61349000  1
  C  C19  1  0.21126800  0.99915300  0.38651000  1
  C  C20  1  0.32181700  0.83129300  0.11111300  1
  C  C21  1  0.82181700  0.66870700  0.88888700  1
  C  C22  1  0.67818300  0.16870700  0.88888700  1
  C  C23  1  0.17818300  0.33129300  0.11111300  1
  C  C24  1  0.98712900  0.30827600  0.37354600  1
  C  C25  1  0.48712900  0.19172400  0.62645400  1
  C  C26  1  0.01287100  0.69172400  0.62645400  1
  C  C27  1  0.51287100  0.80827600  0.37354600  1
  C  C28  1  0.01379000  0.77727600  0.14055600  1
  C  C29  1  0.51379000  0.72272400  0.85944400  1
  C  C30  1  0.98621000  0.22272400  0.85944400  1
  C  C31  1  0.48621000  0.27727600  0.14055600  1
  C  C32  1  0.33875300  0.23983200  0.87098900  1
  C  C33  1  0.83875300  0.26016800  0.12901100  1
  C  C34  1  0.66124700  0.76016800  0.12901100  1
  C  C35  1  0.16124700  0.73983200  0.87098900  1
  C  C36  1  0.34195000  0.67180500  0.64244000  1
  C  C37  1  0.84195000  0.82819500  0.35756000  1
  C  C38  1  0.65805000  0.32819500  0.35756000  1
  C  C39  1  0.15805000  0.17180500  0.64244000  1
