# generated using pymatgen
data_Cu20NiC20
_symmetry_space_group_name_H-M   'P 1'
_cell_length_a   6.06503322
_cell_length_b   9.33685226
_cell_length_c   12.96634888
_cell_angle_alpha   95.84467493
_cell_angle_beta   91.87379208
_cell_angle_gamma   86.97279578
_symmetry_Int_Tables_number   1
_chemical_formula_structural   Cu20NiC20
_chemical_formula_sum   'Cu20 Ni1 C20'
_cell_volume   729.15038156
_cell_formula_units_Z   1
loop_
 _symmetry_equiv_pos_site_id
 _symmetry_equiv_pos_as_xyz
  1  'x, y, z'
loop_
 _atom_site_type_symbol
 _atom_site_label
 _atom_site_symmetry_multiplicity
 _atom_site_fract_x
 _atom_site_fract_y
 _atom_site_fract_z
 _atom_site_occupancy
  Ni  Ni0  1  0.14400848  0.00156593  0.83025788  1
  Cu  Cu1  1  0.21532291  0.69557206  0.14635314  1
  Cu  Cu2  1  0.79447850  0.81249463  0.62751822  1
  Cu  Cu3  1  0.02104918  0.44392928  0.03173264  1
  Cu  Cu4  1  0.51834332  0.02409498  0.48085463  1
  Cu  Cu5  1  0.05898478  0.17383821  0.63055294  1
  Cu  Cu6  1  0.36432540  0.63195259  0.84183602  1
  Cu  Cu7  1  0.97417682  0.87247079  0.34544159  1
  Cu  Cu8  1  0.53737842  0.33950064  0.16384612  1
  Cu  Cu9  1  0.53346984  0.99097446  0.23923874  1
  Cu  Cu10  1  0.96883819  0.47753590  0.26819831  1
  Cu  Cu11  1  0.53990979  0.06485350  0.73527914  1
  Cu  Cu12  1  0.00550688  0.47905220  0.73951447  1
  Cu  Cu13  1  0.55197260  0.06705145  0.94753232  1
  Cu  Cu14  1  0.00937370  0.53610468  0.49791738  1
  Cu  Cu15  1  0.27734974  0.28401166  0.86281919  1
  Cu  Cu16  1  0.29240745  0.81505985  0.62996084  1
  Cu  Cu17  1  0.71108982  0.69552164  0.15472710  1
  Cu  Cu18  1  0.75827970  0.24044779  0.36360699  1
  Cu  Cu19  1  0.76523495  0.29044704  0.86157273  1
  Cu  Cu20  1  0.25572682  0.24240344  0.36294526  1
  C  C21  1  0.53709921  0.40355298  0.60839789  1
  C  C22  1  0.84053704  0.77440119  0.92390690  1
  C  C23  1  0.48015880  0.64318469  0.39076330  1
  C  C24  1  0.02230530  0.09470918  0.11753489  1
  C  C25  1  0.11166846  0.31798598  0.15423087  1
  C  C26  1  0.40526804  0.87319247  0.35967883  1
  C  C27  1  0.91943153  0.55101356  0.90069854  1
  C  C28  1  0.64200409  0.17493718  0.59744745  1
  C  C29  1  0.02963518  0.95993959  0.68669849  1
  C  C30  1  0.50345834  0.42747731  0.78777242  1
  C  C31  1  0.00480610  0.14407565  0.93679035  1
  C  C32  1  0.54863614  0.67066222  0.57087353  1
  C  C33  1  0.94036011  0.81736773  0.08548183  1
  C  C34  1  0.50515524  0.38786988  0.42689990  1
  C  C35  1  0.66252525  0.11619175  0.11738763  1
  C  C36  1  0.84001417  0.65768055  0.37949735  1
  C  C37  1  0.16562517  0.81789871  0.88807956  1
  C  C38  1  0.17390891  0.38938433  0.59867884  1
  C  C39  1  0.00982272  0.09419037  0.29506054  1
  C  C40  1  0.47493590  0.56968796  0.21449826  1
