# generated using pymatgen
data_Cu4Ni9
_symmetry_space_group_name_H-M   'P 1'
_cell_length_a   7.77325003
_cell_length_b   7.77325003
_cell_length_c   7.77325003
_cell_angle_alpha   109.47122063
_cell_angle_beta   109.47122063
_cell_angle_gamma   109.47122063
_symmetry_Int_Tables_number   1
_chemical_formula_structural   Cu4Ni9
_chemical_formula_sum   'Cu8 Ni18'
_cell_volume   361.56469872
_cell_formula_units_Z   2
loop_
 _symmetry_equiv_pos_site_id
 _symmetry_equiv_pos_as_xyz
  1  'x, y, z'
loop_
 _atom_site_type_symbol
 _atom_site_label
 _atom_site_symmetry_multiplicity
 _atom_site_fract_x
 _atom_site_fract_y
 _atom_site_fract_z
 _atom_site_occupancy
  Ni  Ni0  1  0.39504600  0.64376300  0.64376300  1
  Ni  Ni1  1  0.60495400  0.24871700  0.24871700  1
  Ni  Ni2  1  0.00000000  0.35623700  0.75128300  1
  Ni  Ni3  1  0.64376300  0.64376300  0.39504600  1
  Ni  Ni4  1  0.00000000  0.75128300  0.35623700  1
  Ni  Ni5  1  0.24871700  0.24871700  0.60495400  1
  Ni  Ni6  1  0.35623700  0.75128300  0.00000000  1
  Ni  Ni7  1  0.75128300  0.35623700  0.00000000  1
  Ni  Ni8  1  0.64376300  0.39504600  0.64376300  1
  Ni  Ni9  1  0.75128300  0.00000000  0.35623700  1
  Ni  Ni10  1  0.35623700  0.00000000  0.75128300  1
  Ni  Ni11  1  0.24871700  0.60495400  0.24871700  1
  Ni  Ni12  1  0.64360700  0.64360700  0.00000000  1
  Ni  Ni13  1  0.35639300  0.35639300  0.00000000  1
  Ni  Ni14  1  0.64360700  0.00000000  0.64360700  1
  Ni  Ni15  1  0.35639300  0.00000000  0.35639300  1
  Ni  Ni16  1  0.00000000  0.64360700  0.64360700  1
  Ni  Ni17  1  0.00000000  0.35639300  0.35639300  1
  Cu  Cu18  1  0.79347900  0.79347900  0.79347900  1
  Cu  Cu19  1  0.20652100  0.00000000  0.00000000  1
  Cu  Cu20  1  0.00000000  0.20652100  0.00000000  1
  Cu  Cu21  1  0.00000000  0.00000000  0.20652100  1
  Cu  Cu22  1  0.31666100  0.31666100  0.31666100  1
  Cu  Cu23  1  0.68333900  0.00000000  0.00000000  1
  Cu  Cu24  1  0.00000000  0.68333900  0.00000000  1
  Cu  Cu25  1  0.00000000  0.00000000  0.68333900  1
