# generated using pymatgen
data_CuNiC13
_symmetry_space_group_name_H-M   'P 1'
_cell_length_a   5.62321608
_cell_length_b   5.62321608
_cell_length_c   13.54033400
_cell_angle_alpha   90.00000000
_cell_angle_beta   90.00000000
_cell_angle_gamma   120.00000095
_symmetry_Int_Tables_number   1
_chemical_formula_structural   CuNiC13
_chemical_formula_sum   'Cu2 Ni2 C26'
_cell_volume   370.79131169
_cell_formula_units_Z   2
loop_
 _symmetry_equiv_pos_site_id
 _symmetry_equiv_pos_as_xyz
  1  'x, y, z'
loop_
 _atom_site_type_symbol
 _atom_site_label
 _atom_site_symmetry_multiplicity
 _atom_site_fract_x
 _atom_site_fract_y
 _atom_site_fract_z
 _atom_site_occupancy
  C  C0  1  0.00000000  0.00000000  0.50000000  1
  C  C1  1  0.00000000  0.00000000  0.00000000  1
  Ni  Ni2  1  0.33333300  0.66666700  0.33155200  1
  Ni  Ni3  1  0.66666700  0.33333300  0.66844800  1
  Cu  Cu4  1  0.33333300  0.66666700  0.83140800  1
  Cu  Cu5  1  0.66666700  0.33333300  0.16859200  1
  C  C6  1  0.33333300  0.66666700  0.08286700  1
  C  C7  1  0.00000000  0.00000000  0.75085600  1
  C  C8  1  0.66666700  0.33333300  0.41651700  1
  C  C9  1  0.33333300  0.66666700  0.58348300  1
  C  C10  1  0.00000000  0.00000000  0.24914400  1
  C  C11  1  0.66666700  0.33333300  0.91713300  1
  C  C12  1  0.76183300  0.10401500  0.82713100  1
  C  C13  1  0.10401500  0.76183300  0.17286900  1
  C  C14  1  0.47763000  0.47763000  0.50000000  1
  C  C15  1  0.34218200  0.23816700  0.82713100  1
  C  C16  1  0.65781800  0.89598500  0.17286900  1
  C  C17  1  0.00000000  0.52237000  0.50000000  1
  C  C18  1  0.89598500  0.65781800  0.82713100  1
  C  C19  1  0.23816700  0.34218200  0.17286900  1
  C  C20  1  0.52237000  0.00000000  0.50000000  1
  C  C21  1  0.65691700  0.76878600  0.67461500  1
  C  C22  1  0.00000000  0.47542900  0.00000000  1
  C  C23  1  0.34308300  0.11186900  0.32538500  1
  C  C24  1  0.11186900  0.34308300  0.67461500  1
  C  C25  1  0.47542900  0.00000000  0.00000000  1
  C  C26  1  0.76878600  0.65691700  0.32538500  1
  C  C27  1  0.23121400  0.88813100  0.67461500  1
  C  C28  1  0.52457100  0.52457100  0.00000000  1
  C  C29  1  0.88813100  0.23121400  0.32538500  1
