# generated using pymatgen
data_Cu2NiC13
_symmetry_space_group_name_H-M   'P 1'
_cell_length_a   5.43383500
_cell_length_b   8.50717000
_cell_length_c   20.83620380
_cell_angle_alpha   90.00000000
_cell_angle_beta   91.16591278
_cell_angle_gamma   90.00000000
_symmetry_Int_Tables_number   1
_chemical_formula_structural   Cu2NiC13
_chemical_formula_sum   'Cu8 Ni4 C52'
_cell_volume   962.98657335
_cell_formula_units_Z   4
loop_
 _symmetry_equiv_pos_site_id
 _symmetry_equiv_pos_as_xyz
  1  'x, y, z'
loop_
 _atom_site_type_symbol
 _atom_site_label
 _atom_site_symmetry_multiplicity
 _atom_site_fract_x
 _atom_site_fract_y
 _atom_site_fract_z
 _atom_site_occupancy
  C  C0  1  0.41350100  0.08627400  0.64611100  1
  C  C1  1  0.58649900  0.58627400  0.85388900  1
  C  C2  1  0.58649900  0.91372600  0.35388900  1
  C  C3  1  0.41350100  0.41372600  0.14611100  1
  Ni  Ni4  1  0.68930300  0.66663800  0.63575100  1
  Ni  Ni5  1  0.31069700  0.16663800  0.86424900  1
  Ni  Ni6  1  0.31069700  0.33336200  0.36424900  1
  Ni  Ni7  1  0.68930300  0.83336200  0.13575100  1
  Cu  Cu8  1  0.70527000  0.23310300  0.54112800  1
  Cu  Cu9  1  0.29473000  0.73310300  0.95887200  1
  Cu  Cu10  1  0.29473000  0.76689700  0.45887200  1
  Cu  Cu11  1  0.70527000  0.26689700  0.04112800  1
  Cu  Cu12  1  0.96868900  0.31148700  0.48247200  1
  Cu  Cu13  1  0.03131100  0.81148700  0.01752800  1
  Cu  Cu14  1  0.03131100  0.68851300  0.51752800  1
  Cu  Cu15  1  0.96868900  0.18851300  0.98247200  1
  C  C16  1  0.30795400  0.26878700  0.65920800  1
  C  C17  1  0.69204600  0.76878700  0.84079200  1
  C  C18  1  0.69204600  0.73121300  0.34079200  1
  C  C19  1  0.30795400  0.23121300  0.15920800  1
  C  C20  1  0.32502600  0.98512000  0.71094800  1
  C  C21  1  0.67497400  0.48512000  0.78905200  1
  C  C22  1  0.67497400  0.01488000  0.28905200  1
  C  C23  1  0.32502600  0.51488000  0.21094800  1
  C  C24  1  0.74328200  0.11619500  0.66687500  1
  C  C25  1  0.25671800  0.61619500  0.83312500  1
  C  C26  1  0.25671800  0.88380500  0.33312500  1
  C  C27  1  0.74328200  0.38380500  0.16687500  1
  C  C28  1  0.18034100  0.01779500  0.58639500  1
  C  C29  1  0.81965900  0.51779500  0.91360500  1
  C  C30  1  0.81965900  0.98220500  0.41360500  1
  C  C31  1  0.18034100  0.48220500  0.08639500  1
  C  C32  1  0.55850300  0.16263200  0.55081100  1
  C  C33  1  0.44149700  0.66263200  0.94918900  1
  C  C34  1  0.44149700  0.83736800  0.44918900  1
  C  C35  1  0.55850300  0.33736800  0.05081100  1
  C  C36  1  0.90588100  0.32005200  0.52669200  1
  C  C37  1  0.09411900  0.82005200  0.97330800  1
  C  C38  1  0.09411900  0.67994800  0.47330800  1
  C  C39  1  0.90588100  0.17994800  0.02669200  1
  C  C40  1  0.43623300  0.65635700  0.68633600  1
  C  C41  1  0.56376700  0.15635700  0.81366400  1
  C  C42  1  0.56376700  0.34364300  0.31366400  1
  C  C43  1  0.43623300  0.84364300  0.18633600  1
  C  C44  1  0.51692700  0.58971300  0.57131400  1
  C  C45  1  0.48307300  0.08971300  0.92868600  1
  C  C46  1  0.48307300  0.41028700  0.42868600  1
  C  C47  1  0.51692700  0.91028700  0.07131400  1
  C  C48  1  0.80611900  0.48301200  0.65744400  1
  C  C49  1  0.19388100  0.98301200  0.84255600  1
  C  C50  1  0.19388100  0.51698800  0.34255600  1
  C  C51  1  0.80611900  0.01698800  0.15744400  1
  C  C52  1  0.85991900  0.76539400  0.69543100  1
  C  C53  1  0.14008100  0.26539400  0.80456900  1
  C  C54  1  0.14008100  0.23460600  0.30456900  1
  C  C55  1  0.85991900  0.73460600  0.19543100  1
  C  C56  1  0.94539900  0.69843900  0.58250500  1
  C  C57  1  0.05460100  0.19843900  0.91749500  1
  C  C58  1  0.05460100  0.30156100  0.41749500  1
  C  C59  1  0.94539900  0.80156100  0.08250500  1
  C  C60  1  0.58025800  0.86531900  0.60705900  1
  C  C61  1  0.41974200  0.36531900  0.89294100  1
  C  C62  1  0.41974200  0.13468100  0.39294100  1
  C  C63  1  0.58025800  0.63468100  0.10705900  1
