# generated using pymatgen
data_Cu2NiC6
_symmetry_space_group_name_H-M   'P 1'
_cell_length_a   4.28932005
_cell_length_b   39.52235147
_cell_length_c   4.28931993
_cell_angle_alpha   90.00000675
_cell_angle_beta   90.00000199
_cell_angle_gamma   90.00000643
_symmetry_Int_Tables_number   1
_chemical_formula_structural   Cu2NiC6
_chemical_formula_sum   'Cu8 Ni4 C24'
_cell_volume   727.14273392
_cell_formula_units_Z   4
loop_
 _symmetry_equiv_pos_site_id
 _symmetry_equiv_pos_as_xyz
  1  'x, y, z'
loop_
 _atom_site_type_symbol
 _atom_site_label
 _atom_site_symmetry_multiplicity
 _atom_site_fract_x
 _atom_site_fract_y
 _atom_site_fract_z
 _atom_site_occupancy
  C  C0  1  0.50000000  0.04533000  0.50000000  1
  C  C1  1  0.00000000  0.29533000  0.00000000  1
  C  C2  1  0.50000000  0.54533000  0.50000000  1
  C  C3  1  0.00000000  0.79533000  0.00000000  1
  C  C4  1  0.00000000  0.20467000  0.00000000  1
  C  C5  1  0.50000000  0.45467000  0.50000000  1
  C  C6  1  0.00000000  0.70467000  0.00000000  1
  C  C7  1  0.50000000  0.95467000  0.50000000  1
  Ni  Ni8  1  0.00000000  0.50000000  0.00000000  1
  Ni  Ni9  1  0.50000000  0.75000000  0.50000000  1
  Ni  Ni10  1  0.00000000  0.00000000  0.00000000  1
  Ni  Ni11  1  0.50000000  0.25000000  0.50000000  1
  Cu  Cu12  1  0.00000000  0.12500000  0.50000000  1
  Cu  Cu13  1  0.50000000  0.37500000  0.00000000  1
  Cu  Cu14  1  0.00000000  0.62500000  0.50000000  1
  Cu  Cu15  1  0.50000000  0.87500000  0.00000000  1
  Cu  Cu16  1  0.50000000  0.12500000  0.00000000  1
  Cu  Cu17  1  0.00000000  0.37500000  0.50000000  1
  Cu  Cu18  1  0.50000000  0.62500000  0.00000000  1
  Cu  Cu19  1  0.00000000  0.87500000  0.50000000  1
  C  C20  1  0.00000000  0.08732800  0.00000000  1
  C  C21  1  0.50000000  0.33732800  0.50000000  1
  C  C22  1  0.00000000  0.58732800  0.00000000  1
  C  C23  1  0.50000000  0.83732800  0.50000000  1
  C  C24  1  0.50000000  0.16267200  0.50000000  1
  C  C25  1  0.00000000  0.41267200  0.00000000  1
  C  C26  1  0.50000000  0.66267200  0.50000000  1
  C  C27  1  0.00000000  0.91267200  0.00000000  1
  C  C28  1  0.50000000  0.00000000  0.00000000  1
  C  C29  1  0.00000000  0.25000000  0.50000000  1
  C  C30  1  0.50000000  0.50000000  0.00000000  1
  C  C31  1  0.00000000  0.75000000  0.50000000  1
  C  C32  1  0.00000000  0.00000000  0.50000000  1
  C  C33  1  0.50000000  0.25000000  0.00000000  1
  C  C34  1  0.00000000  0.50000000  0.50000000  1
  C  C35  1  0.50000000  0.75000000  0.00000000  1
