# generated using pymatgen
data_Cu4Ni3C2
_symmetry_space_group_name_H-M   'P 1'
_cell_length_a   6.76010000
_cell_length_b   6.77039900
_cell_length_c   12.69594300
_cell_angle_alpha   90.00000000
_cell_angle_beta   90.00000000
_cell_angle_gamma   90.00000000
_symmetry_Int_Tables_number   1
_chemical_formula_structural   Cu4Ni3C2
_chemical_formula_sum   'Cu16 Ni12 C8'
_cell_volume   581.07521025
_cell_formula_units_Z   4
loop_
 _symmetry_equiv_pos_site_id
 _symmetry_equiv_pos_as_xyz
  1  'x, y, z'
loop_
 _atom_site_type_symbol
 _atom_site_label
 _atom_site_symmetry_multiplicity
 _atom_site_fract_x
 _atom_site_fract_y
 _atom_site_fract_z
 _atom_site_occupancy
  C  C0  1  0.12754300  0.31062500  0.90140300  1
  C  C1  1  0.12754300  0.68937500  0.59859700  1
  C  C2  1  0.37245700  0.68937500  0.40140300  1
  C  C3  1  0.37245700  0.31062500  0.09859700  1
  C  C4  1  0.87245700  0.68937500  0.09859700  1
  C  C5  1  0.87245700  0.31062500  0.40140300  1
  C  C6  1  0.62754300  0.31062500  0.59859700  1
  C  C7  1  0.62754300  0.68937500  0.90140300  1
  Ni  Ni8  1  0.09004500  0.52154300  0.89018100  1
  Ni  Ni9  1  0.09004500  0.47845700  0.60981900  1
  Ni  Ni10  1  0.40995500  0.47845700  0.39018100  1
  Ni  Ni11  1  0.40995500  0.52154300  0.10981900  1
  Ni  Ni12  1  0.90995500  0.47845700  0.10981900  1
  Ni  Ni13  1  0.90995500  0.52154300  0.39018100  1
  Ni  Ni14  1  0.59004500  0.52154300  0.60981900  1
  Ni  Ni15  1  0.59004500  0.47845700  0.89018100  1
  Ni  Ni16  1  0.25000000  0.23084800  0.00000000  1
  Ni  Ni17  1  0.25000000  0.76915200  0.50000000  1
  Ni  Ni18  1  0.75000000  0.76915200  0.00000000  1
  Ni  Ni19  1  0.75000000  0.23084800  0.50000000  1
  Cu  Cu20  1  0.94407900  0.17379500  0.90755300  1
  Cu  Cu21  1  0.94407900  0.82620500  0.59244700  1
  Cu  Cu22  1  0.55592100  0.82620500  0.40755300  1
  Cu  Cu23  1  0.55592100  0.17379500  0.09244700  1
  Cu  Cu24  1  0.05592100  0.82620500  0.09244700  1
  Cu  Cu25  1  0.05592100  0.17379500  0.40755300  1
  Cu  Cu26  1  0.44407900  0.17379500  0.59244700  1
  Cu  Cu27  1  0.44407900  0.82620500  0.90755300  1
  Cu  Cu28  1  0.24008800  0.20921100  0.80992800  1
  Cu  Cu29  1  0.24008800  0.79078900  0.69007200  1
  Cu  Cu30  1  0.25991200  0.79078900  0.30992800  1
  Cu  Cu31  1  0.25991200  0.20921100  0.19007200  1
  Cu  Cu32  1  0.75991200  0.79078900  0.19007200  1
  Cu  Cu33  1  0.75991200  0.20921100  0.30992800  1
  Cu  Cu34  1  0.74008800  0.20921100  0.69007200  1
  Cu  Cu35  1  0.74008800  0.79078900  0.80992800  1
