# generated using pymatgen
data_CuNi5C2
_symmetry_space_group_name_H-M   'P 1'
_cell_length_a   6.16762279
_cell_length_b   6.36380425
_cell_length_c   6.87797800
_cell_angle_alpha   90.00000000
_cell_angle_beta   90.00000000
_cell_angle_gamma   117.61982389
_symmetry_Int_Tables_number   1
_chemical_formula_structural   CuNi5C2
_chemical_formula_sum   'Cu4 Ni20 C8'
_cell_volume   239.19401617
_cell_formula_units_Z   4
loop_
 _symmetry_equiv_pos_site_id
 _symmetry_equiv_pos_as_xyz
  1  'x, y, z'
loop_
 _atom_site_type_symbol
 _atom_site_label
 _atom_site_symmetry_multiplicity
 _atom_site_fract_x
 _atom_site_fract_y
 _atom_site_fract_z
 _atom_site_occupancy
  Ni  Ni0  1  0.14227800  0.29061500  0.98812000  1
  Ni  Ni1  1  0.35772200  0.70938500  0.48812000  1
  Ni  Ni2  1  0.85772200  0.70938500  0.01188000  1
  Ni  Ni3  1  0.64227800  0.29061500  0.51188000  1
  Ni  Ni4  1  0.37658100  0.22484100  0.96843000  1
  Ni  Ni5  1  0.12341900  0.77515900  0.46843000  1
  Ni  Ni6  1  0.62341900  0.77515900  0.03157000  1
  Ni  Ni7  1  0.87658100  0.22484100  0.53157000  1
  Ni  Ni8  1  0.14655200  0.10849200  0.80218500  1
  Ni  Ni9  1  0.35344800  0.89150800  0.30218500  1
  Ni  Ni10  1  0.85344800  0.89150800  0.19781500  1
  Ni  Ni11  1  0.64655200  0.10849200  0.69781500  1
  Ni  Ni12  1  0.35051300  0.41080400  0.79634700  1
  Ni  Ni13  1  0.14948700  0.58919600  0.29634700  1
  Ni  Ni14  1  0.64948700  0.58919600  0.20365300  1
  Ni  Ni15  1  0.85051300  0.41080400  0.70365300  1
  Ni  Ni16  1  0.27170200  0.75671500  0.82155300  1
  Ni  Ni17  1  0.22829800  0.24328500  0.32155300  1
  Ni  Ni18  1  0.72829800  0.24328500  0.17844700  1
  Ni  Ni19  1  0.77170200  0.75671500  0.67844700  1
  Cu  Cu20  1  0.25396700  0.25779400  0.88616600  1
  Cu  Cu21  1  0.24603300  0.74220600  0.38616600  1
  Cu  Cu22  1  0.74603300  0.74220600  0.11383400  1
  Cu  Cu23  1  0.75396700  0.25779400  0.61383400  1
  C  C24  1  0.50340600  0.67031700  0.67783600  1
  C  C25  1  0.99659400  0.32968300  0.17783600  1
  C  C26  1  0.49659400  0.32968300  0.32216400  1
  C  C27  1  0.00340600  0.67031700  0.82216400  1
  C  C28  1  0.46474500  0.82477600  0.82205000  1
  C  C29  1  0.03525500  0.17522400  0.32205000  1
  C  C30  1  0.53525500  0.17522400  0.17795000  1
  C  C31  1  0.96474500  0.82477600  0.67795000  1
