# generated using pymatgen
data_Cu5Ni5C3
_symmetry_space_group_name_H-M   'P 1'
_cell_length_a   8.02989873
_cell_length_b   11.70393114
_cell_length_c   14.53901625
_cell_angle_alpha   90.00000000
_cell_angle_beta   92.09718322
_cell_angle_gamma   90.00000000
_symmetry_Int_Tables_number   1
_chemical_formula_structural   Cu5Ni5C3
_chemical_formula_sum   'Cu20 Ni20 C12'
_cell_volume   1365.48161740
_cell_formula_units_Z   4
loop_
 _symmetry_equiv_pos_site_id
 _symmetry_equiv_pos_as_xyz
  1  'x, y, z'
loop_
 _atom_site_type_symbol
 _atom_site_label
 _atom_site_symmetry_multiplicity
 _atom_site_fract_x
 _atom_site_fract_y
 _atom_site_fract_z
 _atom_site_occupancy
  C  C0  1  -0.00000000  0.50000000  0.50000000  1
  C  C1  1  -0.00000000  -0.00000000  -0.00000000  1
  C  C2  1  -0.00000000  -0.00000000  0.50000000  1
  C  C3  1  -0.00000000  0.50000000  -0.00000000  1
  C  C4  1  0.43389486  0.78357965  0.28975602  1
  C  C5  1  0.56610514  0.28357965  0.21024398  1
  C  C6  1  0.56610514  0.21642035  0.71024398  1
  C  C7  1  0.43389486  0.71642035  0.78975602  1
  Ni  Ni8  1  0.40923473  0.74381553  0.44228881  1
  Ni  Ni9  1  0.59076527  0.24381553  0.05771119  1
  Ni  Ni10  1  0.59076527  0.25618447  0.55771119  1
  Ni  Ni11  1  0.40923473  0.75618447  0.94228881  1
  Ni  Ni12  1  0.47504807  0.73409779  0.16723145  1
  Ni  Ni13  1  0.52495193  0.23409779  0.33276855  1
  Ni  Ni14  1  0.52495193  0.26590221  0.83276855  1
  Ni  Ni15  1  0.47504807  0.76590221  0.66723145  1
  Ni  Ni16  1  0.66739396  0.76367540  0.27189672  1
  Ni  Ni17  1  0.33260604  0.26367540  0.22810328  1
  Ni  Ni18  1  0.33260604  0.23632460  0.72810328  1
  Ni  Ni19  1  0.66739396  0.73632460  0.77189672  1
  Ni  Ni20  1  0.16389511  0.72572219  0.32267906  1
  Ni  Ni21  1  0.83610389  0.22572219  0.17732094  1
  Ni  Ni22  1  0.83610389  0.27427781  0.67732094  1
  Ni  Ni23  1  0.16389511  0.77427781  0.82267906  1
  Ni  Ni24  1  0.41468622  0.93702329  0.27276937  1
  Ni  Ni25  1  0.58531378  0.43702329  0.22723063  1
  Ni  Ni26  1  0.58531378  0.06297671  0.72723063  1
  Ni  Ni27  1  0.41468622  0.56297671  0.77276937  1
  Cu  Cu28  1  0.94668891  0.41771121  0.36501381  1
  Cu  Cu29  1  0.05331109  0.91771121  0.13498619  1
  Cu  Cu30  1  0.05331109  0.58228879  0.63498619  1
  Cu  Cu31  1  0.94668891  0.08228879  0.86501381  1
  Cu  Cu32  1  0.77625305  0.28148345  0.57665208  1
  Cu  Cu33  1  0.22374695  0.78148345  0.92334792  1
  Cu  Cu34  1  0.22374695  0.71851655  0.42334792  1
  Cu  Cu35  1  0.77625305  0.21851655  0.07665208  1
  Cu  Cu36  1  0.27775461  0.02604755  0.51625261  1
  Cu  Cu37  1  0.72224539  0.52604755  0.98374739  1
  Cu  Cu38  1  0.72224539  0.97395245  0.48374739  1
  Cu  Cu39  1  0.27775461  0.47395245  0.01625261  1
  Cu  Cu40  1  0.99555238  0.94738163  0.65044231  1
  Cu  Cu41  1  0.00444762  0.44738163  0.84955769  1
  Cu  Cu42  1  0.00444762  0.05261837  0.34955769  1
  Cu  Cu43  1  0.99555238  0.55261837  0.15044231  1
  Cu  Cu44  1  0.47104344  0.50481156  0.30297507  1
  Cu  Cu45  1  0.52895656  0.00481156  0.19702493  1
  Cu  Cu46  1  0.52895656  0.49518844  0.69702493  1
  Cu  Cu47  1  0.47104344  0.99518844  0.80297507  1
  C  C48  1  0.64276367  0.72304654  0.18450386  1
  C  C49  1  0.35723633  0.22304654  0.31549614  1
  C  C50  1  0.35723633  0.27695346  0.81549614  1
  C  C51  1  0.64276367  0.77695346  0.68450386  1
