# generated using pymatgen
data_Cu(NiC2)2
_symmetry_space_group_name_H-M   'P 1'
_cell_length_a   12.46220200
_cell_length_b   3.55909200
_cell_length_c   11.73648400
_cell_angle_alpha   90.00000000
_cell_angle_beta   90.00000000
_cell_angle_gamma   90.00000000
_symmetry_Int_Tables_number   1
_chemical_formula_structural   Cu(NiC2)2
_chemical_formula_sum   'Cu4 Ni8 C16'
_cell_volume   520.56146009
_cell_formula_units_Z   4
loop_
 _symmetry_equiv_pos_site_id
 _symmetry_equiv_pos_as_xyz
  1  'x, y, z'
loop_
 _atom_site_type_symbol
 _atom_site_label
 _atom_site_symmetry_multiplicity
 _atom_site_fract_x
 _atom_site_fract_y
 _atom_site_fract_z
 _atom_site_occupancy
  Ni  Ni0  1  0.09035400  0.25000000  0.08372300  1
  Ni  Ni1  1  0.90964600  0.75000000  0.91627700  1
  Ni  Ni2  1  0.40964600  0.75000000  0.58372300  1
  Ni  Ni3  1  0.59035400  0.25000000  0.41627700  1
  Ni  Ni4  1  0.17447300  0.25000000  0.70779000  1
  Ni  Ni5  1  0.82552700  0.75000000  0.29221000  1
  Ni  Ni6  1  0.32552700  0.75000000  0.20779000  1
  Ni  Ni7  1  0.67447300  0.25000000  0.79221000  1
  Cu  Cu8  1  0.13330400  0.75000000  0.41996800  1
  Cu  Cu9  1  0.86669600  0.25000000  0.58003200  1
  Cu  Cu10  1  0.36669600  0.25000000  0.91996800  1
  Cu  Cu11  1  0.63330400  0.75000000  0.08003200  1
  C  C12  1  0.07328400  0.75000000  0.62380800  1
  C  C13  1  0.92671600  0.25000000  0.37619200  1
  C  C14  1  0.42671600  0.25000000  0.12380800  1
  C  C15  1  0.57328400  0.75000000  0.87619200  1
  C  C16  1  0.03942100  0.25000000  0.88012800  1
  C  C17  1  0.96057900  0.75000000  0.11987200  1
  C  C18  1  0.46057900  0.75000000  0.38012800  1
  C  C19  1  0.53942100  0.25000000  0.61987200  1
  C  C20  1  0.19380000  0.25000000  0.26250000  1
  C  C21  1  0.80620000  0.75000000  0.73750000  1
  C  C22  1  0.30620000  0.75000000  0.76250000  1
  C  C23  1  0.69380000  0.25000000  0.23750000  1
  C  C24  1  0.21094500  0.75000000  0.04722900  1
  C  C25  1  0.78905500  0.25000000  0.95277100  1
  C  C26  1  0.28905500  0.25000000  0.54722900  1
  C  C27  1  0.71094500  0.75000000  0.45277100  1
