# generated using pymatgen
data_Cu2Ni10C
_symmetry_space_group_name_H-M   'P 1'
_cell_length_a   6.75251542
_cell_length_b   6.75251542
_cell_length_c   8.96308500
_cell_angle_alpha   90.00000000
_cell_angle_beta   90.00000000
_cell_angle_gamma   97.21720571
_symmetry_Int_Tables_number   1
_chemical_formula_structural   Cu2Ni10C
_chemical_formula_sum   'Cu4 Ni20 C2'
_cell_volume   405.44698435
_cell_formula_units_Z   2
loop_
 _symmetry_equiv_pos_site_id
 _symmetry_equiv_pos_as_xyz
  1  'x, y, z'
loop_
 _atom_site_type_symbol
 _atom_site_label
 _atom_site_symmetry_multiplicity
 _atom_site_fract_x
 _atom_site_fract_y
 _atom_site_fract_z
 _atom_site_occupancy
  C  C0  1  0.87467000  0.12533000  0.75000000  1
  C  C1  1  0.12533000  0.87467000  0.25000000  1
  Ni  Ni2  1  0.62560400  0.37439600  0.54764100  1
  Ni  Ni3  1  0.37439600  0.62560400  0.45235900  1
  Ni  Ni4  1  0.37439600  0.62560400  0.04764100  1
  Ni  Ni5  1  0.62560400  0.37439600  0.95235900  1
  Ni  Ni6  1  0.22728800  0.22728800  0.50000000  1
  Ni  Ni7  1  0.77271200  0.77271200  0.50000000  1
  Ni  Ni8  1  0.77271200  0.77271200  0.00000000  1
  Ni  Ni9  1  0.22728800  0.22728800  0.00000000  1
  Ni  Ni10  1  0.84298600  0.15701400  0.09671700  1
  Ni  Ni11  1  0.15701400  0.84298600  0.90328300  1
  Ni  Ni12  1  0.15701400  0.84298600  0.59671700  1
  Ni  Ni13  1  0.84298600  0.15701400  0.40328300  1
  Ni  Ni14  1  0.86571800  0.58479700  0.75000000  1
  Ni  Ni15  1  0.13428200  0.41520300  0.25000000  1
  Ni  Ni16  1  0.41520300  0.13428200  0.75000000  1
  Ni  Ni17  1  0.58479700  0.86571800  0.25000000  1
  Ni  Ni18  1  0.22053300  0.47721800  0.75000000  1
  Ni  Ni19  1  0.77946700  0.52278200  0.25000000  1
  Ni  Ni20  1  0.52278200  0.77946700  0.75000000  1
  Ni  Ni21  1  0.47721800  0.22053300  0.25000000  1
  Cu  Cu22  1  0.00000000  0.50000000  0.50000000  1
  Cu  Cu23  1  0.00000000  0.50000000  0.00000000  1
  Cu  Cu24  1  0.50000000  0.00000000  0.00000000  1
  Cu  Cu25  1  0.50000000  0.00000000  0.50000000  1
