# generated using pymatgen
data_CuNi7C2
_symmetry_space_group_name_H-M   'P 1'
_cell_length_a   4.51136200
_cell_length_b   5.99843000
_cell_length_c   14.70555200
_cell_angle_alpha   90.00000000
_cell_angle_beta   90.00000000
_cell_angle_gamma   90.00000000
_symmetry_Int_Tables_number   1
_chemical_formula_structural   CuNi7C2
_chemical_formula_sum   'Cu4 Ni28 C8'
_cell_volume   397.94825384
_cell_formula_units_Z   4
loop_
 _symmetry_equiv_pos_site_id
 _symmetry_equiv_pos_as_xyz
  1  'x, y, z'
loop_
 _atom_site_type_symbol
 _atom_site_label
 _atom_site_symmetry_multiplicity
 _atom_site_fract_x
 _atom_site_fract_y
 _atom_site_fract_z
 _atom_site_occupancy
  C  C0  1  0.75000000  0.87982800  0.42717900  1
  C  C1  1  0.75000000  0.37982800  0.07282100  1
  C  C2  1  0.25000000  0.12017200  0.57282100  1
  C  C3  1  0.25000000  0.62017200  0.92717900  1
  C  C4  1  0.75000000  0.91934100  0.59744700  1
  C  C5  1  0.75000000  0.41934100  0.90255300  1
  C  C6  1  0.25000000  0.08065900  0.40255300  1
  C  C7  1  0.25000000  0.58065900  0.09744700  1
  Ni  Ni8  1  0.75000000  0.60567100  0.28809200  1
  Ni  Ni9  1  0.75000000  0.10567100  0.21190800  1
  Ni  Ni10  1  0.25000000  0.39432900  0.71190800  1
  Ni  Ni11  1  0.25000000  0.89432900  0.78809200  1
  Ni  Ni12  1  0.57070600  0.48040100  0.36989100  1
  Ni  Ni13  1  0.92929400  0.98040100  0.13010900  1
  Ni  Ni14  1  0.07070600  0.51959900  0.63010900  1
  Ni  Ni15  1  0.42929400  0.01959900  0.86989100  1
  Ni  Ni16  1  0.42929400  0.51959900  0.63010900  1
  Ni  Ni17  1  0.07070600  0.01959900  0.86989100  1
  Ni  Ni18  1  0.92929400  0.48040100  0.36989100  1
  Ni  Ni19  1  0.57070600  0.98040100  0.13010900  1
  Ni  Ni20  1  0.75000000  0.74333100  0.55442200  1
  Ni  Ni21  1  0.75000000  0.24333100  0.94557800  1
  Ni  Ni22  1  0.25000000  0.25666900  0.44557800  1
  Ni  Ni23  1  0.25000000  0.75666900  0.05442200  1
  Ni  Ni24  1  0.75000000  0.08012100  0.54507600  1
  Ni  Ni25  1  0.75000000  0.58012100  0.95492400  1
  Ni  Ni26  1  0.25000000  0.91987900  0.45492400  1
  Ni  Ni27  1  0.25000000  0.41987900  0.04507600  1
  Ni  Ni28  1  0.53054500  0.92685400  0.64644600  1
  Ni  Ni29  1  0.96945500  0.42685400  0.85355400  1
  Ni  Ni30  1  0.03054500  0.07314600  0.35355400  1
  Ni  Ni31  1  0.46945500  0.57314600  0.14644600  1
  Ni  Ni32  1  0.46945500  0.07314600  0.35355400  1
  Ni  Ni33  1  0.03054500  0.57314600  0.14644600  1
  Ni  Ni34  1  0.96945500  0.92685400  0.64644600  1
  Ni  Ni35  1  0.53054500  0.42685400  0.85355400  1
  Cu  Cu36  1  0.75000000  0.58006500  0.35705100  1
  Cu  Cu37  1  0.75000000  0.08006500  0.14294900  1
  Cu  Cu38  1  0.25000000  0.41993500  0.64294900  1
  Cu  Cu39  1  0.25000000  0.91993500  0.85705100  1
