# generated using pymatgen
data_Cu2(Ni4C9)3
_symmetry_space_group_name_H-M   'P 1'
_cell_length_a   10.47280531
_cell_length_b   10.47280531
_cell_length_c   10.47280531
_cell_angle_alpha   146.46331196
_cell_angle_beta   131.50223910
_cell_angle_gamma   60.25230686
_symmetry_Int_Tables_number   1
_chemical_formula_structural   Cu2(Ni4C9)3
_chemical_formula_sum   'Cu2 Ni12 C27'
_cell_volume   470.87118232
_cell_formula_units_Z   1
loop_
 _symmetry_equiv_pos_site_id
 _symmetry_equiv_pos_as_xyz
  1  'x, y, z'
loop_
 _atom_site_type_symbol
 _atom_site_label
 _atom_site_symmetry_multiplicity
 _atom_site_fract_x
 _atom_site_fract_y
 _atom_site_fract_z
 _atom_site_occupancy
  C  C0  1  0.99712000  0.00000000  0.99712000  1
  C  C1  1  0.66717000  0.66506100  0.00210900  1
  C  C2  1  0.33704900  0.33493900  0.00210900  1
  Ni  Ni3  1  0.37720100  0.74446900  0.12167000  1
  Ni  Ni4  1  0.03873800  0.41547100  0.12232000  1
  Ni  Ni5  1  0.70684900  0.08358200  0.12232000  1
  Ni  Ni6  1  0.54656600  0.91976800  0.62679800  1
  Ni  Ni7  1  0.20452900  0.58195200  0.62257600  1
  Ni  Ni8  1  0.87554700  0.24773400  0.62781300  1
  Ni  Ni9  1  0.70703000  0.08023200  0.62679800  1
  Ni  Ni10  1  0.38007900  0.75226600  0.62781300  1
  Ni  Ni11  1  0.04062400  0.41804800  0.62257600  1
  Ni  Ni12  1  0.37720100  0.25553100  0.63273300  1
  Ni  Ni13  1  0.03873800  0.91641800  0.62326700  1
  Ni  Ni14  1  0.70684900  0.58452900  0.62326700  1
  Cu  Cu15  1  0.41571300  0.16618300  0.24953000  1
  Cu  Cu16  1  0.08334700  0.83381700  0.24953000  1
  C  C17  1  0.13598800  0.26965700  0.40564500  1
  C  C18  1  0.80315100  0.93772800  0.40703400  1
  C  C19  1  0.46930600  0.60388400  0.40703400  1
  C  C20  1  0.28362800  0.42267400  0.86095400  1
  C  C21  1  0.95589100  0.09070100  0.86519000  1
  C  C22  1  0.62086800  0.75642300  0.86444600  1
  C  C23  1  0.43828000  0.57732600  0.86095400  1
  C  C24  1  0.10802300  0.24357700  0.86444600  1
  C  C25  1  0.77448800  0.90929900  0.86519000  1
  C  C26  1  0.13598800  0.73034300  0.86633000  1
  C  C27  1  0.80315100  0.39611600  0.86542300  1
  C  C28  1  0.46930600  0.06227200  0.86542300  1
  C  C29  1  0.60112500  0.21850600  0.81963100  1
  C  C30  1  0.28914300  0.90949700  0.86094600  1
  C  C31  1  0.95144900  0.57180300  0.86094600  1
  C  C32  1  0.45714500  0.08137800  0.37576600  1
  C  C33  1  0.13359800  0.74862700  0.38497200  1
  C  C34  1  0.79925000  0.40090700  0.39834200  1
  C  C35  1  0.29438800  0.91862200  0.37576600  1
  C  C36  1  0.99743500  0.59909300  0.39834200  1
  C  C37  1  0.63634500  0.25137300  0.38497200  1
  C  C38  1  0.60112500  0.78149400  0.38261800  1
  C  C39  1  0.28914300  0.42819700  0.37964600  1
  C  C40  1  0.95144900  0.09050300  0.37964600  1
