# generated using pymatgen
data_Cu4NiC4
_symmetry_space_group_name_H-M   'P 1'
_cell_length_a   7.26971700
_cell_length_b   7.82101000
_cell_length_c   14.66667300
_cell_angle_alpha   90.00000000
_cell_angle_beta   90.00000000
_cell_angle_gamma   90.00000000
_symmetry_Int_Tables_number   1
_chemical_formula_structural   Cu4NiC4
_chemical_formula_sum   'Cu16 Ni4 C16'
_cell_volume   833.89612395
_cell_formula_units_Z   4
loop_
 _symmetry_equiv_pos_site_id
 _symmetry_equiv_pos_as_xyz
  1  'x, y, z'
loop_
 _atom_site_type_symbol
 _atom_site_label
 _atom_site_symmetry_multiplicity
 _atom_site_fract_x
 _atom_site_fract_y
 _atom_site_fract_z
 _atom_site_occupancy
  C  C0  1  0.32968500  0.17821600  0.62712200  1
  C  C1  1  0.67031500  0.82178400  0.37287800  1
  C  C2  1  0.17031500  0.67821600  0.37287800  1
  C  C3  1  0.67031500  0.82178400  0.12712200  1
  C  C4  1  0.82968500  0.32178400  0.62712200  1
  C  C5  1  0.32968500  0.17821600  0.87287800  1
  C  C6  1  0.82968500  0.32178400  0.87287800  1
  C  C7  1  0.17031500  0.67821600  0.12712200  1
  C  C8  1  0.01185800  0.18307400  0.09559800  1
  C  C9  1  0.98814200  0.81692600  0.90440200  1
  C  C10  1  0.48814200  0.68307400  0.90440200  1
  C  C11  1  0.98814200  0.81692600  0.59559800  1
  C  C12  1  0.51185800  0.31692600  0.09559800  1
  C  C13  1  0.01185800  0.18307400  0.40440200  1
  C  C14  1  0.51185800  0.31692600  0.40440200  1
  C  C15  1  0.48814200  0.68307400  0.59559800  1
  Ni  Ni16  1  0.15980000  0.51889600  0.75000000  1
  Ni  Ni17  1  0.84020000  0.48110400  0.25000000  1
  Ni  Ni18  1  0.34020000  0.01889600  0.25000000  1
  Ni  Ni19  1  0.65980000  0.98110400  0.75000000  1
  Cu  Cu20  1  0.28620800  0.86277900  0.75000000  1
  Cu  Cu21  1  0.71379200  0.13722100  0.25000000  1
  Cu  Cu22  1  0.21379200  0.36277900  0.25000000  1
  Cu  Cu23  1  0.78620800  0.63722100  0.75000000  1
  Cu  Cu24  1  0.02290800  0.08805600  0.75000000  1
  Cu  Cu25  1  0.97709200  0.91194400  0.25000000  1
  Cu  Cu26  1  0.47709200  0.58805600  0.25000000  1
  Cu  Cu27  1  0.52290800  0.41194400  0.75000000  1
  Cu  Cu28  1  0.16882500  0.46643900  0.53595900  1
  Cu  Cu29  1  0.83117500  0.53356100  0.46404100  1
  Cu  Cu30  1  0.33117500  0.96643900  0.46404100  1
  Cu  Cu31  1  0.83117500  0.53356100  0.03595900  1
  Cu  Cu32  1  0.66882500  0.03356100  0.53595900  1
  Cu  Cu33  1  0.16882500  0.46643900  0.96404100  1
  Cu  Cu34  1  0.66882500  0.03356100  0.96404100  1
  Cu  Cu35  1  0.33117500  0.96643900  0.03595900  1
