# generated using pymatgen
data_Cu3(NiC4)2
_symmetry_space_group_name_H-M   'P 1'
_cell_length_a   6.03937922
_cell_length_b   6.03937922
_cell_length_c   4.97367093
_cell_angle_alpha   71.16114056
_cell_angle_beta   71.16114056
_cell_angle_gamma   59.43342823
_symmetry_Int_Tables_number   1
_chemical_formula_structural   Cu3(NiC4)2
_chemical_formula_sum   'Cu3 Ni2 C8'
_cell_volume   145.00329201
_cell_formula_units_Z   1
loop_
 _symmetry_equiv_pos_site_id
 _symmetry_equiv_pos_as_xyz
  1  'x, y, z'
loop_
 _atom_site_type_symbol
 _atom_site_label
 _atom_site_symmetry_multiplicity
 _atom_site_fract_x
 _atom_site_fract_y
 _atom_site_fract_z
 _atom_site_occupancy
  Ni  Ni0  1  0.72334900  0.72334900  0.34465200  1
  Ni  Ni1  1  0.27665100  0.27665100  0.65534800  1
  Cu  Cu2  1  0.00000000  0.00000000  0.50000000  1
  Cu  Cu3  1  0.73223500  0.26776500  0.00000000  1
  Cu  Cu4  1  0.26776500  0.73223500  0.00000000  1
  C  C5  1  0.39399100  0.39399100  0.92554900  1
  C  C6  1  0.60600900  0.60600900  0.07445100  1
  C  C7  1  0.89162400  0.89162400  0.92095600  1
  C  C8  1  0.10837600  0.10837600  0.07904400  1
  C  C9  1  0.34050100  0.88956900  0.59183200  1
  C  C10  1  0.88956900  0.34050100  0.59183200  1
  C  C11  1  0.11043100  0.65949900  0.40816800  1
  C  C12  1  0.65949900  0.11043100  0.40816800  1
