# generated using pymatgen
data_CuNiC9
_symmetry_space_group_name_H-M   'P 1'
_cell_length_a   6.48716400
_cell_length_b   12.16435630
_cell_length_c   14.77582300
_cell_angle_alpha   90.00000000
_cell_angle_beta   90.00000000
_cell_angle_gamma   104.69808910
_symmetry_Int_Tables_number   1
_chemical_formula_structural   CuNiC9
_chemical_formula_sum   'Cu8 Ni8 C72'
_cell_volume   1127.83663872
_cell_formula_units_Z   8
loop_
 _symmetry_equiv_pos_site_id
 _symmetry_equiv_pos_as_xyz
  1  'x, y, z'
loop_
 _atom_site_type_symbol
 _atom_site_label
 _atom_site_symmetry_multiplicity
 _atom_site_fract_x
 _atom_site_fract_y
 _atom_site_fract_z
 _atom_site_occupancy
  Ni  Ni0  1  0.04848600  0.74770300  0.52300100  1
  Ni  Ni1  1  0.30623500  0.88306400  0.89486900  1
  Ni  Ni2  1  0.69376500  0.61693600  0.39486900  1
  Ni  Ni3  1  0.69376500  0.11693600  0.10513100  1
  Ni  Ni4  1  0.30623500  0.38306400  0.60513100  1
  Ni  Ni5  1  0.04848600  0.24770300  0.97699900  1
  Ni  Ni6  1  0.95151400  0.25229700  0.47699900  1
  Ni  Ni7  1  0.95151400  0.75229700  0.02300100  1
  C  C8  1  0.82445800  0.98415800  0.90884200  1
  C  C9  1  0.41184500  0.66340800  0.02627300  1
  C  C10  1  0.41184500  0.16340800  0.47372700  1
  C  C11  1  0.58815500  0.33659200  0.97372700  1
  C  C12  1  0.53315300  0.81329400  0.72111700  1
  C  C13  1  0.46684700  0.68670600  0.22111700  1
  C  C14  1  0.46684700  0.18670600  0.27888300  1
  C  C15  1  0.53315300  0.31329400  0.77888300  1
  C  C16  1  0.58815500  0.83659200  0.52627300  1
  C  C17  1  0.86625900  0.49349200  0.14169900  1
  C  C18  1  0.13374100  0.00650800  0.64169900  1
  C  C19  1  0.13374100  0.50650800  0.85830100  1
  C  C20  1  0.17554200  0.51584200  0.40884200  1
  C  C21  1  0.82445800  0.48415800  0.59115800  1
  C  C22  1  0.17554200  0.01584200  0.09115800  1
  C  C23  1  0.86625900  0.99349200  0.35830100  1
  Cu  Cu24  1  0.66353400  0.09914700  0.65372200  1
  Cu  Cu25  1  0.33646600  0.40085300  0.15372200  1
  Cu  Cu26  1  0.33646600  0.90085300  0.34627800  1
  Cu  Cu27  1  0.66353400  0.59914700  0.84627800  1
  Cu  Cu28  1  0.00817600  0.22586100  0.77470400  1
  Cu  Cu29  1  0.99182400  0.27413900  0.27470400  1
  Cu  Cu30  1  0.99182400  0.77413900  0.22529600  1
  Cu  Cu31  1  0.00817600  0.72586100  0.72529600  1
  C  C32  1  0.71393000  0.99168800  0.02105900  1
  C  C33  1  0.28607000  0.50831200  0.52105900  1
  C  C34  1  0.28607000  0.00831100  0.97894100  1
  C  C35  1  0.71393000  0.49168800  0.47894100  1
  C  C36  1  0.99230800  0.88027500  0.92088800  1
  C  C37  1  0.00769200  0.61972500  0.42088800  1
  C  C38  1  0.00769200  0.11972500  0.07911200  1
  C  C39  1  0.99230800  0.38027500  0.57911200  1
  C  C40  1  0.97201900  0.12843000  0.87491900  1
  C  C41  1  0.02798100  0.37157000  0.37491900  1
  C  C42  1  0.02798100  0.87157000  0.12508100  1
  C  C43  1  0.97201900  0.62843000  0.62508100  1
  C  C44  1  0.62503000  0.94628800  0.29761600  1
  C  C45  1  0.37497000  0.55371200  0.79761600  1
  C  C46  1  0.37497000  0.05371200  0.70238400  1
  C  C47  1  0.62503000  0.44628800  0.20238400  1
  C  C48  1  0.96068800  0.15445700  0.36014400  1
  C  C49  1  0.03931200  0.34554300  0.86014400  1
  C  C50  1  0.03931200  0.84554300  0.63985600  1
  C  C51  1  0.96068800  0.65445700  0.13985600  1
  C  C52  1  0.04438700  0.89726700  0.31002200  1
  C  C53  1  0.33477500  0.83137100  0.45688100  1
  C  C54  1  0.95561300  0.60273300  0.81002100  1
  C  C55  1  0.04438700  0.39726700  0.18997800  1
  C  C56  1  0.74157100  0.74560100  0.48364100  1
  C  C57  1  0.25842900  0.75439900  0.98364100  1
  C  C58  1  0.25842900  0.25439900  0.51635900  1
  C  C59  1  0.74157100  0.24560100  0.01635900  1
  C  C60  1  0.77823300  0.96842800  0.47234100  1
  C  C61  1  0.22176700  0.53157200  0.97234100  1
  C  C62  1  0.22176700  0.03157200  0.52765900  1
  C  C63  1  0.77823300  0.46842800  0.02765900  1
  C  C64  1  0.43570700  0.23614600  0.88084000  1
  C  C65  1  0.56429300  0.26385400  0.38084000  1
  C  C66  1  0.56429300  0.76385400  0.11916000  1
  C  C67  1  0.43570700  0.73614600  0.61916000  1
  C  C68  1  0.73339000  0.23408400  0.73667200  1
  C  C69  1  0.26661000  0.26591600  0.23667200  1
  C  C70  1  0.26661000  0.76591600  0.26332800  1
  C  C71  1  0.73339000  0.73408400  0.76332800  1
  C  C72  1  0.60159700  0.42156100  0.66266200  1
  C  C73  1  0.39840300  0.07843900  0.16266200  1
  C  C74  1  0.39840300  0.57843900  0.33733800  1
  C  C75  1  0.60159700  0.92156100  0.83733800  1
  C  C76  1  0.25637700  0.29280100  0.72236000  1
  C  C77  1  0.74362300  0.20719900  0.22236000  1
  C  C78  1  0.74362300  0.70719900  0.27764000  1
  C  C79  1  0.25637700  0.79280100  0.77764000  1
  C  C80  1  0.64865700  0.43276600  0.85909000  1
  C  C81  1  0.35134300  0.06723400  0.35909000  1
  C  C82  1  0.35134300  0.56723400  0.14091000  1
  C  C83  1  0.64865700  0.93276600  0.64091000  1
  C  C84  1  0.33477500  0.33137100  0.04311900  1
  C  C85  1  0.66522500  0.16862900  0.54311900  1
  C  C86  1  0.66522500  0.66862900  0.95688100  1
  C  C87  1  0.95561300  0.10273300  0.68997900  1
