# generated using pymatgen
data_CuNiC8
_symmetry_space_group_name_H-M   'P 1'
_cell_length_a   5.62167500
_cell_length_b   5.27090900
_cell_length_c   9.23098512
_cell_angle_alpha   55.10815063
_cell_angle_beta   90.00000000
_cell_angle_gamma   90.00000000
_symmetry_Int_Tables_number   1
_chemical_formula_structural   CuNiC8
_chemical_formula_sum   'Cu2 Ni2 C16'
_cell_volume   224.35547828
_cell_formula_units_Z   2
loop_
 _symmetry_equiv_pos_site_id
 _symmetry_equiv_pos_as_xyz
  1  'x, y, z'
loop_
 _atom_site_type_symbol
 _atom_site_label
 _atom_site_symmetry_multiplicity
 _atom_site_fract_x
 _atom_site_fract_y
 _atom_site_fract_z
 _atom_site_occupancy
  C  C0  1  0.56757900  0.73195300  0.74913900  1
  C  C1  1  0.06757900  0.26804700  0.75086100  1
  C  C2  1  0.43242100  0.26804700  0.25086100  1
  C  C3  1  0.93242100  0.73195300  0.24913900  1
  Ni  Ni4  1  0.00000000  0.50000000  0.00000000  1
  Ni  Ni5  1  0.50000000  0.50000000  0.50000000  1
  Cu  Cu6  1  0.00000000  0.00000000  0.50000000  1
  Cu  Cu7  1  0.50000000  0.00000000  0.00000000  1
  C  C8  1  0.95599700  0.86389900  0.74867100  1
  C  C9  1  0.45599700  0.13610100  0.75132900  1
  C  C10  1  0.04400300  0.13610100  0.25132900  1
  C  C11  1  0.54400300  0.86389900  0.24867100  1
  C  C12  1  0.80205900  0.24749600  0.94333800  1
  C  C13  1  0.30205900  0.75250400  0.55666200  1
  C  C14  1  0.18950100  0.35979400  0.44392100  1
  C  C15  1  0.68950100  0.64020600  0.05607900  1
  C  C16  1  0.19794100  0.75250400  0.05666200  1
  C  C17  1  0.69794100  0.24749600  0.44333800  1
  C  C18  1  0.81049900  0.64020600  0.55607900  1
  C  C19  1  0.31049900  0.35979400  0.94392100  1
