# generated using pymatgen
data_Cu16Ni7C4
_symmetry_space_group_name_H-M   'P 1'
_cell_length_a   13.68948400
_cell_length_b   9.16616500
_cell_length_c   15.60686029
_cell_angle_alpha   58.37750113
_cell_angle_beta   90.00000000
_cell_angle_gamma   90.00000000
_symmetry_Int_Tables_number   1
_chemical_formula_structural   Cu16Ni7C4
_chemical_formula_sum   'Cu64 Ni28 C16'
_cell_volume   1667.57628751
_cell_formula_units_Z   4
loop_
 _symmetry_equiv_pos_site_id
 _symmetry_equiv_pos_as_xyz
  1  'x, y, z'
loop_
 _atom_site_type_symbol
 _atom_site_label
 _atom_site_symmetry_multiplicity
 _atom_site_fract_x
 _atom_site_fract_y
 _atom_site_fract_z
 _atom_site_occupancy
  C  C0  1  0.23633800  0.70501900  0.47071400  1
  C  C1  1  0.26366200  0.70501900  0.97071400  1
  C  C2  1  0.76366200  0.29498100  0.52928600  1
  C  C3  1  0.73633800  0.29498100  0.02928600  1
  C  C4  1  0.97904000  0.96470200  0.80573400  1
  C  C5  1  0.52096000  0.96470200  0.30573400  1
  C  C6  1  0.02096000  0.03529800  0.19426600  1
  C  C7  1  0.47904000  0.03529800  0.69426600  1
  C  C8  1  0.77718300  0.68142700  0.74839300  1
  C  C9  1  0.72281700  0.68142700  0.24839300  1
  C  C10  1  0.22281700  0.31857300  0.25160700  1
  C  C11  1  0.27718300  0.31857300  0.75160700  1
  C  C12  1  0.07324800  0.67673600  0.69118600  1
  C  C13  1  0.42675200  0.67673600  0.19118600  1
  C  C14  1  0.92675200  0.32326400  0.30881400  1
  C  C15  1  0.57324800  0.32326400  0.80881400  1
  Ni  Ni16  1  0.96970400  0.49478800  0.89686100  1
  Ni  Ni17  1  0.53029600  0.49478800  0.39686100  1
  Ni  Ni18  1  0.03029600  0.50521200  0.10313900  1
  Ni  Ni19  1  0.46970400  0.50521200  0.60313900  1
  Ni  Ni20  1  0.05954000  0.38010300  0.91248500  1
  Ni  Ni21  1  0.44046000  0.38010300  0.41248500  1
  Ni  Ni22  1  0.94046000  0.61989700  0.08751500  1
  Ni  Ni23  1  0.55954000  0.61989700  0.58751500  1
  Ni  Ni24  1  0.03391300  0.40872200  0.63300700  1
  Ni  Ni25  1  0.46608700  0.40872200  0.13300700  1
  Ni  Ni26  1  0.96608700  0.59127800  0.36699300  1
  Ni  Ni27  1  0.53391300  0.59127800  0.86699300  1
  Ni  Ni28  1  0.93267800  0.49233700  0.62541700  1
  Ni  Ni29  1  0.56732200  0.49233700  0.12541700  1
  Ni  Ni30  1  0.06732200  0.50766300  0.37458300  1
  Ni  Ni31  1  0.43267800  0.50766300  0.87458300  1
  Ni  Ni32  1  0.23430600  0.87624200  0.72766600  1
  Ni  Ni33  1  0.26569400  0.87624200  0.22766600  1
  Ni  Ni34  1  0.76569400  0.12375800  0.27233400  1
  Ni  Ni35  1  0.73430600  0.12375800  0.77233400  1
  Ni  Ni36  1  0.29031500  0.78378200  0.68206100  1
  Ni  Ni37  1  0.20968500  0.78378200  0.18206100  1
  Ni  Ni38  1  0.70968500  0.21621800  0.31793900  1
  Ni  Ni39  1  0.79031500  0.21621800  0.81793900  1
  Ni  Ni40  1  0.03509300  0.98163600  0.46852400  1
  Ni  Ni41  1  0.46490700  0.98163600  0.96852400  1
  Ni  Ni42  1  0.96490700  0.01836400  0.53147600  1
  Ni  Ni43  1  0.53509300  0.01836400  0.03147600  1
  Cu  Cu44  1  0.97185700  0.64120800  0.81139000  1
  Cu  Cu45  1  0.52814300  0.64120800  0.31139000  1
  Cu  Cu46  1  0.02814300  0.35879200  0.18861000  1
  Cu  Cu47  1  0.47185700  0.35879200  0.68861000  1
  Cu  Cu48  1  0.90305800  0.44819700  0.95920700  1
  Cu  Cu49  1  0.59694200  0.44819700  0.45920700  1
  Cu  Cu50  1  0.09694200  0.55180300  0.04079300  1
  Cu  Cu51  1  0.40305800  0.55180300  0.54079300  1
  Cu  Cu52  1  0.11230300  0.44105300  0.83044200  1
  Cu  Cu53  1  0.38769700  0.44105300  0.33044200  1
  Cu  Cu54  1  0.88769700  0.55894700  0.16955800  1
  Cu  Cu55  1  0.61230300  0.55894700  0.66955800  1
  Cu  Cu56  1  0.07554400  0.24804200  0.99375300  1
  Cu  Cu57  1  0.42445600  0.24804200  0.49375300  1
  Cu  Cu58  1  0.92445600  0.75195800  0.00624700  1
  Cu  Cu59  1  0.57554400  0.75195800  0.50624700  1
  Cu  Cu60  1  0.10642400  0.49240700  0.64304900  1
  Cu  Cu61  1  0.39357600  0.49240700  0.14304900  1
  Cu  Cu62  1  0.89357600  0.50759300  0.35695100  1
  Cu  Cu63  1  0.60642400  0.50759300  0.85695100  1
  Cu  Cu64  1  0.04169900  0.27520600  0.63252200  1
  Cu  Cu65  1  0.45830100  0.27520600  0.13252200  1
  Cu  Cu66  1  0.95830100  0.72479400  0.36747800  1
  Cu  Cu67  1  0.54169900  0.72479400  0.86747800  1
  Cu  Cu68  1  0.93580000  0.60499100  0.65265900  1
  Cu  Cu69  1  0.56420000  0.60499100  0.15265900  1
  Cu  Cu70  1  0.06420000  0.39500900  0.34734100  1
  Cu  Cu71  1  0.43580000  0.39500900  0.84734100  1
  Cu  Cu72  1  0.85845300  0.45070400  0.59907000  1
  Cu  Cu73  1  0.64154700  0.45070400  0.09907000  1
  Cu  Cu74  1  0.14154700  0.54929600  0.40093000  1
  Cu  Cu75  1  0.35845300  0.54929600  0.90093000  1
  Cu  Cu76  1  0.14122400  0.84254200  0.73890600  1
  Cu  Cu77  1  0.35877600  0.84254200  0.23890600  1
  Cu  Cu78  1  0.85877600  0.15745800  0.26109400  1
  Cu  Cu79  1  0.64122400  0.15745800  0.76109400  1
  Cu  Cu80  1  0.27767400  0.96753200  0.75261000  1
  Cu  Cu81  1  0.22232600  0.96753200  0.25261000  1
  Cu  Cu82  1  0.72232600  0.03246800  0.24739000  1
  Cu  Cu83  1  0.77767400  0.03246800  0.74739000  1
  Cu  Cu84  1  0.23347000  0.68665700  0.66513500  1
  Cu  Cu85  1  0.26653000  0.68665700  0.16513500  1
  Cu  Cu86  1  0.76653000  0.31334300  0.33486500  1
  Cu  Cu87  1  0.73347000  0.31334300  0.83486500  1
  Cu  Cu88  1  0.37872500  0.80384600  0.66504500  1
  Cu  Cu89  1  0.12127500  0.80384600  0.16504500  1
  Cu  Cu90  1  0.62127500  0.19615400  0.33495500  1
  Cu  Cu91  1  0.87872500  0.19615400  0.83495500  1
  Cu  Cu92  1  0.09190900  0.85499200  0.51784900  1
  Cu  Cu93  1  0.40809100  0.85499200  0.01784900  1
  Cu  Cu94  1  0.90809100  0.14500800  0.48215100  1
  Cu  Cu95  1  0.59190900  0.14500800  0.98215100  1
  Cu  Cu96  1  0.03090900  0.08098700  0.37400800  1
  Cu  Cu97  1  0.46909100  0.08098700  0.87400800  1
  Cu  Cu98  1  0.96909100  0.91901300  0.62599200  1
  Cu  Cu99  1  0.53090900  0.91901300  0.12599200  1
  Cu  Cu100  1  0.18712000  0.02892100  0.94136000  1
  Cu  Cu101  1  0.31288000  0.02892100  0.44136000  1
  Cu  Cu102  1  0.81288000  0.97107900  0.05864000  1
  Cu  Cu103  1  0.68712000  0.97107900  0.55864000  1
  Cu  Cu104  1  0.26654400  0.10116100  0.47670200  1
  Cu  Cu105  1  0.23345600  0.10116100  0.97670200  1
  Cu  Cu106  1  0.73345600  0.89883900  0.52329800  1
  Cu  Cu107  1  0.76654400  0.89883900  0.02329800  1
