# generated using pymatgen
data_Cu5(NiC18)2
_symmetry_space_group_name_H-M   'P 1'
_cell_length_a   6.73640606
_cell_length_b   6.73640606
_cell_length_c   24.56723000
_cell_angle_alpha   90.00000000
_cell_angle_beta   90.00000000
_cell_angle_gamma   97.11191847
_symmetry_Int_Tables_number   1
_chemical_formula_structural   Cu5(NiC18)2
_chemical_formula_sum   'Cu10 Ni4 C72'
_cell_volume   1106.26306888
_cell_formula_units_Z   2
loop_
 _symmetry_equiv_pos_site_id
 _symmetry_equiv_pos_as_xyz
  1  'x, y, z'
loop_
 _atom_site_type_symbol
 _atom_site_label
 _atom_site_symmetry_multiplicity
 _atom_site_fract_x
 _atom_site_fract_y
 _atom_site_fract_z
 _atom_site_occupancy
  Ni  Ni0  1  0.76360900  0.07888800  0.62175700  1
  Ni  Ni1  1  0.07888800  0.76360900  0.37824300  1
  Ni  Ni2  1  0.23639100  0.92111200  0.12175700  1
  Ni  Ni3  1  0.92111200  0.23639100  0.87824300  1
  Cu  Cu4  1  0.41948200  0.41948200  0.50000000  1
  Cu  Cu5  1  0.58051800  0.58051800  0.00000000  1
  Cu  Cu6  1  0.54109000  0.83682700  0.86353600  1
  Cu  Cu7  1  0.83682700  0.54109000  0.13646400  1
  Cu  Cu8  1  0.45891000  0.16317300  0.36353600  1
  Cu  Cu9  1  0.16317300  0.45891000  0.63646400  1
  Cu  Cu10  1  0.80825500  0.80825500  0.50000000  1
  Cu  Cu11  1  0.19174500  0.19174500  0.00000000  1
  Cu  Cu12  1  0.79678200  0.20321800  0.25000000  1
  Cu  Cu13  1  0.20321800  0.79678200  0.75000000  1
  C  C14  1  0.24601300  0.97633900  0.61468600  1
  C  C15  1  0.97633900  0.24601300  0.38531400  1
  C  C16  1  0.75398700  0.02366100  0.11468600  1
  C  C17  1  0.02366100  0.75398700  0.88531400  1
  C  C18  1  0.10229200  0.69498900  0.00596800  1
  C  C19  1  0.69498900  0.10229200  0.99403200  1
  C  C20  1  0.89770800  0.30501100  0.50596800  1
  C  C21  1  0.30501100  0.89770800  0.49403200  1
  C  C22  1  0.42447300  0.33162600  0.87399800  1
  C  C23  1  0.33162600  0.42447300  0.12600200  1
  C  C24  1  0.57552700  0.66837400  0.37399800  1
  C  C25  1  0.66837400  0.57552700  0.62600200  1
  C  C26  1  0.70379900  0.80499100  0.73057900  1
  C  C27  1  0.80499100  0.70379900  0.26942100  1
  C  C28  1  0.29620100  0.19500900  0.23057900  1
  C  C29  1  0.19500900  0.29620100  0.76942100  1
  C  C30  1  0.73590100  0.88063500  0.24178500  1
  C  C31  1  0.88063500  0.73590100  0.75821500  1
  C  C32  1  0.26409900  0.11936500  0.74178500  1
  C  C33  1  0.11936500  0.26409900  0.25821500  1
  C  C34  1  0.89691100  0.60966800  0.02592900  1
  C  C35  1  0.60966800  0.89691100  0.97407100  1
  C  C36  1  0.10308900  0.39033200  0.52592900  1
  C  C37  1  0.39033200  0.10308900  0.47407100  1
  C  C38  1  0.09769400  0.80540500  0.94777500  1
  C  C39  1  0.80540500  0.09769400  0.05222500  1
  C  C40  1  0.90230600  0.19459500  0.44777500  1
  C  C41  1  0.19459500  0.90230600  0.55222500  1
  C  C42  1  0.46154800  0.07632700  0.61437500  1
  C  C43  1  0.07632700  0.46154800  0.38562500  1
  C  C44  1  0.53845200  0.92367300  0.11437500  1
  C  C45  1  0.92367300  0.53845200  0.88562500  1
  C  C46  1  0.80376700  0.12116700  0.53993600  1
  C  C47  1  0.12116700  0.80376700  0.46006400  1
  C  C48  1  0.19623300  0.87883300  0.03993600  1
  C  C49  1  0.87883300  0.19623300  0.96006400  1
  C  C50  1  0.24254400  0.53406100  0.00202400  1
  C  C51  1  0.53406100  0.24254400  0.99797600  1
  C  C52  1  0.75745600  0.46593900  0.50202400  1
  C  C53  1  0.46593900  0.75745600  0.49797600  1
  C  C54  1  0.50166700  0.52907700  0.90202500  1
  C  C55  1  0.52907700  0.50166700  0.09797500  1
  C  C56  1  0.49833300  0.47092300  0.40202500  1
  C  C57  1  0.47092300  0.49833300  0.59797500  1
  C  C58  1  0.75003800  0.00090500  0.69728000  1
  C  C59  1  0.00090500  0.75003800  0.30272000  1
  C  C60  1  0.24996200  0.99909500  0.19728000  1
  C  C61  1  0.99909500  0.24996200  0.80272000  1
  C  C62  1  0.80987900  0.40991900  0.62876200  1
  C  C63  1  0.40991900  0.80987900  0.37123800  1
  C  C64  1  0.19012100  0.59008100  0.12876200  1
  C  C65  1  0.59008100  0.19012100  0.87123800  1
  C  C66  1  0.77125700  0.77154400  0.59951300  1
  C  C67  1  0.77154400  0.77125700  0.40048700  1
  C  C68  1  0.22874300  0.22845600  0.09951300  1
  C  C69  1  0.22845600  0.22874300  0.90048700  1
  C  C70  1  0.46794800  0.18351000  0.27076400  1
  C  C71  1  0.18351000  0.46794800  0.72923600  1
  C  C72  1  0.53205200  0.81649000  0.77076400  1
  C  C73  1  0.81649000  0.53205200  0.22923600  1
  C  C74  1  0.08805500  0.12195100  0.62501900  1
  C  C75  1  0.12195100  0.08805500  0.37498100  1
  C  C76  1  0.91194500  0.87804900  0.12501900  1
  C  C77  1  0.87804900  0.91194500  0.87498100  1
  C  C78  1  0.36835500  0.38818500  0.81297200  1
  C  C79  1  0.38818500  0.36835500  0.18702800  1
  C  C80  1  0.63164500  0.61181500  0.31297200  1
  C  C81  1  0.61181500  0.63164500  0.68702800  1
  C  C82  1  0.79462500  0.20796400  0.15044700  1
  C  C83  1  0.20796400  0.79462500  0.84955300  1
  C  C84  1  0.20537500  0.79203600  0.65044700  1
  C  C85  1  0.79203600  0.20537500  0.34955300  1
