# generated using pymatgen
data_Cu2Ni3C20
_symmetry_space_group_name_H-M   'P 1'
_cell_length_a   9.20212901
_cell_length_b   9.20212901
_cell_length_c   7.30095287
_cell_angle_alpha   75.24636609
_cell_angle_beta   75.24636609
_cell_angle_gamma   37.01391444
_symmetry_Int_Tables_number   1
_chemical_formula_structural   Cu2Ni3C20
_chemical_formula_sum   'Cu2 Ni3 C20'
_cell_volume   358.51313803
_cell_formula_units_Z   1
loop_
 _symmetry_equiv_pos_site_id
 _symmetry_equiv_pos_as_xyz
  1  'x, y, z'
loop_
 _atom_site_type_symbol
 _atom_site_label
 _atom_site_symmetry_multiplicity
 _atom_site_fract_x
 _atom_site_fract_y
 _atom_site_fract_z
 _atom_site_occupancy
  Ni  Ni0  1  0.99863500  0.99863500  0.97216300  1
  Ni  Ni1  1  0.59867700  0.59867700  0.57161200  1
  Ni  Ni2  1  0.20125700  0.20125700  0.16973100  1
  Cu  Cu3  1  0.80189700  0.80189700  0.76132900  1
  Cu  Cu4  1  0.40261400  0.40261400  0.36216500  1
  C  C5  1  0.79941700  0.79941700  0.22027200  1
  C  C6  1  0.39371400  0.39371400  0.82279500  1
  C  C7  1  0.99348500  0.99348500  0.43711000  1
  C  C8  1  0.60747300  0.60747300  0.02179900  1
  C  C9  1  0.20837900  0.20837900  0.62524000  1
  C  C10  1  0.69793700  0.19531400  0.21448700  1
  C  C11  1  0.31498500  0.79059000  0.80523400  1
  C  C12  1  0.91497600  0.39679400  0.40144300  1
  C  C13  1  0.51615600  0.99011100  0.99256400  1
  C  C14  1  0.09885000  0.59866100  0.60613300  1
  C  C15  1  0.19531400  0.69793700  0.21448700  1
  C  C16  1  0.79059000  0.31498500  0.80523400  1
  C  C17  1  0.39679400  0.91497600  0.40144300  1
  C  C18  1  0.99011100  0.51615600  0.99256400  1
  C  C19  1  0.59866100  0.09885000  0.60613300  1
  C  C20  1  0.09231700  0.09231700  0.11584400  1
  C  C21  1  0.70082500  0.70082500  0.71031600  1
  C  C22  1  0.30203700  0.30203700  0.31159100  1
  C  C23  1  0.89369600  0.89369600  0.89808300  1
  C  C24  1  0.49120500  0.49120500  0.50322900  1
