# generated using pymatgen
data_Cu4NiC20
_symmetry_space_group_name_H-M   'P 1'
_cell_length_a   4.86588392
_cell_length_b   7.34234189
_cell_length_c   7.34234189
_cell_angle_alpha   89.16912733
_cell_angle_beta   90.15689855
_cell_angle_gamma   90.15689855
_symmetry_Int_Tables_number   1
_chemical_formula_structural   Cu4NiC20
_chemical_formula_sum   'Cu4 Ni1 C20'
_cell_volume   262.29020627
_cell_formula_units_Z   1
loop_
 _symmetry_equiv_pos_site_id
 _symmetry_equiv_pos_as_xyz
  1  'x, y, z'
loop_
 _atom_site_type_symbol
 _atom_site_label
 _atom_site_symmetry_multiplicity
 _atom_site_fract_x
 _atom_site_fract_y
 _atom_site_fract_z
 _atom_site_occupancy
  Ni  Ni0  1  0.00422200  0.83803200  0.33803200  1
  Cu  Cu1  1  0.50978900  0.15684300  0.65684300  1
  Cu  Cu2  1  0.50721200  0.84191200  0.34191200  1
  Cu  Cu3  1  0.48540000  0.65417000  0.83852700  1
  Cu  Cu4  1  0.48540000  0.33852700  0.15417000  1
  C  C5  1  0.96576000  0.62452800  0.12452800  1
  C  C6  1  0.95754900  0.35938900  0.85938900  1
  C  C7  1  0.03516000  0.15028800  0.36915300  1
  C  C8  1  0.03516000  0.86915300  0.65028800  1
  C  C9  1  0.00196900  0.00106300  0.99981400  1
  C  C10  1  0.00196900  0.49981400  0.50106300  1
  C  C11  1  0.17347600  0.00535700  0.50535700  1
  C  C12  1  0.80967900  0.49459200  0.99459200  1
  C  C13  1  0.29532200  0.62695500  0.12695500  1
  C  C14  1  0.28815800  0.35366000  0.85366000  1
  C  C15  1  0.70701300  0.15022000  0.36095000  1
  C  C16  1  0.70701300  0.86095000  0.65022000  1
  C  C17  1  0.19060600  0.08581600  0.16613800  1
  C  C18  1  0.20356100  0.91761300  0.84245200  1
  C  C19  1  0.79954700  0.15911100  0.91448000  1
  C  C20  1  0.79954700  0.41448000  0.65911100  1
  C  C21  1  0.81421600  0.83477100  0.08750000  1
  C  C22  1  0.81421600  0.58750000  0.33477100  1
  C  C23  1  0.20356100  0.34245200  0.41761300  1
  C  C24  1  0.19060600  0.66613800  0.58581600  1
