# generated using pymatgen
data_CuNiC14
_symmetry_space_group_name_H-M   'P 1'
_cell_length_a   9.17515001
_cell_length_b   9.17515001
_cell_length_c   16.19297500
_cell_angle_alpha   90.00000000
_cell_angle_beta   90.00000000
_cell_angle_gamma   120.00000010
_symmetry_Int_Tables_number   1
_chemical_formula_structural   CuNiC14
_chemical_formula_sum   'Cu6 Ni6 C84'
_cell_volume   1180.54793009
_cell_formula_units_Z   6
loop_
 _symmetry_equiv_pos_site_id
 _symmetry_equiv_pos_as_xyz
  1  'x, y, z'
loop_
 _atom_site_type_symbol
 _atom_site_label
 _atom_site_symmetry_multiplicity
 _atom_site_fract_x
 _atom_site_fract_y
 _atom_site_fract_z
 _atom_site_occupancy
  C  C0  1  0.19591400  0.39182800  0.25000000  1
  C  C1  1  0.60817200  0.80408600  0.58333300  1
  C  C2  1  0.80408600  0.60817200  0.75000000  1
  C  C3  1  0.39182800  0.19591400  0.08333300  1
  C  C4  1  0.19591400  0.80408600  0.91666700  1
  C  C5  1  0.80408600  0.19591400  0.41666700  1
  Ni  Ni6  1  0.56478500  0.12957000  0.25000000  1
  Ni  Ni7  1  0.87043000  0.43521500  0.58333300  1
  Ni  Ni8  1  0.43521500  0.87043000  0.75000000  1
  Ni  Ni9  1  0.12957000  0.56478500  0.08333300  1
  Ni  Ni10  1  0.56478500  0.43521500  0.91666700  1
  Ni  Ni11  1  0.43521500  0.56478500  0.41666700  1
  Cu  Cu12  1  0.84268900  0.68537700  0.25000000  1
  Cu  Cu13  1  0.31462300  0.15731100  0.58333300  1
  Cu  Cu14  1  0.15731100  0.31462300  0.75000000  1
  Cu  Cu15  1  0.68537700  0.84268900  0.08333300  1
  Cu  Cu16  1  0.84268900  0.15731100  0.91666700  1
  Cu  Cu17  1  0.15731100  0.84268900  0.41666700  1
  C  C18  1  0.39804100  0.17566500  0.41736000  1
  C  C19  1  0.82433500  0.22237600  0.75069400  1
  C  C20  1  0.60195900  0.82433500  0.91736000  1
  C  C21  1  0.17566500  0.39804100  0.91597300  1
  C  C22  1  0.77762400  0.60195900  0.08402700  1
  C  C23  1  0.17566500  0.77762400  0.25069400  1
  C  C24  1  0.22237600  0.82433500  0.58264000  1
  C  C25  1  0.82433500  0.60195900  0.41597300  1
  C  C26  1  0.22237600  0.39804100  0.58402700  1
  C  C27  1  0.77762400  0.17566500  0.08264000  1
  C  C28  1  0.60195900  0.77762400  0.24930600  1
  C  C29  1  0.39804100  0.22237600  0.74930600  1
  C  C30  1  0.42887400  0.18693400  0.51289800  1
  C  C31  1  0.81306600  0.24194100  0.84623200  1
  C  C32  1  0.57112600  0.81306600  0.01289800  1
  C  C33  1  0.18693400  0.42887400  0.82043500  1
  C  C34  1  0.75805900  0.57112600  0.17956500  1
  C  C35  1  0.18693400  0.75805900  0.34623200  1
  C  C36  1  0.24194100  0.81306600  0.48710200  1
  C  C37  1  0.81306600  0.57112600  0.32043500  1
  C  C38  1  0.24194100  0.42887400  0.67956500  1
  C  C39  1  0.75805900  0.18693400  0.98710200  1
  C  C40  1  0.57112600  0.75805900  0.15376800  1
  C  C41  1  0.42887400  0.24194100  0.65376800  1
  C  C42  1  0.26722800  0.46711400  0.10373700  1
  C  C43  1  0.53288600  0.80011400  0.43707100  1
  C  C44  1  0.73277200  0.53288600  0.60373700  1
  C  C45  1  0.46711400  0.26722800  0.22959600  1
  C  C46  1  0.19988600  0.73277200  0.77040400  1
  C  C47  1  0.46711400  0.19988600  0.93707100  1
  C  C48  1  0.80011400  0.53288600  0.89626300  1
  C  C49  1  0.53288600  0.73277200  0.72959600  1
  C  C50  1  0.80011400  0.26722800  0.27040400  1
  C  C51  1  0.19988600  0.46711400  0.39626300  1
  C  C52  1  0.73277200  0.19988600  0.56292900  1
  C  C53  1  0.26722800  0.80011400  0.06292900  1
  C  C54  1  0.61709100  0.15383800  0.12329300  1
  C  C55  1  0.84616200  0.46325300  0.45662700  1
  C  C56  1  0.38290900  0.84616200  0.62329300  1
  C  C57  1  0.15383800  0.61709100  0.21004000  1
  C  C58  1  0.53674700  0.38290900  0.78996000  1
  C  C59  1  0.15383800  0.53674700  0.95662700  1
  C  C60  1  0.46325300  0.84616200  0.87670700  1
  C  C61  1  0.84616200  0.38290900  0.71004000  1
  C  C62  1  0.46325300  0.61709100  0.28996000  1
  C  C63  1  0.53674700  0.15383800  0.37670700  1
  C  C64  1  0.38290900  0.53674700  0.54337300  1
  C  C65  1  0.61709100  0.46325300  0.04337300  1
  C  C66  1  0.22133000  0.02143800  0.39859700  1
  C  C67  1  0.97856200  0.19989200  0.73193100  1
  C  C68  1  0.77867000  0.97856200  0.89859700  1
  C  C69  1  0.02143800  0.22133000  0.93473600  1
  C  C70  1  0.80010800  0.77867000  0.06526400  1
  C  C71  1  0.02143800  0.80010800  0.23193100  1
  C  C72  1  0.19989200  0.97856200  0.60140300  1
  C  C73  1  0.97856200  0.77867000  0.43473600  1
  C  C74  1  0.19989200  0.22133000  0.56526400  1
  C  C75  1  0.80010800  0.02143800  0.10140300  1
  C  C76  1  0.77867000  0.80010800  0.26806900  1
  C  C77  1  0.22133000  0.19989200  0.76806900  1
  C  C78  1  0.39292200  0.32995800  0.38331800  1
  C  C79  1  0.67004200  0.06296300  0.71665100  1
  C  C80  1  0.60707800  0.67004200  0.88331800  1
  C  C81  1  0.32995800  0.39292200  0.95001500  1
  C  C82  1  0.93703700  0.60707800  0.04998500  1
  C  C83  1  0.32995800  0.93703700  0.21665100  1
  C  C84  1  0.06296300  0.67004200  0.61668200  1
  C  C85  1  0.67004200  0.60707800  0.45001500  1
  C  C86  1  0.06296300  0.39292200  0.54998500  1
  C  C87  1  0.93703700  0.32995800  0.11668200  1
  C  C88  1  0.60707800  0.93703700  0.28334900  1
  C  C89  1  0.39292200  0.06296300  0.78334900  1
  C  C90  1  0.16159200  0.00000000  0.00000000  1
  C  C91  1  0.00000000  0.16159200  0.33333300  1
  C  C92  1  0.83840800  0.00000000  0.50000000  1
  C  C93  1  0.83840800  0.83840800  0.66666700  1
  C  C94  1  0.00000000  0.83840800  0.83333300  1
  C  C95  1  0.16159200  0.16159200  0.16666700  1
