# generated using pymatgen
data_CuNi14C
_symmetry_space_group_name_H-M   'P 1'
_cell_length_a   6.57699513
_cell_length_b   6.40011836
_cell_length_c   10.55966491
_cell_angle_alpha   90.00000000
_cell_angle_beta   90.00000000
_cell_angle_gamma   119.11430116
_symmetry_Int_Tables_number   1
_chemical_formula_structural   CuNi14C
_chemical_formula_sum   'Cu1 Ni14 C1'
_cell_volume   388.33232616
_cell_formula_units_Z   1
loop_
 _symmetry_equiv_pos_site_id
 _symmetry_equiv_pos_as_xyz
  1  'x, y, z'
loop_
 _atom_site_type_symbol
 _atom_site_label
 _atom_site_symmetry_multiplicity
 _atom_site_fract_x
 _atom_site_fract_y
 _atom_site_fract_z
 _atom_site_occupancy
  C  C0  1  0.16483587  0.33241744  0.12500000  1
  Ni  Ni1  1  0.16549917  0.33274908  0.62500000  1
  Ni  Ni2  1  0.16452313  0.83226106  0.62500000  1
  Ni  Ni3  1  0.66591609  0.33012583  0.12500000  1
  Ni  Ni4  1  0.66666586  0.33426578  0.62500000  1
  Ni  Ni5  1  0.66591609  0.83578926  0.12500000  1
  Ni  Ni6  1  0.66666586  0.83239908  0.62500000  1
  Ni  Ni7  1  0.33806424  0.16971077  0.38472678  1
  Ni  Ni8  1  0.33806424  0.16971077  0.86527322  1
  Ni  Ni9  1  0.33806424  0.66835447  0.38472678  1
  Ni  Ni10  1  0.33806424  0.66835447  0.86527322  1
  Ni  Ni11  1  0.82968972  0.16484536  0.38107087  1
  Ni  Ni12  1  0.82968972  0.16484536  0.86892913  1
  Ni  Ni13  1  0.82820338  0.66410219  0.37697706  1
  Ni  Ni14  1  0.82820338  0.66410219  0.87302294  1
  Cu  Cu15  1  0.17193481  0.83596690  0.12500000  1
