# generated using pymatgen
data_Cu4Ni4C29
_symmetry_space_group_name_H-M   'P 1'
_cell_length_a   5.18301263
_cell_length_b   5.94701903
_cell_length_c   14.66484485
_cell_angle_alpha   89.99971262
_cell_angle_beta   89.97209998
_cell_angle_gamma   89.99976049
_symmetry_Int_Tables_number   1
_chemical_formula_structural   Cu4Ni4C29
_chemical_formula_sum   'Cu4 Ni4 C29'
_cell_volume   452.02142084
_cell_formula_units_Z   1
loop_
 _symmetry_equiv_pos_site_id
 _symmetry_equiv_pos_as_xyz
  1  'x, y, z'
loop_
 _atom_site_type_symbol
 _atom_site_label
 _atom_site_symmetry_multiplicity
 _atom_site_fract_x
 _atom_site_fract_y
 _atom_site_fract_z
 _atom_site_occupancy
  C  C0  1  0.74999920  0.42742111  -0.00000081  1
  C  C1  1  0.26036974  0.67671455  0.15786176  1
  C  C2  1  0.76646505  0.81504792  0.34080447  1
  C  C3  1  0.73353336  0.81504446  0.65919447  1
  C  C4  1  0.23962979  0.67671521  0.84213825  1
  Ni  Ni5  1  0.25000032  0.17285520  -0.00000022  1
  Ni  Ni6  1  0.74999883  0.31637257  0.50000059  1
  Ni  Ni7  1  0.75000126  0.89404446  -0.00000006  1
  Ni  Ni8  1  0.24999901  0.65634252  0.49999959  1
  Cu  Cu9  1  0.73569526  0.32996504  0.81370736  1
  Cu  Cu10  1  0.23834494  0.15997769  0.65983226  1
  Cu  Cu11  1  0.26165591  0.15997797  0.34016892  1
  Cu  Cu12  1  0.76430588  0.32996548  0.18629150  1
  C  C13  1  0.90444058  0.10712997  0.74056335  1
  C  C14  1  0.38598983  0.37593967  0.75861040  1
  C  C15  1  0.11401175  0.37594077  0.24139020  1
  C  C16  1  0.59556280  0.10713035  0.25943737  1
  C  C17  1  0.08808827  0.85898111  0.25452638  1
  C  C18  1  0.59606202  0.62117757  0.24279609  1
  C  C19  1  0.90393513  0.62117690  0.75720368  1
  C  C20  1  0.41191095  0.85898324  0.74547364  1
  C  C21  1  0.60226518  0.17333715  0.92019163  1
  C  C22  1  0.09619074  0.36178907  0.58025899  1
  C  C23  1  0.40380779  0.36179125  0.41974050  1
  C  C24  1  0.89773545  0.17333395  0.07980934  1
  C  C25  1  0.40523153  0.89338577  0.08314434  1
  C  C26  1  0.90301437  0.60074506  0.41733374  1
  C  C27  1  0.59698670  0.60074261  0.58266626  1
  C  C28  1  0.09477029  0.89338567  0.91685523  1
  C  C29  1  0.04576952  0.41540357  0.90432189  1
  C  C30  1  0.57037637  0.07936070  0.59767210  1
  C  C31  1  0.92962254  0.07936147  0.40232820  1
  C  C32  1  0.45423112  0.41540293  0.09567883  1
  C  C33  1  0.94449823  0.62410561  0.09152032  1
  C  C34  1  0.44001879  0.87654773  0.40066447  1
  C  C35  1  0.05998061  0.87654818  0.59933624  1
  C  C36  1  0.55550091  0.62410551  0.90847874  1
