# generated using pymatgen
data_CuNiC8
_symmetry_space_group_name_H-M   'P 1'
_cell_length_a   8.07860100
_cell_length_b   5.42501900
_cell_length_c   5.42739194
_cell_angle_alpha   89.87980042
_cell_angle_beta   90.00000000
_cell_angle_gamma   90.00000000
_symmetry_Int_Tables_number   1
_chemical_formula_structural   CuNiC8
_chemical_formula_sum   'Cu2 Ni2 C16'
_cell_volume   237.86341648
_cell_formula_units_Z   2
loop_
 _symmetry_equiv_pos_site_id
 _symmetry_equiv_pos_as_xyz
  1  'x, y, z'
loop_
 _atom_site_type_symbol
 _atom_site_label
 _atom_site_symmetry_multiplicity
 _atom_site_fract_x
 _atom_site_fract_y
 _atom_site_fract_z
 _atom_site_occupancy
  C  C0  1  0.75000000  0.52785100  0.48774400  1
  C  C1  1  0.25000000  0.47214900  0.51225600  1
  C  C2  1  0.75000000  0.02260200  0.00899500  1
  C  C3  1  0.25000000  0.97739800  0.99100500  1
  Ni  Ni4  1  0.50000000  0.00000000  0.50000000  1
  Ni  Ni5  1  0.00000000  0.00000000  0.50000000  1
  Cu  Cu6  1  0.50000000  0.50000000  0.00000000  1
  Cu  Cu7  1  0.00000000  0.50000000  0.00000000  1
  C  C8  1  0.42761400  0.67116900  0.33608800  1
  C  C9  1  0.07172800  0.16922600  0.16829300  1
  C  C10  1  0.92761400  0.32883100  0.66391200  1
  C  C11  1  0.57172800  0.83077400  0.83170700  1
  C  C12  1  0.42827200  0.16922600  0.16829300  1
  C  C13  1  0.92827200  0.83077400  0.83170700  1
  C  C14  1  0.25000000  0.59290700  0.88066400  1
  C  C15  1  0.07238600  0.67116900  0.33608800  1
  C  C16  1  0.75000000  0.90149100  0.37129800  1
  C  C17  1  0.57238600  0.32883100  0.66391200  1
  C  C18  1  0.75000000  0.40709300  0.11933600  1
  C  C19  1  0.25000000  0.09850900  0.62870200  1
