# generated using pymatgen
data_CuNi3C17
_symmetry_space_group_name_H-M   'P 1'
_cell_length_a   10.19849770
_cell_length_b   10.19849770
_cell_length_c   8.35333600
_cell_angle_alpha   90.00000000
_cell_angle_beta   90.00000000
_cell_angle_gamma   119.99999804
_symmetry_Int_Tables_number   1
_chemical_formula_structural   CuNi3C17
_chemical_formula_sum   'Cu2 Ni6 C34'
_cell_volume   752.42461594
_cell_formula_units_Z   2
loop_
 _symmetry_equiv_pos_site_id
 _symmetry_equiv_pos_as_xyz
  1  'x, y, z'
loop_
 _atom_site_type_symbol
 _atom_site_label
 _atom_site_symmetry_multiplicity
 _atom_site_fract_x
 _atom_site_fract_y
 _atom_site_fract_z
 _atom_site_occupancy
  C  C0  1  0.33333300  0.66666700  0.97311600  1
  C  C1  1  0.66666700  0.33333300  0.47311600  1
  C  C2  1  0.33333300  0.66666700  0.45621800  1
  C  C3  1  0.66666700  0.33333300  0.95621800  1
  C  C4  1  0.19797000  0.21628000  0.24658300  1
  C  C5  1  0.78372000  0.98169100  0.24658300  1
  C  C6  1  0.80203000  0.78372000  0.74658300  1
  C  C7  1  0.01830900  0.80203000  0.24658300  1
  C  C8  1  0.21628000  0.01830900  0.74658300  1
  C  C9  1  0.98169100  0.19797000  0.74658300  1
  Ni  Ni10  1  0.04556700  0.40929000  0.25448300  1
  Ni  Ni11  1  0.59071000  0.63627700  0.25448300  1
  Ni  Ni12  1  0.95443300  0.59071000  0.75448300  1
  Ni  Ni13  1  0.36372300  0.95443300  0.25448300  1
  Ni  Ni14  1  0.40929000  0.36372300  0.75448300  1
  Ni  Ni15  1  0.63627700  0.04556700  0.75448300  1
  Cu  Cu16  1  0.00000000  0.00000000  0.99564100  1
  Cu  Cu17  1  0.00000000  0.00000000  0.49564100  1
  C  C18  1  0.47401500  0.11629000  0.25116100  1
  C  C19  1  0.88371000  0.35772500  0.25116100  1
  C  C20  1  0.52598500  0.88371000  0.75116100  1
  C  C21  1  0.64227500  0.52598500  0.25116100  1
  C  C22  1  0.11629000  0.64227500  0.75116100  1
  C  C23  1  0.35772500  0.47401500  0.75116100  1
  C  C24  1  0.13761600  0.58067700  0.26950600  1
  C  C25  1  0.41932300  0.55693900  0.26950600  1
  C  C26  1  0.86238400  0.41932300  0.76950600  1
  C  C27  1  0.44306100  0.86238400  0.26950600  1
  C  C28  1  0.58067700  0.44306100  0.76950600  1
  C  C29  1  0.55693900  0.13761600  0.76950600  1
  C  C30  1  0.08965600  0.34621700  0.39679200  1
  C  C31  1  0.65378300  0.74343900  0.39679200  1
  C  C32  1  0.91034400  0.65378300  0.89679200  1
  C  C33  1  0.25656100  0.91034400  0.39679200  1
  C  C34  1  0.34621700  0.25656100  0.89679200  1
  C  C35  1  0.74343900  0.08965600  0.89679200  1
  C  C36  1  0.09594600  0.36201800  0.10648300  1
  C  C37  1  0.63798200  0.73392900  0.10648300  1
  C  C38  1  0.90405400  0.63798200  0.60648300  1
  C  C39  1  0.26607100  0.90405400  0.10648300  1
  C  C40  1  0.36201800  0.26607100  0.60648300  1
  C  C41  1  0.73392900  0.09594600  0.60648300  1
