# generated using pymatgen
data_CuNi3C14
_symmetry_space_group_name_H-M   'P 1'
_cell_length_a   10.89602610
_cell_length_b   11.11350904
_cell_length_c   17.41199688
_cell_angle_alpha   108.50032851
_cell_angle_beta   108.39893917
_cell_angle_gamma   89.72980438
_symmetry_Int_Tables_number   1
_chemical_formula_structural   CuNi3C14
_chemical_formula_sum   'Cu8 Ni24 C112'
_cell_volume   1886.59796525
_cell_formula_units_Z   8
loop_
 _symmetry_equiv_pos_site_id
 _symmetry_equiv_pos_as_xyz
  1  'x, y, z'
loop_
 _atom_site_type_symbol
 _atom_site_label
 _atom_site_symmetry_multiplicity
 _atom_site_fract_x
 _atom_site_fract_y
 _atom_site_fract_z
 _atom_site_occupancy
  C  C0  1  0.30914400  0.05889800  0.61164600  1
  C  C1  1  0.30683600  0.55908300  0.61298800  1
  C  C2  1  0.80867700  0.05824600  0.61039800  1
  C  C3  1  0.80616700  0.55666700  0.61367700  1
  C  C4  1  0.19160800  0.43944700  0.38746100  1
  C  C5  1  0.19598100  0.44406400  0.89110700  1
  C  C6  1  0.19632600  0.93902900  0.38860100  1
  C  C7  1  0.69464800  0.43869700  0.38844700  1
  C  C8  1  0.69627200  0.44386500  0.89036100  1
  C  C9  1  0.69775300  0.93815700  0.38748900  1
  C  C10  1  0.69749600  0.94119400  0.89047500  1
  C  C11  1  0.05570900  0.29903800  0.11069900  1
  C  C12  1  0.05983100  0.29910700  0.61224100  1
  C  C13  1  0.05835100  0.80224300  0.61427800  1
  C  C14  1  0.55846700  0.30627700  0.61123400  1
  C  C15  1  0.55365400  0.79588900  0.11059700  1
  C  C16  1  0.55548100  0.80119900  0.61023500  1
  C  C17  1  0.44696200  0.19881000  0.38592400  1
  C  C18  1  0.44659400  0.20025500  0.89192800  1
  C  C19  1  0.44248500  0.70238100  0.38532600  1
  C  C20  1  0.44440000  0.69653900  0.89109700  1
  C  C21  1  0.94531300  0.19577400  0.38669400  1
  C  C22  1  0.94640500  0.20318400  0.89105700  1
  C  C23  1  0.94481800  0.69850000  0.38676600  1
  C  C24  1  0.30399600  0.06091100  0.10570100  1
  C  C25  1  0.30280100  0.56166900  0.10424800  1
  C  C26  1  0.80567700  0.06521000  0.10536700  1
  C  C27  1  0.79980200  0.56164200  0.10622000  1
  C  C28  1  0.20159000  0.93605900  0.89532000  1
  C  C29  1  0.06059100  0.79158600  0.10675200  1
  C  C30  1  0.55126300  0.29382600  0.10645600  1
  C  C31  1  0.95755100  0.70577100  0.89439400  1
  Ni  Ni32  1  0.00557300  0.99875200  0.99895100  1
  Ni  Ni33  1  0.00646500  0.00084200  0.50522000  1
  Ni  Ni34  1  0.00354700  0.50294700  0.00122100  1
  Ni  Ni35  1  0.00160900  0.49972600  0.50268500  1
  Ni  Ni36  1  0.50457100  0.00031400  0.00075300  1
  Ni  Ni37  1  0.50175200  0.00086200  0.49624500  1
  Ni  Ni38  1  0.50433300  0.49985500  0.00284000  1
  Ni  Ni39  1  0.50124100  0.50043600  0.49888400  1
  Ni  Ni40  1  0.25383700  0.24960800  0.99940900  1
  Ni  Ni41  1  0.25436000  0.25227700  0.50358000  1
  Ni  Ni42  1  0.25532300  0.75194500  0.00409900  1
  Ni  Ni43  1  0.25367000  0.75238700  0.50576300  1
  Ni  Ni44  1  0.75563100  0.25545300  0.00703200  1
  Ni  Ni45  1  0.75735000  0.25189100  0.50634400  1
  Ni  Ni46  1  0.75584700  0.74955500  0.00109100  1
  Ni  Ni47  1  0.75540800  0.75154600  0.50574600  1
  Ni  Ni48  1  0.10487100  0.08761800  0.24394900  1
  Ni  Ni49  1  0.10576000  0.59501000  0.24517000  1
  Ni  Ni50  1  0.60816500  0.09386100  0.24433000  1
  Ni  Ni51  1  0.61229900  0.09393000  0.74742400  1
  Ni  Ni52  1  0.60439100  0.58575100  0.24255200  1
  Ni  Ni53  1  0.35903100  0.40644200  0.24550400  1
  Ni  Ni54  1  0.85527600  0.40497500  0.24802200  1
  Ni  Ni55  1  0.86211100  0.90390600  0.24464300  1
  Cu  Cu56  1  0.11332900  0.09501100  0.75557400  1
  Cu  Cu57  1  0.11081800  0.60166200  0.75071000  1
  Cu  Cu58  1  0.61811500  0.60387500  0.75318900  1
  Cu  Cu59  1  0.36651600  0.40244400  0.75494100  1
  Cu  Cu60  1  0.35315000  0.90660000  0.24717200  1
  Cu  Cu61  1  0.36515300  0.90330100  0.75490800  1
  Cu  Cu62  1  0.86725500  0.40449900  0.75395200  1
  Cu  Cu63  1  0.86499700  0.90297700  0.75293700  1
  C  C64  1  0.12314400  0.11648200  0.49594000  1
  C  C65  1  0.12379300  0.11436900  0.99220900  1
  C  C66  1  0.11703500  0.61751300  0.49385800  1
  C  C67  1  0.12139200  0.62637800  0.99343000  1
  C  C68  1  0.62703900  0.12545500  0.49556400  1
  C  C69  1  0.62713700  0.12710200  0.99799100  1
  C  C70  1  0.61627100  0.62063700  0.49435400  1
  C  C71  1  0.62380100  0.62081300  0.99446300  1
  C  C72  1  0.13374100  0.37981700  0.01072500  1
  C  C73  1  0.12978000  0.37172000  0.50396500  1
  C  C74  1  0.13782100  0.87848800  0.01294800  1
  C  C75  1  0.13149700  0.87348500  0.50508900  1
  C  C76  1  0.63300600  0.38052700  0.01523300  1
  C  C77  1  0.63002200  0.37603400  0.50470500  1
  C  C78  1  0.64405600  0.87717100  0.01204900  1
  C  C79  1  0.63088800  0.87344200  0.50171300  1
  C  C80  1  0.37414100  0.12871600  0.49543000  1
  C  C81  1  0.37092200  0.11743100  0.99344800  1
  C  C82  1  0.36498900  0.62794300  0.49183100  1
  C  C83  1  0.37200600  0.61783600  0.99524700  1
  C  C84  1  0.87696400  0.11600900  0.49242100  1
  C  C85  1  0.87162500  0.12206200  0.99201500  1
  C  C86  1  0.86862500  0.62184800  0.49475500  1
  C  C87  1  0.87659400  0.63198200  0.99642600  1
  C  C88  1  0.38718600  0.38288900  0.01709000  1
  C  C89  1  0.37970900  0.38426200  0.50261300  1
  C  C90  1  0.38010500  0.88147500  0.00884200  1
  C  C91  1  0.38448500  0.88622000  0.50638200  1
  C  C92  1  0.87859700  0.38772700  0.01111600  1
  C  C93  1  0.87812400  0.37347900  0.50228600  1
  C  C94  1  0.89240100  0.88791000  0.01160200  1
  C  C95  1  0.88515300  0.88047600  0.50479300  1
  C  C96  1  0.08989700  0.09236100  0.13842100  1
  C  C97  1  0.07829300  0.08305000  0.64075600  1
  C  C98  1  0.08558700  0.59674700  0.13744300  1
  C  C99  1  0.06798000  0.57980300  0.63145500  1
  C  C100  1  0.58177600  0.09316400  0.13622300  1
  C  C101  1  0.57780400  0.08737500  0.63688500  1
  C  C102  1  0.58118600  0.58516200  0.13308200  1
  C  C103  1  0.57304200  0.58714200  0.63783900  1
  C  C104  1  0.43873900  0.41256900  0.35600700  1
  C  C105  1  0.44112200  0.41498500  0.87118500  1
  C  C106  1  0.44067900  0.92474200  0.36721100  1
  C  C107  1  0.44765600  0.91245800  0.87026200  1
  C  C108  1  0.93398100  0.41711200  0.36169200  1
  C  C109  1  0.93964100  0.41667600  0.86853500  1
  C  C110  1  0.94117200  0.90869400  0.35370500  1
  C  C111  1  0.94842900  0.90599900  0.86708400  1
  C  C112  1  0.33387500  0.28632200  0.14103900  1
  C  C113  1  0.32707500  0.30199500  0.63956600  1
  C  C114  1  0.32488500  0.78859800  0.13587400  1
  C  C115  1  0.32356900  0.80046100  0.63791300  1
  C  C116  1  0.83902100  0.28743600  0.14528500  1
  C  C117  1  0.83188700  0.30448900  0.63831200  1
  C  C118  1  0.83876300  0.78663300  0.14059000  1
  C  C119  1  0.82336400  0.79997900  0.63611200  1
  C  C120  1  0.18389300  0.19379600  0.35376100  1
  C  C121  1  0.19112300  0.20775600  0.86735500  1
  C  C122  1  0.18203700  0.69920600  0.35400500  1
  C  C123  1  0.18667200  0.70879200  0.86487000  1
  C  C124  1  0.68134700  0.19431100  0.35205100  1
  C  C125  1  0.68424100  0.20314200  0.85262100  1
  C  C126  1  0.68365800  0.69327300  0.35046000  1
  C  C127  1  0.69909700  0.70316000  0.86739900  1
  C  C128  1  0.43684100  0.05468900  0.23914100  1
  C  C129  1  0.45022800  0.05346000  0.75156200  1
  C  C130  1  0.42613200  0.56187900  0.23884500  1
  C  C131  1  0.45462500  0.55399200  0.75326600  1
  C  C132  1  0.92772500  0.06093700  0.23871700  1
  C  C133  1  0.94168200  0.05990500  0.75229600  1
  C  C134  1  0.92680400  0.55737100  0.23982500  1
  C  C135  1  0.94934900  0.56563000  0.75989300  1
  C  C136  1  0.18619500  0.44067000  0.24775100  1
  C  C137  1  0.20188400  0.45329400  0.75161700  1
  C  C138  1  0.17641000  0.92963400  0.24185900  1
  C  C139  1  0.19824400  0.94289000  0.76104900  1
  C  C140  1  0.67543900  0.42600800  0.24109500  1
  C  C141  1  0.70094000  0.44601600  0.75061000  1
  C  C142  1  0.68937400  0.94118700  0.24642400  1
  C  C143  1  0.69219200  0.94387600  0.75049600  1
