# generated using pymatgen
data_Cu2(NiC)3
_symmetry_space_group_name_H-M   'P 1'
_cell_length_a   10.85137043
_cell_length_b   10.85137043
_cell_length_c   10.85137043
_cell_angle_alpha   159.87898709
_cell_angle_beta   159.87898709
_cell_angle_gamma   28.60558533
_symmetry_Int_Tables_number   1
_chemical_formula_structural   Cu2(NiC)3
_chemical_formula_sum   'Cu2 Ni3 C3'
_cell_volume   151.13522709
_cell_formula_units_Z   1
loop_
 _symmetry_equiv_pos_site_id
 _symmetry_equiv_pos_as_xyz
  1  'x, y, z'
loop_
 _atom_site_type_symbol
 _atom_site_label
 _atom_site_symmetry_multiplicity
 _atom_site_fract_x
 _atom_site_fract_y
 _atom_site_fract_z
 _atom_site_occupancy
  C  C0  1  0.00000000  0.00000000  0.00000000  1
  C  C1  1  0.31407500  0.31407500  0.00000000  1
  C  C2  1  0.68592500  0.68592500  0.00000000  1
  Ni  Ni3  1  0.12754600  0.12754600  0.00000000  1
  Ni  Ni4  1  0.87245400  0.87245400  0.00000000  1
  Ni  Ni5  1  0.50000000  0.50000000  0.00000000  1
  Cu  Cu6  1  0.75000000  0.25000000  0.50000000  1
  Cu  Cu7  1  0.25000000  0.75000000  0.50000000  1
