# generated using pymatgen
data_Cu(Ni2C3)2
_symmetry_space_group_name_H-M   'P 1'
_cell_length_a   7.24483721
_cell_length_b   7.24483721
_cell_length_c   12.61519497
_cell_angle_alpha   72.21117317
_cell_angle_beta   72.21117317
_cell_angle_gamma   59.46898064
_symmetry_Int_Tables_number   1
_chemical_formula_structural   Cu(Ni2C3)2
_chemical_formula_sum   'Cu2 Ni8 C12'
_cell_volume   533.87272944
_cell_formula_units_Z   2
loop_
 _symmetry_equiv_pos_site_id
 _symmetry_equiv_pos_as_xyz
  1  'x, y, z'
loop_
 _atom_site_type_symbol
 _atom_site_label
 _atom_site_symmetry_multiplicity
 _atom_site_fract_x
 _atom_site_fract_y
 _atom_site_fract_z
 _atom_site_occupancy
  Ni  Ni0  1  0.63290500  0.42199700  0.68893300  1
  Ni  Ni1  1  0.42199700  0.63290500  0.18893300  1
  Ni  Ni2  1  0.25811800  0.10868100  0.69242200  1
  Ni  Ni3  1  0.10868100  0.25811800  0.19242200  1
  Ni  Ni4  1  0.01459000  0.61813100  0.84771400  1
  Ni  Ni5  1  0.61813100  0.01459000  0.34771400  1
  Ni  Ni6  1  0.11307500  0.89198800  0.49929800  1
  Ni  Ni7  1  0.89198800  0.11307500  0.99929800  1
  Cu  Cu8  1  0.02503500  0.47939200  0.43728200  1
  Cu  Cu9  1  0.47939200  0.02503500  0.93728200  1
  C  C10  1  0.30564800  0.33558700  0.98584900  1
  C  C11  1  0.33558700  0.30564800  0.48584900  1
  C  C12  1  0.83367300  0.30992400  0.49097000  1
  C  C13  1  0.30992400  0.83367300  0.99097000  1
  C  C14  1  0.90282100  0.36293100  0.80620700  1
  C  C15  1  0.36293100  0.90282100  0.30620700  1
  C  C16  1  0.58854900  0.05825500  0.75765300  1
  C  C17  1  0.05825500  0.58854900  0.25765300  1
  C  C18  1  0.76705300  0.82953700  0.01228100  1
  C  C19  1  0.82953700  0.76705300  0.51228100  1
  C  C20  1  0.75530900  0.25800100  0.18509100  1
  C  C21  1  0.25800100  0.75530900  0.68509100  1
