# generated using pymatgen
data_Cu2Ni3C
_symmetry_space_group_name_H-M   'P 1'
_cell_length_a   3.44874000
_cell_length_b   12.98918000
_cell_length_c   12.18559100
_cell_angle_alpha   90.00000000
_cell_angle_beta   90.00000000
_cell_angle_gamma   90.00000000
_symmetry_Int_Tables_number   1
_chemical_formula_structural   Cu2Ni3C
_chemical_formula_sum   'Cu8 Ni12 C4'
_cell_volume   545.86944657
_cell_formula_units_Z   4
loop_
 _symmetry_equiv_pos_site_id
 _symmetry_equiv_pos_as_xyz
  1  'x, y, z'
loop_
 _atom_site_type_symbol
 _atom_site_label
 _atom_site_symmetry_multiplicity
 _atom_site_fract_x
 _atom_site_fract_y
 _atom_site_fract_z
 _atom_site_occupancy
  C  C0  1  0.75000000  0.72605400  0.62142600  1
  C  C1  1  0.25000000  0.27394600  0.37857400  1
  C  C2  1  0.25000000  0.77394600  0.12142600  1
  C  C3  1  0.75000000  0.22605400  0.87857400  1
  Ni  Ni4  1  0.75000000  0.55904900  0.68200600  1
  Ni  Ni5  1  0.25000000  0.44095100  0.31799400  1
  Ni  Ni6  1  0.25000000  0.94095100  0.18200600  1
  Ni  Ni7  1  0.75000000  0.05904900  0.81799400  1
  Ni  Ni8  1  0.75000000  0.90632500  0.61346800  1
  Ni  Ni9  1  0.25000000  0.09367500  0.38653200  1
  Ni  Ni10  1  0.25000000  0.59367500  0.11346800  1
  Ni  Ni11  1  0.75000000  0.40632500  0.88653200  1
  Ni  Ni12  1  0.75000000  0.70320600  0.38713700  1
  Ni  Ni13  1  0.25000000  0.29679400  0.61286300  1
  Ni  Ni14  1  0.25000000  0.79679400  0.88713700  1
  Ni  Ni15  1  0.75000000  0.20320600  0.11286300  1
  Cu  Cu16  1  0.75000000  0.78764100  0.96280300  1
  Cu  Cu17  1  0.25000000  0.21235900  0.03719700  1
  Cu  Cu18  1  0.25000000  0.71235900  0.46280300  1
  Cu  Cu19  1  0.75000000  0.28764100  0.53719700  1
  Cu  Cu20  1  0.75000000  0.03242000  0.29755300  1
  Cu  Cu21  1  0.25000000  0.96758000  0.70244700  1
  Cu  Cu22  1  0.25000000  0.46758000  0.79755300  1
  Cu  Cu23  1  0.75000000  0.53242000  0.20244700  1
