# generated using pymatgen
data_Cu14Ni2C3
_symmetry_space_group_name_H-M   'P 1'
_cell_length_a   5.64472950
_cell_length_b   8.22913103
_cell_length_c   11.39540600
_cell_angle_alpha   90.00000000
_cell_angle_beta   90.00000000
_cell_angle_gamma   103.92347541
_symmetry_Int_Tables_number   1
_chemical_formula_structural   Cu14Ni2C3
_chemical_formula_sum   'Cu28 Ni4 C6'
_cell_volume   513.77769284
_cell_formula_units_Z   2
loop_
 _symmetry_equiv_pos_site_id
 _symmetry_equiv_pos_as_xyz
  1  'x, y, z'
loop_
 _atom_site_type_symbol
 _atom_site_label
 _atom_site_symmetry_multiplicity
 _atom_site_fract_x
 _atom_site_fract_y
 _atom_site_fract_z
 _atom_site_occupancy
  C  C0  1  0.84520200  0.63806400  0.15967700  1
  C  C1  1  0.15479800  0.36193600  0.84032300  1
  C  C2  1  0.15479800  0.86193600  0.65967700  1
  C  C3  1  0.84520200  0.13806400  0.34032300  1
  C  C4  1  0.50000000  0.00000000  0.00000000  1
  C  C5  1  0.50000000  0.50000000  0.50000000  1
  Ni  Ni6  1  0.77179200  0.59028600  0.86260200  1
  Ni  Ni7  1  0.22820800  0.40971400  0.13739800  1
  Ni  Ni8  1  0.22820800  0.90971400  0.36260200  1
  Ni  Ni9  1  0.77179200  0.09028600  0.63739800  1
  Cu  Cu10  1  0.85751200  0.73042400  0.95126400  1
  Cu  Cu11  1  0.14248800  0.26957600  0.04873600  1
  Cu  Cu12  1  0.14248800  0.76957600  0.45126400  1
  Cu  Cu13  1  0.85751200  0.23042400  0.54873600  1
  Cu  Cu14  1  0.94563300  0.61231000  0.76344900  1
  Cu  Cu15  1  0.05436700  0.38769000  0.23655100  1
  Cu  Cu16  1  0.05436700  0.88769000  0.26344900  1
  Cu  Cu17  1  0.94563300  0.11231000  0.73655100  1
  Cu  Cu18  1  0.76864400  0.93378600  0.57352300  1
  Cu  Cu19  1  0.23135600  0.06621400  0.42647700  1
  Cu  Cu20  1  0.23135600  0.56621400  0.07352300  1
  Cu  Cu21  1  0.76864400  0.43378600  0.92647700  1
  Cu  Cu22  1  0.40651100  0.63204300  0.60908200  1
  Cu  Cu23  1  0.59348900  0.36795700  0.39091800  1
  Cu  Cu24  1  0.59348900  0.86795700  0.10908200  1
  Cu  Cu25  1  0.40651100  0.13204300  0.89091800  1
  Cu  Cu26  1  0.52442000  0.59505500  0.82109800  1
  Cu  Cu27  1  0.47558000  0.40494500  0.17890200  1
  Cu  Cu28  1  0.47558000  0.90494500  0.32109800  1
  Cu  Cu29  1  0.52442000  0.09505500  0.67890200  1
  Cu  Cu30  1  0.79896800  0.99923400  0.93825700  1
  Cu  Cu31  1  0.20103200  0.00076600  0.06174300  1
  Cu  Cu32  1  0.20103200  0.50076600  0.43825700  1
  Cu  Cu33  1  0.79896800  0.49923400  0.56174300  1
  Cu  Cu34  1  0.31660800  0.87111400  0.88825000  1
  Cu  Cu35  1  0.68339200  0.12888600  0.11175000  1
  Cu  Cu36  1  0.68339200  0.62888600  0.38825000  1
  Cu  Cu37  1  0.31660800  0.37111400  0.61175000  1
