# generated using pymatgen
data_CuNi3C16
_symmetry_space_group_name_H-M   'P 1'
_cell_length_a   11.37836500
_cell_length_b   9.38619400
_cell_length_c   13.79963608
_cell_angle_alpha   74.64453319
_cell_angle_beta   90.00000000
_cell_angle_gamma   90.00000000
_symmetry_Int_Tables_number   1
_chemical_formula_structural   CuNi3C16
_chemical_formula_sum   'Cu4 Ni12 C64'
_cell_volume   1421.18256398
_cell_formula_units_Z   4
loop_
 _symmetry_equiv_pos_site_id
 _symmetry_equiv_pos_as_xyz
  1  'x, y, z'
loop_
 _atom_site_type_symbol
 _atom_site_label
 _atom_site_symmetry_multiplicity
 _atom_site_fract_x
 _atom_site_fract_y
 _atom_site_fract_z
 _atom_site_occupancy
  C  C0  1  0.64593600  0.97395200  0.80168500  1
  C  C1  1  0.14593600  0.02604800  0.69831500  1
  C  C2  1  0.35406400  0.02604800  0.19831500  1
  C  C3  1  0.85406400  0.97395200  0.30168600  1
  C  C4  1  0.71376100  0.65098500  0.71629200  1
  C  C5  1  0.21376100  0.34901500  0.78370800  1
  C  C6  1  0.28623900  0.34901500  0.28370800  1
  C  C7  1  0.78623900  0.65098500  0.21629200  1
  C  C8  1  0.75563800  0.90641600  0.64511600  1
  C  C9  1  0.25563800  0.09358400  0.85488400  1
  C  C10  1  0.24436200  0.09358400  0.35488400  1
  C  C11  1  0.74436200  0.90641600  0.14511600  1
  C  C12  1  0.83602200  0.84434200  0.74555300  1
  C  C13  1  0.33602200  0.15565800  0.75444700  1
  C  C14  1  0.16397800  0.15565800  0.25444700  1
  C  C15  1  0.66397800  0.84434200  0.24555300  1
  C  C16  1  0.80077600  0.53093300  0.88313300  1
  C  C17  1  0.30077600  0.46906700  0.61686700  1
  C  C18  1  0.19922400  0.46906700  0.11686700  1
  C  C19  1  0.69922400  0.53093300  0.38313300  1
  C  C20  1  0.68557500  0.42414500  0.85213600  1
  C  C21  1  0.18557500  0.57585500  0.64786400  1
  C  C22  1  0.31442500  0.57585500  0.14786400  1
  C  C23  1  0.81442500  0.42414500  0.35213600  1
  C  C24  1  0.65103200  0.58023400  0.89643500  1
  C  C25  1  0.15103200  0.41976600  0.60356500  1
  C  C26  1  0.34896800  0.41976600  0.10356500  1
  C  C27  1  0.84896800  0.58023400  0.39643500  1
  C  C28  1  0.57420700  0.73296000  0.57429900  1
  C  C29  1  0.07420700  0.26704000  0.92570100  1
  C  C30  1  0.42579300  0.26704000  0.42570100  1
  C  C31  1  0.92579300  0.73296000  0.07429900  1
  C  C32  1  0.50118500  0.71467500  0.69123400  1
  C  C33  1  0.00118500  0.28532500  0.80876600  1
  C  C34  1  0.49881500  0.28532500  0.30876600  1
  C  C35  1  0.99881500  0.71467500  0.19123400  1
  C  C36  1  0.53774300  0.55487800  0.65140000  1
  C  C37  1  0.03774300  0.44512200  0.84860000  1
  C  C38  1  0.46225700  0.44512200  0.34860000  1
  C  C39  1  0.96225700  0.55487800  0.15140000  1
  C  C40  1  0.83502400  0.65923200  0.56455600  1
  C  C41  1  0.33502400  0.34076800  0.93544400  1
  C  C42  1  0.16497600  0.34076800  0.43544400  1
  C  C43  1  0.66497600  0.65923200  0.06455600  1
  C  C44  1  0.82067100  0.47589500  0.64289400  1
  C  C45  1  0.32067100  0.52410500  0.85710600  1
  C  C46  1  0.17932900  0.52410500  0.35710600  1
  C  C47  1  0.67932900  0.47589500  0.14289400  1
  C  C48  1  0.91994000  0.60148700  0.67610600  1
  C  C49  1  0.41994000  0.39851300  0.82389400  1
  C  C50  1  0.08006000  0.39851300  0.32389400  1
  C  C51  1  0.58006000  0.60148700  0.17610600  1
  C  C52  1  0.71267700  0.53774900  0.84952400  1
  C  C53  1  0.21267700  0.46225100  0.65047600  1
  C  C54  1  0.28732300  0.46225100  0.15047600  1
  C  C55  1  0.78732300  0.53774900  0.34952400  1
  C  C56  1  0.56822300  0.66573900  0.65253500  1
  C  C57  1  0.06822300  0.33426100  0.84746500  1
  C  C58  1  0.43177700  0.33426100  0.34746500  1
  C  C59  1  0.93177700  0.66573900  0.15253500  1
  C  C60  1  0.83340100  0.59213300  0.64290900  1
  C  C61  1  0.33340100  0.40786700  0.85709100  1
  C  C62  1  0.16659900  0.40786700  0.35709100  1
  C  C63  1  0.66659900  0.59213300  0.14290900  1
  Ni  Ni64  1  0.79115200  0.02539400  0.92655300  1
  Ni  Ni65  1  0.29115200  0.97460600  0.57344700  1
  Ni  Ni66  1  0.20884800  0.97460600  0.07344700  1
  Ni  Ni67  1  0.70884800  0.02539400  0.42655300  1
  Ni  Ni68  1  0.46756500  0.83436600  0.88503900  1
  Ni  Ni69  1  0.96756500  0.16563400  0.61496100  1
  Ni  Ni70  1  0.53243500  0.16563400  0.11496100  1
  Ni  Ni71  1  0.03243500  0.83436600  0.38503900  1
  Ni  Ni72  1  0.57940900  0.20445900  0.67173900  1
  Ni  Ni73  1  0.07940900  0.79554100  0.82826100  1
  Ni  Ni74  1  0.42059100  0.79554100  0.32826100  1
  Ni  Ni75  1  0.92059100  0.20445900  0.17173900  1
  Cu  Cu76  1  0.75185000  0.84179600  0.71805100  1
  Cu  Cu77  1  0.25185000  0.15820400  0.78194900  1
  Cu  Cu78  1  0.24815000  0.15820400  0.28194900  1
  Cu  Cu79  1  0.74815000  0.84179600  0.21805100  1
