# generated using pymatgen
data_CuNiC5
_symmetry_space_group_name_H-M   'P 1'
_cell_length_a   6.39690500
_cell_length_b   9.25314193
_cell_length_c   9.91404768
_cell_angle_alpha   71.03177095
_cell_angle_beta   79.08462236
_cell_angle_gamma   74.55079321
_symmetry_Int_Tables_number   1
_chemical_formula_structural   CuNiC5
_chemical_formula_sum   'Cu6 Ni6 C30'
_cell_volume   531.49853588
_cell_formula_units_Z   6
loop_
 _symmetry_equiv_pos_site_id
 _symmetry_equiv_pos_as_xyz
  1  'x, y, z'
loop_
 _atom_site_type_symbol
 _atom_site_label
 _atom_site_symmetry_multiplicity
 _atom_site_fract_x
 _atom_site_fract_y
 _atom_site_fract_z
 _atom_site_occupancy
  Ni  Ni0  1  0.45831200  0.66230800  0.28591700  1
  Ni  Ni1  1  0.54168800  0.33769200  0.71408300  1
  Ni  Ni2  1  0.79082300  0.12488700  0.01682400  1
  Ni  Ni3  1  0.20917700  0.87511300  0.98317600  1
  Ni  Ni4  1  0.48633100  0.00491500  0.30074900  1
  Ni  Ni5  1  0.51366900  0.99508500  0.69925100  1
  C  C6  1  0.04176000  0.25537300  0.33609100  1
  C  C7  1  0.95824000  0.74462700  0.66390900  1
  Cu  Cu8  1  0.25282700  0.22368600  0.01931200  1
  Cu  Cu9  1  0.74717300  0.77631400  0.98068800  1
  Cu  Cu10  1  0.02703600  0.90416700  0.31142500  1
  Cu  Cu11  1  0.97296400  0.09583300  0.68857500  1
  Cu  Cu12  1  0.49701900  0.29760700  0.41485600  1
  Cu  Cu13  1  0.50298100  0.70239300  0.58514400  1
  C  C14  1  0.18828400  0.00938100  0.75589500  1
  C  C15  1  0.81171600  0.99061900  0.24410500  1
  C  C16  1  0.70729500  0.36459300  0.01263300  1
  C  C17  1  0.29270500  0.63540700  0.98736700  1
  C  C18  1  0.68272500  0.66441200  0.12618000  1
  C  C19  1  0.31727500  0.33558800  0.87382000  1
  C  C20  1  0.00951800  0.21856000  0.54496500  1
  C  C21  1  0.99048200  0.78144000  0.45503500  1
  C  C22  1  0.01292700  0.50552600  0.68228800  1
  C  C23  1  0.98707300  0.49447400  0.31771200  1
  C  C24  1  0.19346300  0.81944100  0.20813100  1
  C  C25  1  0.80653700  0.18055900  0.79186900  1
  C  C26  1  0.72802500  0.28682000  0.33462500  1
  C  C27  1  0.27197500  0.71318000  0.66537500  1
  C  C28  1  0.37854700  0.20359000  0.36079300  1
  C  C29  1  0.62145300  0.79641000  0.63920700  1
  C  C30  1  0.11299800  0.31783200  0.12201000  1
  C  C31  1  0.88700200  0.68216800  0.87798900  1
  C  C32  1  0.11885600  0.11411200  0.00291900  1
  C  C33  1  0.88114400  0.88588800  0.99708100  1
  C  C34  1  0.13367800  0.02759100  0.33430700  1
  C  C35  1  0.86632200  0.97240900  0.66569300  1
  C  C36  1  0.46729900  0.11714100  0.08604000  1
  C  C37  1  0.53270100  0.88285900  0.91396000  1
  C  C38  1  0.36912900  0.46857800  0.38800200  1
  C  C39  1  0.63087100  0.53142200  0.61199800  1
  C  C40  1  0.49891600  0.22231800  0.58181500  1
  C  C41  1  0.50108400  0.77768200  0.41818500  1
