# generated using pymatgen
data_Cu3Ni3C34
_symmetry_space_group_name_H-M   'P 1'
_cell_length_a   10.97396734
_cell_length_b   10.97396734
_cell_length_c   10.97396734
_cell_angle_alpha   109.47122063
_cell_angle_beta   109.47122063
_cell_angle_gamma   109.47122063
_symmetry_Int_Tables_number   1
_chemical_formula_structural   Cu3Ni3C34
_chemical_formula_sum   'Cu6 Ni6 C68'
_cell_volume   1017.34697885
_cell_formula_units_Z   2
loop_
 _symmetry_equiv_pos_site_id
 _symmetry_equiv_pos_as_xyz
  1  'x, y, z'
loop_
 _atom_site_type_symbol
 _atom_site_label
 _atom_site_symmetry_multiplicity
 _atom_site_fract_x
 _atom_site_fract_y
 _atom_site_fract_z
 _atom_site_occupancy
  Ni  Ni0  1  0.75000000  0.62500000  0.87500000  1
  Ni  Ni1  1  0.25000000  0.87500000  0.62500000  1
  Ni  Ni2  1  0.62500000  0.87500000  0.75000000  1
  Ni  Ni3  1  0.87500000  0.62500000  0.25000000  1
  Ni  Ni4  1  0.87500000  0.75000000  0.62500000  1
  Ni  Ni5  1  0.62500000  0.25000000  0.87500000  1
  Cu  Cu6  1  0.25000000  0.37500000  0.12500000  1
  Cu  Cu7  1  0.75000000  0.12500000  0.37500000  1
  Cu  Cu8  1  0.37500000  0.12500000  0.25000000  1
  Cu  Cu9  1  0.12500000  0.37500000  0.75000000  1
  Cu  Cu10  1  0.12500000  0.25000000  0.37500000  1
  Cu  Cu11  1  0.37500000  0.75000000  0.12500000  1
  C  C12  1  0.25000000  0.12718100  0.87718100  1
  C  C13  1  0.75000000  0.37281900  0.62281900  1
  C  C14  1  0.12718100  0.87718100  0.25000000  1
  C  C15  1  0.37281900  0.62281900  0.75000000  1
  C  C16  1  0.87718100  0.25000000  0.12718100  1
  C  C17  1  0.62281900  0.75000000  0.37281900  1
  C  C18  1  0.75000000  0.87718100  0.12718100  1
  C  C19  1  0.25000000  0.62281900  0.37281900  1
  C  C20  1  0.87718100  0.12718100  0.75000000  1
  C  C21  1  0.62281900  0.37281900  0.25000000  1
  C  C22  1  0.12718100  0.75000000  0.87718100  1
  C  C23  1  0.37281900  0.25000000  0.62281900  1
  C  C24  1  0.00308500  0.50000000  0.00000000  1
  C  C25  1  0.00000000  0.00308500  0.50000000  1
  C  C26  1  0.50000000  0.00000000  0.00308500  1
  C  C27  1  0.49691500  0.49691500  0.49691500  1
  C  C28  1  0.49691500  0.50000000  0.00000000  1
  C  C29  1  0.50000000  0.00000000  0.49691500  1
  C  C30  1  0.00000000  0.49691500  0.50000000  1
  C  C31  1  0.00308500  0.00308500  0.00308500  1
  C  C32  1  0.03182600  0.32305400  0.90522800  1
  C  C33  1  0.91782600  0.12659800  0.59477200  1
  C  C34  1  0.58217400  0.17694600  0.20877200  1
  C  C35  1  0.46817400  0.37340200  0.29122800  1
  C  C36  1  0.32305400  0.90522800  0.03182600  1
  C  C37  1  0.12659800  0.59477200  0.91782600  1
  C  C38  1  0.17694600  0.20877200  0.58217400  1
  C  C39  1  0.37340200  0.29122800  0.46817400  1
  C  C40  1  0.90522800  0.03182600  0.32305400  1
  C  C41  1  0.59477200  0.91782600  0.12659800  1
  C  C42  1  0.20877200  0.58217400  0.17694600  1
  C  C43  1  0.29122800  0.46817400  0.37340200  1
  C  C44  1  0.97640200  0.67889600  0.09539700  1
  C  C45  1  0.08349900  0.88100400  0.40460300  1
  C  C46  1  0.41650100  0.82110400  0.79750600  1
  C  C47  1  0.52359800  0.61899600  0.70249400  1
  C  C48  1  0.67889600  0.09539700  0.97640200  1
  C  C49  1  0.88100400  0.40460300  0.08349900  1
  C  C50  1  0.82110400  0.79750600  0.41650100  1
  C  C51  1  0.61899600  0.70249400  0.52359800  1
  C  C52  1  0.09539700  0.97640200  0.67889600  1
  C  C53  1  0.40460300  0.08349900  0.88100400  1
  C  C54  1  0.79750600  0.41650100  0.82110400  1
  C  C55  1  0.70249400  0.52359800  0.61899600  1
  C  C56  1  0.52359800  0.40460300  0.82110400  1
  C  C57  1  0.41650100  0.09539700  0.61899600  1
  C  C58  1  0.08349900  0.70249400  0.67889600  1
  C  C59  1  0.97640200  0.79750600  0.88100400  1
  C  C60  1  0.82110400  0.52359800  0.40460300  1
  C  C61  1  0.61899600  0.41650100  0.09539700  1
  C  C62  1  0.67889600  0.08349900  0.70249400  1
  C  C63  1  0.88100400  0.97640200  0.79750600  1
  C  C64  1  0.40460300  0.82110400  0.52359800  1
  C  C65  1  0.09539700  0.61899600  0.41650100  1
  C  C66  1  0.70249400  0.67889600  0.08349900  1
  C  C67  1  0.79750600  0.88100400  0.97640200  1
  C  C68  1  0.46817400  0.59477200  0.17694600  1
  C  C69  1  0.58217400  0.90522800  0.37340200  1
  C  C70  1  0.91782600  0.29122800  0.32305400  1
  C  C71  1  0.03182600  0.20877200  0.12659800  1
  C  C72  1  0.17694600  0.46817400  0.59477200  1
  C  C73  1  0.37340200  0.58217400  0.90522800  1
  C  C74  1  0.32305400  0.91782600  0.29122800  1
  C  C75  1  0.12659800  0.03182600  0.20877200  1
  C  C76  1  0.59477200  0.17694600  0.46817400  1
  C  C77  1  0.90522800  0.37340200  0.58217400  1
  C  C78  1  0.29122800  0.32305400  0.91782600  1
  C  C79  1  0.20877200  0.12659800  0.03182600  1
