# generated using pymatgen
data_Cu2Ni2C7
_symmetry_space_group_name_H-M   'P 1'
_cell_length_a   5.83264424
_cell_length_b   5.83264424
_cell_length_c   4.95892000
_cell_angle_alpha   82.73914572
_cell_angle_beta   82.73914572
_cell_angle_gamma   104.84462024
_symmetry_Int_Tables_number   1
_chemical_formula_structural   Cu2Ni2C7
_chemical_formula_sum   'Cu2 Ni2 C7'
_cell_volume   159.53013209
_cell_formula_units_Z   1
loop_
 _symmetry_equiv_pos_site_id
 _symmetry_equiv_pos_as_xyz
  1  'x, y, z'
loop_
 _atom_site_type_symbol
 _atom_site_label
 _atom_site_symmetry_multiplicity
 _atom_site_fract_x
 _atom_site_fract_y
 _atom_site_fract_z
 _atom_site_occupancy
  Ni  Ni0  1  0.30461600  0.69538400  0.50000000  1
  Ni  Ni1  1  0.69538400  0.30461600  0.50000000  1
  Cu  Cu2  1  0.22666600  0.22666600  0.09159600  1
  Cu  Cu3  1  0.77333400  0.77333400  0.90840400  1
  C  C4  1  0.91979400  0.61021600  0.72249300  1
  C  C5  1  0.38978400  0.08020600  0.27750700  1
  C  C6  1  0.08020600  0.38978400  0.27750700  1
  C  C7  1  0.61021600  0.91979400  0.72249300  1
  C  C8  1  0.00000000  0.00000000  0.00000000  1
  C  C9  1  0.61323800  0.61323800  0.21628700  1
  C  C10  1  0.38676200  0.38676200  0.78371300  1
