# generated using pymatgen
data_Cu5(Ni3C)2
_symmetry_space_group_name_H-M   'P 1'
_cell_length_a   4.10555400
_cell_length_b   4.10555400
_cell_length_c   12.65254572
_cell_angle_alpha   99.33706623
_cell_angle_beta   99.33706623
_cell_angle_gamma   90.00000000
_symmetry_Int_Tables_number   1
_chemical_formula_structural   Cu5(Ni3C)2
_chemical_formula_sum   'Cu5 Ni6 C2'
_cell_volume   207.57632204
_cell_formula_units_Z   1
loop_
 _symmetry_equiv_pos_site_id
 _symmetry_equiv_pos_as_xyz
  1  'x, y, z'
loop_
 _atom_site_type_symbol
 _atom_site_label
 _atom_site_symmetry_multiplicity
 _atom_site_fract_x
 _atom_site_fract_y
 _atom_site_fract_z
 _atom_site_occupancy
  C  C0  1  0.64893100  0.64893100  0.29786200  1
  C  C1  1  0.35106900  0.35106900  0.70213800  1
  Ni  Ni2  1  0.94784000  0.44784000  0.89568100  1
  Ni  Ni3  1  0.44784000  0.94784000  0.89568100  1
  Ni  Ni4  1  0.05216000  0.55216000  0.10431900  1
  Ni  Ni5  1  0.55216000  0.05216000  0.10431900  1
  Ni  Ni6  1  0.25000000  0.75000000  0.50000000  1
  Ni  Ni7  1  0.75000000  0.25000000  0.50000000  1
  Cu  Cu8  1  0.50000000  0.50000000  0.00000000  1
  Cu  Cu9  1  0.89615100  0.89615100  0.79230300  1
  Cu  Cu10  1  0.10384900  0.10384900  0.20769700  1
  Cu  Cu11  1  0.80173400  0.80173400  0.60346800  1
  Cu  Cu12  1  0.19826600  0.19826600  0.39653200  1
