# generated using pymatgen
data_Cu8NiC6
_symmetry_space_group_name_H-M   'P 1'
_cell_length_a   7.72583600
_cell_length_b   7.76237000
_cell_length_c   9.80631900
_cell_angle_alpha   90.00000000
_cell_angle_beta   90.00000000
_cell_angle_gamma   90.00000000
_symmetry_Int_Tables_number   1
_chemical_formula_structural   Cu8NiC6
_chemical_formula_sum   'Cu16 Ni2 C12'
_cell_volume   588.09277186
_cell_formula_units_Z   2
loop_
 _symmetry_equiv_pos_site_id
 _symmetry_equiv_pos_as_xyz
  1  'x, y, z'
loop_
 _atom_site_type_symbol
 _atom_site_label
 _atom_site_symmetry_multiplicity
 _atom_site_fract_x
 _atom_site_fract_y
 _atom_site_fract_z
 _atom_site_occupancy
  C  C0  1  0.17179300  0.50000000  0.50000000  1
  C  C1  1  0.82820700  0.00000000  0.00000000  1
  C  C2  1  0.50000000  0.25000000  0.75000000  1
  C  C3  1  0.50000000  0.25000000  0.25000000  1
  C  C4  1  0.50000000  0.75000000  0.75000000  1
  C  C5  1  0.35574900  0.00000000  0.00000000  1
  C  C6  1  0.64425100  0.50000000  0.50000000  1
  C  C7  1  0.50000000  0.75000000  0.25000000  1
  C  C8  1  0.08328400  0.00000000  0.68159100  1
  C  C9  1  0.91671600  0.50000000  0.81840900  1
  C  C10  1  0.08328400  0.00000000  0.31840900  1
  C  C11  1  0.91671600  0.50000000  0.18159100  1
  Ni  Ni12  1  0.41976400  0.50000000  0.00000000  1
  Ni  Ni13  1  0.58023600  0.00000000  0.50000000  1
  Cu  Cu14  1  0.38742800  0.50000000  0.64750800  1
  Cu  Cu15  1  0.93439100  0.50000000  0.64025900  1
  Cu  Cu16  1  0.06560900  0.00000000  0.14025900  1
  Cu  Cu17  1  0.21373100  0.17806600  0.65613600  1
  Cu  Cu18  1  0.78626900  0.32193400  0.15613600  1
  Cu  Cu19  1  0.78626900  0.67806600  0.15613600  1
  Cu  Cu20  1  0.61257200  0.00000000  0.85249200  1
  Cu  Cu21  1  0.21373100  0.82193400  0.65613600  1
  Cu  Cu22  1  0.21373100  0.82193400  0.34386400  1
  Cu  Cu23  1  0.78626900  0.67806600  0.84386400  1
  Cu  Cu24  1  0.38742800  0.50000000  0.35249200  1
  Cu  Cu25  1  0.61257200  0.00000000  0.14750800  1
  Cu  Cu26  1  0.78626900  0.32193400  0.84386400  1
  Cu  Cu27  1  0.21373100  0.17806600  0.34386400  1
  Cu  Cu28  1  0.06560900  0.00000000  0.85974100  1
  Cu  Cu29  1  0.93439100  0.50000000  0.35974100  1
