# generated using pymatgen
data_Cu9NiC8
_symmetry_space_group_name_H-M   'P 1'
_cell_length_a   9.23157360
_cell_length_b   9.23157360
_cell_length_c   8.14640700
_cell_angle_alpha   90.00000000
_cell_angle_beta   90.00000000
_cell_angle_gamma   109.53888167
_symmetry_Int_Tables_number   1
_chemical_formula_structural   Cu9NiC8
_chemical_formula_sum   'Cu18 Ni2 C16'
_cell_volume   654.27398307
_cell_formula_units_Z   2
loop_
 _symmetry_equiv_pos_site_id
 _symmetry_equiv_pos_as_xyz
  1  'x, y, z'
loop_
 _atom_site_type_symbol
 _atom_site_label
 _atom_site_symmetry_multiplicity
 _atom_site_fract_x
 _atom_site_fract_y
 _atom_site_fract_z
 _atom_site_occupancy
  C  C0  1  0.75841900  0.75841900  0.00000000  1
  C  C1  1  0.24158100  0.24158100  0.50000000  1
  C  C2  1  0.00729800  0.27013900  0.93424700  1
  C  C3  1  0.27013900  0.00729800  0.06575300  1
  C  C4  1  0.99270200  0.72986100  0.43424700  1
  C  C5  1  0.72986100  0.99270200  0.56575300  1
  C  C6  1  0.36154900  0.63845100  0.75000000  1
  C  C7  1  0.63845100  0.36154900  0.25000000  1
  C  C8  1  0.63997000  0.36003000  0.75000000  1
  C  C9  1  0.36003000  0.63997000  0.25000000  1
  C  C10  1  0.59823700  0.01665000  0.96957900  1
  C  C11  1  0.01665000  0.59823700  0.03042100  1
  C  C12  1  0.40176300  0.98335000  0.46957900  1
  C  C13  1  0.98335000  0.40176300  0.53042100  1
  C  C14  1  0.37521200  0.37521200  0.00000000  1
  C  C15  1  0.62478800  0.62478800  0.50000000  1
  Ni  Ni16  1  0.05552000  0.94448000  0.75000000  1
  Ni  Ni17  1  0.94448000  0.05552000  0.25000000  1
  Cu  Cu18  1  0.50737000  0.50737000  0.00000000  1
  Cu  Cu19  1  0.49263000  0.49263000  0.50000000  1
  Cu  Cu20  1  0.49449700  0.87013900  0.01001200  1
  Cu  Cu21  1  0.87013900  0.49449700  0.98998800  1
  Cu  Cu22  1  0.50550300  0.12986100  0.51001200  1
  Cu  Cu23  1  0.12986100  0.50550300  0.48998800  1
  Cu  Cu24  1  0.14969400  0.56788600  0.98631000  1
  Cu  Cu25  1  0.56788600  0.14969400  0.01369000  1
  Cu  Cu26  1  0.85030600  0.43211400  0.48631000  1
  Cu  Cu27  1  0.43211400  0.85030600  0.51369000  1
  Cu  Cu28  1  0.68774800  0.68709600  0.34978800  1
  Cu  Cu29  1  0.68709600  0.68774800  0.65021200  1
  Cu  Cu30  1  0.31225200  0.31290400  0.84978800  1
  Cu  Cu31  1  0.31290400  0.31225200  0.15021200  1
  Cu  Cu32  1  0.73052900  0.02899600  0.88068000  1
  Cu  Cu33  1  0.02899600  0.73052900  0.11932000  1
  Cu  Cu34  1  0.26947100  0.97100400  0.38068000  1
  Cu  Cu35  1  0.97100400  0.26947100  0.61932000  1
