# generated using pymatgen
data_CuNi5C8
_symmetry_space_group_name_H-M   'P 1'
_cell_length_a   7.25985649
_cell_length_b   7.25985649
_cell_length_c   8.51025845
_cell_angle_alpha   89.71698251
_cell_angle_beta   90.28301749
_cell_angle_gamma   71.33329311
_symmetry_Int_Tables_number   1
_chemical_formula_structural   CuNi5C8
_chemical_formula_sum   'Cu1 Ni5 C8'
_cell_volume   424.92763261
_cell_formula_units_Z   1
loop_
 _symmetry_equiv_pos_site_id
 _symmetry_equiv_pos_as_xyz
  1  'x, y, z'
loop_
 _atom_site_type_symbol
 _atom_site_label
 _atom_site_symmetry_multiplicity
 _atom_site_fract_x
 _atom_site_fract_y
 _atom_site_fract_z
 _atom_site_occupancy
  Ni  Ni0  1  0.01155700  0.01155700  0.50000000  1
  Ni  Ni1  1  0.48884200  0.48884200  0.00000000  1
  Ni  Ni2  1  0.49929400  0.49929400  0.50000000  1
  Ni  Ni3  1  0.01145900  0.48729800  0.75429500  1
  Ni  Ni4  1  0.48729800  0.01145900  0.24570500  1
  Cu  Cu5  1  0.00071700  0.00071700  0.00000000  1
  C  C6  1  0.61436100  0.11170900  0.98426800  1
  C  C7  1  0.11306000  0.62104300  0.48176600  1
  C  C8  1  0.11170900  0.61436100  0.01573200  1
  C  C9  1  0.62104300  0.11306000  0.51823400  1
  C  C10  1  0.11168900  0.16160700  0.25040900  1
  C  C11  1  0.61966500  0.64770100  0.75182200  1
  C  C12  1  0.16160700  0.11168900  0.74959100  1
  C  C13  1  0.64770100  0.61966500  0.24817800  1
