# generated using pymatgen
data_Cu4Ni4C19
_symmetry_space_group_name_H-M   'P 1'
_cell_length_a   9.64085300
_cell_length_b   9.64085300
_cell_length_c   7.12910100
_cell_angle_alpha   90.00000000
_cell_angle_beta   90.00000000
_cell_angle_gamma   90.00000000
_symmetry_Int_Tables_number   1
_chemical_formula_structural   Cu4Ni4C19
_chemical_formula_sum   'Cu8 Ni8 C38'
_cell_volume   662.62175353
_cell_formula_units_Z   2
loop_
 _symmetry_equiv_pos_site_id
 _symmetry_equiv_pos_as_xyz
  1  'x, y, z'
loop_
 _atom_site_type_symbol
 _atom_site_label
 _atom_site_symmetry_multiplicity
 _atom_site_fract_x
 _atom_site_fract_y
 _atom_site_fract_z
 _atom_site_occupancy
  C  C0  1  0.50000000  0.50000000  0.00000000  1
  C  C1  1  0.00000000  0.00000000  0.00000000  1
  C  C2  1  0.00000000  0.50000000  0.98120900  1
  C  C3  1  0.50000000  0.00000000  0.01879100  1
  Ni  Ni4  1  0.76635800  0.51952200  0.40184800  1
  Ni  Ni5  1  0.23364200  0.48047800  0.40184800  1
  Ni  Ni6  1  0.73364200  0.01952200  0.59815200  1
  Ni  Ni7  1  0.26635800  0.98047800  0.59815200  1
  Ni  Ni8  1  0.51952200  0.76635800  0.59815200  1
  Ni  Ni9  1  0.48047800  0.23364200  0.59815200  1
  Ni  Ni10  1  0.01952200  0.73364200  0.40184800  1
  Ni  Ni11  1  0.98047800  0.26635800  0.40184800  1
  Cu  Cu12  1  0.77344100  0.31562000  0.74196500  1
  Cu  Cu13  1  0.22655900  0.68438000  0.74196500  1
  Cu  Cu14  1  0.72655900  0.81562000  0.25803500  1
  Cu  Cu15  1  0.27344100  0.18438000  0.25803500  1
  Cu  Cu16  1  0.31562000  0.77344100  0.25803500  1
  Cu  Cu17  1  0.68438000  0.22655900  0.25803500  1
  Cu  Cu18  1  0.81562000  0.72655900  0.74196500  1
  Cu  Cu19  1  0.18438000  0.27344100  0.74196500  1
  C  C20  1  0.84218400  0.36875800  0.55387900  1
  C  C21  1  0.15781600  0.63124200  0.55387900  1
  C  C22  1  0.65781600  0.86875800  0.44612100  1
  C  C23  1  0.34218400  0.13124200  0.44612100  1
  C  C24  1  0.36875800  0.84218400  0.44612100  1
  C  C25  1  0.63124200  0.15781600  0.44612100  1
  C  C26  1  0.86875800  0.65781600  0.55387900  1
  C  C27  1  0.13124200  0.34218400  0.55387900  1
  C  C28  1  0.61541500  0.34571100  0.73729100  1
  C  C29  1  0.38458500  0.65428900  0.73729100  1
  C  C30  1  0.88458500  0.84571100  0.26270900  1
  C  C31  1  0.11541500  0.15428900  0.26270900  1
  C  C32  1  0.34571100  0.61541500  0.26270900  1
  C  C33  1  0.65428900  0.38458500  0.26270900  1
  C  C34  1  0.84571100  0.88458500  0.73729100  1
  C  C35  1  0.15428900  0.11541500  0.73729100  1
  C  C36  1  0.82915100  0.40119200  0.90784900  1
  C  C37  1  0.17084900  0.59880800  0.90784900  1
  C  C38  1  0.67084900  0.90119200  0.09215100  1
  C  C39  1  0.32915100  0.09880800  0.09215100  1
  C  C40  1  0.40119200  0.82915100  0.09215100  1
  C  C41  1  0.59880800  0.17084900  0.09215100  1
  C  C42  1  0.90119200  0.67084900  0.90784900  1
  C  C43  1  0.09880800  0.32915100  0.90784900  1
  C  C44  1  0.00000000  0.50000000  0.22047000  1
  C  C45  1  0.50000000  0.00000000  0.77953000  1
  C  C46  1  0.81321300  0.16114700  0.76291700  1
  C  C47  1  0.18678700  0.83885300  0.76291700  1
  C  C48  1  0.68678700  0.66114700  0.23708300  1
  C  C49  1  0.31321300  0.33885300  0.23708300  1
  C  C50  1  0.16114700  0.81321300  0.23708300  1
  C  C51  1  0.83885300  0.18678700  0.23708300  1
  C  C52  1  0.66114700  0.68678700  0.76291700  1
  C  C53  1  0.33885300  0.31321300  0.76291700  1
