# generated using pymatgen
data_CuNiC2
_symmetry_space_group_name_H-M   'P 1'
_cell_length_a   3.90759232
_cell_length_b   3.90759232
_cell_length_c   10.41113919
_cell_angle_alpha   79.18350370
_cell_angle_beta   79.18350370
_cell_angle_gamma   59.99999453
_symmetry_Int_Tables_number   1
_chemical_formula_structural   CuNiC2
_chemical_formula_sum   'Cu2 Ni2 C4'
_cell_volume   134.40133490
_cell_formula_units_Z   2
loop_
 _symmetry_equiv_pos_site_id
 _symmetry_equiv_pos_as_xyz
  1  'x, y, z'
loop_
 _atom_site_type_symbol
 _atom_site_label
 _atom_site_symmetry_multiplicity
 _atom_site_fract_x
 _atom_site_fract_y
 _atom_site_fract_z
 _atom_site_occupancy
  C  C0  1  0.62018300  0.62018300  0.13945100  1
  C  C1  1  0.37981700  0.37981700  0.86054900  1
  Ni  Ni2  1  0.80377700  0.80377700  0.58866900  1
  Ni  Ni3  1  0.19622300  0.19622300  0.41133100  1
  Cu  Cu4  1  0.11190700  0.11190700  0.66427900  1
  Cu  Cu5  1  0.88809300  0.88809300  0.33572100  1
  C  C6  1  0.69471800  0.69471800  0.91584600  1
  C  C7  1  0.30528200  0.30528200  0.08415400  1
