# generated using pymatgen
data_Cu32NiC31
_symmetry_space_group_name_H-M   'P 1'
_cell_length_a   8.49216600
_cell_length_b   8.49216600
_cell_length_c   8.46133900
_cell_angle_alpha   90.00000000
_cell_angle_beta   90.00000000
_cell_angle_gamma   90.00000000
_symmetry_Int_Tables_number   1
_chemical_formula_structural   Cu32NiC31
_chemical_formula_sum   'Cu32 Ni1 C31'
_cell_volume   610.20539783
_cell_formula_units_Z   1
loop_
 _symmetry_equiv_pos_site_id
 _symmetry_equiv_pos_as_xyz
  1  'x, y, z'
loop_
 _atom_site_type_symbol
 _atom_site_label
 _atom_site_symmetry_multiplicity
 _atom_site_fract_x
 _atom_site_fract_y
 _atom_site_fract_z
 _atom_site_occupancy
  C  C0  1  0.00000000  0.00000000  0.00000000  1
  C  C1  1  0.50000000  0.00000000  0.00000000  1
  C  C2  1  0.50000000  0.00000000  0.50000000  1
  C  C3  1  0.00000000  0.50000000  0.00000000  1
  C  C4  1  0.00000000  0.50000000  0.50000000  1
  C  C5  1  0.50000000  0.50000000  0.00000000  1
  C  C6  1  0.50000000  0.50000000  0.50000000  1
  C  C7  1  0.24857200  0.00000000  0.24933900  1
  C  C8  1  0.24857200  0.00000000  0.75066100  1
  C  C9  1  0.75142800  0.00000000  0.24933900  1
  C  C10  1  0.75142800  0.00000000  0.75066100  1
  C  C11  1  0.24973700  0.50000000  0.24944400  1
  C  C12  1  0.24973700  0.50000000  0.75055600  1
  C  C13  1  0.75026300  0.50000000  0.24944400  1
  C  C14  1  0.75026300  0.50000000  0.75055600  1
  C  C15  1  0.00000000  0.24857200  0.24933900  1
  C  C16  1  0.00000000  0.24857200  0.75066100  1
  C  C17  1  0.50000000  0.24973700  0.24944400  1
  C  C18  1  0.50000000  0.24973700  0.75055600  1
  C  C19  1  0.00000000  0.75142800  0.24933900  1
  C  C20  1  0.00000000  0.75142800  0.75066100  1
  C  C21  1  0.50000000  0.75026300  0.24944400  1
  C  C22  1  0.50000000  0.75026300  0.75055600  1
  C  C23  1  0.24676100  0.24676100  0.00000000  1
  C  C24  1  0.24778200  0.24778200  0.50000000  1
  C  C25  1  0.75323900  0.24676100  0.00000000  1
  C  C26  1  0.75221800  0.24778200  0.50000000  1
  C  C27  1  0.24676100  0.75323900  0.00000000  1
  C  C28  1  0.24778200  0.75221800  0.50000000  1
  C  C29  1  0.75323900  0.75323900  0.00000000  1
  C  C30  1  0.75221800  0.75221800  0.50000000  1
  Ni  Ni31  1  0.00000000  0.00000000  0.50000000  1
  Cu  Cu32  1  0.00000000  0.25040400  0.00000000  1
  Cu  Cu33  1  0.00000000  0.24454900  0.50000000  1
  Cu  Cu34  1  0.50000000  0.24983400  0.00000000  1
  Cu  Cu35  1  0.50000000  0.24806600  0.50000000  1
  Cu  Cu36  1  0.00000000  0.74959600  0.00000000  1
  Cu  Cu37  1  0.00000000  0.75545100  0.50000000  1
  Cu  Cu38  1  0.50000000  0.75016600  0.00000000  1
  Cu  Cu39  1  0.50000000  0.75193400  0.50000000  1
  Cu  Cu40  1  0.24887900  0.24887900  0.25080300  1
  Cu  Cu41  1  0.24887900  0.24887900  0.74919700  1
  Cu  Cu42  1  0.75112100  0.24887900  0.25080300  1
  Cu  Cu43  1  0.75112100  0.24887900  0.74919700  1
  Cu  Cu44  1  0.24887900  0.75112100  0.25080300  1
  Cu  Cu45  1  0.24887900  0.75112100  0.74919700  1
  Cu  Cu46  1  0.75112100  0.75112100  0.25080300  1
  Cu  Cu47  1  0.75112100  0.75112100  0.74919700  1
  Cu  Cu48  1  0.00000000  0.00000000  0.28548600  1
  Cu  Cu49  1  0.00000000  0.00000000  0.71451400  1
  Cu  Cu50  1  0.50000000  0.00000000  0.25267800  1
  Cu  Cu51  1  0.50000000  0.00000000  0.74732200  1
  Cu  Cu52  1  0.00000000  0.50000000  0.25267800  1
  Cu  Cu53  1  0.00000000  0.50000000  0.74732200  1
  Cu  Cu54  1  0.50000000  0.50000000  0.25110600  1
  Cu  Cu55  1  0.50000000  0.50000000  0.74889400  1
  Cu  Cu56  1  0.25040400  0.00000000  0.00000000  1
  Cu  Cu57  1  0.24454900  0.00000000  0.50000000  1
  Cu  Cu58  1  0.74959600  0.00000000  0.00000000  1
  Cu  Cu59  1  0.75545100  0.00000000  0.50000000  1
  Cu  Cu60  1  0.24983400  0.50000000  0.00000000  1
  Cu  Cu61  1  0.24806600  0.50000000  0.50000000  1
  Cu  Cu62  1  0.75016600  0.50000000  0.00000000  1
  Cu  Cu63  1  0.75193400  0.50000000  0.50000000  1
