# generated using pymatgen
data_CuNi2C11
_symmetry_space_group_name_H-M   'P 1'
_cell_length_a   3.87656802
_cell_length_b   3.87656802
_cell_length_c   11.86502700
_cell_angle_alpha   90.00000000
_cell_angle_beta   90.00000000
_cell_angle_gamma   90.13968887
_symmetry_Int_Tables_number   1
_chemical_formula_structural   CuNi2C11
_chemical_formula_sum   'Cu1 Ni2 C11'
_cell_volume   178.30448120
_cell_formula_units_Z   1
loop_
 _symmetry_equiv_pos_site_id
 _symmetry_equiv_pos_as_xyz
  1  'x, y, z'
loop_
 _atom_site_type_symbol
 _atom_site_label
 _atom_site_symmetry_multiplicity
 _atom_site_fract_x
 _atom_site_fract_y
 _atom_site_fract_z
 _atom_site_occupancy
  C  C0  1  0.50671800  0.50671800  0.69474000  1
  C  C1  1  0.50671800  0.50671800  0.30526000  1
  C  C2  1  0.50068800  0.50068800  0.00000000  1
  Ni  Ni3  1  0.00120600  0.00120600  0.85902900  1
  Ni  Ni4  1  0.00120600  0.00120600  0.14097100  1
  Cu  Cu5  1  0.98951700  0.98951700  0.50000000  1
  C  C6  1  0.00161000  0.50110700  0.87433500  1
  C  C7  1  0.50110700  0.00161000  0.87433500  1
  C  C8  1  0.00161000  0.50110700  0.12566500  1
  C  C9  1  0.50110700  0.00161000  0.12566500  1
  C  C10  1  0.99603900  0.99603900  0.67110300  1
  C  C11  1  0.99603900  0.99603900  0.32889700  1
  C  C12  1  0.95349200  0.48531500  0.50000000  1
  C  C13  1  0.48531500  0.95349200  0.50000000  1
