# generated using pymatgen
data_Cu11(NiC16)5
_symmetry_space_group_name_H-M   'P 1'
_cell_length_a   5.00927800
_cell_length_b   5.03274565
_cell_length_c   38.42233228
_cell_angle_alpha   91.20164109
_cell_angle_beta   90.74977363
_cell_angle_gamma   119.56561252
_symmetry_Int_Tables_number   1
_chemical_formula_structural   Cu11(NiC16)5
_chemical_formula_sum   'Cu11 Ni5 C80'
_cell_volume   842.02619944
_cell_formula_units_Z   1
loop_
 _symmetry_equiv_pos_site_id
 _symmetry_equiv_pos_as_xyz
  1  'x, y, z'
loop_
 _atom_site_type_symbol
 _atom_site_label
 _atom_site_symmetry_multiplicity
 _atom_site_fract_x
 _atom_site_fract_y
 _atom_site_fract_z
 _atom_site_occupancy
  C  C0  1  0.91651500  0.09189100  0.75022400  1
  C  C1  1  0.00235900  0.50531500  0.99979300  1
  C  C2  1  0.94240600  0.44210300  0.81254100  1
  C  C3  1  0.87377800  0.37459600  0.62513600  1
  C  C4  1  0.81367500  0.30878200  0.43744400  1
  C  C5  1  0.74620600  0.25033900  0.25001500  1
  C  C6  1  0.68734000  0.18740700  0.06247900  1
  C  C7  1  0.96697900  0.78439500  0.87488400  1
  C  C8  1  0.62354400  0.12436100  0.87501000  1
  C  C9  1  0.84144600  0.66285100  0.49986400  1
  C  C10  1  0.72079100  0.53893200  0.12501400  1
  C  C11  1  0.56079200  0.06614900  0.68759400  1
  C  C12  1  0.50177200  0.00134600  0.49991600  1
  C  C13  1  0.58712700  0.41096600  0.74990500  1
  C  C14  1  0.46204600  0.28544100  0.37505600  1
  C  C15  1  0.78503500  0.96444400  0.37515600  1
  C  C16  1  0.65921500  0.83550000  0.99994900  1
  C  C17  1  0.33824400  0.15966200  0.99970800  1
  C  C18  1  0.22087500  0.03987000  0.62514000  1
  C  C19  1  0.53111000  0.70941100  0.62506300  1
  C  C20  1  0.41681100  0.59230200  0.25022800  1
  C  C21  1  0.43730300  0.93740900  0.31251000  1
  C  C22  1  0.28497000  0.46590800  0.87508100  1
  C  C23  1  0.15583800  0.33662000  0.50010900  1
  C  C24  1  0.37410100  0.87560800  0.12498500  1
  C  C25  1  0.03097900  0.20924500  0.12493000  1
  C  C26  1  0.30772900  0.80949900  0.93745500  1
  C  C27  1  0.24630500  0.74594300  0.75009100  1
  C  C28  1  0.18741100  0.68747500  0.56246900  1
  C  C29  1  0.12778300  0.62563800  0.37506500  1
  C  C30  1  0.05975000  0.56557900  0.18752400  1
  C  C31  1  0.08735900  0.90750400  0.24972800  1
  Ni  Ni32  1  0.64589400  0.47943600  0.93747900  1
  Ni  Ni33  1  0.72987300  0.89535000  0.18750000  1
  Ni  Ni34  1  0.60443400  0.77085500  0.81251000  1
  Ni  Ni35  1  0.23014000  0.39540500  0.68752200  1
  Ni  Ni36  1  0.14426900  0.97951600  0.43746400  1
  Cu  Cu37  1  0.97342600  0.14007000  0.93736300  1
  Cu  Cu38  1  0.85778900  0.01580600  0.56259800  1
  Cu  Cu39  1  0.89298800  0.73467200  0.68745400  1
  Cu  Cu40  1  0.77759500  0.60910100  0.31276300  1
  Cu  Cu41  1  0.51714900  0.35853700  0.56243500  1
  Cu  Cu42  1  0.39250700  0.23414600  0.18744900  1
  Cu  Cu43  1  0.27613100  0.11048000  0.81263400  1
  Cu  Cu44  1  0.48123800  0.64023000  0.43760200  1
  Cu  Cu45  1  0.35801400  0.51601400  0.06257500  1
  Cu  Cu46  1  0.09777400  0.26599500  0.31224200  1
  Cu  Cu47  1  0.01730300  0.85868000  0.06241000  1
  C  C48  1  0.91438100  0.05285700  0.65966000  1
  C  C49  1  0.94546900  0.08428000  0.84057100  1
  C  C50  1  0.92926300  0.42985400  0.71598600  1
  C  C51  1  0.80991100  0.29941800  0.34141200  1
  C  C52  1  0.94481000  0.45046900  0.90843900  1
  C  C53  1  0.82134000  0.32051200  0.53404700  1
  C  C54  1  0.69565900  0.19391800  0.15908800  1
  C  C55  1  0.68383400  0.18176000  0.96588800  1
  C  C56  1  0.55457000  0.05522500  0.59092400  1
  C  C57  1  0.92859600  0.78653700  0.78440800  1
  C  C58  1  0.56522700  0.06731700  0.78409800  1
  C  C59  1  0.80204900  0.66409200  0.40958000  1
  C  C60  1  0.66898600  0.53091400  0.03419000  1
  C  C61  1  0.96107000  0.81287500  0.96575400  1
  C  C62  1  0.84404100  0.70726800  0.59082100  1
  C  C63  1  0.71875400  0.57883200  0.21582700  1
  C  C64  1  0.79296300  0.94205100  0.28431800  1
  C  C65  1  0.82567200  0.96838300  0.46587500  1
  C  C66  1  0.70590600  0.84307700  0.09087800  1
  C  C67  1  0.54899700  0.40664600  0.65909000  1
  C  C68  1  0.43027600  0.28702900  0.28458900  1
  C  C69  1  0.58579100  0.44428000  0.84033200  1
  C  C70  1  0.46050400  0.32205400  0.46531400  1
  C  C71  1  0.34386900  0.20705700  0.09083400  1
  C  C72  1  0.66599100  0.80664800  0.90969500  1
  C  C73  1  0.53121100  0.66730800  0.53415700  1
  C  C74  1  0.41488200  0.55254800  0.15967900  1
  C  C75  1  0.57233400  0.71082700  0.71534800  1
  C  C76  1  0.44484400  0.58728600  0.34039800  1
  C  C77  1  0.30566400  0.16466200  0.90946800  1
  C  C78  1  0.16954700  0.03189200  0.53411700  1
  C  C79  1  0.21871500  0.07815900  0.71579100  1
  C  C80  1  0.28848100  0.43593900  0.78443100  1
  C  C81  1  0.15625000  0.29676300  0.40919400  1
  C  C82  1  0.03100400  0.16733100  0.03422900  1
  C  C83  1  0.32006500  0.46262900  0.96546100  1
  C  C84  1  0.20586200  0.34342100  0.59084600  1
  C  C85  1  0.43008500  0.93091100  0.21591900  1
  C  C86  1  0.07216300  0.21085200  0.21536900  1
  C  C87  1  0.44520300  0.94500900  0.40899600  1
  C  C88  1  0.32168500  0.82036100  0.03415400  1
  C  C89  1  0.30501000  0.79967600  0.84155800  1
  C  C90  1  0.17987300  0.68122100  0.46588800  1
  C  C91  1  0.05426400  0.55475300  0.09093100  1
  C  C92  1  0.19472900  0.69379800  0.65907200  1
  C  C93  1  0.06522600  0.57532600  0.28354600  1
  C  C94  1  0.04873500  0.90636800  0.15912700  1
  C  C95  1  0.08211700  0.93282200  0.34063500  1
