# generated using pymatgen
data_Cu3Ni9C2
_symmetry_space_group_name_H-M   'P 1'
_cell_length_a   7.57790242
_cell_length_b   7.57790242
_cell_length_c   9.45418700
_cell_angle_alpha   90.00000000
_cell_angle_beta   90.00000000
_cell_angle_gamma   120.08812802
_symmetry_Int_Tables_number   1
_chemical_formula_structural   Cu3Ni9C2
_chemical_formula_sum   'Cu6 Ni18 C4'
_cell_volume   469.74966858
_cell_formula_units_Z   2
loop_
 _symmetry_equiv_pos_site_id
 _symmetry_equiv_pos_as_xyz
  1  'x, y, z'
loop_
 _atom_site_type_symbol
 _atom_site_label
 _atom_site_symmetry_multiplicity
 _atom_site_fract_x
 _atom_site_fract_y
 _atom_site_fract_z
 _atom_site_occupancy
  C  C0  1  0.99701600  0.66762200  0.75000000  1
  C  C1  1  0.00298400  0.33237800  0.25000000  1
  C  C2  1  0.66762200  0.99701600  0.75000000  1
  C  C3  1  0.33237800  0.00298400  0.25000000  1
  Ni  Ni4  1  0.12705000  0.12705000  0.75000000  1
  Ni  Ni5  1  0.87295000  0.87295000  0.25000000  1
  Ni  Ni6  1  0.99840000  0.33354100  0.58125200  1
  Ni  Ni7  1  0.00160000  0.66645900  0.41874800  1
  Ni  Ni8  1  0.00160000  0.66645900  0.08125200  1
  Ni  Ni9  1  0.33354100  0.99840000  0.91874800  1
  Ni  Ni10  1  0.99840000  0.33354100  0.91874800  1
  Ni  Ni11  1  0.66645900  0.00160000  0.08125200  1
  Ni  Ni12  1  0.66645900  0.00160000  0.41874800  1
  Ni  Ni13  1  0.33354100  0.99840000  0.58125200  1
  Ni  Ni14  1  0.33253700  0.33253700  0.06574400  1
  Ni  Ni15  1  0.66746300  0.66746300  0.93425600  1
  Ni  Ni16  1  0.66746300  0.66746300  0.56574400  1
  Ni  Ni17  1  0.33253700  0.33253700  0.43425600  1
  Ni  Ni18  1  0.33884400  0.54611400  0.75000000  1
  Ni  Ni19  1  0.66115600  0.45388600  0.25000000  1
  Ni  Ni20  1  0.54611400  0.33884400  0.75000000  1
  Ni  Ni21  1  0.45388600  0.66115600  0.25000000  1
  Cu  Cu22  1  0.67181600  0.32818400  0.50000000  1
  Cu  Cu23  1  0.32818400  0.67181600  0.50000000  1
  Cu  Cu24  1  0.32818400  0.67181600  0.00000000  1
  Cu  Cu25  1  0.67181600  0.32818400  0.00000000  1
  Cu  Cu26  1  0.00000000  0.00000000  0.50000000  1
  Cu  Cu27  1  0.00000000  0.00000000  0.00000000  1
