# generated using pymatgen
data_Cu4NiC17
_symmetry_space_group_name_H-M   'P 1'
_cell_length_a   7.67118630
_cell_length_b   7.67118630
_cell_length_c   7.67118626
_cell_angle_alpha   60.45853903
_cell_angle_beta   60.45853903
_cell_angle_gamma   60.45853632
_symmetry_Int_Tables_number   1
_chemical_formula_structural   Cu4NiC17
_chemical_formula_sum   'Cu4 Ni1 C17'
_cell_volume   322.51594474
_cell_formula_units_Z   1
loop_
 _symmetry_equiv_pos_site_id
 _symmetry_equiv_pos_as_xyz
  1  'x, y, z'
loop_
 _atom_site_type_symbol
 _atom_site_label
 _atom_site_symmetry_multiplicity
 _atom_site_fract_x
 _atom_site_fract_y
 _atom_site_fract_z
 _atom_site_occupancy
  Ni  Ni0  1  0.00000000  0.00000000  0.00000000  1
  Cu  Cu1  1  0.50000000  0.50000000  0.50000000  1
  Cu  Cu2  1  0.00000000  0.50000000  0.50000000  1
  Cu  Cu3  1  0.50000000  0.50000000  0.00000000  1
  Cu  Cu4  1  0.50000000  0.00000000  0.50000000  1
  C  C5  1  0.50000000  0.00000000  0.00000000  1
  C  C6  1  0.00000000  0.00000000  0.50000000  1
  C  C7  1  0.00000000  0.50000000  0.00000000  1
  C  C8  1  0.62371400  0.62371400  0.62371400  1
  C  C9  1  0.37628600  0.37628600  0.37628600  1
  C  C10  1  0.91284200  0.32953100  0.32953100  1
  C  C11  1  0.35312500  0.90338800  0.90338800  1
  C  C12  1  0.32953100  0.32953100  0.91284200  1
  C  C13  1  0.90338800  0.90338800  0.35312500  1
  C  C14  1  0.90338800  0.35312500  0.90338800  1
  C  C15  1  0.32953100  0.91284200  0.32953100  1
  C  C16  1  0.08715800  0.67046900  0.67046900  1
  C  C17  1  0.64687500  0.09661200  0.09661200  1
  C  C18  1  0.67046900  0.67046900  0.08715800  1
  C  C19  1  0.09661200  0.09661200  0.64687500  1
  C  C20  1  0.09661200  0.64687500  0.09661200  1
  C  C21  1  0.67046900  0.08715800  0.67046900  1
