# generated using pymatgen
data_CuNi2C11
_symmetry_space_group_name_H-M   'P 1'
_cell_length_a   4.30367600
_cell_length_b   4.30367600
_cell_length_c   11.72668200
_cell_angle_alpha   90.00000000
_cell_angle_beta   90.00000000
_cell_angle_gamma   90.00000000
_symmetry_Int_Tables_number   1
_chemical_formula_structural   CuNi2C11
_chemical_formula_sum   'Cu1 Ni2 C11'
_cell_volume   217.19723128
_cell_formula_units_Z   1
loop_
 _symmetry_equiv_pos_site_id
 _symmetry_equiv_pos_as_xyz
  1  'x, y, z'
loop_
 _atom_site_type_symbol
 _atom_site_label
 _atom_site_symmetry_multiplicity
 _atom_site_fract_x
 _atom_site_fract_y
 _atom_site_fract_z
 _atom_site_occupancy
  Ni  Ni0  1  0.50000000  0.50000000  0.17015500  1
  Ni  Ni1  1  0.50000000  0.50000000  0.82984500  1
  Cu  Cu2  1  0.50000000  0.50000000  0.50000000  1
  C  C3  1  0.00000000  0.00000000  0.36580200  1
  C  C4  1  0.00000000  0.00000000  0.00000000  1
  C  C5  1  0.00000000  0.00000000  0.63419800  1
  C  C6  1  0.00000000  0.50000000  0.37426200  1
  C  C7  1  0.50000000  0.00000000  0.37426200  1
  C  C8  1  0.50000000  0.00000000  0.00000000  1
  C  C9  1  0.00000000  0.00000000  0.18591000  1
  C  C10  1  0.00000000  0.50000000  0.62573800  1
  C  C11  1  0.50000000  0.00000000  0.62573800  1
  C  C12  1  0.00000000  0.00000000  0.81409000  1
  C  C13  1  0.00000000  0.50000000  0.00000000  1
