# generated using pymatgen
data_CuNi3C2
_symmetry_space_group_name_H-M   'P 1'
_cell_length_a   6.88790600
_cell_length_b   6.88790600
_cell_length_c   6.88790600
_cell_angle_alpha   90.00000000
_cell_angle_beta   90.00000000
_cell_angle_gamma   90.00000000
_symmetry_Int_Tables_number   1
_chemical_formula_structural   CuNi3C2
_chemical_formula_sum   'Cu4 Ni12 C8'
_cell_volume   326.78463989
_cell_formula_units_Z   4
loop_
 _symmetry_equiv_pos_site_id
 _symmetry_equiv_pos_as_xyz
  1  'x, y, z'
loop_
 _atom_site_type_symbol
 _atom_site_label
 _atom_site_symmetry_multiplicity
 _atom_site_fract_x
 _atom_site_fract_y
 _atom_site_fract_z
 _atom_site_occupancy
  Ni  Ni0  1  0.12440400  0.80020000  0.04787100  1
  Ni  Ni1  1  0.37559600  0.19980000  0.54787100  1
  Ni  Ni2  1  0.87559600  0.30020000  0.45212900  1
  Ni  Ni3  1  0.62440400  0.69980000  0.95212900  1
  Ni  Ni4  1  0.80020000  0.04787100  0.12440400  1
  Ni  Ni5  1  0.19980000  0.54787100  0.37559600  1
  Ni  Ni6  1  0.30020000  0.45212900  0.87559600  1
  Ni  Ni7  1  0.69980000  0.95212900  0.62440400  1
  Ni  Ni8  1  0.04787100  0.12440400  0.80020000  1
  Ni  Ni9  1  0.54787100  0.37559600  0.19980000  1
  Ni  Ni10  1  0.45212900  0.87559600  0.30020000  1
  Ni  Ni11  1  0.95212900  0.62440400  0.69980000  1
  Cu  Cu12  1  0.69117700  0.30882300  0.80882300  1
  Cu  Cu13  1  0.30882300  0.80882300  0.69117700  1
  Cu  Cu14  1  0.80882300  0.69117700  0.30882300  1
  Cu  Cu15  1  0.19117700  0.19117700  0.19117700  1
  C  C16  1  0.05924000  0.94076000  0.44076000  1
  C  C17  1  0.44076000  0.05924000  0.94076000  1
  C  C18  1  0.94076000  0.44076000  0.05924000  1
  C  C19  1  0.55924000  0.55924000  0.55924000  1
  C  C20  1  0.37576500  0.62423500  0.12423500  1
  C  C21  1  0.12423500  0.37576500  0.62423500  1
  C  C22  1  0.62423500  0.12423500  0.37576500  1
  C  C23  1  0.87576500  0.87576500  0.87576500  1
