# generated using pymatgen
data_Cu2Ni2C5
_symmetry_space_group_name_H-M   'P 1'
_cell_length_a   10.65597400
_cell_length_b   9.25843800
_cell_length_c   12.54901716
_cell_angle_alpha   49.29663377
_cell_angle_beta   90.00000000
_cell_angle_gamma   90.00000000
_symmetry_Int_Tables_number   1
_chemical_formula_structural   Cu2Ni2C5
_chemical_formula_sum   'Cu12 Ni12 C30'
_cell_volume   938.56597531
_cell_formula_units_Z   6
loop_
 _symmetry_equiv_pos_site_id
 _symmetry_equiv_pos_as_xyz
  1  'x, y, z'
loop_
 _atom_site_type_symbol
 _atom_site_label
 _atom_site_symmetry_multiplicity
 _atom_site_fract_x
 _atom_site_fract_y
 _atom_site_fract_z
 _atom_site_occupancy
  C  C0  1  0.16658100  0.41607000  0.09704000  1
  C  C1  1  0.33341900  0.41607000  0.59704000  1
  C  C2  1  0.83341900  0.58393000  0.90296000  1
  C  C3  1  0.66658100  0.58393000  0.40296000  1
  C  C4  1  0.36726600  0.71350800  0.20430200  1
  C  C5  1  0.13273400  0.71350800  0.70430200  1
  C  C6  1  0.63273400  0.28649200  0.79569800  1
  C  C7  1  0.86726600  0.28649200  0.29569800  1
  C  C8  1  0.50000000  0.00000000  0.50000000  1
  C  C9  1  0.00000000  0.00000000  0.00000000  1
  Ni  Ni10  1  0.48804200  0.85301100  0.71444600  1
  Ni  Ni11  1  0.01195800  0.85301100  0.21444600  1
  Ni  Ni12  1  0.51195800  0.14698900  0.28555400  1
  Ni  Ni13  1  0.98804200  0.14698900  0.78555400  1
  Ni  Ni14  1  0.19128000  0.99214600  0.97712700  1
  Ni  Ni15  1  0.30872000  0.99214600  0.47712700  1
  Ni  Ni16  1  0.80872000  0.00785400  0.02287300  1
  Ni  Ni17  1  0.69128000  0.00785400  0.52287300  1
  Ni  Ni18  1  0.47563300  0.25715400  0.45689100  1
  Ni  Ni19  1  0.02436700  0.25715400  0.95689100  1
  Ni  Ni20  1  0.52436700  0.74284600  0.54310900  1
  Ni  Ni21  1  0.97563300  0.74284600  0.04310900  1
  Cu  Cu22  1  0.48775700  0.77520000  0.83525700  1
  Cu  Cu23  1  0.01224300  0.77520000  0.33525700  1
  Cu  Cu24  1  0.51224300  0.22480000  0.16474300  1
  Cu  Cu25  1  0.98775700  0.22480000  0.66474300  1
  Cu  Cu26  1  0.30052100  0.97678000  0.97355000  1
  Cu  Cu27  1  0.19947900  0.97678000  0.47355000  1
  Cu  Cu28  1  0.69947900  0.02322000  0.02645000  1
  Cu  Cu29  1  0.80052100  0.02322000  0.52645000  1
  Cu  Cu30  1  0.46191400  0.40371500  0.42998200  1
  Cu  Cu31  1  0.03808600  0.40371500  0.92998200  1
  Cu  Cu32  1  0.53808600  0.59628500  0.57001800  1
  Cu  Cu33  1  0.96191400  0.59628500  0.07001800  1
  C  C34  1  0.43316200  0.15424900  0.80813900  1
  C  C35  1  0.06683800  0.15424900  0.30813900  1
  C  C36  1  0.56683800  0.84575100  0.19186100  1
  C  C37  1  0.93316200  0.84575100  0.69186100  1
  C  C38  1  0.56796300  0.59010000  0.13519600  1
  C  C39  1  0.93203700  0.59010000  0.63519600  1
  C  C40  1  0.43203700  0.40990000  0.86480400  1
  C  C41  1  0.06796300  0.40990000  0.36480400  1
  C  C42  1  0.17086300  0.44952700  0.30598300  1
  C  C43  1  0.32913700  0.44952700  0.80598300  1
  C  C44  1  0.82913700  0.55047300  0.69401700  1
  C  C45  1  0.67086300  0.55047300  0.19401700  1
  C  C46  1  0.19636800  0.18558100  0.62842100  1
  C  C47  1  0.30363200  0.18558100  0.12842100  1
  C  C48  1  0.80363200  0.81441900  0.37157900  1
  C  C49  1  0.69636800  0.81441900  0.87157900  1
  C  C50  1  0.23532800  0.69628300  0.88002200  1
  C  C51  1  0.26467200  0.69628300  0.38002200  1
  C  C52  1  0.76467200  0.30371700  0.11997800  1
  C  C53  1  0.73532800  0.30371700  0.61997800  1
