# generated using pymatgen
data_CuNiC3
_symmetry_space_group_name_H-M   'P 1'
_cell_length_a   6.92154800
_cell_length_b   7.10970900
_cell_length_c   15.50380000
_cell_angle_alpha   90.00000000
_cell_angle_beta   90.00000000
_cell_angle_gamma   90.00000000
_symmetry_Int_Tables_number   1
_chemical_formula_structural   CuNiC3
_chemical_formula_sum   'Cu4 Ni4 C12'
_cell_volume   762.94497643
_cell_formula_units_Z   4
loop_
 _symmetry_equiv_pos_site_id
 _symmetry_equiv_pos_as_xyz
  1  'x, y, z'
loop_
 _atom_site_type_symbol
 _atom_site_label
 _atom_site_symmetry_multiplicity
 _atom_site_fract_x
 _atom_site_fract_y
 _atom_site_fract_z
 _atom_site_occupancy
  Ni  Ni0  1  0.54576800  0.50000000  0.25000000  1
  Ni  Ni1  1  0.45423200  0.50000000  0.75000000  1
  Ni  Ni2  1  0.95423200  0.00000000  0.25000000  1
  Ni  Ni3  1  0.04576800  0.00000000  0.75000000  1
  Cu  Cu4  1  0.75000000  0.75000000  0.00002900  1
  Cu  Cu5  1  0.25000000  0.25000000  0.99997100  1
  Cu  Cu6  1  0.75000000  0.25000000  0.49997100  1
  Cu  Cu7  1  0.25000000  0.75000000  0.50002900  1
  C  C8  1  0.75000000  0.75000000  0.44175400  1
  C  C9  1  0.25000000  0.25000000  0.55824600  1
  C  C10  1  0.75000000  0.25000000  0.05824600  1
  C  C11  1  0.25000000  0.75000000  0.94175400  1
  C  C12  1  0.06582700  0.55197400  0.14891700  1
  C  C13  1  0.93417300  0.44802600  0.85108300  1
  C  C14  1  0.06582700  0.44802600  0.35108300  1
  C  C15  1  0.43417300  0.05197400  0.35108300  1
  C  C16  1  0.93417300  0.55197400  0.64891700  1
  C  C17  1  0.56582700  0.94802600  0.64891700  1
  C  C18  1  0.43417300  0.94802600  0.14891700  1
  C  C19  1  0.56582700  0.05197400  0.85108300  1
