# generated using pymatgen
data_Cu5Ni2C
_symmetry_space_group_name_H-M   'P 1'
_cell_length_a   10.20342800
_cell_length_b   8.70598200
_cell_length_c   9.96253200
_cell_angle_alpha   90.00000000
_cell_angle_beta   90.00000000
_cell_angle_gamma   90.00000000
_symmetry_Int_Tables_number   1
_chemical_formula_structural   Cu5Ni2C
_chemical_formula_sum   'Cu20 Ni8 C4'
_cell_volume   884.98029038
_cell_formula_units_Z   4
loop_
 _symmetry_equiv_pos_site_id
 _symmetry_equiv_pos_as_xyz
  1  'x, y, z'
loop_
 _atom_site_type_symbol
 _atom_site_label
 _atom_site_symmetry_multiplicity
 _atom_site_fract_x
 _atom_site_fract_y
 _atom_site_fract_z
 _atom_site_occupancy
  C  C0  1  0.55170500  0.75000000  0.95868900  1
  C  C1  1  0.44829500  0.25000000  0.04131200  1
  C  C2  1  0.05170500  0.25000000  0.54131100  1
  C  C3  1  0.94829500  0.75000000  0.45868800  1
  Ni  Ni4  1  0.43672700  0.40311300  0.59512100  1
  Ni  Ni5  1  0.56327300  0.59688700  0.40487900  1
  Ni  Ni6  1  0.93672700  0.59688700  0.90487900  1
  Ni  Ni7  1  0.56327300  0.90311300  0.40487900  1
  Ni  Ni8  1  0.06327300  0.40311300  0.09512100  1
  Ni  Ni9  1  0.43672700  0.09688700  0.59512100  1
  Ni  Ni10  1  0.06327300  0.09688700  0.09512100  1
  Ni  Ni11  1  0.93672700  0.90311300  0.90487900  1
  Cu  Cu12  1  0.41139500  0.75000000  0.73718600  1
  Cu  Cu13  1  0.58860500  0.25000000  0.26281400  1
  Cu  Cu14  1  0.91139500  0.25000000  0.76281400  1
  Cu  Cu15  1  0.08860500  0.75000000  0.23718600  1
  Cu  Cu16  1  0.64243500  0.44628700  0.92821000  1
  Cu  Cu17  1  0.35756500  0.55371300  0.07179000  1
  Cu  Cu18  1  0.14243500  0.55371300  0.57179000  1
  Cu  Cu19  1  0.35756500  0.94628700  0.07179000  1
  Cu  Cu20  1  0.85756500  0.44628700  0.42821000  1
  Cu  Cu21  1  0.64243500  0.05371300  0.92821000  1
  Cu  Cu22  1  0.85756500  0.05371300  0.42821000  1
  Cu  Cu23  1  0.14243500  0.94628700  0.57179000  1
  Cu  Cu24  1  0.00024700  0.75000000  0.94398900  1
  Cu  Cu25  1  0.99975300  0.25000000  0.05601100  1
  Cu  Cu26  1  0.50024700  0.25000000  0.55601100  1
  Cu  Cu27  1  0.49975300  0.75000000  0.44398900  1
  Cu  Cu28  1  0.77082100  0.75000000  0.73819800  1
  Cu  Cu29  1  0.22917900  0.25000000  0.26180200  1
  Cu  Cu30  1  0.27082100  0.25000000  0.76180200  1
  Cu  Cu31  1  0.72917900  0.75000000  0.23819800  1
