# generated using pymatgen
data_Cu7NiC14
_symmetry_space_group_name_H-M   'P 1'
_cell_length_a   5.65491063
_cell_length_b   5.65491063
_cell_length_c   13.11476696
_cell_angle_alpha   92.95951337
_cell_angle_beta   92.95951337
_cell_angle_gamma   105.86093250
_symmetry_Int_Tables_number   1
_chemical_formula_structural   Cu7NiC14
_chemical_formula_sum   'Cu14 Ni2 C28'
_cell_volume   401.93481221
_cell_formula_units_Z   2
loop_
 _symmetry_equiv_pos_site_id
 _symmetry_equiv_pos_as_xyz
  1  'x, y, z'
loop_
 _atom_site_type_symbol
 _atom_site_label
 _atom_site_symmetry_multiplicity
 _atom_site_fract_x
 _atom_site_fract_y
 _atom_site_fract_z
 _atom_site_occupancy
  C  C0  1  0.73055900  0.65774300  0.24289300  1
  C  C1  1  0.65774300  0.73055900  0.74289300  1
  C  C2  1  0.33334000  0.04946700  0.27901400  1
  C  C3  1  0.04946700  0.33334000  0.77901400  1
  C  C4  1  0.83237600  0.55785700  0.50635400  1
  C  C5  1  0.55785700  0.83237600  0.00635400  1
  C  C6  1  0.52532800  0.88519500  0.46167300  1
  C  C7  1  0.88519500  0.52532800  0.96167300  1
  C  C8  1  0.47698000  0.05589000  0.56107600  1
  C  C9  1  0.05589000  0.47698000  0.06107600  1
  C  C10  1  0.18602800  0.59361600  0.22749500  1
  C  C11  1  0.59361600  0.18602800  0.72749500  1
  C  C12  1  0.02143800  0.30786600  0.21379000  1
  C  C13  1  0.30786600  0.02143800  0.71379000  1
  C  C14  1  0.16576100  0.59022300  0.61253700  1
  C  C15  1  0.59022300  0.16576100  0.11253700  1
  C  C16  1  0.15646800  0.02509700  0.43935100  1
  C  C17  1  0.02509700  0.15646800  0.93935100  1
  C  C18  1  0.35297600  0.32979700  0.43240700  1
  C  C19  1  0.32979700  0.35297600  0.93240700  1
  C  C20  1  0.89304400  0.15969300  0.54040400  1
  C  C21  1  0.15969300  0.89304400  0.04040400  1
  C  C22  1  0.84962400  0.19115500  0.40727900  1
  C  C23  1  0.19115500  0.84962400  0.90727900  1
  C  C24  1  0.33586900  0.13325900  0.41705500  1
  C  C25  1  0.13325900  0.33586900  0.91705500  1
  C  C26  1  0.78233400  0.22314400  0.48216900  1
  C  C27  1  0.22314400  0.78233400  0.98216900  1
  Ni  Ni28  1  0.52473000  0.06391800  0.48396400  1
  Ni  Ni29  1  0.06391800  0.52473000  0.98396400  1
  Cu  Cu30  1  0.02697400  0.47772900  0.19471100  1
  Cu  Cu31  1  0.47772900  0.02697400  0.69471100  1
  Cu  Cu32  1  0.06179800  0.00873600  0.24022800  1
  Cu  Cu33  1  0.00873600  0.06179800  0.74022800  1
  Cu  Cu34  1  0.41428900  0.80991300  0.27475100  1
  Cu  Cu35  1  0.80991300  0.41428900  0.77475100  1
  Cu  Cu36  1  0.51075200  0.25696600  0.22614900  1
  Cu  Cu37  1  0.25696600  0.51075200  0.72614900  1
  Cu  Cu38  1  0.11793300  0.64302400  0.54317700  1
  Cu  Cu39  1  0.64302400  0.11793300  0.04317700  1
  Cu  Cu40  1  0.80408900  0.67252700  0.40638800  1
  Cu  Cu41  1  0.67252700  0.80408900  0.90638800  1
  Cu  Cu42  1  0.66762300  0.60907300  0.58699200  1
  Cu  Cu43  1  0.60907300  0.66762300  0.08699200  1
