# generated using pymatgen
data_CuNi4C19
_symmetry_space_group_name_H-M   'P 1'
_cell_length_a   3.03345397
_cell_length_b   3.03345397
_cell_length_c   29.49043061
_cell_angle_alpha   87.00605988
_cell_angle_beta   87.00605988
_cell_angle_gamma   56.28665588
_symmetry_Int_Tables_number   1
_chemical_formula_structural   CuNi4C19
_chemical_formula_sum   'Cu1 Ni4 C19'
_cell_volume   225.33290310
_cell_formula_units_Z   1
loop_
 _symmetry_equiv_pos_site_id
 _symmetry_equiv_pos_as_xyz
  1  'x, y, z'
loop_
 _atom_site_type_symbol
 _atom_site_label
 _atom_site_symmetry_multiplicity
 _atom_site_fract_x
 _atom_site_fract_y
 _atom_site_fract_z
 _atom_site_occupancy
  C  C0  1  0.33309400  0.33309400  0.91691800  1
  C  C1  1  0.00034500  0.00034500  0.74966100  1
  C  C2  1  0.66554500  0.66554500  0.58142400  1
  C  C3  1  0.33444000  0.33444000  0.41843000  1
  C  C4  1  0.99547700  0.99547700  0.24496200  1
  C  C5  1  0.67007800  0.67007800  0.08802200  1
  C  C6  1  0.33447300  0.33447300  0.16729000  1
  Ni  Ni7  1  0.00286000  0.00286000  0.00013900  1
  Ni  Ni8  1  0.66517100  0.66517100  0.33310200  1
  Ni  Ni9  1  0.66688600  0.66688600  0.83322400  1
  Ni  Ni10  1  0.33188000  0.33188000  0.66655500  1
  Cu  Cu11  1  0.99978000  0.99978000  0.50003300  1
  C  C12  1  0.64916400  0.64916400  0.96122000  1
  C  C13  1  0.31166500  0.31166500  0.79484100  1
  C  C14  1  0.98000400  0.98000400  0.62878500  1
  C  C15  1  0.67645400  0.67645400  0.46190200  1
  C  C16  1  0.32020700  0.32020700  0.29716100  1
  C  C17  1  0.99686200  0.99686200  0.12469800  1
  C  C18  1  0.02163400  0.02163400  0.87157800  1
  C  C19  1  0.68680700  0.68680700  0.70547800  1
  C  C20  1  0.32396900  0.32396900  0.53813700  1
  C  C21  1  0.01583100  0.01583100  0.37110900  1
  C  C22  1  0.66898100  0.66898100  0.20909200  1
  C  C23  1  0.34839500  0.34839500  0.03623700  1
