# generated using pymatgen
data_Cu9Ni3C
_symmetry_space_group_name_H-M   'P 1'
_cell_length_a   7.48366475
_cell_length_b   7.48366475
_cell_length_c   7.64031100
_cell_angle_alpha   90.00000000
_cell_angle_beta   90.00000000
_cell_angle_gamma   120.00000660
_symmetry_Int_Tables_number   1
_chemical_formula_structural   Cu9Ni3C
_chemical_formula_sum   'Cu18 Ni6 C2'
_cell_volume   370.57002539
_cell_formula_units_Z   2
loop_
 _symmetry_equiv_pos_site_id
 _symmetry_equiv_pos_as_xyz
  1  'x, y, z'
loop_
 _atom_site_type_symbol
 _atom_site_label
 _atom_site_symmetry_multiplicity
 _atom_site_fract_x
 _atom_site_fract_y
 _atom_site_fract_z
 _atom_site_occupancy
  Ni  Ni0  1  0.76150100  0.88075100  0.25000000  1
  Ni  Ni1  1  0.11924900  0.88075100  0.25000000  1
  Ni  Ni2  1  0.88075100  0.76150100  0.75000000  1
  Ni  Ni3  1  0.23849900  0.11924900  0.75000000  1
  Ni  Ni4  1  0.88075100  0.11924900  0.75000000  1
  Ni  Ni5  1  0.11924900  0.23849900  0.25000000  1
  Cu  Cu6  1  0.79968300  0.20031700  0.43581200  1
  Cu  Cu7  1  0.79968300  0.20031700  0.06418800  1
  Cu  Cu8  1  0.20031700  0.79968300  0.56418800  1
  Cu  Cu9  1  0.20031700  0.40063400  0.56418800  1
  Cu  Cu10  1  0.59936600  0.79968300  0.56418800  1
  Cu  Cu11  1  0.40063400  0.20031700  0.06418800  1
  Cu  Cu12  1  0.45737400  0.91474800  0.25000000  1
  Cu  Cu13  1  0.54262600  0.45737400  0.75000000  1
  Cu  Cu14  1  0.91474800  0.45737400  0.75000000  1
  Cu  Cu15  1  0.79968300  0.59936600  0.06418800  1
  Cu  Cu16  1  0.45737400  0.54262600  0.25000000  1
  Cu  Cu17  1  0.54262600  0.08525200  0.75000000  1
  Cu  Cu18  1  0.20031700  0.40063400  0.93581200  1
  Cu  Cu19  1  0.08525200  0.54262600  0.25000000  1
  Cu  Cu20  1  0.40063400  0.20031700  0.43581200  1
  Cu  Cu21  1  0.59936600  0.79968300  0.93581200  1
  Cu  Cu22  1  0.20031700  0.79968300  0.93581200  1
  Cu  Cu23  1  0.79968300  0.59936600  0.43581200  1
  C  C24  1  0.00000000  0.00000000  0.00000000  1
  C  C25  1  0.00000000  0.00000000  0.50000000  1
