# generated using pymatgen
data_CuNi2C9
_symmetry_space_group_name_H-M   'P 1'
_cell_length_a   5.82231329
_cell_length_b   5.82231329
_cell_length_c   6.42585692
_cell_angle_alpha   81.43048100
_cell_angle_beta   81.43048100
_cell_angle_gamma   120.10300568
_symmetry_Int_Tables_number   1
_chemical_formula_structural   CuNi2C9
_chemical_formula_sum   'Cu1 Ni2 C9'
_cell_volume   179.86152797
_cell_formula_units_Z   1
loop_
 _symmetry_equiv_pos_site_id
 _symmetry_equiv_pos_as_xyz
  1  'x, y, z'
loop_
 _atom_site_type_symbol
 _atom_site_label
 _atom_site_symmetry_multiplicity
 _atom_site_fract_x
 _atom_site_fract_y
 _atom_site_fract_z
 _atom_site_occupancy
  Ni  Ni0  1  0.16794400  0.83205600  0.50000000  1
  Ni  Ni1  1  0.83205600  0.16794400  0.50000000  1
  Cu  Cu2  1  0.50000000  0.50000000  0.50000000  1
  C  C3  1  0.00000000  0.00000000  0.00000000  1
  C  C4  1  0.33628700  0.66371300  0.00000000  1
  C  C5  1  0.66371300  0.33628700  0.00000000  1
  C  C6  1  0.72606300  0.06394900  0.81834100  1
  C  C7  1  0.06394900  0.72606300  0.81834100  1
  C  C8  1  0.38439700  0.38439700  0.83123000  1
  C  C9  1  0.93605100  0.27393700  0.18165900  1
  C  C10  1  0.27393700  0.93605100  0.18165900  1
  C  C11  1  0.61560300  0.61560300  0.16877000  1
