# generated using pymatgen
data_Cu3Ni2C5
_symmetry_space_group_name_H-M   'P 1'
_cell_length_a   7.84424200
_cell_length_b   11.36381100
_cell_length_c   11.73782100
_cell_angle_alpha   90.00000000
_cell_angle_beta   90.00000000
_cell_angle_gamma   90.00000000
_symmetry_Int_Tables_number   1
_chemical_formula_structural   Cu3Ni2C5
_chemical_formula_sum   'Cu12 Ni8 C20'
_cell_volume   1046.31503948
_cell_formula_units_Z   4
loop_
 _symmetry_equiv_pos_site_id
 _symmetry_equiv_pos_as_xyz
  1  'x, y, z'
loop_
 _atom_site_type_symbol
 _atom_site_label
 _atom_site_symmetry_multiplicity
 _atom_site_fract_x
 _atom_site_fract_y
 _atom_site_fract_z
 _atom_site_occupancy
  C  C0  1  0.30189800  0.15412300  0.65614000  1
  C  C1  1  0.69810200  0.84587700  0.15614000  1
  C  C2  1  0.69810200  0.65412300  0.65614000  1
  C  C3  1  0.30189800  0.34587700  0.15614000  1
  C  C4  1  0.26644500  0.21884100  0.52705000  1
  C  C5  1  0.73355500  0.78115900  0.02705000  1
  C  C6  1  0.73355500  0.71884100  0.52705000  1
  C  C7  1  0.26644500  0.28115900  0.02705000  1
  C  C8  1  0.15570200  0.52983100  0.93331400  1
  C  C9  1  0.84429800  0.47016900  0.43331400  1
  C  C10  1  0.84429800  0.02983100  0.93331400  1
  C  C11  1  0.15570200  0.97016900  0.43331400  1
  C  C12  1  0.07457900  0.08010000  0.49841200  1
  C  C13  1  0.92542100  0.91990000  0.99841200  1
  C  C14  1  0.92542100  0.58010000  0.49841200  1
  C  C15  1  0.07457900  0.41990000  0.99841200  1
  Ni  Ni16  1  0.18749600  0.59340900  0.83334600  1
  Ni  Ni17  1  0.81250400  0.40659100  0.33334600  1
  Ni  Ni18  1  0.81250400  0.09340900  0.83334600  1
  Ni  Ni19  1  0.18749600  0.90659100  0.33334600  1
  Ni  Ni20  1  0.26267600  0.62788600  0.92549200  1
  Ni  Ni21  1  0.73732400  0.37211400  0.42549200  1
  Ni  Ni22  1  0.73732400  0.12788600  0.92549200  1
  Ni  Ni23  1  0.26267600  0.87211400  0.42549200  1
  Cu  Cu24  1  0.52061500  0.07612700  0.54854900  1
  Cu  Cu25  1  0.47938500  0.92387300  0.04854900  1
  Cu  Cu26  1  0.47938500  0.57612700  0.54854900  1
  Cu  Cu27  1  0.52061500  0.42387300  0.04854900  1
  Cu  Cu28  1  0.48434600  0.28270000  0.73868000  1
  Cu  Cu29  1  0.51565400  0.71730000  0.23868000  1
  Cu  Cu30  1  0.51565400  0.78270000  0.73868000  1
  Cu  Cu31  1  0.48434600  0.21730000  0.23868000  1
  Cu  Cu32  1  0.07576400  0.27557800  0.70225500  1
  Cu  Cu33  1  0.92423600  0.72442200  0.20225500  1
  Cu  Cu34  1  0.92423600  0.77557800  0.70225500  1
  Cu  Cu35  1  0.07576400  0.22442200  0.20225500  1
  C  C36  1  0.24637400  0.02851900  0.73056200  1
  C  C37  1  0.75362600  0.97148100  0.23056200  1
  C  C38  1  0.75362600  0.52851900  0.73056200  1
  C  C39  1  0.24637400  0.47148100  0.23056200  1
