# generated using pymatgen
data_Cu(NiC2)3
_symmetry_space_group_name_H-M   'P 1'
_cell_length_a   6.64779100
_cell_length_b   6.43453400
_cell_length_c   11.15111530
_cell_angle_alpha   55.19331574
_cell_angle_beta   90.00000000
_cell_angle_gamma   90.00000000
_symmetry_Int_Tables_number   1
_chemical_formula_structural   Cu(NiC2)3
_chemical_formula_sum   'Cu2 Ni6 C12'
_cell_volume   391.65134705
_cell_formula_units_Z   2
loop_
 _symmetry_equiv_pos_site_id
 _symmetry_equiv_pos_as_xyz
  1  'x, y, z'
loop_
 _atom_site_type_symbol
 _atom_site_label
 _atom_site_symmetry_multiplicity
 _atom_site_fract_x
 _atom_site_fract_y
 _atom_site_fract_z
 _atom_site_occupancy
  Ni  Ni0  1  0.50000000  0.50000000  0.00000000  1
  Ni  Ni1  1  0.00000000  0.50000000  0.50000000  1
  Ni  Ni2  1  0.04882300  0.73329200  0.75386800  1
  Ni  Ni3  1  0.95117700  0.26670800  0.24613200  1
  Ni  Ni4  1  0.54882300  0.26670800  0.74613200  1
  Ni  Ni5  1  0.45117700  0.73329200  0.25386800  1
  Cu  Cu6  1  0.50000000  0.00000000  0.50000000  1
  Cu  Cu7  1  0.00000000  0.00000000  0.00000000  1
  C  C8  1  0.77465300  0.76504900  0.56759500  1
  C  C9  1  0.22534700  0.23495100  0.43240500  1
  C  C10  1  0.27465300  0.23495100  0.93240500  1
  C  C11  1  0.72534700  0.76504900  0.06759500  1
  C  C12  1  0.44469700  0.88555200  0.72537200  1
  C  C13  1  0.55530300  0.11444800  0.27462800  1
  C  C14  1  0.94469700  0.11444800  0.77462800  1
  C  C15  1  0.05530300  0.88555200  0.22537200  1
  C  C16  1  0.32597800  0.66781200  0.55067600  1
  C  C17  1  0.67402200  0.33218800  0.44932400  1
  C  C18  1  0.82597800  0.33218800  0.94932400  1
  C  C19  1  0.17402200  0.66781200  0.05067600  1
