# generated using pymatgen
data_Cu12Ni2C3
_symmetry_space_group_name_H-M   'P 1'
_cell_length_a   7.12421900
_cell_length_b   9.68572000
_cell_length_c   12.95510300
_cell_angle_alpha   90.00000000
_cell_angle_beta   90.00000000
_cell_angle_gamma   90.00000000
_symmetry_Int_Tables_number   1
_chemical_formula_structural   Cu12Ni2C3
_chemical_formula_sum   'Cu48 Ni8 C12'
_cell_volume   893.94343964
_cell_formula_units_Z   4
loop_
 _symmetry_equiv_pos_site_id
 _symmetry_equiv_pos_as_xyz
  1  'x, y, z'
loop_
 _atom_site_type_symbol
 _atom_site_label
 _atom_site_symmetry_multiplicity
 _atom_site_fract_x
 _atom_site_fract_y
 _atom_site_fract_z
 _atom_site_occupancy
  C  C0  1  0.29383700  0.25208600  0.25000000  1
  C  C1  1  0.70616300  0.74791400  0.75000000  1
  C  C2  1  0.70616300  0.75208600  0.25000000  1
  C  C3  1  0.29383700  0.24791400  0.75000000  1
  C  C4  1  0.06312800  0.53507500  0.63611400  1
  C  C5  1  0.93687200  0.46492500  0.36388600  1
  C  C6  1  0.93687200  0.46492500  0.13611400  1
  C  C7  1  0.93687200  0.03507500  0.86388600  1
  C  C8  1  0.06312800  0.53507500  0.86388600  1
  C  C9  1  0.06312800  0.96492500  0.13611400  1
  C  C10  1  0.06312800  0.96492500  0.36388600  1
  C  C11  1  0.93687200  0.03507500  0.63611400  1
  Ni  Ni12  1  0.20362300  0.25000000  0.00000000  1
  Ni  Ni13  1  0.79637700  0.75000000  0.00000000  1
  Ni  Ni14  1  0.79637700  0.75000000  0.50000000  1
  Ni  Ni15  1  0.20362300  0.25000000  0.50000000  1
  Ni  Ni16  1  0.29640600  0.57464700  0.25000000  1
  Ni  Ni17  1  0.70359400  0.42535300  0.75000000  1
  Ni  Ni18  1  0.70359400  0.07464700  0.25000000  1
  Ni  Ni19  1  0.29640600  0.92535300  0.75000000  1
  Cu  Cu20  1  0.08079500  0.12300700  0.99865400  1
  Cu  Cu21  1  0.91920500  0.87699300  0.00134600  1
  Cu  Cu22  1  0.91920500  0.87699300  0.49865400  1
  Cu  Cu23  1  0.91920500  0.62300700  0.50134600  1
  Cu  Cu24  1  0.08079500  0.12300700  0.50134600  1
  Cu  Cu25  1  0.08079500  0.37699300  0.49865400  1
  Cu  Cu26  1  0.08079500  0.37699300  0.00134600  1
  Cu  Cu27  1  0.91920500  0.62300700  0.99865400  1
  Cu  Cu28  1  0.32281600  0.24667000  0.09211500  1
  Cu  Cu29  1  0.67718400  0.75333000  0.90788500  1
  Cu  Cu30  1  0.67718400  0.75333000  0.59211500  1
  Cu  Cu31  1  0.67718400  0.74667000  0.40788500  1
  Cu  Cu32  1  0.32281600  0.24667000  0.40788500  1
  Cu  Cu33  1  0.32281600  0.25333000  0.59211500  1
  Cu  Cu34  1  0.32281600  0.25333000  0.90788500  1
  Cu  Cu35  1  0.67718400  0.74667000  0.09211500  1
  Cu  Cu36  1  0.41056300  0.44465900  0.25000000  1
  Cu  Cu37  1  0.58943700  0.55534100  0.75000000  1
  Cu  Cu38  1  0.58943700  0.94465900  0.25000000  1
  Cu  Cu39  1  0.41056300  0.05534100  0.75000000  1
  Cu  Cu40  1  0.57917800  0.19415800  0.25000000  1
  Cu  Cu41  1  0.42082200  0.80584200  0.75000000  1
  Cu  Cu42  1  0.42082200  0.69415800  0.25000000  1
  Cu  Cu43  1  0.57917800  0.30584200  0.75000000  1
  Cu  Cu44  1  0.73832800  0.39634500  0.08835900  1
  Cu  Cu45  1  0.26167200  0.60365500  0.91164100  1
  Cu  Cu46  1  0.26167200  0.60365500  0.58835900  1
  Cu  Cu47  1  0.26167200  0.89634500  0.41164100  1
  Cu  Cu48  1  0.73832800  0.39634500  0.41164100  1
  Cu  Cu49  1  0.73832800  0.10365500  0.58835900  1
  Cu  Cu50  1  0.73832800  0.10365500  0.91164100  1
  Cu  Cu51  1  0.26167200  0.89634500  0.08835900  1
  Cu  Cu52  1  0.17410400  0.07237600  0.25000000  1
  Cu  Cu53  1  0.82589600  0.92762400  0.75000000  1
  Cu  Cu54  1  0.82589600  0.57237600  0.25000000  1
  Cu  Cu55  1  0.17410400  0.42762400  0.75000000  1
  Cu  Cu56  1  0.02750100  0.35682700  0.25000000  1
  Cu  Cu57  1  0.97249900  0.64317300  0.75000000  1
  Cu  Cu58  1  0.97249900  0.85682700  0.25000000  1
  Cu  Cu59  1  0.02750100  0.14317300  0.75000000  1
  Cu  Cu60  1  0.17596600  0.57994300  0.15493300  1
  Cu  Cu61  1  0.82403400  0.42005700  0.84506700  1
  Cu  Cu62  1  0.82403400  0.42005700  0.65493300  1
  Cu  Cu63  1  0.82403400  0.07994300  0.34506700  1
  Cu  Cu64  1  0.17596600  0.57994300  0.34506700  1
  Cu  Cu65  1  0.17596600  0.92005700  0.65493300  1
  Cu  Cu66  1  0.17596600  0.92005700  0.84506700  1
  Cu  Cu67  1  0.82403400  0.07994300  0.15493300  1
