# generated using pymatgen
data_Cu2(Ni5C12)3
_symmetry_space_group_name_H-M   'P 1'
_cell_length_a   4.99573910
_cell_length_b   4.99573875
_cell_length_c   85.23297198
_cell_angle_alpha   60.11554318
_cell_angle_beta   60.11554554
_cell_angle_gamma   59.99655239
_symmetry_Int_Tables_number   1
_chemical_formula_structural   Cu2(Ni5C12)3
_chemical_formula_sum   'Cu2 Ni15 C36'
_cell_volume   1506.73548914
_cell_formula_units_Z   1
loop_
 _symmetry_equiv_pos_site_id
 _symmetry_equiv_pos_as_xyz
  1  'x, y, z'
loop_
 _atom_site_type_symbol
 _atom_site_label
 _atom_site_symmetry_multiplicity
 _atom_site_fract_x
 _atom_site_fract_y
 _atom_site_fract_z
 _atom_site_occupancy
  Ni  Ni0  1  0.99275680  0.99275680  0.00127019  1
  Ni  Ni1  1  0.99756433  0.99756433  0.05925087  1
  Ni  Ni2  1  0.00082689  0.00082689  0.11750372  1
  Ni  Ni3  1  0.00103154  0.00103154  0.17629178  1
  Ni  Ni4  1  0.00080329  0.00080329  0.23515136  1
  Ni  Ni5  1  0.00074146  0.00074146  0.35281324  1
  Ni  Ni6  1  0.00076384  0.00076384  0.29398228  1
  Ni  Ni7  1  0.00073098  0.00073098  0.41163410  1
  Ni  Ni8  1  0.00081869  0.00081869  0.47044224  1
  Ni  Ni9  1  0.00105559  0.00105559  0.52922815  1
  Ni  Ni10  1  0.00120816  0.00120816  0.58802472  1
  Ni  Ni11  1  0.00032153  0.00032153  0.70582329  1
  Ni  Ni12  1  0.00062228  0.00062228  0.64694969  1
  Ni  Ni13  1  0.00222068  0.00222068  0.76431669  1
  Ni  Ni14  1  0.99605965  0.99605965  0.88303658  1
  Cu  Cu15  1  0.97586091  0.97586091  0.82782450  1
  Cu  Cu16  1  0.97600000  0.97600000  0.94538035  1
  C  C17  1  0.23797906  0.23797906  0.01682397  1
  C  C18  1  0.24753007  0.24753007  0.07396508  1
  C  C19  1  0.24939923  0.24939923  0.13245800  1
  C  C20  1  0.74665923  0.74665923  0.04470402  1
  C  C21  1  0.24963458  0.24963458  0.19123959  1
  C  C22  1  0.74822661  0.74822661  0.10325425  1
  C  C23  1  0.74984547  0.74984547  0.16179453  1
  C  C24  1  0.24949846  0.24949846  0.25008693  1
  C  C25  1  0.74989750  0.74989750  0.22061080  1
  C  C26  1  0.24940526  0.24940526  0.30892956  1
  C  C27  1  0.74980035  0.74980035  0.27944648  1
  C  C28  1  0.24940072  0.24940072  0.36775464  1
  C  C29  1  0.24943894  0.24943894  0.42656772  1
  C  C30  1  0.74971955  0.74971955  0.33828666  1
  C  C31  1  0.24958694  0.24958694  0.48536938  1
  C  C32  1  0.74971829  0.74971829  0.39711319  1
  C  C33  1  0.24969094  0.24969094  0.54417455  1
  C  C34  1  0.74981017  0.74981017  0.45591577  1
  C  C35  1  0.74994748  0.74994748  0.51471567  1
  C  C36  1  0.24945911  0.24945911  0.60303617  1
  C  C37  1  0.74998301  0.74998301  0.57353839  1
  C  C38  1  0.24896053  0.24896053  0.66194849  1
  C  C39  1  0.74951312  0.74951312  0.63244005  1
  C  C40  1  0.25048012  0.25048012  0.72050224  1
  C  C41  1  0.24109730  0.24109730  0.78099032  1
  C  C42  1  0.74919255  0.74919255  0.69131738  1
  C  C43  1  0.75046757  0.75046757  0.74992088  1
  C  C44  1  0.28590747  0.28590747  0.83191868  1
  C  C45  1  0.51717531  0.51717531  0.84990950  1
  C  C46  1  0.76506913  0.76506913  0.80617725  1
  C  C47  1  0.22979056  0.22979056  0.90061244  1
  C  C48  1  0.73654946  0.73654946  0.87001649  1
  C  C49  1  0.28532380  0.28532380  0.94963268  1
  C  C50  1  0.51819770  0.51819770  0.96737367  1
  C  C51  1  0.76409845  0.76409845  0.92397627  1
  C  C52  1  0.73415933  0.73415933  0.98808355  1
