# generated using pymatgen
data_Cu13NiC6
_symmetry_space_group_name_H-M   'P 1'
_cell_length_a   12.87400495
_cell_length_b   12.87400495
_cell_length_c   12.87400495
_cell_angle_alpha   143.71587793
_cell_angle_beta   143.71587793
_cell_angle_gamma   52.25236643
_symmetry_Int_Tables_number   1
_chemical_formula_structural   Cu13NiC6
_chemical_formula_sum   'Cu26 Ni2 C12'
_cell_volume   742.94802180
_cell_formula_units_Z   2
loop_
 _symmetry_equiv_pos_site_id
 _symmetry_equiv_pos_as_xyz
  1  'x, y, z'
loop_
 _atom_site_type_symbol
 _atom_site_label
 _atom_site_symmetry_multiplicity
 _atom_site_fract_x
 _atom_site_fract_y
 _atom_site_fract_z
 _atom_site_occupancy
  C  C0  1  0.10666700  0.10666700  0.00000000  1
  C  C1  1  0.89333300  0.89333300  0.00000000  1
  C  C2  1  0.39333300  0.39333300  0.00000000  1
  C  C3  1  0.60666700  0.60666700  0.00000000  1
  C  C4  1  0.85096800  0.35096800  0.82809900  1
  C  C5  1  0.14903200  0.64903200  0.17190100  1
  C  C6  1  0.52286900  0.02286900  0.17190100  1
  C  C7  1  0.35096800  0.52286900  0.50000000  1
  C  C8  1  0.97713100  0.14903200  0.50000000  1
  C  C9  1  0.47713100  0.97713100  0.82809900  1
  C  C10  1  0.64903200  0.47713100  0.50000000  1
  C  C11  1  0.02286900  0.85096800  0.50000000  1
  Ni  Ni12  1  0.25000000  0.25000000  0.00000000  1
  Ni  Ni13  1  0.75000000  0.75000000  0.00000000  1
  Cu  Cu14  1  0.20951100  0.06765100  0.27716200  1
  Cu  Cu15  1  0.79048900  0.93234900  0.72283800  1
  Cu  Cu16  1  0.06765100  0.79048900  0.85813900  1
  Cu  Cu17  1  0.70951100  0.43234900  0.14186100  1
  Cu  Cu18  1  0.93234900  0.20951100  0.14186100  1
  Cu  Cu19  1  0.29048900  0.56765100  0.85813900  1
  Cu  Cu20  1  0.56765100  0.70951100  0.27716200  1
  Cu  Cu21  1  0.43234900  0.29048900  0.72283800  1
  Cu  Cu22  1  0.50000000  0.00000000  0.50000000  1
  Cu  Cu23  1  0.00000000  0.50000000  0.50000000  1
  Cu  Cu24  1  0.20863800  0.70863800  0.72773800  1
  Cu  Cu25  1  0.79136200  0.29136200  0.27226200  1
  Cu  Cu26  1  0.98089900  0.48089900  0.27226200  1
  Cu  Cu27  1  0.70863800  0.98089900  0.50000000  1
  Cu  Cu28  1  0.51910100  0.79136200  0.50000000  1
  Cu  Cu29  1  0.01910100  0.51910100  0.72773800  1
  Cu  Cu30  1  0.29136200  0.01910100  0.50000000  1
  Cu  Cu31  1  0.48089900  0.20863800  0.50000000  1
  Cu  Cu32  1  0.73704900  0.23704900  0.85539100  1
  Cu  Cu33  1  0.26295100  0.76295100  0.14460900  1
  Cu  Cu34  1  0.38165800  0.88165800  0.14460900  1
  Cu  Cu35  1  0.23704900  0.38165800  0.50000000  1
  Cu  Cu36  1  0.11834200  0.26295100  0.50000000  1
  Cu  Cu37  1  0.61834200  0.11834200  0.85539100  1
  Cu  Cu38  1  0.76295100  0.61834200  0.50000000  1
  Cu  Cu39  1  0.88165800  0.73704900  0.50000000  1
