# generated using pymatgen
data_CuNi2C9
_symmetry_space_group_name_H-M   'P 1'
_cell_length_a   5.52781600
_cell_length_b   7.10304500
_cell_length_c   9.32344097
_cell_angle_alpha   80.76854659
_cell_angle_beta   90.00000000
_cell_angle_gamma   90.00000000
_symmetry_Int_Tables_number   1
_chemical_formula_structural   CuNi2C9
_chemical_formula_sum   'Cu2 Ni4 C18'
_cell_volume   361.33730060
_cell_formula_units_Z   2
loop_
 _symmetry_equiv_pos_site_id
 _symmetry_equiv_pos_as_xyz
  1  'x, y, z'
loop_
 _atom_site_type_symbol
 _atom_site_label
 _atom_site_symmetry_multiplicity
 _atom_site_fract_x
 _atom_site_fract_y
 _atom_site_fract_z
 _atom_site_occupancy
  C  C0  1  0.25000000  0.19810000  0.22393200  1
  C  C1  1  0.75000000  0.80190000  0.77606800  1
  Ni  Ni2  1  0.25000000  0.72392100  0.06497700  1
  Ni  Ni3  1  0.75000000  0.27607900  0.93502300  1
  Ni  Ni4  1  0.25000000  0.81008200  0.57354900  1
  Ni  Ni5  1  0.75000000  0.18991800  0.42645100  1
  Cu  Cu6  1  0.25000000  0.31197100  0.68985700  1
  Cu  Cu7  1  0.75000000  0.68802900  0.31014300  1
  C  C8  1  0.25000000  0.92506600  0.69683500  1
  C  C9  1  0.75000000  0.07493400  0.30316500  1
  C  C10  1  0.96998500  0.27712900  0.02590600  1
  C  C11  1  0.03001500  0.72287100  0.97409400  1
  C  C12  1  0.46998500  0.72287100  0.97409400  1
  C  C13  1  0.53001500  0.27712900  0.02590600  1
  C  C14  1  0.25000000  0.89849500  0.13326000  1
  C  C15  1  0.75000000  0.10150500  0.86674000  1
  C  C16  1  0.25000000  0.55437800  0.17973000  1
  C  C17  1  0.75000000  0.44562200  0.82027000  1
  C  C18  1  0.25000000  0.93712900  0.43237100  1
  C  C19  1  0.75000000  0.06287100  0.56762900  1
  C  C20  1  0.47260000  0.69152400  0.58925100  1
  C  C21  1  0.52740000  0.30847600  0.41074900  1
  C  C22  1  0.97260000  0.30847600  0.41074900  1
  C  C23  1  0.02740000  0.69152400  0.58925100  1
