# generated using pymatgen
data_Cu2NiC40
_symmetry_space_group_name_H-M   'P 1'
_cell_length_a   6.52423342
_cell_length_b   8.99860519
_cell_length_c   8.93588949
_cell_angle_alpha   85.85349394
_cell_angle_beta   107.21902686
_cell_angle_gamma   105.67578497
_symmetry_Int_Tables_number   1
_chemical_formula_structural   Cu2NiC40
_chemical_formula_sum   'Cu2 Ni1 C40'
_cell_volume   482.44900412
_cell_formula_units_Z   1
loop_
 _symmetry_equiv_pos_site_id
 _symmetry_equiv_pos_as_xyz
  1  'x, y, z'
loop_
 _atom_site_type_symbol
 _atom_site_label
 _atom_site_symmetry_multiplicity
 _atom_site_fract_x
 _atom_site_fract_y
 _atom_site_fract_z
 _atom_site_occupancy
  Ni  Ni0  1  0.04630913  0.33082103  0.93169122  1
  C  C1  1  0.25165033  0.78033776  0.23617377  1
  C  C2  1  0.64216296  0.57640062  0.91265552  1
  C  C3  1  0.10698869  0.86324106  0.53835899  1
  C  C4  1  0.47137321  0.50936238  0.23969111  1
  C  C5  1  0.88753224  0.12783918  0.44893372  1
  C  C6  1  0.64162864  0.19398025  0.69221217  1
  Cu  Cu7  1  0.33382289  0.45667641  0.53295706  1
  Cu  Cu8  1  0.76477173  0.48282482  0.52282307  1
  C  C9  1  0.23015386  0.15963535  0.79350341  1
  C  C10  1  0.75506127  0.83331790  0.17842504  1
  C  C11  1  0.35702596  0.14151871  0.35052742  1
  C  C12  1  0.12978612  0.62983121  0.84544880  1
  C  C13  1  0.60830545  0.82920457  0.60677185  1
  C  C14  1  0.91894839  0.41412247  0.20165733  1
  C  C15  1  0.27145902  0.08135414  0.09922146  1
  C  C16  1  0.20520620  0.88144337  0.87294022  1
  C  C17  1  0.67649587  0.90456691  0.85094638  1
  C  C18  1  0.81499331  0.10374114  0.14274192  1
  C  C19  1  0.30280108  0.53213677  0.91088928  1
  C  C20  1  0.19143579  0.78027990  0.94719525  1
  C  C21  1  0.64099735  0.95109360  0.74142467  1
  C  C22  1  0.89258971  0.27685904  0.09462309  1
  C  C23  1  0.34105125  0.29477030  0.27264157  1
  C  C24  1  0.10695522  0.67018364  0.67261715  1
  C  C25  1  0.61044436  0.67350965  0.68990431  1
  C  C26  1  0.93866528  0.35482429  0.37237633  1
  C  C27  1  0.18378701  0.08481075  0.44305928  1
  C  C28  1  0.30345954  0.02334118  0.20875668  1
  C  C29  1  0.73374481  0.80745840  0.00562405  1
  C  C30  1  0.76145106  0.00913798  0.20637714  1
  C  C31  1  0.21584614  0.17179322  0.96281991  1
  C  C32  1  0.21665779  0.99134906  0.75864924  1
  C  C33  1  0.54615410  0.73908239  0.22515869  1
  C  C34  1  0.96399240  0.79353606  0.28941973  1
  C  C35  1  0.45001693  0.27272327  0.77610792  1
  C  C36  1  0.79855585  0.89300965  0.53161865  1
  C  C37  1  0.91108772  0.51834956  0.86646124  1
  C  C38  1  0.58816451  0.14006672  0.46068415  1
  C  C39  1  0.13605319  0.54287374  0.20314743  1
  C  C40  1  0.38136064  0.82113689  0.48390368  1
  C  C41  1  0.71389187  0.48237381  0.13564500  1
  C  C42  1  0.02715813  0.21883088  0.68852510  1
