# generated using pymatgen
data_Cu3Ni2C19
_symmetry_space_group_name_H-M   'P 1'
_cell_length_a   7.71098699
_cell_length_b   7.71098699
_cell_length_c   9.92051750
_cell_angle_alpha   78.26650924
_cell_angle_beta   78.26650924
_cell_angle_gamma   22.15672910
_symmetry_Int_Tables_number   1
_chemical_formula_structural   Cu3Ni2C19
_chemical_formula_sum   'Cu3 Ni2 C19'
_cell_volume   217.63461589
_cell_formula_units_Z   1
loop_
 _symmetry_equiv_pos_site_id
 _symmetry_equiv_pos_as_xyz
  1  'x, y, z'
loop_
 _atom_site_type_symbol
 _atom_site_label
 _atom_site_symmetry_multiplicity
 _atom_site_fract_x
 _atom_site_fract_y
 _atom_site_fract_z
 _atom_site_occupancy
  C  C0  1  0.07967200  0.07967200  0.27150400  1
  C  C1  1  0.25361900  0.25361900  0.73716900  1
  C  C2  1  0.41377100  0.41377100  0.26143300  1
  C  C3  1  0.58793000  0.58793000  0.72181500  1
  C  C4  1  0.74769200  0.74769200  0.27401400  1
  C  C5  1  0.91499400  0.91499400  0.73181200  1
  C  C6  1  0.16694300  0.16694300  0.50244700  1
  Ni  Ni7  1  0.99969100  0.99969100  0.99703500  1
  Ni  Ni8  1  0.66882400  0.66882400  0.00058200  1
  Cu  Cu9  1  0.33377800  0.33377800  0.00251700  1
  Cu  Cu10  1  0.50335900  0.50335900  0.50159900  1
  Cu  Cu11  1  0.82510600  0.82510600  0.49682700  1
  C  C12  1  0.12754900  0.12754900  0.89461600  1
  C  C13  1  0.29310500  0.29310500  0.37657200  1
  C  C14  1  0.47032000  0.47032000  0.88674600  1
  C  C15  1  0.60991700  0.60991700  0.38563200  1
  C  C16  1  0.78532000  0.78532000  0.89003200  1
  C  C17  1  0.95376900  0.95376900  0.38845000  1
  C  C18  1  0.03758500  0.03758500  0.61932900  1
  C  C19  1  0.19696400  0.19696400  0.11431200  1
  C  C20  1  0.38515400  0.38515400  0.61032900  1
  C  C21  1  0.54116500  0.54116500  0.10209700  1
  C  C22  1  0.71918600  0.71918600  0.62174600  1
  C  C23  1  0.88458900  0.88458900  0.11138600  1
