# generated using pymatgen
data_CuNiC5
_symmetry_space_group_name_H-M   'P 1'
_cell_length_a   8.44578169
_cell_length_b   8.44578169
_cell_length_c   8.44578143
_cell_angle_alpha   107.84540110
_cell_angle_beta   107.84540110
_cell_angle_gamma   107.84539626
_symmetry_Int_Tables_number   1
_chemical_formula_structural   CuNiC5
_chemical_formula_sum   'Cu6 Ni6 C30'
_cell_volume   489.69334032
_cell_formula_units_Z   6
loop_
 _symmetry_equiv_pos_site_id
 _symmetry_equiv_pos_as_xyz
  1  'x, y, z'
loop_
 _atom_site_type_symbol
 _atom_site_label
 _atom_site_symmetry_multiplicity
 _atom_site_fract_x
 _atom_site_fract_y
 _atom_site_fract_z
 _atom_site_occupancy
  C  C0  1  0.94084700  0.76681100  0.54462300  1
  C  C1  1  0.54462300  0.94084700  0.76681100  1
  C  C2  1  0.76681100  0.54462300  0.94084700  1
  C  C3  1  0.05784200  0.22772900  0.45736400  1
  C  C4  1  0.45736400  0.05784200  0.22772900  1
  C  C5  1  0.22772900  0.45736400  0.05784200  1
  Ni  Ni6  1  0.78985700  0.38474000  0.57256600  1
  Ni  Ni7  1  0.86788800  0.27886200  0.10067600  1
  Ni  Ni8  1  0.38474000  0.57256600  0.78985700  1
  Ni  Ni9  1  0.57256600  0.78985700  0.38474000  1
  Ni  Ni10  1  0.10067600  0.86788800  0.27886200  1
  Ni  Ni11  1  0.27886200  0.10067600  0.86788800  1
  Cu  Cu12  1  0.42618200  0.20914100  0.61500200  1
  Cu  Cu13  1  0.61500200  0.42618200  0.20914100  1
  Cu  Cu14  1  0.20914100  0.61500200  0.42618200  1
  Cu  Cu15  1  0.12924600  0.72009000  0.89983100  1
  Cu  Cu16  1  0.72009000  0.89983100  0.12924600  1
  Cu  Cu17  1  0.89983100  0.12924600  0.72009000  1
  C  C18  1  0.26823100  0.93466000  0.95682100  1
  C  C19  1  0.59648000  0.90787700  0.24647600  1
  C  C20  1  0.90787700  0.24647600  0.59648000  1
  C  C21  1  0.24647600  0.59648000  0.90787700  1
  C  C22  1  0.41171400  0.09475100  0.74067700  1
  C  C23  1  0.09475100  0.74067700  0.41171400  1
  C  C24  1  0.74067700  0.41171400  0.09475100  1
  C  C25  1  0.95682100  0.26823100  0.93466000  1
  C  C26  1  0.31641100  0.33776700  0.64999600  1
  C  C27  1  0.93466000  0.95682100  0.26823100  1
  C  C28  1  0.04101500  0.72069900  0.04846300  1
  C  C29  1  0.72069900  0.04846300  0.04101500  1
  C  C30  1  0.68076800  0.64216400  0.34740300  1
  C  C31  1  0.34740300  0.68076800  0.64216400  1
  C  C32  1  0.64216400  0.34740300  0.68076800  1
  C  C33  1  0.39331500  0.32459900  0.06044900  1
  C  C34  1  0.64999600  0.31641100  0.33776700  1
  C  C35  1  0.33776700  0.64999600  0.31641100  1
  C  C36  1  0.69080700  0.95513500  0.62188300  1
  C  C37  1  0.06044900  0.39331500  0.32459900  1
  C  C38  1  0.32459900  0.06044900  0.39331500  1
  C  C39  1  0.62188300  0.69080700  0.95513500  1
  C  C40  1  0.95513500  0.62188300  0.69080700  1
  C  C41  1  0.04846300  0.04101500  0.72069900  1
