# generated using pymatgen
data_Cu(NiC)3
_symmetry_space_group_name_H-M   'P 1'
_cell_length_a   6.87653980
_cell_length_b   6.64014000
_cell_length_c   5.66595000
_cell_angle_alpha   90.00000000
_cell_angle_beta   125.34083714
_cell_angle_gamma   90.00000000
_symmetry_Int_Tables_number   1
_chemical_formula_structural   Cu(NiC)3
_chemical_formula_sum   'Cu2 Ni6 C6'
_cell_volume   211.03961399
_cell_formula_units_Z   2
loop_
 _symmetry_equiv_pos_site_id
 _symmetry_equiv_pos_as_xyz
  1  'x, y, z'
loop_
 _atom_site_type_symbol
 _atom_site_label
 _atom_site_symmetry_multiplicity
 _atom_site_fract_x
 _atom_site_fract_y
 _atom_site_fract_z
 _atom_site_occupancy
  Ni  Ni0  1  0.64281000  0.00000000  0.11732000  1
  Ni  Ni1  1  0.14281000  0.50000000  0.11732000  1
  Ni  Ni2  1  0.03547000  0.28114000  0.51810000  1
  Ni  Ni3  1  0.03547000  0.71886000  0.51810000  1
  Ni  Ni4  1  0.53547000  0.78114000  0.51810000  1
  Ni  Ni5  1  0.53547000  0.21886000  0.51810000  1
  Cu  Cu6  1  0.06009000  0.00000000  0.00449000  1
  Cu  Cu7  1  0.56009000  0.50000000  0.00449000  1
  C  C8  1  0.67701000  0.26477000  0.30068000  1
  C  C9  1  0.67701000  0.73523000  0.30068000  1
  C  C10  1  0.17701000  0.76477000  0.30068000  1
  C  C11  1  0.17701000  0.23523000  0.30068000  1
  C  C12  1  0.69800000  0.00000000  0.81274000  1
  C  C13  1  0.19800000  0.50000000  0.81274000  1
