# generated using pymatgen
data_Cu2NiC4
_symmetry_space_group_name_H-M   'P 1'
_cell_length_a   7.15359900
_cell_length_b   7.44298600
_cell_length_c   20.66357000
_cell_angle_alpha   90.00000000
_cell_angle_beta   90.00000000
_cell_angle_gamma   90.00000000
_symmetry_Int_Tables_number   1
_chemical_formula_structural   Cu2NiC4
_chemical_formula_sum   'Cu16 Ni8 C32'
_cell_volume   1100.21395626
_cell_formula_units_Z   8
loop_
 _symmetry_equiv_pos_site_id
 _symmetry_equiv_pos_as_xyz
  1  'x, y, z'
loop_
 _atom_site_type_symbol
 _atom_site_label
 _atom_site_symmetry_multiplicity
 _atom_site_fract_x
 _atom_site_fract_y
 _atom_site_fract_z
 _atom_site_occupancy
  C  C0  1  0.22343800  0.04396900  0.16737000  1
  C  C1  1  0.77656200  0.95603100  0.83263000  1
  C  C2  1  0.27656200  0.54396900  0.33263000  1
  C  C3  1  0.22343800  0.45603100  0.83263000  1
  C  C4  1  0.72343800  0.45603100  0.66737000  1
  C  C5  1  0.77656200  0.54396900  0.16737000  1
  C  C6  1  0.27656200  0.95603100  0.66737000  1
  C  C7  1  0.72343800  0.04396900  0.33263000  1
  Ni  Ni8  1  0.15978600  0.07392200  0.02511200  1
  Ni  Ni9  1  0.84021400  0.92607800  0.97488800  1
  Ni  Ni10  1  0.34021400  0.57392200  0.47488800  1
  Ni  Ni11  1  0.15978600  0.42607800  0.97488800  1
  Ni  Ni12  1  0.65978600  0.42607800  0.52511200  1
  Ni  Ni13  1  0.84021400  0.57392200  0.02511200  1
  Ni  Ni14  1  0.34021400  0.92607800  0.52511200  1
  Ni  Ni15  1  0.65978600  0.07392200  0.47488800  1
  Cu  Cu16  1  0.11213300  0.17329800  0.41519400  1
  Cu  Cu17  1  0.88786700  0.82670200  0.58480600  1
  Cu  Cu18  1  0.38786700  0.67329800  0.08480600  1
  Cu  Cu19  1  0.11213300  0.32670200  0.58480600  1
  Cu  Cu20  1  0.61213300  0.32670200  0.91519400  1
  Cu  Cu21  1  0.88786700  0.67329800  0.41519400  1
  Cu  Cu22  1  0.38786700  0.82670200  0.91519400  1
  Cu  Cu23  1  0.61213300  0.17329800  0.08480600  1
  Cu  Cu24  1  0.22953600  0.04663900  0.34119400  1
  Cu  Cu25  1  0.77046400  0.95336100  0.65880600  1
  Cu  Cu26  1  0.27046400  0.54663900  0.15880600  1
  Cu  Cu27  1  0.22953600  0.45336100  0.65880600  1
  Cu  Cu28  1  0.72953600  0.45336100  0.84119400  1
  Cu  Cu29  1  0.77046400  0.54663900  0.34119400  1
  Cu  Cu30  1  0.27046400  0.95336100  0.84119400  1
  Cu  Cu31  1  0.72953600  0.04663900  0.15880600  1
  C  C32  1  0.13823500  0.40341600  0.13660400  1
  C  C33  1  0.86176500  0.59658400  0.86339600  1
  C  C34  1  0.36176500  0.90341600  0.36339600  1
  C  C35  1  0.13823500  0.09658400  0.86339600  1
  C  C36  1  0.63823500  0.09658400  0.63660400  1
  C  C37  1  0.86176500  0.90341600  0.13660400  1
  C  C38  1  0.36176500  0.59658400  0.63660400  1
  C  C39  1  0.63823500  0.40341600  0.36339600  1
  C  C40  1  0.41461200  0.46477900  0.20263500  1
  C  C41  1  0.58538800  0.53522100  0.79736500  1
  C  C42  1  0.08538800  0.96477900  0.29736500  1
  C  C43  1  0.41461200  0.03522100  0.79736500  1
  C  C44  1  0.91461200  0.03522100  0.70263500  1
  C  C45  1  0.58538800  0.96477900  0.20263500  1
  C  C46  1  0.08538800  0.53522100  0.70263500  1
  C  C47  1  0.91461200  0.46477900  0.29736500  1
  C  C48  1  0.34002200  0.17918100  0.30097900  1
  C  C49  1  0.65997800  0.82081900  0.69902100  1
  C  C50  1  0.15997800  0.67918100  0.19902100  1
  C  C51  1  0.34002200  0.32081900  0.69902100  1
  C  C52  1  0.84002200  0.32081900  0.80097900  1
  C  C53  1  0.65997800  0.67918100  0.30097900  1
  C  C54  1  0.15997800  0.82081900  0.80097900  1
  C  C55  1  0.84002200  0.17918100  0.19902100  1
