# generated using pymatgen
data_CuNiC6
_symmetry_space_group_name_H-M   'P 1'
_cell_length_a   5.04904093
_cell_length_b   5.04904093
_cell_length_c   10.92579500
_cell_angle_alpha   90.00000000
_cell_angle_beta   90.00000000
_cell_angle_gamma   119.79751409
_symmetry_Int_Tables_number   1
_chemical_formula_structural   CuNiC6
_chemical_formula_sum   'Cu2 Ni2 C12'
_cell_volume   241.70407781
_cell_formula_units_Z   2
loop_
 _symmetry_equiv_pos_site_id
 _symmetry_equiv_pos_as_xyz
  1  'x, y, z'
loop_
 _atom_site_type_symbol
 _atom_site_label
 _atom_site_symmetry_multiplicity
 _atom_site_fract_x
 _atom_site_fract_y
 _atom_site_fract_z
 _atom_site_occupancy
  C  C0  1  0.66675700  0.33324300  0.25000000  1
  C  C1  1  0.33324300  0.66675700  0.75000000  1
  Ni  Ni2  1  0.33342200  0.66657800  0.25000000  1
  Ni  Ni3  1  0.66657800  0.33342200  0.75000000  1
  Cu  Cu4  1  0.00000000  0.00000000  0.00000000  1
  Cu  Cu5  1  0.00000000  0.00000000  0.50000000  1
  C  C6  1  0.18676500  0.37227600  0.25000000  1
  C  C7  1  0.18556900  0.81443100  0.25000000  1
  C  C8  1  0.62772400  0.81323500  0.25000000  1
  C  C9  1  0.81323500  0.62772400  0.75000000  1
  C  C10  1  0.81443100  0.18556900  0.75000000  1
  C  C11  1  0.37227600  0.18676500  0.75000000  1
  C  C12  1  0.66669800  0.33330200  0.41181600  1
  C  C13  1  0.33330200  0.66669800  0.58818400  1
  C  C14  1  0.33330200  0.66669800  0.91181600  1
  C  C15  1  0.66669800  0.33330200  0.08818400  1
