# generated using pymatgen
data_CuNiC3
_symmetry_space_group_name_H-M   'P 1'
_cell_length_a   3.85485000
_cell_length_b   9.06626000
_cell_length_c   14.43281500
_cell_angle_alpha   90.00000000
_cell_angle_beta   90.00000000
_cell_angle_gamma   90.00000000
_symmetry_Int_Tables_number   1
_chemical_formula_structural   CuNiC3
_chemical_formula_sum   'Cu4 Ni4 C12'
_cell_volume   504.41349581
_cell_formula_units_Z   4
loop_
 _symmetry_equiv_pos_site_id
 _symmetry_equiv_pos_as_xyz
  1  'x, y, z'
loop_
 _atom_site_type_symbol
 _atom_site_label
 _atom_site_symmetry_multiplicity
 _atom_site_fract_x
 _atom_site_fract_y
 _atom_site_fract_z
 _atom_site_occupancy
  Ni  Ni0  1  0.25000000  0.16374800  0.94893900  1
  Ni  Ni1  1  0.25000000  0.66374800  0.55106100  1
  Ni  Ni2  1  0.75000000  0.83625200  0.05106100  1
  Ni  Ni3  1  0.75000000  0.33625200  0.44893900  1
  Cu  Cu4  1  0.75000000  0.48907600  0.83115700  1
  Cu  Cu5  1  0.75000000  0.98907600  0.66884300  1
  Cu  Cu6  1  0.25000000  0.51092400  0.16884300  1
  Cu  Cu7  1  0.25000000  0.01092400  0.33115700  1
  C  C8  1  0.75000000  0.98168800  0.89657600  1
  C  C9  1  0.75000000  0.48168800  0.60342400  1
  C  C10  1  0.25000000  0.01831200  0.10342400  1
  C  C11  1  0.25000000  0.51831200  0.39657600  1
  C  C12  1  0.75000000  0.33521100  0.00518400  1
  C  C13  1  0.75000000  0.83521100  0.49481600  1
  C  C14  1  0.25000000  0.66478900  0.99481600  1
  C  C15  1  0.25000000  0.16478900  0.50518400  1
  C  C16  1  0.25000000  0.27953500  0.79033400  1
  C  C17  1  0.25000000  0.77953500  0.70966600  1
  C  C18  1  0.75000000  0.72046500  0.20966600  1
  C  C19  1  0.75000000  0.22046500  0.29033400  1
