# generated using pymatgen
data_Cu4NiC14
_symmetry_space_group_name_H-M   'P 1'
_cell_length_a   7.90652464
_cell_length_b   9.70933311
_cell_length_c   10.44172400
_cell_angle_alpha   90.00000000
_cell_angle_beta   90.00000000
_cell_angle_gamma   105.73300722
_symmetry_Int_Tables_number   1
_chemical_formula_structural   Cu4NiC14
_chemical_formula_sum   'Cu16 Ni4 C56'
_cell_volume   771.55001618
_cell_formula_units_Z   4
loop_
 _symmetry_equiv_pos_site_id
 _symmetry_equiv_pos_as_xyz
  1  'x, y, z'
loop_
 _atom_site_type_symbol
 _atom_site_label
 _atom_site_symmetry_multiplicity
 _atom_site_fract_x
 _atom_site_fract_y
 _atom_site_fract_z
 _atom_site_occupancy
  C  C0  1  0.34627300  0.71603700  0.95177000  1
  C  C1  1  0.65372700  0.78396300  0.45177000  1
  C  C2  1  0.65372700  0.28396300  0.04823000  1
  C  C3  1  0.34627300  0.21603700  0.54823000  1
  C  C4  1  0.64276100  0.41208700  0.78509900  1
  C  C5  1  0.35723900  0.08791300  0.28509900  1
  C  C6  1  0.35723900  0.58791300  0.21490100  1
  C  C7  1  0.64276100  0.91208700  0.71490100  1
  C  C8  1  0.65657700  0.58232300  0.72617200  1
  C  C9  1  0.34342300  0.91767700  0.22617200  1
  C  C10  1  0.34342300  0.41767700  0.27382800  1
  C  C11  1  0.65657700  0.08232300  0.77382800  1
  C  C12  1  0.91303600  0.73214200  0.67532800  1
  C  C13  1  0.08696400  0.76785800  0.17532800  1
  C  C14  1  0.08696400  0.26785800  0.32467200  1
  C  C15  1  0.91303600  0.23214200  0.82467200  1
  C  C16  1  0.35330300  0.61841800  0.57711400  1
  C  C17  1  0.64669700  0.88158200  0.07711400  1
  C  C18  1  0.64669700  0.38158200  0.42288600  1
  C  C19  1  0.35330300  0.11841800  0.92288600  1
  C  C20  1  0.16842600  0.49339900  0.64569000  1
  C  C21  1  0.83157400  0.00660100  0.14569000  1
  C  C22  1  0.83157400  0.50660100  0.35431000  1
  C  C23  1  0.16842600  0.99339900  0.85431000  1
  C  C24  1  0.31647100  0.84817600  0.52191000  1
  C  C25  1  0.68352900  0.65182400  0.02191000  1
  C  C26  1  0.68352900  0.15182400  0.47809000  1
  C  C27  1  0.31647100  0.34817600  0.97809000  1
  C  C28  1  0.12423200  0.89061200  0.56640800  1
  C  C29  1  0.87576800  0.60938800  0.06640800  1
  C  C30  1  0.87576800  0.10938800  0.43359200  1
  C  C31  1  0.12423200  0.39061200  0.93359200  1
  C  C32  1  0.88215700  0.51550900  0.71277200  1
  C  C33  1  0.11784300  0.98449100  0.21277200  1
  C  C34  1  0.11784300  0.48449100  0.28722800  1
  C  C35  1  0.88215700  0.01550900  0.78722800  1
  C  C36  1  0.13352800  0.68589100  0.60885600  1
  C  C37  1  0.86647200  0.81410900  0.10885600  1
  C  C38  1  0.86647200  0.31410900  0.39114400  1
  C  C39  1  0.13352800  0.18589100  0.89114400  1
  C  C40  1  0.71781100  0.50733500  0.75203700  1
  C  C41  1  0.28218900  0.99266500  0.25203700  1
  C  C42  1  0.28218900  0.49266500  0.24796300  1
  C  C43  1  0.71781100  0.00733500  0.74796300  1
  C  C44  1  0.96858100  0.64941900  0.66094100  1
  C  C45  1  0.03141900  0.85058100  0.16094100  1
  C  C46  1  0.03141900  0.35058100  0.33905900  1
  C  C47  1  0.96858100  0.14941900  0.83905900  1
  C  C48  1  0.22362600  0.58923600  0.60150600  1
  C  C49  1  0.77637400  0.91076400  0.10150600  1
  C  C50  1  0.77637400  0.41076400  0.39849400  1
  C  C51  1  0.22362600  0.08923600  0.89849400  1
  C  C52  1  0.19614200  0.81835400  0.56459300  1
  C  C53  1  0.80385800  0.68164600  0.06459300  1
  C  C54  1  0.80385800  0.18164600  0.43540700  1
  C  C55  1  0.19614200  0.31835400  0.93540700  1
  Ni  Ni56  1  0.95284000  0.41552900  0.72158300  1
  Ni  Ni57  1  0.04716000  0.08447100  0.22158300  1
  Ni  Ni58  1  0.04716000  0.58447100  0.27841700  1
  Ni  Ni59  1  0.95284000  0.91552900  0.77841700  1
  Cu  Cu60  1  0.46905500  0.64072700  0.91282700  1
  Cu  Cu61  1  0.53094500  0.85927300  0.41282700  1
  Cu  Cu62  1  0.53094500  0.35927300  0.08717300  1
  Cu  Cu63  1  0.46905500  0.14072700  0.58717300  1
  Cu  Cu64  1  0.17636400  0.62204700  0.96268900  1
  Cu  Cu65  1  0.82363600  0.87795300  0.46268900  1
  Cu  Cu66  1  0.82363600  0.37795300  0.03731100  1
  Cu  Cu67  1  0.17636400  0.12204700  0.53731100  1
  Cu  Cu68  1  0.34817700  0.82742300  0.86612600  1
  Cu  Cu69  1  0.65182300  0.67257700  0.36612600  1
  Cu  Cu70  1  0.65182300  0.17257700  0.13387400  1
  Cu  Cu71  1  0.34817700  0.32742300  0.63387400  1
  Cu  Cu72  1  0.40133800  0.77539400  0.07760600  1
  Cu  Cu73  1  0.59866200  0.72460600  0.57760600  1
  Cu  Cu74  1  0.59866200  0.22460600  0.92239400  1
  Cu  Cu75  1  0.40133800  0.27539400  0.42239400  1
