# generated using pymatgen
data_Cu22Ni2C25
_symmetry_space_group_name_H-M   'P 1'
_cell_length_a   7.52050000
_cell_length_b   9.83475183
_cell_length_c   10.51328781
_cell_angle_alpha   63.19416223
_cell_angle_beta   88.59443688
_cell_angle_gamma   75.27714400
_symmetry_Int_Tables_number   1
_chemical_formula_structural   Cu22Ni2C25
_chemical_formula_sum   'Cu22 Ni2 C25'
_cell_volume   667.57473957
_cell_formula_units_Z   1
loop_
 _symmetry_equiv_pos_site_id
 _symmetry_equiv_pos_as_xyz
  1  'x, y, z'
loop_
 _atom_site_type_symbol
 _atom_site_label
 _atom_site_symmetry_multiplicity
 _atom_site_fract_x
 _atom_site_fract_y
 _atom_site_fract_z
 _atom_site_occupancy
  C  C0  1  0.50000000  0.50000000  0.50000000  1
  C  C1  1  0.37097900  0.85675400  0.98081600  1
  C  C2  1  0.62902100  0.14324600  0.01918400  1
  C  C3  1  0.65853100  0.80031100  0.66181600  1
  C  C4  1  0.34146900  0.19968900  0.33818400  1
  C  C5  1  0.74418400  0.43951200  0.80159100  1
  C  C6  1  0.25581600  0.56048800  0.19840900  1
  C  C7  1  0.24831200  0.99769800  0.65231500  1
  C  C8  1  0.75168800  0.00230200  0.34768500  1
  C  C9  1  0.75589400  0.90629800  0.88465700  1
  C  C10  1  0.24410600  0.09370200  0.11534300  1
  C  C11  1  0.88787500  0.34405500  0.76461700  1
  C  C12  1  0.11212500  0.65594500  0.23538300  1
  C  C13  1  0.07620100  0.98637800  0.61631400  1
  C  C14  1  0.92379900  0.01362200  0.38368600  1
  C  C15  1  0.93587100  0.83535800  0.95704800  1
  C  C16  1  0.06412900  0.16464200  0.04295200  1
  C  C17  1  0.73717800  0.58795300  0.08152500  1
  C  C18  1  0.26282200  0.41204700  0.91847500  1
  C  C19  1  0.75916600  0.40419600  0.09800500  1
  C  C20  1  0.24083400  0.59580400  0.90199500  1
  C  C21  1  0.70829400  0.44307500  0.23822300  1
  C  C22  1  0.29170600  0.55692500  0.76177700  1
  C  C23  1  0.92392500  0.43646200  0.18238800  1
  C  C24  1  0.07607500  0.56353800  0.81761200  1
  Ni  Ni25  1  0.78369800  0.46582400  0.15110600  1
  Ni  Ni26  1  0.21630200  0.53417600  0.84889400  1
  Cu  Cu27  1  0.39096100  0.84409100  0.66900700  1
  Cu  Cu28  1  0.60903900  0.15590900  0.33099300  1
  Cu  Cu29  1  0.56969600  0.49757500  0.69724500  1
  Cu  Cu30  1  0.43030400  0.50242500  0.30275500  1
  Cu  Cu31  1  0.71341300  0.33797100  0.95910900  1
  Cu  Cu32  1  0.28658700  0.66202900  0.04089100  1
  Cu  Cu33  1  0.81286800  0.58021100  0.78851200  1
  Cu  Cu34  1  0.18713200  0.41978900  0.21148800  1
  Cu  Cu35  1  0.28454900  0.14851200  0.53296600  1
  Cu  Cu36  1  0.71545100  0.85148800  0.46703400  1
  Cu  Cu37  1  0.68549300  0.07111000  0.87511000  1
  Cu  Cu38  1  0.31450700  0.92889000  0.12489000  1
  Cu  Cu39  1  0.23634200  0.00685600  0.79445100  1
  Cu  Cu40  1  0.76365800  0.99314400  0.20554900  1
  Cu  Cu41  1  0.64151100  0.79179700  0.97862600  1
  Cu  Cu42  1  0.35848900  0.20820300  0.02137400  1
  Cu  Cu43  1  0.76940900  0.91441200  0.73615100  1
  Cu  Cu44  1  0.23059100  0.08558800  0.26384900  1
  Cu  Cu45  1  0.71337300  0.32536200  0.51666900  1
  Cu  Cu46  1  0.28662700  0.67463800  0.48333100  1
  Cu  Cu47  1  0.69729900  0.57858000  0.38907000  1
  Cu  Cu48  1  0.30270100  0.42142000  0.61093000  1
