# generated using pymatgen
data_Cu4NiC12
_symmetry_space_group_name_H-M   'P 1'
_cell_length_a   7.20626200
_cell_length_b   4.56130200
_cell_length_c   9.29799775
_cell_angle_alpha   89.91702644
_cell_angle_beta   90.00000000
_cell_angle_gamma   90.00000000
_symmetry_Int_Tables_number   1
_chemical_formula_structural   Cu4NiC12
_chemical_formula_sum   'Cu8 Ni2 C24'
_cell_volume   305.62428233
_cell_formula_units_Z   2
loop_
 _symmetry_equiv_pos_site_id
 _symmetry_equiv_pos_as_xyz
  1  'x, y, z'
loop_
 _atom_site_type_symbol
 _atom_site_label
 _atom_site_symmetry_multiplicity
 _atom_site_fract_x
 _atom_site_fract_y
 _atom_site_fract_z
 _atom_site_occupancy
  C  C0  1  0.60206000  0.99813300  0.16400500  1
  C  C1  1  0.10206000  0.00186700  0.33599500  1
  C  C2  1  0.89794000  0.99813300  0.66400500  1
  C  C3  1  0.39794000  0.00186700  0.83599500  1
  Ni  Ni4  1  0.00000000  0.00000000  0.00000000  1
  Ni  Ni5  1  0.50000000  0.00000000  0.50000000  1
  Cu  Cu6  1  0.22955200  0.53871300  0.57861900  1
  Cu  Cu7  1  0.72955200  0.46128700  0.92138100  1
  Cu  Cu8  1  0.77044800  0.46128700  0.42138100  1
  Cu  Cu9  1  0.27044800  0.53871300  0.07861900  1
  Cu  Cu10  1  0.40235600  0.47114300  0.33547000  1
  Cu  Cu11  1  0.90235600  0.52885700  0.16453000  1
  Cu  Cu12  1  0.09764400  0.47114300  0.83547000  1
  Cu  Cu13  1  0.59764400  0.52885700  0.66453000  1
  C  C14  1  0.08981900  0.67802400  0.13887400  1
  C  C15  1  0.58981900  0.32197600  0.36112600  1
  C  C16  1  0.89125300  0.22685200  0.46018600  1
  C  C17  1  0.39125300  0.77314800  0.03981400  1
  C  C18  1  0.10874700  0.77314800  0.53981400  1
  C  C19  1  0.60874700  0.22685200  0.96018600  1
  C  C20  1  0.08961500  0.78751300  0.83139000  1
  C  C21  1  0.58961500  0.21248700  0.66861000  1
  C  C22  1  0.91038500  0.21248700  0.16861000  1
  C  C23  1  0.41038500  0.78751300  0.33139000  1
  C  C24  1  0.16185900  0.33878200  0.69639500  1
  C  C25  1  0.66185900  0.66121800  0.80360500  1
  C  C26  1  0.83814100  0.66121800  0.30360500  1
  C  C27  1  0.33814100  0.33878200  0.19639500  1
  C  C28  1  0.22422900  0.35722800  0.94930900  1
  C  C29  1  0.72422900  0.64277200  0.55069100  1
  C  C30  1  0.77577100  0.64277200  0.05069100  1
  C  C31  1  0.27577100  0.35722800  0.44930900  1
  C  C32  1  0.91018100  0.32197600  0.86112600  1
  C  C33  1  0.41018100  0.67802400  0.63887400  1
