# generated using pymatgen
data_CuNiC
_symmetry_space_group_name_H-M   'P 1'
_cell_length_a   4.25625900
_cell_length_b   6.71772800
_cell_length_c   7.62331200
_cell_angle_alpha   90.00000000
_cell_angle_beta   90.00000000
_cell_angle_gamma   90.00000000
_symmetry_Int_Tables_number   1
_chemical_formula_structural   CuNiC
_chemical_formula_sum   'Cu4 Ni4 C4'
_cell_volume   217.96871177
_cell_formula_units_Z   4
loop_
 _symmetry_equiv_pos_site_id
 _symmetry_equiv_pos_as_xyz
  1  'x, y, z'
loop_
 _atom_site_type_symbol
 _atom_site_label
 _atom_site_symmetry_multiplicity
 _atom_site_fract_x
 _atom_site_fract_y
 _atom_site_fract_z
 _atom_site_occupancy
  C  C0  1  0.75000000  0.51014600  0.80880400  1
  C  C1  1  0.25000000  0.98985400  0.30880400  1
  C  C2  1  0.75000000  0.01014600  0.69119600  1
  C  C3  1  0.25000000  0.48985400  0.19119600  1
  Ni  Ni4  1  0.25000000  0.71209500  0.61600800  1
  Ni  Ni5  1  0.25000000  0.21209500  0.88399200  1
  Ni  Ni6  1  0.75000000  0.28790500  0.38399200  1
  Ni  Ni7  1  0.75000000  0.78790500  0.11600800  1
  Cu  Cu8  1  0.25000000  0.83714600  0.93892100  1
  Cu  Cu9  1  0.25000000  0.33714600  0.56107900  1
  Cu  Cu10  1  0.75000000  0.66285400  0.43892100  1
  Cu  Cu11  1  0.75000000  0.16285400  0.06107900  1
