# generated using pymatgen
data_Cu3Ni3C22
_symmetry_space_group_name_H-M   'P 1'
_cell_length_a   6.16302165
_cell_length_b   6.16302165
_cell_length_c   10.40931879
_cell_angle_alpha   89.47752724
_cell_angle_beta   89.47752724
_cell_angle_gamma   58.36769782
_symmetry_Int_Tables_number   1
_chemical_formula_structural   Cu3Ni3C22
_chemical_formula_sum   'Cu3 Ni3 C22'
_cell_volume   336.61670250
_cell_formula_units_Z   1
loop_
 _symmetry_equiv_pos_site_id
 _symmetry_equiv_pos_as_xyz
  1  'x, y, z'
loop_
 _atom_site_type_symbol
 _atom_site_label
 _atom_site_symmetry_multiplicity
 _atom_site_fract_x
 _atom_site_fract_y
 _atom_site_fract_z
 _atom_site_occupancy
  C  C0  1  0.66357300  0.66357300  0.90496700  1
  C  C1  1  0.99594200  0.99594200  0.98192100  1
  C  C2  1  0.99222300  0.99222300  0.49970400  1
  C  C3  1  0.33709700  0.33709700  0.40482800  1
  Ni  Ni4  1  0.84293500  0.34360100  0.22081500  1
  Ni  Ni5  1  0.34360100  0.84293500  0.22081500  1
  Ni  Ni6  1  0.17995400  0.17995400  0.73249700  1
  Cu  Cu7  1  0.83251800  0.83251800  0.20529600  1
  Cu  Cu8  1  0.65873200  0.17043000  0.71513600  1
  Cu  Cu9  1  0.17043000  0.65873200  0.71513600  1
  C  C10  1  0.67111400  0.67111400  0.51680400  1
  C  C11  1  0.35712100  0.35712100  0.99350400  1
  C  C12  1  0.83343500  0.33570600  0.60302500  1
  C  C13  1  0.50883700  0.50883700  0.32922400  1
  C  C14  1  0.66549600  0.66549600  0.10125100  1
  C  C15  1  0.99200000  0.99200000  0.31404800  1
  C  C16  1  0.00620700  0.00620700  0.79911000  1
  C  C17  1  0.33570600  0.83343500  0.60302500  1
  C  C18  1  0.98941600  0.49020000  0.31939200  1
  C  C19  1  0.49020000  0.98941600  0.31939200  1
  C  C20  1  0.14180500  0.14180500  0.09620300  1
  C  C21  1  0.83309500  0.83309500  0.60238200  1
  C  C22  1  0.48253900  0.01634500  0.83349800  1
  C  C23  1  0.01634500  0.48253900  0.83349800  1
  C  C24  1  0.32096900  0.32096900  0.60717600  1
  C  C25  1  0.68223200  0.17643600  0.09139000  1
  C  C26  1  0.48093100  0.48093100  0.85209600  1
  C  C27  1  0.17643600  0.68223200  0.09139000  1
