# generated using pymatgen
data_CuNiC10
_symmetry_space_group_name_H-M   'P 1'
_cell_length_a   10.90238713
_cell_length_b   14.15331730
_cell_length_c   18.42820510
_cell_angle_alpha   90.00000000
_cell_angle_beta   90.00000000
_cell_angle_gamma   90.00000000
_symmetry_Int_Tables_number   1
_chemical_formula_structural   CuNiC10
_chemical_formula_sum   'Cu16 Ni16 C160'
_cell_volume   2843.56316295
_cell_formula_units_Z   16
loop_
 _symmetry_equiv_pos_site_id
 _symmetry_equiv_pos_as_xyz
  1  'x, y, z'
loop_
 _atom_site_type_symbol
 _atom_site_label
 _atom_site_symmetry_multiplicity
 _atom_site_fract_x
 _atom_site_fract_y
 _atom_site_fract_z
 _atom_site_occupancy
  Ni  Ni0  1  0.73188013  0.75872964  0.39142898  1
  Ni  Ni1  1  0.76811987  0.75872964  0.10857102  1
  Ni  Ni2  1  0.26811987  0.74127036  0.89142898  1
  Ni  Ni3  1  0.23188013  0.74127036  0.60857102  1
  Ni  Ni4  1  0.26811987  0.24127036  0.60857102  1
  Ni  Ni5  1  0.23188013  0.24127036  0.89142898  1
  Ni  Ni6  1  0.73188013  0.25872964  0.10857102  1
  Ni  Ni7  1  0.76811987  0.25872964  0.39142898  1
  Ni  Ni8  1  0.73625450  0.00254558  0.38955389  1
  Ni  Ni9  1  0.76374550  0.00254558  0.11044611  1
  Ni  Ni10  1  0.26374550  0.49745442  0.88955389  1
  Ni  Ni11  1  0.23625450  0.49745442  0.61044611  1
  Ni  Ni12  1  0.26374550  0.99745442  0.61044611  1
  Ni  Ni13  1  0.23625450  0.99745442  0.88955389  1
  Ni  Ni14  1  0.73625450  0.50254558  0.11044611  1
  Ni  Ni15  1  0.76374550  0.50254558  0.38955389  1
  Cu  Cu16  1  0.25433655  0.51229028  0.36638810  1
  Cu  Cu17  1  0.24566345  0.51229028  0.13361190  1
  Cu  Cu18  1  0.74566345  0.98770972  0.86638810  1
  Cu  Cu19  1  0.75433655  0.98770972  0.63361190  1
  Cu  Cu20  1  0.74566345  0.48770972  0.63361190  1
  Cu  Cu21  1  0.75433655  0.48770972  0.86638810  1
  Cu  Cu22  1  0.25433655  0.01229028  0.13361190  1
  Cu  Cu23  1  0.24566345  0.01229028  0.36638810  1
  Cu  Cu24  1  0.26303562  0.74229049  0.35991422  1
  Cu  Cu25  1  0.23696438  0.74229049  0.14008578  1
  Cu  Cu26  1  0.73696438  0.75770951  0.85991422  1
  Cu  Cu27  1  0.76303562  0.75770951  0.64008578  1
  Cu  Cu28  1  0.73696438  0.25770951  0.64008578  1
  Cu  Cu29  1  0.76303562  0.25770951  0.85991422  1
  Cu  Cu30  1  0.26303562  0.24229049  0.14008578  1
  Cu  Cu31  1  0.23696438  0.24229049  0.35991422  1
  C  C32  1  0.01215314  0.62360942  0.28703198  1
  C  C33  1  0.48784686  0.62360942  0.21296802  1
  C  C34  1  0.98784686  0.87639058  0.78703198  1
  C  C35  1  0.51215314  0.87639058  0.71296802  1
  C  C36  1  0.98784686  0.37639058  0.71296802  1
  C  C37  1  0.51215314  0.37639058  0.78703198  1
  C  C38  1  0.01215314  0.12360942  0.21296802  1
  C  C39  1  0.48784686  0.12360942  0.28703198  1
  C  C40  1  0.49914268  0.62324297  0.48706876  1
  C  C41  1  0.00085732  0.62324297  0.01293124  1
  C  C42  1  0.50085732  0.87675703  0.98706876  1
  C  C43  1  -0.00085732  0.87675703  0.51293124  1
  C  C44  1  0.50085732  0.37675703  0.51293124  1
  C  C45  1  -0.00085732  0.37675703  0.98706876  1
  C  C46  1  0.49914268  0.12324297  0.01293124  1
  C  C47  1  0.00085732  0.12324297  0.48706876  1
  C  C48  1  0.98060153  0.87750845  0.29474236  1
  C  C49  1  0.51939847  0.87750845  0.20525764  1
  C  C50  1  0.01939847  0.62249155  0.79474236  1
  C  C51  1  0.48060153  0.62249155  0.70525764  1
  C  C52  1  0.01939847  0.12249155  0.70525764  1
  C  C53  1  0.48060153  0.12249155  0.79474236  1
  C  C54  1  0.98060153  0.37750845  0.20525764  1
  C  C55  1  0.51939847  0.37750845  0.29474236  1
  C  C56  1  0.54211937  0.12535140  0.51655020  1
  C  C57  1  0.95788063  0.12535140  0.98344980  1
  C  C58  1  0.45788063  0.37464860  0.01655020  1
  C  C59  1  0.04211937  0.37464860  0.48344980  1
  C  C60  1  0.45788063  0.87464860  0.48344980  1
  C  C61  1  0.04211937  0.87464860  0.01655020  1
  C  C62  1  0.54211937  0.62535140  0.98344980  1
  C  C63  1  0.95788063  0.62535140  0.51655020  1
  C  C64  1  0.07625788  0.62166496  0.37968682  1
  C  C65  1  0.42374212  0.62166496  0.12031318  1
  C  C66  1  0.92374212  0.87833504  0.87968682  1
  C  C67  1  0.57625788  0.87833504  0.62031318  1
  C  C68  1  0.92374212  0.37833504  0.62031318  1
  C  C69  1  0.57625788  0.37833504  0.87968682  1
  C  C70  1  0.07625788  0.12166496  0.12031318  1
  C  C71  1  0.42374212  0.12166496  0.37968682  1
  C  C72  1  0.10599326  0.72646468  0.25642017  1
  C  C73  1  0.39400674  0.72646468  0.24357983  1
  C  C74  1  0.89400674  0.77353532  0.75642017  1
  C  C75  1  0.60599326  0.77353532  0.74357983  1
  C  C76  1  0.89400674  0.27353532  0.74357983  1
  C  C77  1  0.60599326  0.27353532  0.75642017  1
  C  C78  1  0.10599326  0.22646468  0.24357983  1
  C  C79  1  0.39400674  0.22646468  0.25642017  1
  C  C80  1  0.10565777  0.52536807  0.25065403  1
  C  C81  1  0.39434223  0.52536807  0.24934597  1
  C  C82  1  0.89434223  0.97463193  0.75065403  1
  C  C83  1  0.60565777  0.97463193  0.74934597  1
  C  C84  1  0.89434223  0.47463193  0.74934597  1
  C  C85  1  0.60565777  0.47463193  0.75065403  1
  C  C86  1  0.10565777  0.02536807  0.24934597  1
  C  C87  1  0.39434223  0.02536807  0.25065403  1
  C  C88  1  0.42035080  0.62127398  0.40007403  1
  C  C89  1  0.07964920  0.62127398  0.09992597  1
  C  C90  1  0.57964920  0.87872602  0.90007403  1
  C  C91  1  0.92035080  0.87872602  0.59992597  1
  C  C92  1  0.57964920  0.37872602  0.59992597  1
  C  C93  1  0.92035080  0.37872602  0.90007403  1
  C  C94  1  0.42035080  0.12127398  0.09992597  1
  C  C95  1  0.07964920  0.12127398  0.40007403  1
  C  C96  1  0.61437579  0.52700915  0.47563268  1
  C  C97  1  0.88562421  0.52700915  0.02436732  1
  C  C98  1  0.38562421  0.97299085  0.97563268  1
  C  C99  1  0.11437579  0.97299085  0.52436732  1
  C  C100  1  0.38562421  0.47299085  0.52436732  1
  C  C101  1  0.11437579  0.47299085  0.97563268  1
  C  C102  1  0.61437579  0.02700915  0.02436732  1
  C  C103  1  0.88562421  0.02700915  0.47563268  1
  C  C104  1  0.60718531  0.72715889  0.46818051  1
  C  C105  1  0.89281469  0.72715889  0.03181949  1
  C  C106  1  0.39281469  0.77284111  0.96818051  1
  C  C107  1  0.10718531  0.77284111  0.53181949  1
  C  C108  1  0.39281469  0.27284111  0.53181949  1
  C  C109  1  0.10718531  0.27284111  0.96818051  1
  C  C110  1  0.60718531  0.22715889  0.03181949  1
  C  C111  1  0.89281469  0.22715889  0.46818051  1
  C  C112  1  0.88989629  0.77631940  0.33499018  1
  C  C113  1  0.61010371  0.77631940  0.16500982  1
  C  C114  1  0.11010371  0.72368060  0.83499018  1
  C  C115  1  0.38989629  0.72368060  0.66500982  1
  C  C116  1  0.11010371  0.22368060  0.66500982  1
  C  C117  1  0.38989629  0.22368060  0.83499018  1
  C  C118  1  0.88989629  0.27631940  0.16500982  1
  C  C119  1  0.61010371  0.27631940  0.33499018  1
  C  C120  1  0.87683172  0.97481748  0.32608148  1
  C  C121  1  0.62316828  0.97481748  0.17391852  1
  C  C122  1  0.12316828  0.52518252  0.82608148  1
  C  C123  1  0.37683172  0.52518252  0.67391852  1
  C  C124  1  0.12316828  0.02518252  0.67391852  1
  C  C125  1  0.37683172  0.02518252  0.82608148  1
  C  C126  1  0.87683172  0.47481748  0.17391852  1
  C  C127  1  0.62316828  0.47481748  0.32608148  1
  C  C128  1  0.09770837  0.88170359  0.36563640  1
  C  C129  1  0.40229163  0.88170359  0.13436360  1
  C  C130  1  0.90229163  0.61829641  0.86563640  1
  C  C131  1  0.59770837  0.61829641  0.63436360  1
  C  C132  1  0.90229163  0.11829641  0.63436360  1
  C  C133  1  0.59770837  0.11829641  0.86563640  1
  C  C134  1  0.09770837  0.38170359  0.13436360  1
  C  C135  1  0.40229163  0.38170359  0.36563640  1
  C  C136  1  0.63482746  0.22634625  0.48524798  1
  C  C137  1  0.86517254  0.22634625  0.01475202  1
  C  C138  1  0.36517254  0.27365375  0.98524798  1
  C  C139  1  0.13482746  0.27365375  0.51475202  1
  C  C140  1  0.36517254  0.77365375  0.51475202  1
  C  C141  1  0.13482746  0.77365375  0.98524798  1
  C  C142  1  0.63482746  0.72634625  0.01475202  1
  C  C143  1  0.86517254  0.72634625  0.48524798  1
  C  C144  1  0.60801705  0.11996150  0.60749577  1
  C  C145  1  0.89198295  0.11996150  0.89250423  1
  C  C146  1  0.39198295  0.38003850  0.10749577  1
  C  C147  1  0.10801705  0.38003850  0.39250423  1
  C  C148  1  0.39198295  0.88003850  0.39250423  1
  C  C149  1  0.10801705  0.88003850  0.10749577  1
  C  C150  1  0.60801705  0.61996150  0.89250423  1
  C  C151  1  0.89198295  0.61996150  0.60749577  1
  C  C152  1  0.62931345  0.02083016  0.47821774  1
  C  C153  1  0.87068655  0.02083016  0.02178226  1
  C  C154  1  0.37068655  0.47916984  0.97821774  1
  C  C155  1  0.12931345  0.47916984  0.52178226  1
  C  C156  1  0.37068655  0.97916984  0.52178226  1
  C  C157  1  0.12931345  0.97916984  0.97821774  1
  C  C158  1  0.62931345  0.52083016  0.02178226  1
  C  C159  1  0.87068655  0.52083016  0.47821774  1
  C  C160  1  0.62420824  0.97973525  0.33140202  1
  C  C161  1  0.87579176  0.97973525  0.16859798  1
  C  C162  1  0.37579176  0.52026475  0.83140202  1
  C  C163  1  0.12420824  0.52026475  0.66859798  1
  C  C164  1  0.37579176  0.02026475  0.66859798  1
  C  C165  1  0.12420824  0.02026475  0.83140202  1
  C  C166  1  0.62420824  0.47973525  0.16859798  1
  C  C167  1  0.87579176  0.47973525  0.33140202  1
  C  C168  1  0.74488116  0.12669403  0.37632200  1
  C  C169  1  0.75511884  0.12669403  0.12367800  1
  C  C170  1  0.25511884  0.37330597  0.87632200  1
  C  C171  1  0.24488116  0.37330597  0.62367800  1
  C  C172  1  0.25511884  0.87330597  0.62367800  1
  C  C173  1  0.24488116  0.87330597  0.87632200  1
  C  C174  1  0.74488116  0.62669403  0.12367800  1
  C  C175  1  0.75511884  0.62669403  0.37632200  1
  C  C176  1  0.75009107  0.87581829  0.42874852  1
  C  C177  1  0.74990893  0.87581829  0.07125148  1
  C  C178  1  0.24990893  0.62418171  0.92874852  1
  C  C179  1  0.25009107  0.62418171  0.57125148  1
  C  C180  1  0.24990893  0.12418171  0.57125148  1
  C  C181  1  0.25009107  0.12418171  0.92874852  1
  C  C182  1  0.75009107  0.37581829  0.07125148  1
  C  C183  1  0.74990893  0.37581829  0.42874852  1
  C  C184  1  0.63742122  0.77744864  0.32404256  1
  C  C185  1  0.86257878  0.77744864  0.17595744  1
  C  C186  1  0.36257878  0.72255136  0.82404256  1
  C  C187  1  0.13742122  0.72255136  0.67595744  1
  C  C188  1  0.36257878  0.22255136  0.67595744  1
  C  C189  1  0.13742122  0.22255136  0.82404256  1
  C  C190  1  0.63742122  0.27744864  0.17595744  1
  C  C191  1  0.86257878  0.27744864  0.32404256  1
