# generated using pymatgen
data_Cu22Ni2C11
_symmetry_space_group_name_H-M   'P 1'
_cell_length_a   13.11123800
_cell_length_b   12.09419300
_cell_length_c   19.99679722
_cell_angle_alpha   90.00000000
_cell_angle_beta   121.07110575
_cell_angle_gamma   90.00000000
_symmetry_Int_Tables_number   1
_chemical_formula_structural   Cu22Ni2C11
_chemical_formula_sum   'Cu88 Ni8 C44'
_cell_volume   2715.95350563
_cell_formula_units_Z   4
loop_
 _symmetry_equiv_pos_site_id
 _symmetry_equiv_pos_as_xyz
  1  'x, y, z'
loop_
 _atom_site_type_symbol
 _atom_site_label
 _atom_site_symmetry_multiplicity
 _atom_site_fract_x
 _atom_site_fract_y
 _atom_site_fract_z
 _atom_site_occupancy
  C  C0  1  0.83961500  0.06529100  0.66185200  1
  C  C1  1  0.83961500  0.43470900  0.16185200  1
  C  C2  1  0.16038500  0.93470900  0.33814800  1
  C  C3  1  0.16038500  0.56529100  0.83814800  1
  C  C4  1  0.74391700  0.23146600  0.53814900  1
  C  C5  1  0.74391700  0.26853400  0.03814900  1
  C  C6  1  0.25608300  0.76853400  0.46185100  1
  C  C7  1  0.25608300  0.73146600  0.96185100  1
  C  C8  1  0.82017800  0.92360300  0.53296700  1
  C  C9  1  0.82017800  0.57639700  0.03296700  1
  C  C10  1  0.17982200  0.07639700  0.46703300  1
  C  C11  1  0.17982200  0.42360300  0.96703300  1
  C  C12  1  0.73769700  0.86497000  0.68768500  1
  C  C13  1  0.73769700  0.63503000  0.18768500  1
  C  C14  1  0.26230300  0.13503000  0.31231500  1
  C  C15  1  0.26230300  0.36497000  0.81231500  1
  C  C16  1  0.66685300  0.16426200  0.69988200  1
  C  C17  1  0.66685300  0.33573800  0.19988200  1
  C  C18  1  0.33314700  0.83573800  0.30011800  1
  C  C19  1  0.33314700  0.66426200  0.80011800  1
  C  C20  1  0.50151000  0.73112300  0.61274400  1
  C  C21  1  0.50151000  0.76887700  0.11274400  1
  C  C22  1  0.49849000  0.26887700  0.38725600  1
  C  C23  1  0.49849000  0.23112300  0.88725600  1
  C  C24  1  0.39153900  0.17382500  0.61935300  1
  C  C25  1  0.39153900  0.32617500  0.11935300  1
  C  C26  1  0.60846100  0.82617500  0.38064700  1
  C  C27  1  0.60846100  0.67382500  0.88064700  1
  C  C28  1  0.73661000  0.10684600  0.37835900  1
  C  C29  1  0.73661000  0.39315400  0.87835900  1
  C  C30  1  0.26339000  0.89315400  0.62164100  1
  C  C31  1  0.26339000  0.60684600  0.12164100  1
  C  C32  1  0.74243100  0.66540800  0.56658800  1
  C  C33  1  0.74243100  0.83459200  0.06658800  1
  C  C34  1  0.25756900  0.33459200  0.43341200  1
  C  C35  1  0.25756900  0.16540800  0.93341200  1
  C  C36  1  0.57239300  0.95210700  0.76615300  1
  C  C37  1  0.57239300  0.54789300  0.26615300  1
  C  C38  1  0.42760700  0.04789300  0.23384700  1
  C  C39  1  0.42760700  0.45210700  0.73384700  1
  C  C40  1  0.56684600  0.38598200  0.57951300  1
  C  C41  1  0.56684600  0.11401800  0.07951300  1
  C  C42  1  0.43315400  0.61401800  0.42048700  1
  C  C43  1  0.43315400  0.88598200  0.92048700  1
  Ni  Ni44  1  0.21547300  0.04959600  0.73512400  1
  Ni  Ni45  1  0.21547300  0.45040400  0.23512400  1
  Ni  Ni46  1  0.78452700  0.95040400  0.26487600  1
  Ni  Ni47  1  0.78452700  0.54959600  0.76487600  1
  Ni  Ni48  1  0.07104500  0.84994200  0.74721400  1
  Ni  Ni49  1  0.07104500  0.65005800  0.24721400  1
  Ni  Ni50  1  0.92895500  0.15005800  0.25278600  1
  Ni  Ni51  1  0.92895500  0.34994200  0.75278600  1
  Cu  Cu52  1  0.65531800  0.19566100  0.42404000  1
  Cu  Cu53  1  0.65531800  0.30433900  0.92404000  1
  Cu  Cu54  1  0.34468200  0.80433900  0.57596000  1
  Cu  Cu55  1  0.34468200  0.69566100  0.07596000  1
  Cu  Cu56  1  0.71081500  0.96142900  0.42197000  1
  Cu  Cu57  1  0.71081500  0.53857100  0.92197000  1
  Cu  Cu58  1  0.28918500  0.03857100  0.57803000  1
  Cu  Cu59  1  0.28918500  0.46142900  0.07803000  1
  Cu  Cu60  1  0.71391500  0.79014500  0.49425200  1
  Cu  Cu61  1  0.71391500  0.70985500  0.99425200  1
  Cu  Cu62  1  0.28608500  0.20985500  0.50574800  1
  Cu  Cu63  1  0.28608500  0.29014500  0.00574800  1
  Cu  Cu64  1  0.60176600  0.57412600  0.49677600  1
  Cu  Cu65  1  0.60176600  0.92587400  0.99677600  1
  Cu  Cu66  1  0.39823400  0.42587400  0.50322400  1
  Cu  Cu67  1  0.39823400  0.07412600  0.00322400  1
  Cu  Cu68  1  0.65837700  0.74647900  0.61337000  1
  Cu  Cu69  1  0.65837700  0.75352100  0.11337000  1
  Cu  Cu70  1  0.34162300  0.25352100  0.38663000  1
  Cu  Cu71  1  0.34162300  0.24647900  0.88663000  1
  Cu  Cu72  1  0.58984800  0.85937300  0.68482400  1
  Cu  Cu73  1  0.58984800  0.64062700  0.18482400  1
  Cu  Cu74  1  0.41015200  0.14062700  0.31517600  1
  Cu  Cu75  1  0.41015200  0.35937300  0.81517600  1
  Cu  Cu76  1  0.40733700  0.91066600  0.72521000  1
  Cu  Cu77  1  0.40733700  0.58933400  0.22521000  1
  Cu  Cu78  1  0.59266300  0.08933400  0.27479000  1
  Cu  Cu79  1  0.59266300  0.41066600  0.77479000  1
  Cu  Cu80  1  0.53164900  0.08269600  0.69188600  1
  Cu  Cu81  1  0.53164900  0.41730400  0.19188600  1
  Cu  Cu82  1  0.46835100  0.91730400  0.30811400  1
  Cu  Cu83  1  0.46835100  0.58269600  0.80811400  1
  Cu  Cu84  1  0.52842800  0.25166200  0.62127700  1
  Cu  Cu85  1  0.52842800  0.24833800  0.12127700  1
  Cu  Cu86  1  0.47157200  0.74833800  0.37872300  1
  Cu  Cu87  1  0.47157200  0.75166200  0.87872300  1
  Cu  Cu88  1  0.58419300  0.29726000  0.50118400  1
  Cu  Cu89  1  0.58419300  0.20274000  0.00118400  1
  Cu  Cu90  1  0.41580700  0.70274000  0.49881600  1
  Cu  Cu91  1  0.41580700  0.79726000  0.99881600  1
  Cu  Cu92  1  0.82278100  0.08202300  0.56388200  1
  Cu  Cu93  1  0.82278100  0.41797700  0.06388200  1
  Cu  Cu94  1  0.17721900  0.91797700  0.43611800  1
  Cu  Cu95  1  0.17721900  0.58202300  0.93611800  1
  Cu  Cu96  1  0.81431300  0.90877100  0.63284200  1
  Cu  Cu97  1  0.81431300  0.59122900  0.13284200  1
  Cu  Cu98  1  0.18568700  0.09122900  0.36715800  1
  Cu  Cu99  1  0.18568700  0.40877100  0.86715800  1
  Cu  Cu100  1  0.74753700  0.01851400  0.70919700  1
  Cu  Cu101  1  0.74753700  0.48148600  0.20919700  1
  Cu  Cu102  1  0.25246300  0.98148600  0.29080300  1
  Cu  Cu103  1  0.25246300  0.51851400  0.79080300  1
  Cu  Cu104  1  0.74723700  0.19276300  0.63865900  1
  Cu  Cu105  1  0.74723700  0.30723700  0.13865900  1
  Cu  Cu106  1  0.25276300  0.80723700  0.36134100  1
  Cu  Cu107  1  0.25276300  0.69276300  0.86134100  1
  Cu  Cu108  1  0.97513200  0.08939300  0.73037000  1
  Cu  Cu109  1  0.97513200  0.41060700  0.23037000  1
  Cu  Cu110  1  0.02486800  0.91060700  0.26963000  1
  Cu  Cu111  1  0.02486800  0.58939300  0.76963000  1
  Cu  Cu112  1  0.83822000  0.33009900  0.55550800  1
  Cu  Cu113  1  0.83822000  0.16990100  0.05550800  1
  Cu  Cu114  1  0.16178000  0.66990100  0.44449200  1
  Cu  Cu115  1  0.16178000  0.83009900  0.94449200  1
  Cu  Cu116  1  0.95073900  0.88983500  0.54830500  1
  Cu  Cu117  1  0.95073900  0.61016500  0.04830500  1
  Cu  Cu118  1  0.04926100  0.11016500  0.45169500  1
  Cu  Cu119  1  0.04926100  0.38983500  0.95169500  1
  Cu  Cu120  1  0.83745100  0.80744500  0.76702700  1
  Cu  Cu121  1  0.83745100  0.69255500  0.26702700  1
  Cu  Cu122  1  0.16254900  0.19255500  0.23297300  1
  Cu  Cu123  1  0.16254900  0.30744500  0.73297300  1
  Cu  Cu124  1  0.50568600  0.61556700  0.65705900  1
  Cu  Cu125  1  0.50568600  0.88443300  0.15705900  1
  Cu  Cu126  1  0.49431400  0.38443300  0.34294100  1
  Cu  Cu127  1  0.49431400  0.11556700  0.84294100  1
  Cu  Cu128  1  0.73748300  0.22784200  0.78457800  1
  Cu  Cu129  1  0.73748300  0.27215800  0.28457800  1
  Cu  Cu130  1  0.26251700  0.77215800  0.21542200  1
  Cu  Cu131  1  0.26251700  0.72784200  0.71542200  1
  Cu  Cu132  1  0.35178200  0.25570200  0.66787300  1
  Cu  Cu133  1  0.35178200  0.24429800  0.16787300  1
  Cu  Cu134  1  0.64821800  0.74429800  0.33212700  1
  Cu  Cu135  1  0.64821800  0.75570200  0.83212700  1
  Cu  Cu136  1  0.93262000  0.70139700  0.91787600  1
  Cu  Cu137  1  0.93262000  0.79860300  0.41787600  1
  Cu  Cu138  1  0.06738000  0.29860300  0.08212400  1
  Cu  Cu139  1  0.06738000  0.20139700  0.58212400  1
