# generated using pymatgen
data_Cu(NiC9)2
_symmetry_space_group_name_H-M   'P 1'
_cell_length_a   10.61851800
_cell_length_b   15.58722200
_cell_length_c   8.35338100
_cell_angle_alpha   90.00000000
_cell_angle_beta   90.00000000
_cell_angle_gamma   90.00000000
_symmetry_Int_Tables_number   1
_chemical_formula_structural   Cu(NiC9)2
_chemical_formula_sum   'Cu4 Ni8 C72'
_cell_volume   1382.59479822
_cell_formula_units_Z   4
loop_
 _symmetry_equiv_pos_site_id
 _symmetry_equiv_pos_as_xyz
  1  'x, y, z'
loop_
 _atom_site_type_symbol
 _atom_site_label
 _atom_site_symmetry_multiplicity
 _atom_site_fract_x
 _atom_site_fract_y
 _atom_site_fract_z
 _atom_site_occupancy
  C  C0  1  0.31985700  0.00146700  0.48594700  1
  C  C1  1  0.81985700  0.49853300  0.01405300  1
  C  C2  1  0.68014300  0.50146700  0.51405300  1
  C  C3  1  0.18014300  0.99853300  0.98594700  1
  C  C4  1  0.68014300  0.99853300  0.51405300  1
  C  C5  1  0.18014300  0.50146700  0.98594700  1
  C  C6  1  0.31985700  0.49853300  0.48594700  1
  C  C7  1  0.81985700  0.00146700  0.01405300  1
  Ni  Ni8  1  0.45967100  0.94849600  0.14275000  1
  Ni  Ni9  1  0.95967100  0.55150400  0.35725000  1
  Ni  Ni10  1  0.54032900  0.44849600  0.85725000  1
  Ni  Ni11  1  0.04032900  0.05150400  0.64275000  1
  Ni  Ni12  1  0.54032900  0.05150400  0.85725000  1
  Ni  Ni13  1  0.04032900  0.44849600  0.64275000  1
  Ni  Ni14  1  0.45967100  0.55150400  0.14275000  1
  Ni  Ni15  1  0.95967100  0.94849600  0.35725000  1
  Cu  Cu16  1  0.31195000  0.75000000  0.54374000  1
  Cu  Cu17  1  0.81195000  0.75000000  0.95626000  1
  Cu  Cu18  1  0.68805000  0.25000000  0.45626000  1
  Cu  Cu19  1  0.18805000  0.25000000  0.04374000  1
  C  C20  1  0.39415700  0.99597600  0.94515300  1
  C  C21  1  0.89415700  0.50402400  0.55484700  1
  C  C22  1  0.60584300  0.49597600  0.05484700  1
  C  C23  1  0.10584300  0.00402400  0.44515300  1
  C  C24  1  0.60584300  0.00402400  0.05484700  1
  C  C25  1  0.10584300  0.49597600  0.44515300  1
  C  C26  1  0.39415700  0.50402400  0.94515300  1
  C  C27  1  0.89415700  0.99597600  0.55484700  1
  C  C28  1  0.47994600  0.84629400  0.12041900  1
  C  C29  1  0.97994600  0.65370600  0.37958100  1
  C  C30  1  0.52005400  0.34629400  0.87958100  1
  C  C31  1  0.02005400  0.15370600  0.62041900  1
  C  C32  1  0.52005400  0.15370600  0.87958100  1
  C  C33  1  0.02005400  0.34629400  0.62041900  1
  C  C34  1  0.47994600  0.65370600  0.12041900  1
  C  C35  1  0.97994600  0.84629400  0.37958100  1
  C  C36  1  0.50974500  0.97738400  0.34925500  1
  C  C37  1  0.00974500  0.52261600  0.15074500  1
  C  C38  1  0.49025500  0.47738400  0.65074500  1
  C  C39  1  0.99025500  0.02261600  0.84925500  1
  C  C40  1  0.49025500  0.02261600  0.65074500  1
  C  C41  1  0.99025500  0.47738400  0.84925500  1
  C  C42  1  0.50974500  0.52261600  0.34925500  1
  C  C43  1  0.00974500  0.97738400  0.15074500  1
  C  C44  1  0.29404700  0.96408800  0.21448700  1
  C  C45  1  0.79404700  0.53591200  0.28551300  1
  C  C46  1  0.70595300  0.46408800  0.78551300  1
  C  C47  1  0.20595300  0.03591200  0.71448700  1
  C  C48  1  0.70595300  0.03591200  0.78551300  1
  C  C49  1  0.20595300  0.46408800  0.71448700  1
  C  C50  1  0.29404700  0.53591200  0.21448700  1
  C  C51  1  0.79404700  0.96408800  0.28551300  1
  C  C52  1  0.32347600  0.11335400  0.42933800  1
  C  C53  1  0.82347600  0.38664600  0.07066200  1
  C  C54  1  0.67652400  0.61335400  0.57066200  1
  C  C55  1  0.17652400  0.88664600  0.92933800  1
  C  C56  1  0.67652400  0.88664600  0.57066200  1
  C  C57  1  0.17652400  0.61335400  0.92933800  1
  C  C58  1  0.32347600  0.38664600  0.42933800  1
  C  C59  1  0.82347600  0.11335400  0.07066200  1
  C  C60  1  0.31254400  0.88489000  0.54219200  1
  C  C61  1  0.81254400  0.61511000  0.95780800  1
  C  C62  1  0.68745600  0.38489000  0.45780800  1
  C  C63  1  0.18745600  0.11511000  0.04219200  1
  C  C64  1  0.68745600  0.11511000  0.45780800  1
  C  C65  1  0.18745600  0.38489000  0.04219200  1
  C  C66  1  0.31254400  0.61511000  0.54219200  1
  C  C67  1  0.81254400  0.88489000  0.95780800  1
  C  C68  1  0.47094400  0.75000000  0.48319800  1
  C  C69  1  0.97094400  0.75000000  0.01680200  1
  C  C70  1  0.52905600  0.25000000  0.51680200  1
  C  C71  1  0.02905600  0.25000000  0.98319800  1
  C  C72  1  0.28643600  0.75000000  0.33509600  1
  C  C73  1  0.78643600  0.75000000  0.16490400  1
  C  C74  1  0.71356400  0.25000000  0.66490400  1
  C  C75  1  0.21356400  0.25000000  0.83509600  1
  C  C76  1  0.15489200  0.75000000  0.62034100  1
  C  C77  1  0.65489200  0.75000000  0.87965900  1
  C  C78  1  0.84510800  0.25000000  0.37965900  1
  C  C79  1  0.34510800  0.25000000  0.12034100  1
  C  C80  1  0.32738400  0.75000000  0.75626100  1
  C  C81  1  0.82738400  0.75000000  0.74373900  1
  C  C82  1  0.67261600  0.25000000  0.24373900  1
  C  C83  1  0.17261600  0.25000000  0.25626100  1
