# generated using pymatgen
data_CuNi4C15
_symmetry_space_group_name_H-M   'P 1'
_cell_length_a   5.12644924
_cell_length_b   5.56283515
_cell_length_c   17.15460939
_cell_angle_alpha   87.09281265
_cell_angle_beta   81.38167779
_cell_angle_gamma   62.58817317
_symmetry_Int_Tables_number   1
_chemical_formula_structural   CuNi4C15
_chemical_formula_sum   'Cu2 Ni8 C30'
_cell_volume   429.28333128
_cell_formula_units_Z   2
loop_
 _symmetry_equiv_pos_site_id
 _symmetry_equiv_pos_as_xyz
  1  'x, y, z'
loop_
 _atom_site_type_symbol
 _atom_site_label
 _atom_site_symmetry_multiplicity
 _atom_site_fract_x
 _atom_site_fract_y
 _atom_site_fract_z
 _atom_site_occupancy
  C  C0  1  0.53221300  0.52745700  0.41007100  1
  C  C1  1  0.53222200  0.02745400  0.91005800  1
  Ni  Ni2  1  0.71372200  0.35031500  0.21444500  1
  Ni  Ni3  1  0.71370800  0.85031500  0.71445400  1
  Ni  Ni4  1  0.22078200  0.10372800  0.46332000  1
  Ni  Ni5  1  0.22077200  0.60371000  0.96330200  1
  Ni  Ni6  1  0.78485100  0.39849900  0.03406200  1
  Ni  Ni7  1  0.78479800  0.89857700  0.53406700  1
  Ni  Ni8  1  0.28181500  0.14647300  0.28812600  1
  Ni  Ni9  1  0.28177400  0.64649500  0.78815500  1
  Cu  Cu10  1  0.46158600  0.48522800  0.59052400  1
  Cu  Cu11  1  0.46170000  0.98502000  0.09042300  1
  C  C12  1  0.04026200  0.75784000  0.16111300  1
  C  C13  1  0.04032100  0.25784400  0.66109600  1
  C  C14  1  0.97425700  0.71611900  0.33746800  1
  C  C15  1  0.97435100  0.21598100  0.83743500  1
  C  C16  1  0.50858600  0.90227100  0.35964500  1
  C  C17  1  0.50851800  0.40231100  0.85962200  1
  C  C18  1  0.99284100  0.15720000  0.10957700  1
  C  C19  1  0.99275900  0.65722200  0.60953800  1
  C  C20  1  0.03648700  0.00187800  0.26425400  1
  C  C21  1  0.03649500  0.50188800  0.76418500  1
  C  C22  1  0.54077900  0.25303300  0.00924400  1
  C  C23  1  0.54085600  0.75298000  0.50923700  1
  C  C24  1  0.06531600  0.81716400  0.44270400  1
  C  C25  1  0.06534500  0.31711500  0.94272000  1
  C  C26  1  0.56116900  0.07104800  0.19702900  1
  C  C27  1  0.56112200  0.57120700  0.69697400  1
  C  C28  1  0.99328200  0.35019200  0.39102100  1
  C  C29  1  0.99328400  0.85018800  0.89099400  1
  C  C30  1  0.49281400  0.59443900  0.14085400  1
  C  C31  1  0.49287800  0.09446100  0.64077100  1
  C  C32  1  0.46442900  0.25075500  0.48615900  1
  C  C33  1  0.46437000  0.75076600  0.98617700  1
  C  C34  1  0.95746100  0.50288100  0.23835000  1
  C  C35  1  0.95763700  0.00279000  0.73827300  1
  C  C36  1  0.43361700  0.43697300  0.30662400  1
  C  C37  1  0.43366500  0.93698000  0.80658100  1
  C  C38  1  0.94356300  0.67655400  0.05569500  1
  C  C39  1  0.94359700  0.17665200  0.55565400  1
