# generated using pymatgen
data_Cu(NiC6)6
_symmetry_space_group_name_H-M   'P 1'
_cell_length_a   6.09544600
_cell_length_b   5.70703900
_cell_length_c   19.80050300
_cell_angle_alpha   90.00000000
_cell_angle_beta   90.00000000
_cell_angle_gamma   90.00000000
_symmetry_Int_Tables_number   1
_chemical_formula_structural   Cu(NiC6)6
_chemical_formula_sum   'Cu1 Ni6 C36'
_cell_volume   688.79906911
_cell_formula_units_Z   1
loop_
 _symmetry_equiv_pos_site_id
 _symmetry_equiv_pos_as_xyz
  1  'x, y, z'
loop_
 _atom_site_type_symbol
 _atom_site_label
 _atom_site_symmetry_multiplicity
 _atom_site_fract_x
 _atom_site_fract_y
 _atom_site_fract_z
 _atom_site_occupancy
  Ni  Ni0  1  0.50000000  0.00000000  0.82459100  1
  Ni  Ni1  1  0.00000000  0.50000000  0.95496100  1
  Ni  Ni2  1  0.00000000  0.00000000  0.97338900  1
  Ni  Ni3  1  0.50000000  0.00000000  0.55418800  1
  Ni  Ni4  1  0.00000000  0.00000000  0.21775600  1
  Ni  Ni5  1  0.50000000  0.50000000  0.22640200  1
  Cu  Cu6  1  0.00000000  0.50000000  0.57529400  1
  C  C7  1  0.00000000  0.00000000  0.74352100  1
  C  C8  1  0.50000000  0.50000000  0.76864500  1
  C  C9  1  0.00000000  0.00000000  0.52502700  1
  C  C10  1  0.50000000  0.50000000  0.49984800  1
  C  C11  1  0.50000000  0.00000000  0.15031700  1
  C  C12  1  0.00000000  0.50000000  0.14857100  1
  C  C13  1  0.50000000  0.00000000  0.35206500  1
  C  C14  1  0.00000000  0.50000000  0.36769300  1
  C  C15  1  0.50000000  0.50000000  0.99575900  1
  C  C16  1  0.71810200  0.74718100  0.55849600  1
  C  C17  1  0.28189800  0.25281900  0.55849600  1
  C  C18  1  0.28189800  0.74718100  0.55849600  1
  C  C19  1  0.71810200  0.25281900  0.55849600  1
  C  C20  1  0.71508100  0.78768100  0.79138600  1
  C  C21  1  0.28491900  0.21231900  0.79138600  1
  C  C22  1  0.28491900  0.78768100  0.79138600  1
  C  C23  1  0.71508100  0.21231900  0.79138600  1
  C  C24  1  0.00000000  0.00000000  0.88763200  1
  C  C25  1  0.50000000  0.50000000  0.88565100  1
  C  C26  1  0.00000000  0.00000000  0.31133900  1
  C  C27  1  0.50000000  0.50000000  0.32103800  1
  C  C28  1  0.00000000  0.00000000  0.63404300  1
  C  C29  1  0.50000000  0.50000000  0.66808800  1
  C  C30  1  0.00000000  0.00000000  0.12496500  1
  C  C31  1  0.50000000  0.50000000  0.12551300  1
  C  C32  1  0.80214600  0.73067900  0.98832000  1
  C  C33  1  0.19785400  0.26932100  0.98832000  1
  C  C34  1  0.19785400  0.73067900  0.98832000  1
  C  C35  1  0.80214600  0.26932100  0.98832000  1
  C  C36  1  0.74633900  0.75052800  0.21377700  1
  C  C37  1  0.25366100  0.24947200  0.21377700  1
  C  C38  1  0.25366100  0.75052800  0.21377700  1
  C  C39  1  0.74633900  0.24947200  0.21377700  1
  C  C40  1  0.50000000  0.00000000  0.46042700  1
  C  C41  1  0.00000000  0.50000000  0.47143600  1
  C  C42  1  0.00000000  0.00000000  0.38392300  1
