# generated using pymatgen
data_Cu(NiC4)3
_symmetry_space_group_name_H-M   'P 1'
_cell_length_a   13.89271400
_cell_length_b   15.68140500
_cell_length_c   5.59714900
_cell_angle_alpha   90.00000000
_cell_angle_beta   90.00000000
_cell_angle_gamma   90.00000000
_symmetry_Int_Tables_number   1
_chemical_formula_structural   Cu(NiC4)3
_chemical_formula_sum   'Cu4 Ni12 C48'
_cell_volume   1219.37962770
_cell_formula_units_Z   4
loop_
 _symmetry_equiv_pos_site_id
 _symmetry_equiv_pos_as_xyz
  1  'x, y, z'
loop_
 _atom_site_type_symbol
 _atom_site_label
 _atom_site_symmetry_multiplicity
 _atom_site_fract_x
 _atom_site_fract_y
 _atom_site_fract_z
 _atom_site_occupancy
  Ni  Ni0  1  0.76088300  0.64037000  0.58440600  1
  Ni  Ni1  1  0.23911700  0.64037000  0.58440600  1
  Ni  Ni2  1  0.73911700  0.14037000  0.41559400  1
  Ni  Ni3  1  0.26088300  0.14037000  0.41559400  1
  Ni  Ni4  1  0.00000000  0.01518300  0.43564400  1
  Ni  Ni5  1  0.50000000  0.51518300  0.56435600  1
  Ni  Ni6  1  0.00000000  0.24266300  0.07900200  1
  Ni  Ni7  1  0.50000000  0.74266300  0.92099800  1
  Ni  Ni8  1  0.00000000  0.61052000  0.93223600  1
  Ni  Ni9  1  0.50000000  0.11052000  0.06776400  1
  Ni  Ni10  1  0.00000000  0.81516000  0.43210000  1
  Ni  Ni11  1  0.50000000  0.31516000  0.56790000  1
  Cu  Cu12  1  0.74146900  0.91692000  0.43911900  1
  Cu  Cu13  1  0.25853100  0.91692000  0.43911900  1
  Cu  Cu14  1  0.75853100  0.41692000  0.56088100  1
  Cu  Cu15  1  0.24146900  0.41692000  0.56088100  1
  C  C16  1  0.88690300  0.86919000  0.93590400  1
  C  C17  1  0.11309700  0.86919000  0.93590400  1
  C  C18  1  0.61309700  0.36919000  0.06409600  1
  C  C19  1  0.38690300  0.36919000  0.06409600  1
  C  C20  1  0.71661000  0.76517800  0.05604100  1
  C  C21  1  0.28339000  0.76517800  0.05604100  1
  C  C22  1  0.78339000  0.26517800  0.94395900  1
  C  C23  1  0.21661000  0.26517800  0.94395900  1
  C  C24  1  0.62040800  0.94954100  0.93445200  1
  C  C25  1  0.37959200  0.94954100  0.93445200  1
  C  C26  1  0.87959200  0.44954100  0.06554800  1
  C  C27  1  0.12040800  0.44954100  0.06554800  1
  C  C28  1  0.00000000  0.83070900  0.93738400  1
  C  C29  1  0.50000000  0.33070900  0.06261600  1
  C  C30  1  0.86984300  0.91645200  0.68289300  1
  C  C31  1  0.13015700  0.91645200  0.68289300  1
  C  C32  1  0.63015700  0.41645200  0.31710700  1
  C  C33  1  0.36984300  0.41645200  0.31710700  1
  C  C34  1  0.86708400  0.92162600  0.17939100  1
  C  C35  1  0.13291600  0.92162600  0.17939100  1
  C  C36  1  0.63291600  0.42162600  0.82060900  1
  C  C37  1  0.36708400  0.42162600  0.82060900  1
  C  C38  1  0.82910600  0.77443000  0.94240300  1
  C  C39  1  0.17089400  0.77443000  0.94240300  1
  C  C40  1  0.67089400  0.27443000  0.05759700  1
  C  C41  1  0.32910600  0.27443000  0.05759700  1
  C  C42  1  0.72009500  0.78511400  0.34400500  1
  C  C43  1  0.27990500  0.78511400  0.34400500  1
  C  C44  1  0.77990500  0.28511400  0.65599500  1
  C  C45  1  0.22009500  0.28511400  0.65599500  1
  C  C46  1  0.66893400  0.67781700  0.97796900  1
  C  C47  1  0.33106600  0.67781700  0.97796900  1
  C  C48  1  0.83106600  0.17781700  0.02203100  1
  C  C49  1  0.16893400  0.17781700  0.02203100  1
  C  C50  1  0.65817300  0.84807900  0.92534900  1
  C  C51  1  0.34182700  0.84807900  0.92534900  1
  C  C52  1  0.84182700  0.34807900  0.07465100  1
  C  C53  1  0.15817300  0.34807900  0.07465100  1
  C  C54  1  0.65431000  0.99494300  0.18089400  1
  C  C55  1  0.34569000  0.99494300  0.18089400  1
  C  C56  1  0.84569000  0.49494300  0.81910600  1
  C  C57  1  0.15431000  0.49494300  0.81910600  1
  C  C58  1  0.65684400  0.99547200  0.69301300  1
  C  C59  1  0.34315600  0.99547200  0.69301300  1
  C  C60  1  0.84315600  0.49547200  0.30698700  1
  C  C61  1  0.15684400  0.49547200  0.30698700  1
  C  C62  1  0.50000000  0.94340100  0.93483800  1
  C  C63  1  0.00000000  0.44340100  0.06516200  1
