# generated using pymatgen
data_Cu(Ni3C16)2
_symmetry_space_group_name_H-M   'P 1'
_cell_length_a   14.11708454
_cell_length_b   14.11708454
_cell_length_c   14.08958000
_cell_angle_alpha   90.00000000
_cell_angle_beta   90.00000000
_cell_angle_gamma   120.00000255
_symmetry_Int_Tables_number   1
_chemical_formula_structural   Cu(Ni3C16)2
_chemical_formula_sum   'Cu2 Ni12 C64'
_cell_volume   2431.74873756
_cell_formula_units_Z   2
loop_
 _symmetry_equiv_pos_site_id
 _symmetry_equiv_pos_as_xyz
  1  'x, y, z'
loop_
 _atom_site_type_symbol
 _atom_site_label
 _atom_site_symmetry_multiplicity
 _atom_site_fract_x
 _atom_site_fract_y
 _atom_site_fract_z
 _atom_site_occupancy
  C  C0  1  0.65370700  0.03116500  0.75285500  1
  C  C1  1  0.33333300  0.66666700  0.44969500  1
  C  C2  1  0.66666700  0.33333300  0.58343500  1
  C  C3  1  0.33333300  0.66666700  0.08343500  1
  C  C4  1  0.66666700  0.33333300  0.94969500  1
  C  C5  1  0.96883500  0.62254200  0.75285500  1
  C  C6  1  0.37745800  0.34629300  0.75285500  1
  C  C7  1  0.03116500  0.65370700  0.25285500  1
  C  C8  1  0.62254200  0.96883500  0.25285500  1
  C  C9  1  0.34629300  0.37745800  0.25285500  1
  Ni  Ni10  1  0.01605000  0.33759600  0.39302700  1
  Ni  Ni11  1  0.98566800  0.31154200  0.63375100  1
  Ni  Ni12  1  0.68845800  0.67412700  0.63375100  1
  Ni  Ni13  1  0.32587300  0.01433200  0.63375100  1
  Ni  Ni14  1  0.31154200  0.98566800  0.13375100  1
  Ni  Ni15  1  0.67412700  0.68845800  0.13375100  1
  Ni  Ni16  1  0.01433200  0.32587300  0.13375100  1
  Ni  Ni17  1  0.98395000  0.32154600  0.89302700  1
  Ni  Ni18  1  0.67845400  0.66240400  0.89302700  1
  Ni  Ni19  1  0.33759600  0.01605000  0.89302700  1
  Ni  Ni20  1  0.32154600  0.98395000  0.39302700  1
  Ni  Ni21  1  0.66240400  0.67845400  0.39302700  1
  Cu  Cu22  1  0.00000000  0.00000000  0.50660600  1
  Cu  Cu23  1  0.00000000  0.00000000  0.00660600  1
  C  C24  1  0.15500500  0.35068000  0.00927000  1
  C  C25  1  0.47815800  0.17863100  0.17585100  1
  C  C26  1  0.82136900  0.29952800  0.17585100  1
  C  C27  1  0.70047200  0.52184200  0.17585100  1
  C  C28  1  0.17863100  0.47815800  0.67585100  1
  C  C29  1  0.29952800  0.82136900  0.67585100  1
  C  C30  1  0.52184200  0.70047200  0.67585100  1
  C  C31  1  0.52541000  0.12504900  0.39850300  1
  C  C32  1  0.87495100  0.40036100  0.39850300  1
  C  C33  1  0.59963900  0.47459000  0.39850300  1
  C  C34  1  0.12504900  0.52541000  0.89850300  1
  C  C35  1  0.40036100  0.87495100  0.89850300  1
  C  C36  1  0.98728600  0.46131900  0.01994100  1
  C  C37  1  0.53868100  0.52596700  0.01994100  1
  C  C38  1  0.47403300  0.01271400  0.01994100  1
  C  C39  1  0.46131900  0.98728600  0.51994100  1
  C  C40  1  0.52596700  0.53868100  0.51994100  1
  C  C41  1  0.01271400  0.47403300  0.51994100  1
  C  C42  1  0.09511100  0.20166300  0.11770500  1
  C  C43  1  0.79833700  0.89344800  0.11770500  1
  C  C44  1  0.10655200  0.90488900  0.11770500  1
  C  C45  1  0.20166300  0.09511100  0.61770500  1
  C  C46  1  0.89344800  0.79833700  0.61770500  1
  C  C47  1  0.90488900  0.10655200  0.61770500  1
  C  C48  1  0.07475000  0.19071500  0.38808300  1
  C  C49  1  0.80928500  0.88403500  0.38808300  1
  C  C50  1  0.11596500  0.92525000  0.38808300  1
  C  C51  1  0.19071500  0.07475000  0.88808300  1
  C  C52  1  0.88403500  0.80928500  0.88808300  1
  C  C53  1  0.92525000  0.11596500  0.88808300  1
  C  C54  1  0.13433900  0.46199200  0.26032600  1
  C  C55  1  0.53800800  0.67234700  0.26032600  1
  C  C56  1  0.32765300  0.86566100  0.26032600  1
  C  C57  1  0.46199200  0.13433900  0.76032600  1
  C  C58  1  0.67234700  0.53800800  0.76032600  1
  C  C59  1  0.86566100  0.32765300  0.76032600  1
  C  C60  1  0.47459000  0.59963900  0.89850300  1
  C  C61  1  0.64932000  0.80432500  0.00927000  1
  C  C62  1  0.19567500  0.84499500  0.00927000  1
  C  C63  1  0.35068000  0.15500500  0.50927000  1
  C  C64  1  0.80432500  0.64932000  0.50927000  1
  C  C65  1  0.84499500  0.19567500  0.50927000  1
  C  C66  1  0.30956900  0.10913000  0.26465100  1
  C  C67  1  0.89087000  0.20043900  0.26465100  1
  C  C68  1  0.79956100  0.69043100  0.26465100  1
  C  C69  1  0.10913000  0.30956900  0.76465100  1
  C  C70  1  0.66967200  0.81854900  0.50908000  1
  C  C71  1  0.69043100  0.79956100  0.76465100  1
  C  C72  1  0.33032800  0.14887700  0.00908000  1
  C  C73  1  0.85112300  0.18145100  0.00908000  1
  C  C74  1  0.81854900  0.66967200  0.00908000  1
  C  C75  1  0.14887700  0.33032800  0.50908000  1
  C  C76  1  0.18145100  0.85112300  0.50908000  1
  C  C77  1  0.20043900  0.89087000  0.76465100  1
