# generated using pymatgen
data_CuNi14C17
_symmetry_space_group_name_H-M   'P 1'
_cell_length_a   8.66909027
_cell_length_b   8.68757194
_cell_length_c   4.31202791
_cell_angle_alpha   90.00000000
_cell_angle_beta   90.00000000
_cell_angle_gamma   90.00000000
_symmetry_Int_Tables_number   1
_chemical_formula_structural   CuNi14C17
_chemical_formula_sum   'Cu1 Ni14 C17'
_cell_volume   324.75324725
_cell_formula_units_Z   1
loop_
 _symmetry_equiv_pos_site_id
 _symmetry_equiv_pos_as_xyz
  1  'x, y, z'
loop_
 _atom_site_type_symbol
 _atom_site_label
 _atom_site_symmetry_multiplicity
 _atom_site_fract_x
 _atom_site_fract_y
 _atom_site_fract_z
 _atom_site_occupancy
  Ni  Ni0  1  0.50000000  -0.00000000  0.00000000  1
  Ni  Ni1  1  0.50000000  0.50000000  0.00000000  1
  Ni  Ni2  1  -0.00000000  0.23440732  0.50000000  1
  Ni  Ni3  1  -0.00000000  0.76559268  0.50000000  1
  Ni  Ni4  1  0.50000000  0.24685287  0.50000000  1
  Ni  Ni5  1  0.50000000  0.75314713  0.50000000  1
  Ni  Ni6  1  0.24892036  -0.00000000  0.50000000  1
  Ni  Ni7  1  0.26081482  0.50000000  0.50000000  1
  Ni  Ni8  1  0.75107964  -0.00000000  0.50000000  1
  Ni  Ni9  1  0.73918518  0.50000000  0.50000000  1
  Ni  Ni10  1  0.25342241  0.24107124  -0.00000000  1
  Ni  Ni11  1  0.25342241  0.75892876  0.00000000  1
  Ni  Ni12  1  0.74657759  0.24107124  0.00000000  1
  Ni  Ni13  1  0.74657759  0.75892876  0.00000000  1
  Cu  Cu14  1  -0.00000000  -0.00000000  0.00000000  1
  C  C15  1  -0.00000000  0.50000000  0.00000000  1
  C  C16  1  0.26293802  -0.00000000  0.00000000  1
  C  C17  1  0.26488889  0.50000000  0.00000000  1
  C  C18  1  0.73706198  -0.00000000  0.00000000  1
  C  C19  1  0.73511111  0.50000000  -0.00000000  1
  C  C20  1  0.24874180  0.25076894  0.50000000  1
  C  C21  1  0.24874180  0.74923106  0.50000000  1
  C  C22  1  0.75125820  0.25076894  0.50000000  1
  C  C23  1  0.75125820  0.74923106  0.50000000  1
  C  C24  1  -0.00000000  -0.00000000  0.50000000  1
  C  C25  1  -0.00000000  0.50000000  0.50000000  1
  C  C26  1  0.50000000  -0.00000000  0.50000000  1
  C  C27  1  0.50000000  0.50000000  0.50000000  1
  C  C28  1  -0.00000000  0.24405195  0.00000000  1
  C  C29  1  -0.00000000  0.75594805  0.00000000  1
  C  C30  1  0.50000000  0.24984433  -0.00000000  1
  C  C31  1  0.50000000  0.75015567  0.00000000  1
