# generated using pymatgen
data_Cu3(NiC2)2
_symmetry_space_group_name_H-M   'P 1'
_cell_length_a   3.70697558
_cell_length_b   10.69447744
_cell_length_c   19.94707239
_cell_angle_alpha   90.00000000
_cell_angle_beta   90.00000000
_cell_angle_gamma   90.00000000
_symmetry_Int_Tables_number   1
_chemical_formula_structural   Cu3(NiC2)2
_chemical_formula_sum   'Cu12 Ni8 C16'
_cell_volume   790.78506322
_cell_formula_units_Z   4
loop_
 _symmetry_equiv_pos_site_id
 _symmetry_equiv_pos_as_xyz
  1  'x, y, z'
loop_
 _atom_site_type_symbol
 _atom_site_label
 _atom_site_symmetry_multiplicity
 _atom_site_fract_x
 _atom_site_fract_y
 _atom_site_fract_z
 _atom_site_occupancy
  C  C0  1  0.75000000  0.36068420  0.92765824  1
  C  C1  1  0.75000000  0.86068420  0.57234176  1
  C  C2  1  0.25000000  0.63931580  0.07234176  1
  C  C3  1  0.25000000  0.13931580  0.42765824  1
  C  C4  1  0.75000000  0.86202873  0.74361151  1
  C  C5  1  0.75000000  0.36202873  0.75638849  1
  C  C6  1  0.25000000  0.13797127  0.25638849  1
  C  C7  1  0.25000000  0.63797127  0.24361151  1
  C  C8  1  0.75000000  0.39972617  0.16844976  1
  C  C9  1  0.75000000  0.89972617  0.33155024  1
  C  C10  1  0.25000000  0.60027383  0.83155024  1
  C  C11  1  0.25000000  0.10027383  0.66844976  1
  C  C12  1  0.75000000  0.37623050  0.33666274  1
  C  C13  1  0.75000000  0.87623050  0.16333726  1
  C  C14  1  0.25000000  0.62376950  0.66333726  1
  C  C15  1  0.25000000  0.12376950  0.83666274  1
  Ni  Ni16  1  0.75000000  0.63642141  0.15128390  1
  Ni  Ni17  1  0.75000000  0.13642141  0.34871610  1
  Ni  Ni18  1  0.25000000  0.36357859  0.84871610  1
  Ni  Ni19  1  0.25000000  0.86357859  0.65128390  1
  Ni  Ni20  1  0.75000000  0.11129964  0.75080791  1
  Ni  Ni21  1  0.75000000  0.61129964  0.74919209  1
  Ni  Ni22  1  0.25000000  0.88870036  0.24919209  1
  Ni  Ni23  1  0.25000000  0.38870036  0.25080791  1
  Cu  Cu24  1  0.75000000  0.12003785  0.54828333  1
  Cu  Cu25  1  0.75000000  0.62003785  0.95171667  1
  Cu  Cu26  1  0.25000000  0.87996215  0.45171667  1
  Cu  Cu27  1  0.25000000  0.37996215  0.04828333  1
  Cu  Cu28  1  0.75000000  0.61240682  0.55337455  1
  Cu  Cu29  1  0.75000000  0.11240682  0.94662545  1
  Cu  Cu30  1  0.25000000  0.38759318  0.44662545  1
  Cu  Cu31  1  0.25000000  0.88759318  0.05337455  1
  Cu  Cu32  1  0.75000000  0.13994716  0.14477294  1
  Cu  Cu33  1  0.75000000  0.63994716  0.35522706  1
  Cu  Cu34  1  0.25000000  0.86005284  0.85522706  1
  Cu  Cu35  1  0.25000000  0.36005284  0.64477294  1
