# generated using pymatgen
data_Cu2Ni2C11
_symmetry_space_group_name_H-M   'P 1'
_cell_length_a   5.13206000
_cell_length_b   6.55998400
_cell_length_c   10.66472307
_cell_angle_alpha   89.16111440
_cell_angle_beta   90.00000000
_cell_angle_gamma   90.00000000
_symmetry_Int_Tables_number   1
_chemical_formula_structural   Cu2Ni2C11
_chemical_formula_sum   'Cu4 Ni4 C22'
_cell_volume   359.00255276
_cell_formula_units_Z   2
loop_
 _symmetry_equiv_pos_site_id
 _symmetry_equiv_pos_as_xyz
  1  'x, y, z'
loop_
 _atom_site_type_symbol
 _atom_site_label
 _atom_site_symmetry_multiplicity
 _atom_site_fract_x
 _atom_site_fract_y
 _atom_site_fract_z
 _atom_site_occupancy
  C  C0  1  0.43010100  0.88390500  0.15645900  1
  C  C1  1  0.93664600  0.37642500  0.33665800  1
  C  C2  1  0.52730100  0.62640600  0.42373600  1
  C  C3  1  0.56989900  0.88390500  0.65645900  1
  C  C4  1  0.06335400  0.37642500  0.83665800  1
  C  C5  1  0.47269900  0.62640600  0.92373600  1
  Ni  Ni6  1  0.42712000  0.36924800  0.16035600  1
  Ni  Ni7  1  0.93690900  0.89075000  0.33709100  1
  Ni  Ni8  1  0.57288000  0.36924800  0.66035600  1
  Ni  Ni9  1  0.06309100  0.89075000  0.83709100  1
  Cu  Cu10  1  0.93180000  0.63198300  0.09382900  1
  Cu  Cu11  1  0.43920100  0.13529100  0.41169200  1
  Cu  Cu12  1  0.06820000  0.63198300  0.59382900  1
  Cu  Cu13  1  0.56079900  0.13529100  0.91169200  1
  C  C14  1  0.48485700  0.12444600  0.05863800  1
  C  C15  1  0.61039700  0.63459200  0.09275800  1
  C  C16  1  0.04434600  0.82997300  0.17287600  1
  C  C17  1  0.04043200  0.42746200  0.16319600  1
  C  C18  1  0.56332700  0.92918600  0.33979500  1
  C  C19  1  0.54371800  0.34997800  0.34594700  1
  C  C20  1  0.12113100  0.12237700  0.38624900  1
  C  C21  1  0.96219700  0.65156300  0.44482400  1
  C  C22  1  0.51514300  0.12444600  0.55863800  1
  C  C23  1  0.38960300  0.63459200  0.59275800  1
  C  C24  1  0.95565400  0.82997300  0.67287600  1
  C  C25  1  0.95956800  0.42746200  0.66319600  1
  C  C26  1  0.43667300  0.92918600  0.83979500  1
  C  C27  1  0.45628200  0.34997800  0.84594700  1
  C  C28  1  0.87886900  0.12237700  0.88624900  1
  C  C29  1  0.03780300  0.65156300  0.94482400  1
