# generated using pymatgen
data_Cu3Ni4C21
_symmetry_space_group_name_H-M   'P 1'
_cell_length_a   8.07577600
_cell_length_b   12.35671000
_cell_length_c   13.17820708
_cell_angle_alpha   84.66218433
_cell_angle_beta   90.00000000
_cell_angle_gamma   90.00000000
_symmetry_Int_Tables_number   1
_chemical_formula_structural   Cu3Ni4C21
_chemical_formula_sum   'Cu12 Ni16 C84'
_cell_volume   1309.35086681
_cell_formula_units_Z   4
loop_
 _symmetry_equiv_pos_site_id
 _symmetry_equiv_pos_as_xyz
  1  'x, y, z'
loop_
 _atom_site_type_symbol
 _atom_site_label
 _atom_site_symmetry_multiplicity
 _atom_site_fract_x
 _atom_site_fract_y
 _atom_site_fract_z
 _atom_site_occupancy
  C  C0  1  0.75767200  0.63400900  0.71686700  1
  C  C1  1  0.25767200  0.86599100  0.28313300  1
  C  C2  1  0.24232800  0.36599100  0.28313300  1
  C  C3  1  0.74232800  0.13400900  0.71686700  1
  C  C4  1  0.21296500  0.48863400  0.91934800  1
  C  C5  1  0.71296500  0.01136600  0.08065200  1
  C  C6  1  0.78703500  0.51136600  0.08065200  1
  C  C7  1  0.28703500  0.98863400  0.91934800  1
  C  C8  1  0.33627700  0.60938100  0.88700900  1
  C  C9  1  0.83627700  0.89061900  0.11299100  1
  C  C10  1  0.66372300  0.39061900  0.11299100  1
  C  C11  1  0.16372300  0.10938100  0.88700900  1
  C  C12  1  0.26720300  0.57303200  0.01739700  1
  C  C13  1  0.76720300  0.92696800  0.98260300  1
  C  C14  1  0.73279700  0.42696800  0.98260300  1
  C  C15  1  0.23279700  0.07303200  0.01739700  1
  C  C16  1  0.22752600  0.80046000  0.88887000  1
  C  C17  1  0.72752600  0.69954000  0.11113000  1
  C  C18  1  0.77247400  0.19954000  0.11113000  1
  C  C19  1  0.27247400  0.30046000  0.88887000  1
  C  C20  1  0.13622100  0.78203700  0.01508500  1
  C  C21  1  0.63622100  0.71796300  0.98491500  1
  C  C22  1  0.86377900  0.21796300  0.98491500  1
  C  C23  1  0.36377900  0.28203700  0.01508500  1
  C  C24  1  0.01134200  0.83264800  0.90781000  1
  C  C25  1  0.51134200  0.66735200  0.09219000  1
  C  C26  1  0.98865800  0.16735200  0.09219000  1
  C  C27  1  0.48865800  0.33264800  0.90781000  1
  C  C28  1  0.10970900  0.54463300  0.57482600  1
  C  C29  1  0.60970900  0.95536700  0.42517400  1
  C  C30  1  0.89029100  0.45536700  0.42517400  1
  C  C31  1  0.39029100  0.04463300  0.57482600  1
  C  C32  1  0.27888900  0.55736000  0.48432800  1
  C  C33  1  0.77888900  0.94264000  0.51567200  1
  C  C34  1  0.72111100  0.44264000  0.51567200  1
  C  C35  1  0.22111100  0.05736000  0.48432800  1
  C  C36  1  0.23075600  0.66688000  0.56134700  1
  C  C37  1  0.73075600  0.83312000  0.43865300  1
  C  C38  1  0.76924400  0.33312000  0.43865300  1
  C  C39  1  0.26924400  0.16688000  0.56134700  1
  C  C40  1  0.21985400  0.35948000  0.64834200  1
  C  C41  1  0.71985400  0.14052000  0.35165800  1
  C  C42  1  0.78014600  0.64052000  0.35165800  1
  C  C43  1  0.28014600  0.85948000  0.64834200  1
  C  C44  1  0.38572500  0.37166000  0.55576200  1
  C  C45  1  0.88572500  0.12834000  0.44423800  1
  C  C46  1  0.61427500  0.62834000  0.44423800  1
  C  C47  1  0.11427500  0.87166000  0.55576200  1
  C  C48  1  0.42973500  0.33573100  0.68970500  1
  C  C49  1  0.92973500  0.16426900  0.31029500  1
  C  C50  1  0.57026500  0.66426900  0.31029500  1
  C  C51  1  0.07026500  0.83573100  0.68970500  1
  Ni  Ni52  1  0.23798300  0.57222500  0.93604400  1
  Ni  Ni53  1  0.73798300  0.92777500  0.06395600  1
  Ni  Ni54  1  0.76201700  0.42777500  0.06395600  1
  Ni  Ni55  1  0.26201700  0.07222500  0.93604400  1
  Ni  Ni56  1  0.11482700  0.77939100  0.93312500  1
  Ni  Ni57  1  0.61482700  0.72060900  0.06687500  1
  Ni  Ni58  1  0.88517300  0.22060900  0.06687500  1
  Ni  Ni59  1  0.38517300  0.27939100  0.93312500  1
  Ni  Ni60  1  0.23326100  0.57880000  0.55823800  1
  Ni  Ni61  1  0.73326100  0.92120000  0.44176200  1
  Ni  Ni62  1  0.76673900  0.42120000  0.44176200  1
  Ni  Ni63  1  0.26673900  0.07880000  0.55823800  1
  Ni  Ni64  1  0.35001400  0.38252200  0.63457100  1
  Ni  Ni65  1  0.85001400  0.11747800  0.36542900  1
  Ni  Ni66  1  0.64998600  0.61747800  0.36542900  1
  Ni  Ni67  1  0.14998600  0.88252200  0.63457100  1
  Cu  Cu68  1  0.04716000  0.64446400  0.91353800  1
  Cu  Cu69  1  0.54716000  0.85553600  0.08646200  1
  Cu  Cu70  1  0.95284000  0.35553600  0.08646200  1
  Cu  Cu71  1  0.45284000  0.14446400  0.91353800  1
  Cu  Cu72  1  0.36491300  0.52224000  0.65862600  1
  Cu  Cu73  1  0.86491300  0.97776000  0.34137400  1
  Cu  Cu74  1  0.63508700  0.47776000  0.34137400  1
  Cu  Cu75  1  0.13508700  0.02224000  0.65862600  1
  Cu  Cu76  1  0.60337100  0.85735900  0.76188800  1
  Cu  Cu77  1  0.10337100  0.64264100  0.23811200  1
  Cu  Cu78  1  0.39662900  0.14264100  0.23811200  1
  Cu  Cu79  1  0.89662900  0.35735900  0.76188800  1
  C  C80  1  0.66826300  0.57648600  0.83635400  1
  C  C81  1  0.16826300  0.92351400  0.16364600  1
  C  C82  1  0.33173700  0.42351400  0.16364600  1
  C  C83  1  0.83173700  0.07648600  0.83635400  1
  C  C84  1  0.84654800  0.68877100  0.59708900  1
  C  C85  1  0.34654800  0.81122900  0.40291100  1
  C  C86  1  0.15345200  0.31122900  0.40291100  1
  C  C87  1  0.65345200  0.18877100  0.59708900  1
  C  C88  1  0.77236700  0.81233900  0.79115400  1
  C  C89  1  0.27236700  0.68766100  0.20884600  1
  C  C90  1  0.22763300  0.18766100  0.20884600  1
  C  C91  1  0.72763300  0.31233900  0.79115400  1
  C  C92  1  0.52967400  0.77205100  0.70086800  1
  C  C93  1  0.02967400  0.72794900  0.29913200  1
  C  C94  1  0.47032600  0.22794900  0.29913200  1
  C  C95  1  0.97032600  0.27205100  0.70086800  1
  C  C96  1  0.62313800  0.96091500  0.69247700  1
  C  C97  1  0.12313800  0.53908500  0.30752300  1
  C  C98  1  0.37686200  0.03908500  0.30752300  1
  C  C99  1  0.87686200  0.46091500  0.69247700  1
  C  C100  1  0.50318300  0.87694800  0.85030400  1
  C  C101  1  0.00318300  0.62305200  0.14969600  1
  C  C102  1  0.49681700  0.12305200  0.14969600  1
  C  C103  1  0.99681700  0.37694800  0.85030400  1
  C  C104  1  0.02011400  0.64908400  0.79622900  1
  C  C105  1  0.52011400  0.85091600  0.20377100  1
  C  C106  1  0.97988600  0.35091600  0.20377100  1
  C  C107  1  0.47988600  0.14908400  0.79622900  1
  C  C108  1  0.54266200  0.55812700  0.62493200  1
  C  C109  1  0.04266200  0.94187300  0.37506800  1
  C  C110  1  0.45733800  0.44187300  0.37506800  1
  C  C111  1  0.95733800  0.05812700  0.62493200  1
