# generated using pymatgen
data_Cu24NiC14
_symmetry_space_group_name_H-M   'P 1'
_cell_length_a   7.67788000
_cell_length_b   12.91518585
_cell_length_c   12.91518585
_cell_angle_alpha   119.99999924
_cell_angle_beta   90.00000000
_cell_angle_gamma   90.00000000
_symmetry_Int_Tables_number   1
_chemical_formula_structural   Cu24NiC14
_chemical_formula_sum   'Cu48 Ni2 C28'
_cell_volume   1109.10656356
_cell_formula_units_Z   2
loop_
 _symmetry_equiv_pos_site_id
 _symmetry_equiv_pos_as_xyz
  1  'x, y, z'
loop_
 _atom_site_type_symbol
 _atom_site_label
 _atom_site_symmetry_multiplicity
 _atom_site_fract_x
 _atom_site_fract_y
 _atom_site_fract_z
 _atom_site_occupancy
  C  C0  1  0.05597900  0.75220900  0.50441700  1
  C  C1  1  0.94402100  0.24779100  0.49558300  1
  C  C2  1  0.05597900  0.75220900  0.24779100  1
  C  C3  1  0.94402100  0.24779100  0.75220900  1
  C  C4  1  0.05597900  0.49558300  0.24779100  1
  C  C5  1  0.94402100  0.50441700  0.75220900  1
  C  C6  1  0.00000000  0.50000000  0.50000000  1
  C  C7  1  0.00000000  0.00000000  0.50000000  1
  C  C8  1  0.00000000  0.50000000  0.00000000  1
  C  C9  1  0.00000000  0.76103600  0.76103600  1
  C  C10  1  0.00000000  0.23896400  0.23896400  1
  C  C11  1  0.00000000  0.00000000  0.23896400  1
  C  C12  1  0.00000000  0.00000000  0.76103600  1
  C  C13  1  0.00000000  0.23896400  0.00000000  1
  C  C14  1  0.00000000  0.76103600  0.00000000  1
  C  C15  1  0.00000000  0.00000000  0.00000000  1
  C  C16  1  0.64213000  0.90937600  0.33231400  1
  C  C17  1  0.35787000  0.09062400  0.66768600  1
  C  C18  1  0.64213000  0.42293800  0.09062400  1
  C  C19  1  0.35787000  0.57706200  0.66768600  1
  C  C20  1  0.35787000  0.57706200  0.90937600  1
  C  C21  1  0.64213000  0.42293800  0.33231400  1
  C  C22  1  0.64213000  0.66768600  0.57706200  1
  C  C23  1  0.35787000  0.33231400  0.90937600  1
  C  C24  1  0.35787000  0.33231400  0.42293800  1
  C  C25  1  0.64213000  0.66768600  0.09062400  1
  C  C26  1  0.35787000  0.09062400  0.42293800  1
  C  C27  1  0.64213000  0.90937600  0.57706200  1
  Ni  Ni28  1  0.83372200  0.66666700  0.33333300  1
  Ni  Ni29  1  0.16627800  0.33333300  0.66666700  1
  Cu  Cu30  1  0.60510400  0.55189000  0.10377900  1
  Cu  Cu31  1  0.39489600  0.44811000  0.89622100  1
  Cu  Cu32  1  0.60510400  0.55189000  0.44811000  1
  Cu  Cu33  1  0.39489600  0.44811000  0.55189000  1
  Cu  Cu34  1  0.60510400  0.89622100  0.44811000  1
  Cu  Cu35  1  0.39489600  0.10377900  0.55189000  1
  Cu  Cu36  1  0.88129600  0.92120800  0.84241700  1
  Cu  Cu37  1  0.11870400  0.07879200  0.15758300  1
  Cu  Cu38  1  0.88129600  0.92120800  0.07879200  1
  Cu  Cu39  1  0.11870400  0.07879200  0.92120800  1
  Cu  Cu40  1  0.88129600  0.15758300  0.07879200  1
  Cu  Cu41  1  0.11870400  0.84241700  0.92120800  1
  Cu  Cu42  1  0.50000000  0.67200700  0.67200700  1
  Cu  Cu43  1  0.50000000  0.32799300  0.32799300  1
  Cu  Cu44  1  0.50000000  0.00000000  0.32799300  1
  Cu  Cu45  1  0.50000000  0.00000000  0.67200700  1
  Cu  Cu46  1  0.50000000  0.32799300  0.00000000  1
  Cu  Cu47  1  0.50000000  0.67200700  0.00000000  1
  Cu  Cu48  1  0.89261800  0.15957300  0.31914700  1
  Cu  Cu49  1  0.10738200  0.84042700  0.68085300  1
  Cu  Cu50  1  0.89261800  0.15957300  0.84042700  1
  Cu  Cu51  1  0.10738200  0.84042700  0.15957300  1
  Cu  Cu52  1  0.89261800  0.68085300  0.84042700  1
  Cu  Cu53  1  0.10738200  0.31914700  0.15957300  1
  Cu  Cu54  1  0.59966700  0.78405900  0.56811700  1
  Cu  Cu55  1  0.40033300  0.21594100  0.43188300  1
  Cu  Cu56  1  0.59966700  0.78405900  0.21594100  1
  Cu  Cu57  1  0.40033300  0.21594100  0.78405900  1
  Cu  Cu58  1  0.59966700  0.43188300  0.21594100  1
  Cu  Cu59  1  0.40033300  0.56811700  0.78405900  1
  Cu  Cu60  1  0.88556900  0.42391200  0.84782400  1
  Cu  Cu61  1  0.11443100  0.57608800  0.15217600  1
  Cu  Cu62  1  0.88556900  0.42391200  0.57608800  1
  Cu  Cu63  1  0.11443100  0.57608800  0.42391200  1
  Cu  Cu64  1  0.88556900  0.15217600  0.57608800  1
  Cu  Cu65  1  0.11443100  0.84782400  0.42391200  1
  Cu  Cu66  1  0.85000100  0.94405400  0.33490300  1
  Cu  Cu67  1  0.15000000  0.05594600  0.66509700  1
  Cu  Cu68  1  0.85000100  0.39085000  0.05594600  1
  Cu  Cu69  1  0.15000000  0.60915000  0.66509700  1
  Cu  Cu70  1  0.15000000  0.60915000  0.94405400  1
  Cu  Cu71  1  0.85000100  0.39085000  0.33490300  1
  Cu  Cu72  1  0.85000100  0.66509700  0.60915000  1
  Cu  Cu73  1  0.15000000  0.33490300  0.94405400  1
  Cu  Cu74  1  0.15000000  0.33490300  0.39085000  1
  Cu  Cu75  1  0.85000100  0.66509700  0.05594600  1
  Cu  Cu76  1  0.15000000  0.05594600  0.39085000  1
  Cu  Cu77  1  0.85000100  0.94405400  0.60915000  1
