# generated using pymatgen
data_CuNi3C7
_symmetry_space_group_name_H-M   'P 1'
_cell_length_a   7.49562812
_cell_length_b   7.49562812
_cell_length_c   7.49562835
_cell_angle_alpha   62.46287893
_cell_angle_beta   62.46287893
_cell_angle_gamma   62.46287247
_symmetry_Int_Tables_number   1
_chemical_formula_structural   CuNi3C7
_chemical_formula_sum   'Cu2 Ni6 C14'
_cell_volume   314.13828198
_cell_formula_units_Z   2
loop_
 _symmetry_equiv_pos_site_id
 _symmetry_equiv_pos_as_xyz
  1  'x, y, z'
loop_
 _atom_site_type_symbol
 _atom_site_label
 _atom_site_symmetry_multiplicity
 _atom_site_fract_x
 _atom_site_fract_y
 _atom_site_fract_z
 _atom_site_occupancy
  Ni  Ni0  1  0.85745300  0.71865000  0.42827700  1
  Ni  Ni1  1  0.14254700  0.28135000  0.57172300  1
  Ni  Ni2  1  0.71865000  0.42827700  0.85745300  1
  Ni  Ni3  1  0.28135000  0.57172300  0.14254700  1
  Ni  Ni4  1  0.42827700  0.85745300  0.71865000  1
  Ni  Ni5  1  0.57172300  0.14254700  0.28135000  1
  Cu  Cu6  1  0.91957000  0.91957000  0.91957000  1
  Cu  Cu7  1  0.08043000  0.08043000  0.08043000  1
  C  C8  1  0.85213400  0.42353200  0.56961900  1
  C  C9  1  0.14786600  0.57646800  0.43038100  1
  C  C10  1  0.00429500  0.32843500  0.84997500  1
  C  C11  1  0.99570500  0.67156500  0.15002500  1
  C  C12  1  0.67156500  0.15002500  0.99570500  1
  C  C13  1  0.32843500  0.84997500  0.00429500  1
  C  C14  1  0.42353200  0.56961900  0.85213400  1
  C  C15  1  0.57646800  0.43038100  0.14786600  1
  C  C16  1  0.15002500  0.99570500  0.67156500  1
  C  C17  1  0.84997500  0.00429500  0.32843500  1
  C  C18  1  0.56961900  0.85213400  0.42353200  1
  C  C19  1  0.43038100  0.14786600  0.57646800  1
  C  C20  1  0.72149000  0.72149000  0.72149000  1
  C  C21  1  0.27851000  0.27851000  0.27851000  1
