# generated using pymatgen
data_Cu4Ni5C4
_symmetry_space_group_name_H-M   'P 1'
_cell_length_a   14.53853577
_cell_length_b   14.53853577
_cell_length_c   14.53853509
_cell_angle_alpha   17.69872919
_cell_angle_beta   17.69872919
_cell_angle_gamma   17.69873072
_symmetry_Int_Tables_number   1
_chemical_formula_structural   Cu4Ni5C4
_chemical_formula_sum   'Cu4 Ni5 C4'
_cell_volume   247.92083423
_cell_formula_units_Z   1
loop_
 _symmetry_equiv_pos_site_id
 _symmetry_equiv_pos_as_xyz
  1  'x, y, z'
loop_
 _atom_site_type_symbol
 _atom_site_label
 _atom_site_symmetry_multiplicity
 _atom_site_fract_x
 _atom_site_fract_y
 _atom_site_fract_z
 _atom_site_occupancy
  Ni  Ni0  1  0.31389300  0.31389300  0.31389300  1
  Ni  Ni1  1  0.56020400  0.56020400  0.56020400  1
  Ni  Ni2  1  0.06311900  0.06311900  0.06311900  1
  Ni  Ni3  1  0.81207800  0.81207800  0.81207800  1
  Ni  Ni4  1  0.68624100  0.68624100  0.68624100  1
  Cu  Cu5  1  0.00168900  0.00168900  0.00168900  1
  Cu  Cu6  1  0.74716100  0.74716100  0.74716100  1
  Cu  Cu7  1  0.49859500  0.49859500  0.49859500  1
  Cu  Cu8  1  0.25068000  0.25068000  0.25068000  1
  C  C9  1  0.62154800  0.62154800  0.62154800  1
  C  C10  1  0.87516900  0.87516900  0.87516900  1
  C  C11  1  0.38022500  0.38022500  0.38022500  1
  C  C12  1  0.12689900  0.12689900  0.12689900  1
