# generated using pymatgen
data_CuNiC13
_symmetry_space_group_name_H-M   'P 1'
_cell_length_a   6.00043016
_cell_length_b   6.00043016
_cell_length_c   14.99522900
_cell_angle_alpha   90.00000000
_cell_angle_beta   90.00000000
_cell_angle_gamma   120.00000178
_symmetry_Int_Tables_number   1
_chemical_formula_structural   CuNiC13
_chemical_formula_sum   'Cu2 Ni2 C26'
_cell_volume   467.57200120
_cell_formula_units_Z   2
loop_
 _symmetry_equiv_pos_site_id
 _symmetry_equiv_pos_as_xyz
  1  'x, y, z'
loop_
 _atom_site_type_symbol
 _atom_site_label
 _atom_site_symmetry_multiplicity
 _atom_site_fract_x
 _atom_site_fract_y
 _atom_site_fract_z
 _atom_site_occupancy
  C  C0  1  0.33333300  0.66666700  0.39905400  1
  C  C1  1  0.66666700  0.33333300  0.60178800  1
  C  C2  1  0.66666700  0.33333300  0.89905400  1
  C  C3  1  0.33333300  0.66666700  0.10178800  1
  C  C4  1  0.00000000  0.00000000  0.74969300  1
  C  C5  1  0.00000000  0.00000000  0.24969300  1
  C  C6  1  0.00000000  0.00000000  0.50166200  1
  C  C7  1  0.00000000  0.00000000  0.00166200  1
  Ni  Ni8  1  0.33333300  0.66666700  0.66682400  1
  Ni  Ni9  1  0.66666700  0.33333300  0.16682400  1
  Cu  Cu10  1  0.66666700  0.33333300  0.33432700  1
  Cu  Cu11  1  0.33333300  0.66666700  0.83432700  1
  C  C12  1  0.17843700  0.82156300  0.90716000  1
  C  C13  1  0.64312600  0.82156300  0.90716000  1
  C  C14  1  0.17843700  0.35687400  0.90716000  1
  C  C15  1  0.82248400  0.17751600  0.09081800  1
  C  C16  1  0.35503200  0.17751600  0.09081800  1
  C  C17  1  0.82248400  0.64496800  0.09081800  1
  C  C18  1  0.82156300  0.17843700  0.40716000  1
  C  C19  1  0.35687400  0.17843700  0.40716000  1
  C  C20  1  0.82156300  0.64312600  0.40716000  1
  C  C21  1  0.17751600  0.82248400  0.59081800  1
  C  C22  1  0.64496800  0.82248400  0.59081800  1
  C  C23  1  0.17751600  0.35503200  0.59081800  1
  C  C24  1  0.49041800  0.50958200  0.75084300  1
  C  C25  1  0.01916400  0.50958200  0.75084300  1
  C  C26  1  0.49041800  0.98083600  0.75084300  1
  C  C27  1  0.50958200  0.49041800  0.25084300  1
  C  C28  1  0.98083600  0.49041800  0.25084300  1
  C  C29  1  0.50958200  0.01916400  0.25084300  1
