# generated using pymatgen
data_Cu3NiC
_symmetry_space_group_name_H-M   'P 1'
_cell_length_a   8.06230100
_cell_length_b   9.99505000
_cell_length_c   11.44964500
_cell_angle_alpha   90.00000000
_cell_angle_beta   90.00000000
_cell_angle_gamma   90.00000000
_symmetry_Int_Tables_number   1
_chemical_formula_structural   Cu3NiC
_chemical_formula_sum   'Cu24 Ni8 C8'
_cell_volume   922.64790643
_cell_formula_units_Z   8
loop_
 _symmetry_equiv_pos_site_id
 _symmetry_equiv_pos_as_xyz
  1  'x, y, z'
loop_
 _atom_site_type_symbol
 _atom_site_label
 _atom_site_symmetry_multiplicity
 _atom_site_fract_x
 _atom_site_fract_y
 _atom_site_fract_z
 _atom_site_occupancy
  C  C0  1  0.54190400  0.67273500  0.76045800  1
  C  C1  1  0.95809600  0.67273500  0.73954200  1
  C  C2  1  0.04190400  0.82726500  0.23954200  1
  C  C3  1  0.45809600  0.82726500  0.26045800  1
  C  C4  1  0.45809600  0.32726500  0.23954200  1
  C  C5  1  0.04190400  0.32726500  0.26045800  1
  C  C6  1  0.95809600  0.17273500  0.76045800  1
  C  C7  1  0.54190400  0.17273500  0.73954200  1
  Ni  Ni8  1  0.76920700  0.91320600  0.48279500  1
  Ni  Ni9  1  0.73079300  0.91320600  0.01720500  1
  Ni  Ni10  1  0.26920700  0.58679400  0.51720500  1
  Ni  Ni11  1  0.23079300  0.58679400  0.98279500  1
  Ni  Ni12  1  0.23079300  0.08679400  0.51720500  1
  Ni  Ni13  1  0.26920700  0.08679400  0.98279500  1
  Ni  Ni14  1  0.73079300  0.41320600  0.48279500  1
  Ni  Ni15  1  0.76920700  0.41320600  0.01720500  1
  Cu  Cu16  1  0.52871500  0.79983300  0.69285600  1
  Cu  Cu17  1  0.97128500  0.79983300  0.80714400  1
  Cu  Cu18  1  0.02871500  0.70016700  0.30714400  1
  Cu  Cu19  1  0.47128500  0.70016700  0.19285600  1
  Cu  Cu20  1  0.47128500  0.20016700  0.30714400  1
  Cu  Cu21  1  0.02871500  0.20016700  0.19285600  1
  Cu  Cu22  1  0.97128500  0.29983300  0.69285600  1
  Cu  Cu23  1  0.52871500  0.29983300  0.80714400  1
  Cu  Cu24  1  0.57516600  0.67261600  0.88857000  1
  Cu  Cu25  1  0.92483400  0.67261600  0.61143000  1
  Cu  Cu26  1  0.07516600  0.82738400  0.11143000  1
  Cu  Cu27  1  0.42483400  0.82738400  0.38857000  1
  Cu  Cu28  1  0.42483400  0.32738400  0.11143000  1
  Cu  Cu29  1  0.07516600  0.32738400  0.38857000  1
  Cu  Cu30  1  0.92483400  0.17261600  0.88857000  1
  Cu  Cu31  1  0.57516600  0.17261600  0.61143000  1
  Cu  Cu32  1  0.52645500  0.54113900  0.69899300  1
  Cu  Cu33  1  0.97354500  0.54113900  0.80100700  1
  Cu  Cu34  1  0.02645500  0.95886100  0.30100700  1
  Cu  Cu35  1  0.47354500  0.95886100  0.19899300  1
  Cu  Cu36  1  0.47354500  0.45886100  0.30100700  1
  Cu  Cu37  1  0.02645500  0.45886100  0.19899300  1
  Cu  Cu38  1  0.97354500  0.04113900  0.69899300  1
  Cu  Cu39  1  0.52645500  0.04113900  0.80100700  1
