# generated using pymatgen
data_Cu3NiC4
_symmetry_space_group_name_H-M   'P 1'
_cell_length_a   3.24531000
_cell_length_b   5.27233100
_cell_length_c   5.90977500
_cell_angle_alpha   89.99804159
_cell_angle_beta   90.00000000
_cell_angle_gamma   90.00000000
_symmetry_Int_Tables_number   1
_chemical_formula_structural   Cu3NiC4
_chemical_formula_sum   'Cu3 Ni1 C4'
_cell_volume   101.11830991
_cell_formula_units_Z   1
loop_
 _symmetry_equiv_pos_site_id
 _symmetry_equiv_pos_as_xyz
  1  'x, y, z'
loop_
 _atom_site_type_symbol
 _atom_site_label
 _atom_site_symmetry_multiplicity
 _atom_site_fract_x
 _atom_site_fract_y
 _atom_site_fract_z
 _atom_site_occupancy
  C  C0  1  0.50000000  0.50159900  0.30827200  1
  C  C1  1  0.50000000  0.00896200  0.20416800  1
  C  C2  1  0.00000000  0.48936300  0.68498700  1
  C  C3  1  0.00000000  0.00889200  0.80003900  1
  Ni  Ni4  1  0.50000000  0.68972400  0.92524500  1
  Cu  Cu5  1  0.50000000  0.18930000  0.57149000  1
  Cu  Cu6  1  0.00000000  0.30415600  0.07866600  1
  Cu  Cu7  1  0.00000000  0.80800500  0.42713200  1
