# generated using pymatgen
data_CuNiC8
_symmetry_space_group_name_H-M   'P 1'
_cell_length_a   9.94881576
_cell_length_b   9.94881576
_cell_length_c   5.72350745
_cell_angle_alpha   73.39777442
_cell_angle_beta   73.39777442
_cell_angle_gamma   49.17305803
_symmetry_Int_Tables_number   1
_chemical_formula_structural   CuNiC8
_chemical_formula_sum   'Cu3 Ni3 C24'
_cell_volume   406.95748713
_cell_formula_units_Z   3
loop_
 _symmetry_equiv_pos_site_id
 _symmetry_equiv_pos_as_xyz
  1  'x, y, z'
loop_
 _atom_site_type_symbol
 _atom_site_label
 _atom_site_symmetry_multiplicity
 _atom_site_fract_x
 _atom_site_fract_y
 _atom_site_fract_z
 _atom_site_occupancy
  Ni  Ni0  1  0.00000000  0.00000000  0.00000000  1
  Ni  Ni1  1  0.33281700  0.33281700  0.67917100  1
  Ni  Ni2  1  0.66718300  0.66718300  0.32082900  1
  Cu  Cu3  1  0.50000000  0.50000000  0.00000000  1
  Cu  Cu4  1  0.83335800  0.83335800  0.66419800  1
  Cu  Cu5  1  0.16664200  0.16664200  0.33580200  1
  C  C6  1  0.25514000  0.74486000  0.50000000  1
  C  C7  1  0.74486000  0.25514000  0.50000000  1
  C  C8  1  0.58358900  0.08249400  0.19365500  1
  C  C9  1  0.08249400  0.58358900  0.19365500  1
  C  C10  1  0.41641100  0.91750600  0.80634500  1
  C  C11  1  0.91750600  0.41641100  0.80634500  1
  C  C12  1  0.26633000  0.73367000  0.00000000  1
  C  C13  1  0.73367000  0.26633000  0.00000000  1
  C  C14  1  0.74066800  0.74066800  0.94209100  1
  C  C15  1  0.25933200  0.25933200  0.05790900  1
  C  C16  1  0.23249400  0.23249400  0.55198000  1
  C  C17  1  0.76750600  0.76750600  0.44802000  1
  C  C18  1  0.59654000  0.06915700  0.64591500  1
  C  C19  1  0.06915700  0.59654000  0.64591500  1
  C  C20  1  0.40346000  0.93084300  0.35408500  1
  C  C21  1  0.93084300  0.40346000  0.35408500  1
  C  C22  1  0.07799200  0.07799200  0.63296700  1
  C  C23  1  0.92200800  0.92200800  0.36703300  1
  C  C24  1  0.59573900  0.59573900  0.72150500  1
  C  C25  1  0.40426100  0.40426100  0.27849500  1
  C  C26  1  0.55966400  0.55966400  0.23238000  1
  C  C27  1  0.44033600  0.44033600  0.76762000  1
  C  C28  1  0.10075500  0.10075500  0.13788800  1
  C  C29  1  0.89924500  0.89924500  0.86211200  1
