# generated using pymatgen
data_Cu2NiC6
_symmetry_space_group_name_H-M   'P 1'
_cell_length_a   3.23125755
_cell_length_b   3.23125755
_cell_length_c   29.67800100
_cell_angle_alpha   90.00000000
_cell_angle_beta   90.00000000
_cell_angle_gamma   119.99999088
_symmetry_Int_Tables_number   1
_chemical_formula_structural   Cu2NiC6
_chemical_formula_sum   'Cu2 Ni1 C6'
_cell_volume   268.35424422
_cell_formula_units_Z   1
loop_
 _symmetry_equiv_pos_site_id
 _symmetry_equiv_pos_as_xyz
  1  'x, y, z'
loop_
 _atom_site_type_symbol
 _atom_site_label
 _atom_site_symmetry_multiplicity
 _atom_site_fract_x
 _atom_site_fract_y
 _atom_site_fract_z
 _atom_site_occupancy
  Ni  Ni0  1  0.66666700  0.33333300  0.00000000  1
  Cu  Cu1  1  0.33333300  0.66666700  0.76863900  1
  Cu  Cu2  1  0.33333300  0.66666700  0.23136100  1
  C  C3  1  0.33333300  0.66666700  0.05748200  1
  C  C4  1  0.33333300  0.66666700  0.94251800  1
  C  C5  1  0.66666700  0.33333300  0.71616100  1
  C  C6  1  0.66666700  0.33333300  0.17887400  1
  C  C7  1  0.66666700  0.33333300  0.82112600  1
  C  C8  1  0.66666700  0.33333300  0.28383900  1
