# generated using pymatgen
data_CuNiC11
_symmetry_space_group_name_H-M   'P 1'
_cell_length_a   6.54533442
_cell_length_b   6.54533442
_cell_length_c   10.50633800
_cell_angle_alpha   90.00000000
_cell_angle_beta   90.00000000
_cell_angle_gamma   120.00000420
_symmetry_Int_Tables_number   1
_chemical_formula_structural   CuNiC11
_chemical_formula_sum   'Cu2 Ni2 C22'
_cell_volume   389.80343579
_cell_formula_units_Z   2
loop_
 _symmetry_equiv_pos_site_id
 _symmetry_equiv_pos_as_xyz
  1  'x, y, z'
loop_
 _atom_site_type_symbol
 _atom_site_label
 _atom_site_symmetry_multiplicity
 _atom_site_fract_x
 _atom_site_fract_y
 _atom_site_fract_z
 _atom_site_occupancy
  Ni  Ni0  1  0.66666700  0.33333300  0.48402500  1
  Ni  Ni1  1  0.33333300  0.66666700  0.98402500  1
  Cu  Cu2  1  0.66666700  0.33333300  0.87802400  1
  Cu  Cu3  1  0.33333300  0.66666700  0.37802400  1
  C  C4  1  0.82846300  0.17153700  0.19487400  1
  C  C5  1  0.65692500  0.82846300  0.69487400  1
  C  C6  1  0.17153700  0.34307500  0.69487400  1
  C  C7  1  0.82846300  0.65692500  0.19487400  1
  C  C8  1  0.34307500  0.17153700  0.19487400  1
  C  C9  1  0.17153700  0.82846300  0.69487400  1
  C  C10  1  0.00000000  0.00000000  0.44596000  1
  C  C11  1  0.00000000  0.00000000  0.94596000  1
  C  C12  1  0.83835900  0.16164100  0.99976300  1
  C  C13  1  0.67671700  0.83835900  0.49976300  1
  C  C14  1  0.16164100  0.32328300  0.49976300  1
  C  C15  1  0.83835900  0.67671700  0.99976300  1
  C  C16  1  0.32328300  0.16164100  0.99976300  1
  C  C17  1  0.16164100  0.83835900  0.49976300  1
  C  C18  1  0.00000000  0.00000000  0.76149100  1
  C  C19  1  0.00000000  0.00000000  0.26149100  1
  C  C20  1  0.49952400  0.50047600  0.26019500  1
  C  C21  1  0.99904900  0.49952400  0.76019500  1
  C  C22  1  0.50047600  0.00095100  0.76019500  1
  C  C23  1  0.49952400  0.99904900  0.26019500  1
  C  C24  1  0.50047600  0.49952400  0.76019500  1
  C  C25  1  0.00095100  0.50047600  0.26019500  1
