# generated using pymatgen
data_Cu3NiC12
_symmetry_space_group_name_H-M   'P 1'
_cell_length_a   5.01484000
_cell_length_b   5.09477858
_cell_length_c   6.03952989
_cell_angle_alpha   91.18280993
_cell_angle_beta   92.03907615
_cell_angle_gamma   107.18031704
_symmetry_Int_Tables_number   1
_chemical_formula_structural   Cu3NiC12
_chemical_formula_sum   'Cu3 Ni1 C12'
_cell_volume   147.24998042
_cell_formula_units_Z   1
loop_
 _symmetry_equiv_pos_site_id
 _symmetry_equiv_pos_as_xyz
  1  'x, y, z'
loop_
 _atom_site_type_symbol
 _atom_site_label
 _atom_site_symmetry_multiplicity
 _atom_site_fract_x
 _atom_site_fract_y
 _atom_site_fract_z
 _atom_site_occupancy
  C  C0  1  0.00000000  0.50000000  0.00000000  1
  C  C1  1  0.50006100  0.50035600  0.24753800  1
  C  C2  1  0.00000000  0.50000000  0.50000000  1
  C  C3  1  0.49993900  0.49964400  0.75246200  1
  Ni  Ni4  1  0.50000000  0.00000000  0.50000000  1
  Cu  Cu5  1  0.00090800  0.99976100  0.75310700  1
  Cu  Cu6  1  0.50000000  0.00000000  0.00000000  1
  Cu  Cu7  1  0.99909200  0.00023900  0.24689300  1
  C  C8  1  0.24854500  0.77033800  0.77477500  1
  C  C9  1  0.74914700  0.77780200  0.99420200  1
  C  C10  1  0.24861300  0.76982800  0.26619000  1
  C  C11  1  0.75346000  0.77333500  0.49378600  1
  C  C12  1  0.75145500  0.22966200  0.22522500  1
  C  C13  1  0.24654000  0.22666500  0.50621400  1
  C  C14  1  0.75138700  0.23017200  0.73381000  1
  C  C15  1  0.25085300  0.22219800  0.00579800  1
