# generated using pymatgen
data_Cu16NiC15
_symmetry_space_group_name_H-M   'P 1'
_cell_length_a   4.28914100
_cell_length_b   8.60629900
_cell_length_c   8.84187600
_cell_angle_alpha   90.00000000
_cell_angle_beta   90.00000000
_cell_angle_gamma   90.00000000
_symmetry_Int_Tables_number   1
_chemical_formula_structural   Cu16NiC15
_chemical_formula_sum   'Cu16 Ni1 C15'
_cell_volume   326.38573828
_cell_formula_units_Z   1
loop_
 _symmetry_equiv_pos_site_id
 _symmetry_equiv_pos_as_xyz
  1  'x, y, z'
loop_
 _atom_site_type_symbol
 _atom_site_label
 _atom_site_symmetry_multiplicity
 _atom_site_fract_x
 _atom_site_fract_y
 _atom_site_fract_z
 _atom_site_occupancy
  C  C0  1  0.00000000  0.00000000  0.00000000  1
  C  C1  1  0.00000000  0.00000000  0.50000000  1
  C  C2  1  0.00000000  0.50000000  0.50000000  1
  C  C3  1  0.50000000  0.73120300  0.00000000  1
  C  C4  1  0.50000000  0.26879700  0.00000000  1
  C  C5  1  0.50000000  0.74451700  0.50000000  1
  C  C6  1  0.50000000  0.25548300  0.50000000  1
  C  C7  1  0.50000000  0.00000000  0.73647000  1
  C  C8  1  0.50000000  0.50000000  0.75014600  1
  C  C9  1  0.50000000  0.00000000  0.26353000  1
  C  C10  1  0.50000000  0.50000000  0.24985400  1
  C  C11  1  0.00000000  0.73499300  0.74523500  1
  C  C12  1  0.00000000  0.26500700  0.74523500  1
  C  C13  1  0.00000000  0.73499300  0.25476500  1
  C  C14  1  0.00000000  0.26500700  0.25476500  1
  Ni  Ni15  1  0.00000000  0.50000000  0.00000000  1
  Cu  Cu16  1  0.00000000  0.00000000  0.74165700  1
  Cu  Cu17  1  0.00000000  0.50000000  0.71985000  1
  Cu  Cu18  1  0.00000000  0.00000000  0.25834300  1
  Cu  Cu19  1  0.00000000  0.50000000  0.28015000  1
  Cu  Cu20  1  0.50000000  0.75067100  0.75336400  1
  Cu  Cu21  1  0.50000000  0.24932900  0.75336400  1
  Cu  Cu22  1  0.50000000  0.75067100  0.24663600  1
  Cu  Cu23  1  0.50000000  0.24932900  0.24663600  1
  Cu  Cu24  1  0.50000000  0.00000000  0.00000000  1
  Cu  Cu25  1  0.50000000  0.50000000  0.00000000  1
  Cu  Cu26  1  0.50000000  0.00000000  0.50000000  1
  Cu  Cu27  1  0.50000000  0.50000000  0.50000000  1
  Cu  Cu28  1  0.00000000  0.74322600  0.00000000  1
  Cu  Cu29  1  0.00000000  0.25677400  0.00000000  1
  Cu  Cu30  1  0.00000000  0.75480100  0.50000000  1
  Cu  Cu31  1  0.00000000  0.24519900  0.50000000  1
