# generated using pymatgen
data_Cu3(Ni2C3)2
_symmetry_space_group_name_H-M   'P 1'
_cell_length_a   4.06480400
_cell_length_b   4.06480400
_cell_length_c   32.91494600
_cell_angle_alpha   90.00000000
_cell_angle_beta   90.00000000
_cell_angle_gamma   90.00000000
_symmetry_Int_Tables_number   1
_chemical_formula_structural   Cu3(Ni2C3)2
_chemical_formula_sum   'Cu3 Ni4 C6'
_cell_volume   543.84152552
_cell_formula_units_Z   1
loop_
 _symmetry_equiv_pos_site_id
 _symmetry_equiv_pos_as_xyz
  1  'x, y, z'
loop_
 _atom_site_type_symbol
 _atom_site_label
 _atom_site_symmetry_multiplicity
 _atom_site_fract_x
 _atom_site_fract_y
 _atom_site_fract_z
 _atom_site_occupancy
  C  C0  1  0.50000000  0.50000000  0.24167100  1
  C  C1  1  0.50000000  0.50000000  0.75832900  1
  C  C2  1  0.50000000  0.50000000  0.63556100  1
  C  C3  1  0.50000000  0.50000000  0.36443900  1
  C  C4  1  0.50000000  0.50000000  0.06380400  1
  C  C5  1  0.50000000  0.50000000  0.93619600  1
  Ni  Ni6  1  0.50000000  0.50000000  0.44300200  1
  Ni  Ni7  1  0.50000000  0.50000000  0.55699800  1
  Ni  Ni8  1  0.50000000  0.50000000  0.84112200  1
  Ni  Ni9  1  0.50000000  0.50000000  0.15887800  1
  Cu  Cu10  1  0.50000000  0.50000000  0.30228900  1
  Cu  Cu11  1  0.50000000  0.50000000  0.69771100  1
  Cu  Cu12  1  0.50000000  0.50000000  0.00000000  1
