# generated using pymatgen
data_Cu4Ni3C19
_symmetry_space_group_name_H-M   'P 1'
_cell_length_a   9.78639739
_cell_length_b   9.78639739
_cell_length_c   10.10470024
_cell_angle_alpha   88.72480134
_cell_angle_beta   88.72480134
_cell_angle_gamma   62.85679826
_symmetry_Int_Tables_number   1
_chemical_formula_structural   Cu4Ni3C19
_chemical_formula_sum   'Cu8 Ni6 C38'
_cell_volume   860.88964026
_cell_formula_units_Z   2
loop_
 _symmetry_equiv_pos_site_id
 _symmetry_equiv_pos_as_xyz
  1  'x, y, z'
loop_
 _atom_site_type_symbol
 _atom_site_label
 _atom_site_symmetry_multiplicity
 _atom_site_fract_x
 _atom_site_fract_y
 _atom_site_fract_z
 _atom_site_occupancy
  C  C0  1  0.33156100  0.44379500  0.18551300  1
  C  C1  1  0.55620500  0.66843900  0.31448700  1
  C  C2  1  0.66843900  0.55620500  0.81448700  1
  C  C3  1  0.44379500  0.33156100  0.68551300  1
  C  C4  1  0.00000000  0.50000000  0.50000000  1
  C  C5  1  0.50000000  0.00000000  0.00000000  1
  Ni  Ni6  1  0.08358800  0.91641200  0.25000000  1
  Ni  Ni7  1  0.91641200  0.08358800  0.75000000  1
  Ni  Ni8  1  0.03486400  0.67201800  0.83085800  1
  Ni  Ni9  1  0.32798200  0.96513600  0.66914200  1
  Ni  Ni10  1  0.96513600  0.32798200  0.16914200  1
  Ni  Ni11  1  0.67201800  0.03486400  0.33085800  1
  Cu  Cu12  1  0.20511100  0.77391300  0.56125100  1
  Cu  Cu13  1  0.22608700  0.79488900  0.93874900  1
  Cu  Cu14  1  0.79488900  0.22608700  0.43874900  1
  Cu  Cu15  1  0.77391300  0.20511100  0.06125100  1
  Cu  Cu16  1  0.88442200  0.71673800  0.14490100  1
  Cu  Cu17  1  0.28326200  0.11557800  0.35509900  1
  Cu  Cu18  1  0.11557800  0.28326200  0.85509900  1
  Cu  Cu19  1  0.71673800  0.88442200  0.64490100  1
  C  C20  1  0.16594100  0.66352800  0.64635800  1
  C  C21  1  0.33647200  0.83405900  0.85364200  1
  C  C22  1  0.83405900  0.33647200  0.35364200  1
  C  C23  1  0.66352800  0.16594100  0.14635800  1
  C  C24  1  0.11304400  0.94631400  0.61356500  1
  C  C25  1  0.05368600  0.88695600  0.88643500  1
  C  C26  1  0.88695600  0.05368600  0.38643500  1
  C  C27  1  0.94631400  0.11304400  0.11356500  1
  C  C28  1  0.17312700  0.75381400  0.41557800  1
  C  C29  1  0.24618600  0.82687300  0.08442200  1
  C  C30  1  0.82687300  0.24618600  0.58442200  1
  C  C31  1  0.75381400  0.17312700  0.91557800  1
  C  C32  1  0.37631800  0.74278200  0.57523500  1
  C  C33  1  0.25721800  0.62368200  0.92476500  1
  C  C34  1  0.62368200  0.25721800  0.42476500  1
  C  C35  1  0.74278200  0.37631800  0.07523500  1
  C  C36  1  0.73015400  0.84160400  0.20236500  1
  C  C37  1  0.15839600  0.26984600  0.29763500  1
  C  C38  1  0.26984600  0.15839600  0.79763500  1
  C  C39  1  0.84160400  0.73015400  0.70236500  1
  C  C40  1  0.87265700  0.71264400  0.99184000  1
  C  C41  1  0.28735600  0.12734300  0.50816000  1
  C  C42  1  0.12734300  0.28735600  0.00816000  1
  C  C43  1  0.71264400  0.87265700  0.49184000  1
  C  C44  1  0.90680800  0.56086700  0.20585300  1
  C  C45  1  0.43913300  0.09319200  0.29414700  1
  C  C46  1  0.09319200  0.43913300  0.79414700  1
  C  C47  1  0.56086700  0.90680800  0.70585300  1
  C  C48  1  0.01832400  0.74732900  0.18654900  1
  C  C49  1  0.25267100  0.98167600  0.31345100  1
  C  C50  1  0.98167600  0.25267100  0.81345100  1
  C  C51  1  0.74732900  0.01832400  0.68654900  1
