# generated using pymatgen
data_Cu4Ni
_symmetry_space_group_name_H-M   'P 1'
_cell_length_a   8.25607381
_cell_length_b   8.25607381
_cell_length_c   7.37261515
_cell_angle_alpha   65.85320839
_cell_angle_beta   65.85320839
_cell_angle_gamma   30.68752173
_symmetry_Int_Tables_number   1
_chemical_formula_structural   Cu4Ni
_chemical_formula_sum   'Cu4 Ni1'
_cell_volume   232.25433725
_cell_formula_units_Z   1
loop_
 _symmetry_equiv_pos_site_id
 _symmetry_equiv_pos_as_xyz
  1  'x, y, z'
loop_
 _atom_site_type_symbol
 _atom_site_label
 _atom_site_symmetry_multiplicity
 _atom_site_fract_x
 _atom_site_fract_y
 _atom_site_fract_z
 _atom_site_occupancy
  Ni  Ni0  1  0.00000000  0.00000000  0.00000000  1
  Cu  Cu1  1  0.12355000  0.12355000  0.19427900  1
  Cu  Cu2  1  0.61823000  0.61823000  0.71166500  1
  Cu  Cu3  1  0.87645000  0.87645000  0.80572100  1
  Cu  Cu4  1  0.38177000  0.38177000  0.28833500  1
