# generated using pymatgen
data_Cu2NiC14
_symmetry_space_group_name_H-M   'P 1'
_cell_length_a   8.07870300
_cell_length_b   9.68977100
_cell_length_c   13.19012900
_cell_angle_alpha   90.00000000
_cell_angle_beta   90.00000000
_cell_angle_gamma   90.00000000
_symmetry_Int_Tables_number   1
_chemical_formula_structural   Cu2NiC14
_chemical_formula_sum   'Cu8 Ni4 C56'
_cell_volume   1032.53361342
_cell_formula_units_Z   4
loop_
 _symmetry_equiv_pos_site_id
 _symmetry_equiv_pos_as_xyz
  1  'x, y, z'
loop_
 _atom_site_type_symbol
 _atom_site_label
 _atom_site_symmetry_multiplicity
 _atom_site_fract_x
 _atom_site_fract_y
 _atom_site_fract_z
 _atom_site_occupancy
  Ni  Ni0  1  0.00000000  0.50000000  0.00000000  1
  Ni  Ni1  1  0.50000000  0.00000000  0.50000000  1
  Ni  Ni2  1  0.00000000  0.50000000  0.50000000  1
  Ni  Ni3  1  0.50000000  0.00000000  0.00000000  1
  Cu  Cu4  1  0.76592800  0.75972900  0.13434500  1
  Cu  Cu5  1  0.73407200  0.25972900  0.36565500  1
  Cu  Cu6  1  0.23407200  0.24027100  0.63434500  1
  Cu  Cu7  1  0.26592800  0.74027100  0.86565500  1
  Cu  Cu8  1  0.23407200  0.24027100  0.86565500  1
  Cu  Cu9  1  0.26592800  0.74027100  0.63434500  1
  Cu  Cu10  1  0.76592800  0.75972900  0.36565500  1
  Cu  Cu11  1  0.73407200  0.25972900  0.13434500  1
  C  C12  1  0.18440000  0.80512800  0.06970300  1
  C  C13  1  0.31560000  0.30512800  0.43029700  1
  C  C14  1  0.81560000  0.19487200  0.56970300  1
  C  C15  1  0.68440000  0.69487200  0.93029700  1
  C  C16  1  0.81560000  0.19487200  0.93029700  1
  C  C17  1  0.68440000  0.69487200  0.56970300  1
  C  C18  1  0.18440000  0.80512800  0.43029700  1
  C  C19  1  0.31560000  0.30512800  0.06970300  1
  C  C20  1  0.96362100  0.50545200  0.25000000  1
  C  C21  1  0.53637900  0.00545200  0.25000000  1
  C  C22  1  0.03637900  0.49454800  0.75000000  1
  C  C23  1  0.46362100  0.99454800  0.75000000  1
  C  C24  1  0.08276300  0.49717300  0.14354800  1
  C  C25  1  0.41723700  0.99717300  0.35645200  1
  C  C26  1  0.91723700  0.50282700  0.64354800  1
  C  C27  1  0.58276300  0.00282700  0.85645200  1
  C  C28  1  0.91723700  0.50282700  0.85645200  1
  C  C29  1  0.58276300  0.00282700  0.64354800  1
  C  C30  1  0.08276300  0.49717300  0.35645200  1
  C  C31  1  0.41723700  0.99717300  0.14354800  1
  C  C32  1  0.79492400  0.61121300  0.03445800  1
  C  C33  1  0.70507600  0.11121300  0.46554200  1
  C  C34  1  0.20507600  0.38878700  0.53445800  1
  C  C35  1  0.29492400  0.88878700  0.96554200  1
  C  C36  1  0.20507600  0.38878700  0.96554200  1
  C  C37  1  0.29492400  0.88878700  0.53445800  1
  C  C38  1  0.79492400  0.61121300  0.46554200  1
  C  C39  1  0.70507600  0.11121300  0.03445800  1
  C  C40  1  0.62847600  0.82392700  0.02496700  1
  C  C41  1  0.87152400  0.32392700  0.47503300  1
  C  C42  1  0.37152400  0.17607300  0.52496700  1
  C  C43  1  0.12847600  0.67607300  0.97503300  1
  C  C44  1  0.37152400  0.17607300  0.97503300  1
  C  C45  1  0.12847600  0.67607300  0.52496700  1
  C  C46  1  0.62847600  0.82392700  0.47503300  1
  C  C47  1  0.87152400  0.32392700  0.02496700  1
  C  C48  1  0.00703500  0.88759800  0.10435200  1
  C  C49  1  0.49296500  0.38759800  0.39564800  1
  C  C50  1  0.99296500  0.11240200  0.60435200  1
  C  C51  1  0.50703500  0.61240200  0.89564800  1
  C  C52  1  0.99296500  0.11240200  0.89564800  1
  C  C53  1  0.50703500  0.61240200  0.60435200  1
  C  C54  1  0.00703500  0.88759800  0.39564800  1
  C  C55  1  0.49296500  0.38759800  0.10435200  1
  C  C56  1  0.68048400  0.87307900  0.25000000  1
  C  C57  1  0.81951600  0.37307900  0.25000000  1
  C  C58  1  0.31951600  0.12692100  0.75000000  1
  C  C59  1  0.18048400  0.62692100  0.75000000  1
  C  C60  1  0.47225700  0.55190600  0.25000000  1
  C  C61  1  0.02774300  0.05190600  0.25000000  1
  C  C62  1  0.52774300  0.44809400  0.75000000  1
  C  C63  1  0.97225700  0.94809400  0.75000000  1
  C  C64  1  0.87362400  0.66827800  0.25000000  1
  C  C65  1  0.62637600  0.16827800  0.25000000  1
  C  C66  1  0.12637600  0.33172200  0.75000000  1
  C  C67  1  0.37362400  0.83172200  0.75000000  1
