# generated using pymatgen
data_Cu5Ni2C25
_symmetry_space_group_name_H-M   'P 1'
_cell_length_a   2.98178500
_cell_length_b   5.96226351
_cell_length_c   16.15044276
_cell_angle_alpha   90.91427330
_cell_angle_beta   90.90254705
_cell_angle_gamma   93.95298671
_symmetry_Int_Tables_number   1
_chemical_formula_structural   Cu5Ni2C25
_chemical_formula_sum   'Cu5 Ni2 C25'
_cell_volume   286.36517854
_cell_formula_units_Z   1
loop_
 _symmetry_equiv_pos_site_id
 _symmetry_equiv_pos_as_xyz
  1  'x, y, z'
loop_
 _atom_site_type_symbol
 _atom_site_label
 _atom_site_symmetry_multiplicity
 _atom_site_fract_x
 _atom_site_fract_y
 _atom_site_fract_z
 _atom_site_occupancy
  C  C0  1  0.00148900  0.24806600  0.87495200  1
  C  C1  1  0.50000000  0.50000000  0.00000000  1
  C  C2  1  0.99851100  0.75193400  0.12504800  1
  C  C3  1  0.50109200  0.00231100  0.74749900  1
  C  C4  1  0.00162100  0.75654400  0.62290800  1
  C  C5  1  0.50000000  0.50000000  0.50000000  1
  C  C6  1  0.99837900  0.24345600  0.37709200  1
  C  C7  1  0.49890800  0.99768900  0.25250100  1
  C  C8  1  0.50000000  0.00000000  0.50000000  1
  Ni  Ni9  1  0.99190100  0.75261500  0.87373200  1
  Ni  Ni10  1  0.00809900  0.24738500  0.12626800  1
  Cu  Cu11  1  0.50000000  0.00000000  0.00000000  1
  Cu  Cu12  1  0.49815900  0.50118200  0.25214600  1
  Cu  Cu13  1  0.99590600  0.75960200  0.38072000  1
  Cu  Cu14  1  0.00409400  0.24039800  0.61928000  1
  Cu  Cu15  1  0.50184100  0.49881800  0.74785400  1
  C  C16  1  0.52823400  0.50453300  0.86928900  1
  C  C17  1  0.97445900  0.77961400  0.99599900  1
  C  C18  1  0.53632200  0.00638200  0.12018200  1
  C  C19  1  0.02807700  0.26393500  0.73949900  1
  C  C20  1  0.52699800  0.01883900  0.62460200  1
  C  C21  1  0.00245000  0.74554200  0.48772900  1
  C  C22  1  0.52312300  0.51365400  0.36933800  1
  C  C23  1  0.02522800  0.26487000  0.24706900  1
  C  C24  1  0.46367800  0.99361800  0.87981800  1
  C  C25  1  0.02554100  0.22038600  0.00400100  1
  C  C26  1  0.47176600  0.49546700  0.13071100  1
  C  C27  1  0.97477200  0.73513000  0.75293100  1
  C  C28  1  0.47687700  0.48634600  0.63066200  1
  C  C29  1  0.99755000  0.25445800  0.51227100  1
  C  C30  1  0.47300200  0.98116100  0.37539800  1
  C  C31  1  0.97192300  0.73606500  0.26050100  1
