# generated using pymatgen
data_Cu2Ni3C
_symmetry_space_group_name_H-M   'P 1'
_cell_length_a   7.01993200
_cell_length_b   7.63832000
_cell_length_c   11.54287300
_cell_angle_alpha   90.00000000
_cell_angle_beta   90.00000000
_cell_angle_gamma   90.00000000
_symmetry_Int_Tables_number   1
_chemical_formula_structural   Cu2Ni3C
_chemical_formula_sum   'Cu8 Ni12 C4'
_cell_volume   618.93447157
_cell_formula_units_Z   4
loop_
 _symmetry_equiv_pos_site_id
 _symmetry_equiv_pos_as_xyz
  1  'x, y, z'
loop_
 _atom_site_type_symbol
 _atom_site_label
 _atom_site_symmetry_multiplicity
 _atom_site_fract_x
 _atom_site_fract_y
 _atom_site_fract_z
 _atom_site_occupancy
  C  C0  1  0.10936800  0.80507500  0.25000000  1
  C  C1  1  0.39063200  0.30507500  0.25000000  1
  C  C2  1  0.89063200  0.19492500  0.75000000  1
  C  C3  1  0.60936800  0.69492500  0.75000000  1
  Ni  Ni4  1  0.64281000  0.04152600  0.25000000  1
  Ni  Ni5  1  0.85719000  0.54152600  0.25000000  1
  Ni  Ni6  1  0.35719000  0.95847400  0.75000000  1
  Ni  Ni7  1  0.14281000  0.45847400  0.75000000  1
  Ni  Ni8  1  0.38138100  0.50935700  0.04120600  1
  Ni  Ni9  1  0.11861900  0.00935700  0.45879400  1
  Ni  Ni10  1  0.61861900  0.49064300  0.54120600  1
  Ni  Ni11  1  0.88138100  0.99064300  0.95879400  1
  Ni  Ni12  1  0.61861900  0.49064300  0.95879400  1
  Ni  Ni13  1  0.88138100  0.99064300  0.54120600  1
  Ni  Ni14  1  0.38138100  0.50935700  0.45879400  1
  Ni  Ni15  1  0.11861900  0.00935700  0.04120600  1
  Cu  Cu16  1  0.94190300  0.63706600  0.14081500  1
  Cu  Cu17  1  0.55809700  0.13706600  0.35918500  1
  Cu  Cu18  1  0.05809700  0.36293400  0.64081500  1
  Cu  Cu19  1  0.44190300  0.86293400  0.85918500  1
  Cu  Cu20  1  0.05809700  0.36293400  0.85918500  1
  Cu  Cu21  1  0.44190300  0.86293400  0.64081500  1
  Cu  Cu22  1  0.94190300  0.63706600  0.35918500  1
  Cu  Cu23  1  0.55809700  0.13706600  0.14081500  1
