# generated using pymatgen
data_CuNiC5
_symmetry_space_group_name_H-M   'P 1'
_cell_length_a   2.87938200
_cell_length_b   8.96252500
_cell_length_c   10.48789200
_cell_angle_alpha   90.00000000
_cell_angle_beta   90.00000000
_cell_angle_gamma   90.00000000
_symmetry_Int_Tables_number   1
_chemical_formula_structural   CuNiC5
_chemical_formula_sum   'Cu4 Ni4 C20'
_cell_volume   270.65613267
_cell_formula_units_Z   4
loop_
 _symmetry_equiv_pos_site_id
 _symmetry_equiv_pos_as_xyz
  1  'x, y, z'
loop_
 _atom_site_type_symbol
 _atom_site_label
 _atom_site_symmetry_multiplicity
 _atom_site_fract_x
 _atom_site_fract_y
 _atom_site_fract_z
 _atom_site_occupancy
  C  C0  1  0.50000000  0.25689200  0.90059200  1
  C  C1  1  0.50000000  0.75689200  0.09940800  1
  C  C2  1  0.00000000  0.74056700  0.59183900  1
  C  C3  1  0.00000000  0.24056700  0.40816100  1
  Ni  Ni4  1  0.50000000  0.43464500  0.13864300  1
  Ni  Ni5  1  0.50000000  0.93464500  0.86135700  1
  Ni  Ni6  1  0.50000000  0.42182600  0.64711800  1
  Ni  Ni7  1  0.50000000  0.92182600  0.35288200  1
  Cu  Cu8  1  0.00000000  0.55785700  0.36219900  1
  Cu  Cu9  1  0.00000000  0.05785700  0.63780100  1
  Cu  Cu10  1  0.00000000  0.58450600  0.85138700  1
  Cu  Cu11  1  0.00000000  0.08450600  0.14861300  1
  C  C12  1  0.50000000  0.11962100  0.26693300  1
  C  C13  1  0.50000000  0.61962100  0.73306700  1
  C  C14  1  0.00000000  0.89128100  0.23538100  1
  C  C15  1  0.00000000  0.39128100  0.76461900  1
  C  C16  1  0.50000000  0.42097600  0.32579800  1
  C  C17  1  0.50000000  0.92097600  0.67420200  1
  C  C18  1  0.00000000  0.56997200  0.17889200  1
  C  C19  1  0.00000000  0.06997200  0.82110800  1
  C  C20  1  0.50000000  0.02600200  0.03559000  1
  C  C21  1  0.50000000  0.52600200  0.96441000  1
  C  C22  1  0.00000000  0.97857800  0.46455700  1
  C  C23  1  0.00000000  0.47857800  0.53544300  1
  C  C24  1  0.50000000  0.20184500  0.60271700  1
  C  C25  1  0.50000000  0.70184500  0.39728300  1
  C  C26  1  0.00000000  0.79543300  0.89983900  1
  C  C27  1  0.00000000  0.29543300  0.10016100  1
