# generated using pymatgen
data_Cu6Ni8C
_symmetry_space_group_name_H-M   'P 1'
_cell_length_a   13.20481248
_cell_length_b   13.16310804
_cell_length_c   5.70158948
_cell_angle_alpha   89.94321435
_cell_angle_beta   90.02830065
_cell_angle_gamma   119.89558195
_symmetry_Int_Tables_number   1
_chemical_formula_structural   Cu6Ni8C
_chemical_formula_sum   'Cu18 Ni24 C3'
_cell_volume   859.15801291
_cell_formula_units_Z   3
loop_
 _symmetry_equiv_pos_site_id
 _symmetry_equiv_pos_as_xyz
  1  'x, y, z'
loop_
 _atom_site_type_symbol
 _atom_site_label
 _atom_site_symmetry_multiplicity
 _atom_site_fract_x
 _atom_site_fract_y
 _atom_site_fract_z
 _atom_site_occupancy
  C  C0  1  0.00000000  0.99767700  0.35083000  1
  C  C1  1  0.33474500  0.66779600  0.81475600  1
  C  C2  1  0.66525500  0.33305100  0.81475600  1
  Ni  Ni3  1  0.00000000  0.63175600  0.21788400  1
  Ni  Ni4  1  0.63396500  0.00100700  0.21149500  1
  Ni  Ni5  1  0.36603500  0.36704200  0.21149500  1
  Ni  Ni6  1  0.00000000  0.71185600  0.38228100  1
  Ni  Ni7  1  0.71594100  0.00015400  0.36935000  1
  Ni  Ni8  1  0.28405900  0.28421400  0.36935000  1
  Ni  Ni9  1  0.10384400  0.64316500  0.13124500  1
  Ni  Ni10  1  0.53810500  0.89773800  0.13182800  1
  Ni  Ni11  1  0.35749200  0.46295700  0.13446900  1
  Ni  Ni12  1  0.89615600  0.53932100  0.13124500  1
  Ni  Ni13  1  0.64250800  0.10546700  0.13446900  1
  Ni  Ni14  1  0.46189500  0.35963200  0.13182800  1
  Ni  Ni15  1  0.66859100  0.66764100  0.73910700  1
  Ni  Ni16  1  0.00000000  0.32912900  0.73961800  1
  Ni  Ni17  1  0.33140900  0.99904900  0.73910700  1
  Ni  Ni18  1  0.75223300  0.75126900  0.89518000  1
  Ni  Ni19  1  0.00000000  0.24479800  0.89471600  1
  Ni  Ni20  1  0.24776700  0.99903600  0.89518000  1
  Ni  Ni21  1  0.57426800  0.67991800  0.66756700  1
  Ni  Ni22  1  0.10568200  0.42498200  0.66947900  1
  Ni  Ni23  1  0.31955000  0.89256700  0.66670600  1
  Ni  Ni24  1  0.42573200  0.10565100  0.66756700  1
  Ni  Ni25  1  0.68045000  0.57301600  0.66670600  1
  Ni  Ni26  1  0.89431800  0.31930100  0.66947900  1
  Cu  Cu27  1  0.00000000  0.77853700  0.51852600  1
  Cu  Cu28  1  0.78356700  0.99977400  0.50211100  1
  Cu  Cu29  1  0.21643300  0.21620600  0.50211100  1
  Cu  Cu30  1  0.18923600  0.64828600  0.05844700  1
  Cu  Cu31  1  0.45324300  0.81415500  0.06660200  1
  Cu  Cu32  1  0.35665700  0.54752500  0.07211300  1
  Cu  Cu33  1  0.81076400  0.45905000  0.05844700  1
  Cu  Cu34  1  0.64334300  0.19086800  0.07211300  1
  Cu  Cu35  1  0.54675700  0.36091300  0.06660200  1
  Cu  Cu36  1  0.81964600  0.81891500  0.02801100  1
  Cu  Cu37  1  0.00000000  0.17640600  0.02609000  1
  Cu  Cu38  1  0.18035400  0.99926900  0.02801100  1
  Cu  Cu39  1  0.49572200  0.69297200  0.60835400  1
  Cu  Cu40  1  0.19601900  0.50576500  0.61240900  1
  Cu  Cu41  1  0.30682300  0.80099600  0.60707900  1
  Cu  Cu42  1  0.50427800  0.19725000  0.60835400  1
  Cu  Cu43  1  0.69317700  0.49417300  0.60707900  1
  Cu  Cu44  1  0.80398100  0.30974600  0.61240900  1
