# generated using pymatgen
data_Cu2NiC7
_symmetry_space_group_name_H-M   'P 1'
_cell_length_a   5.58260600
_cell_length_b   5.83320300
_cell_length_c   8.19565400
_cell_angle_alpha   90.00000000
_cell_angle_beta   90.00000000
_cell_angle_gamma   90.00000000
_symmetry_Int_Tables_number   1
_chemical_formula_structural   Cu2NiC7
_chemical_formula_sum   'Cu4 Ni2 C14'
_cell_volume   266.88716215
_cell_formula_units_Z   2
loop_
 _symmetry_equiv_pos_site_id
 _symmetry_equiv_pos_as_xyz
  1  'x, y, z'
loop_
 _atom_site_type_symbol
 _atom_site_label
 _atom_site_symmetry_multiplicity
 _atom_site_fract_x
 _atom_site_fract_y
 _atom_site_fract_z
 _atom_site_occupancy
  C  C0  1  0.01508600  0.69057400  0.00000000  1
  C  C1  1  0.51508600  0.30942600  0.50000000  1
  Ni  Ni2  1  0.48529200  0.21333300  0.00000000  1
  Ni  Ni3  1  0.98529200  0.78666700  0.50000000  1
  Cu  Cu4  1  0.00047300  0.24329700  0.75117100  1
  Cu  Cu5  1  0.00047300  0.24329700  0.24882900  1
  Cu  Cu6  1  0.50047300  0.75670300  0.25117100  1
  Cu  Cu7  1  0.50047300  0.75670300  0.74882900  1
  C  C8  1  0.11515400  0.17353700  0.50000000  1
  C  C9  1  0.20002000  0.95173000  0.81963200  1
  C  C10  1  0.20002000  0.95173000  0.18036800  1
  C  C11  1  0.31956400  0.43645000  0.17893900  1
  C  C12  1  0.31956400  0.43645000  0.82106100  1
  C  C13  1  0.34825500  0.70004800  0.50000000  1
  C  C14  1  0.61515400  0.82646300  0.00000000  1
  C  C15  1  0.70002000  0.04827000  0.68036800  1
  C  C16  1  0.70002000  0.04827000  0.31963200  1
  C  C17  1  0.81956400  0.56355000  0.67893900  1
  C  C18  1  0.81956400  0.56355000  0.32106100  1
  C  C19  1  0.84825500  0.29995200  0.00000000  1
