# generated using pymatgen
data_Cu3NiC5
_symmetry_space_group_name_H-M   'P 1'
_cell_length_a   10.88884365
_cell_length_b   10.88884365
_cell_length_c   15.61491100
_cell_angle_alpha   90.00000000
_cell_angle_beta   90.00000000
_cell_angle_gamma   143.24732116
_symmetry_Int_Tables_number   1
_chemical_formula_structural   Cu3NiC5
_chemical_formula_sum   'Cu12 Ni4 C20'
_cell_volume   1107.81460720
_cell_formula_units_Z   4
loop_
 _symmetry_equiv_pos_site_id
 _symmetry_equiv_pos_as_xyz
  1  'x, y, z'
loop_
 _atom_site_type_symbol
 _atom_site_label
 _atom_site_symmetry_multiplicity
 _atom_site_fract_x
 _atom_site_fract_y
 _atom_site_fract_z
 _atom_site_occupancy
  C  C0  1  0.60049800  0.93388300  0.82455500  1
  C  C1  1  0.25969800  0.25969800  0.32230000  1
  C  C2  1  0.24030200  0.24030200  0.82230000  1
  C  C3  1  0.74030200  0.74030200  0.67770000  1
  C  C4  1  0.43388300  0.10049800  0.67544500  1
  C  C5  1  0.89950200  0.56611700  0.32455500  1
  C  C6  1  0.06611700  0.39950200  0.17544500  1
  C  C7  1  0.39950200  0.06611700  0.17544500  1
  C  C8  1  0.56611700  0.89950200  0.32455500  1
  C  C9  1  0.10049800  0.43388300  0.67544500  1
  C  C10  1  0.93388300  0.60049800  0.82455500  1
  C  C11  1  0.75969800  0.75969800  0.17770000  1
  C  C12  1  0.08136000  0.91864000  0.00000000  1
  C  C13  1  0.58136000  0.41864000  0.50000000  1
  C  C14  1  0.91864000  0.08136000  0.00000000  1
  C  C15  1  0.75477300  0.24522700  0.00000000  1
  C  C16  1  0.74522700  0.25477300  0.50000000  1
  C  C17  1  0.24522700  0.75477300  0.00000000  1
  C  C18  1  0.25477300  0.74522700  0.50000000  1
  C  C19  1  0.41864000  0.58136000  0.50000000  1
  Ni  Ni20  1  0.08859700  0.91140300  0.50000000  1
  Ni  Ni21  1  0.41140300  0.58859700  0.00000000  1
  Ni  Ni22  1  0.91140300  0.08859700  0.50000000  1
  Ni  Ni23  1  0.58859700  0.41140300  0.00000000  1
  Cu  Cu24  1  0.06372400  0.38148700  0.39425400  1
  Cu  Cu25  1  0.88148700  0.56372400  0.10574600  1
  Cu  Cu26  1  0.43627600  0.11851300  0.89425400  1
  Cu  Cu27  1  0.61851300  0.93627600  0.60574600  1
  Cu  Cu28  1  0.93627600  0.61851300  0.60574600  1
  Cu  Cu29  1  0.11851300  0.43627600  0.89425400  1
  Cu  Cu30  1  0.56372400  0.88148700  0.10574600  1
  Cu  Cu31  1  0.38148700  0.06372400  0.39425400  1
  Cu  Cu32  1  0.20607800  0.20607800  0.59486400  1
  Cu  Cu33  1  0.70607800  0.70607800  0.90513600  1
  Cu  Cu34  1  0.29392200  0.29392200  0.09486400  1
  Cu  Cu35  1  0.79392200  0.79392200  0.40513600  1
