# generated using pymatgen
data_CuNi14C
_symmetry_space_group_name_H-M   'P 1'
_cell_length_a   6.17318745
_cell_length_b   6.17318745
_cell_length_c   10.18396500
_cell_angle_alpha   90.00000000
_cell_angle_beta   90.00000000
_cell_angle_gamma   119.99999415
_symmetry_Int_Tables_number   1
_chemical_formula_structural   CuNi14C
_chemical_formula_sum   'Cu1 Ni14 C1'
_cell_volume   336.09843107
_cell_formula_units_Z   1
loop_
 _symmetry_equiv_pos_site_id
 _symmetry_equiv_pos_as_xyz
  1  'x, y, z'
loop_
 _atom_site_type_symbol
 _atom_site_label
 _atom_site_symmetry_multiplicity
 _atom_site_fract_x
 _atom_site_fract_y
 _atom_site_fract_z
 _atom_site_occupancy
  Ni  Ni0  1  0.99899800  0.49949900  0.00000000  1
  Ni  Ni1  1  0.99943400  0.49971700  0.50000000  1
  Ni  Ni2  1  0.50050100  0.00100200  0.00000000  1
  Ni  Ni3  1  0.50028300  0.00056600  0.50000000  1
  Ni  Ni4  1  0.50050100  0.49949900  0.00000000  1
  Ni  Ni5  1  0.50028300  0.49971700  0.50000000  1
  Ni  Ni6  1  0.16236100  0.83763900  0.24745300  1
  Ni  Ni7  1  0.16236100  0.83763900  0.75254700  1
  Ni  Ni8  1  0.16236100  0.32472300  0.24745300  1
  Ni  Ni9  1  0.16236100  0.32472300  0.75254700  1
  Ni  Ni10  1  0.67527700  0.83763900  0.24745300  1
  Ni  Ni11  1  0.67527700  0.83763900  0.75254700  1
  Ni  Ni12  1  0.66666700  0.33333300  0.24844200  1
  Ni  Ni13  1  0.66666700  0.33333300  0.75155800  1
  Cu  Cu14  1  0.00000000  0.00000000  0.00000000  1
  C  C15  1  0.00000000  0.00000000  0.50000000  1
