# generated using pymatgen
data_Cu(NiC2)2
_symmetry_space_group_name_H-M   'P 1'
_cell_length_a   3.78590500
_cell_length_b   6.33911100
_cell_length_c   6.93530671
_cell_angle_alpha   89.56301394
_cell_angle_beta   90.00000000
_cell_angle_gamma   90.00000000
_symmetry_Int_Tables_number   1
_chemical_formula_structural   Cu(NiC2)2
_chemical_formula_sum   'Cu1 Ni2 C4'
_cell_volume   166.43747145
_cell_formula_units_Z   1
loop_
 _symmetry_equiv_pos_site_id
 _symmetry_equiv_pos_as_xyz
  1  'x, y, z'
loop_
 _atom_site_type_symbol
 _atom_site_label
 _atom_site_symmetry_multiplicity
 _atom_site_fract_x
 _atom_site_fract_y
 _atom_site_fract_z
 _atom_site_occupancy
  Ni  Ni0  1  0.50000000  0.52926500  0.16908900  1
  Ni  Ni1  1  0.50000000  0.96399300  0.84853700  1
  Cu  Cu2  1  0.00000000  0.51894400  0.65363600  1
  C  C3  1  0.50000000  0.36237400  0.84351500  1
  C  C4  1  0.00000000  0.36271700  0.33016900  1
  C  C5  1  0.00000000  0.88797300  0.66823500  1
  C  C6  1  0.50000000  0.87473400  0.15347000  1
