# generated using pymatgen
data_Cu2NiC7
_symmetry_space_group_name_H-M   'P 1'
_cell_length_a   8.64683000
_cell_length_b   8.64683000
_cell_length_c   5.36978300
_cell_angle_alpha   90.00000000
_cell_angle_beta   90.00000000
_cell_angle_gamma   90.00000000
_symmetry_Int_Tables_number   1
_chemical_formula_structural   Cu2NiC7
_chemical_formula_sum   'Cu8 Ni4 C28'
_cell_volume   401.48615821
_cell_formula_units_Z   4
loop_
 _symmetry_equiv_pos_site_id
 _symmetry_equiv_pos_as_xyz
  1  'x, y, z'
loop_
 _atom_site_type_symbol
 _atom_site_label
 _atom_site_symmetry_multiplicity
 _atom_site_fract_x
 _atom_site_fract_y
 _atom_site_fract_z
 _atom_site_occupancy
  C  C0  1  0.00000000  0.00000000  0.50000000  1
  C  C1  1  0.50000000  0.50000000  0.50000000  1
  C  C2  1  0.50000000  0.00000000  0.01829000  1
  C  C3  1  0.00000000  0.50000000  0.98171000  1
  C  C4  1  0.72718000  0.08996900  0.36778700  1
  C  C5  1  0.27282000  0.91003100  0.36778700  1
  C  C6  1  0.41003100  0.22718000  0.36778700  1
  C  C7  1  0.58996900  0.77282000  0.36778700  1
  C  C8  1  0.77282000  0.41003100  0.63221300  1
  C  C9  1  0.22718000  0.58996900  0.63221300  1
  C  C10  1  0.08996900  0.27282000  0.63221300  1
  C  C11  1  0.91003100  0.72718000  0.63221300  1
  C  C12  1  0.85589800  0.22573800  0.29166300  1
  C  C13  1  0.14410200  0.77426200  0.29166300  1
  C  C14  1  0.27426200  0.35589800  0.29166300  1
  C  C15  1  0.72573800  0.64410200  0.29166300  1
  C  C16  1  0.64410200  0.27426200  0.70833700  1
  C  C17  1  0.35589800  0.72573800  0.70833700  1
  C  C18  1  0.22573800  0.14410200  0.70833700  1
  C  C19  1  0.77426200  0.85589800  0.70833700  1
  C  C20  1  0.82039200  0.08053600  0.10221200  1
  C  C21  1  0.17960800  0.91946400  0.10221200  1
  C  C22  1  0.41946400  0.32039200  0.10221200  1
  C  C23  1  0.58053600  0.67960800  0.10221200  1
  C  C24  1  0.67960800  0.41946400  0.89778800  1
  C  C25  1  0.32039200  0.58053600  0.89778800  1
  C  C26  1  0.08053600  0.17960800  0.89778800  1
  C  C27  1  0.91946400  0.82039200  0.89778800  1
  Ni  Ni28  1  0.50000000  0.00000000  0.58443200  1
  Ni  Ni29  1  0.00000000  0.50000000  0.41556800  1
  Ni  Ni30  1  0.50000000  0.00000000  0.81696300  1
  Ni  Ni31  1  0.00000000  0.50000000  0.18303700  1
  Cu  Cu32  1  0.83317000  0.10925300  0.28558800  1
  Cu  Cu33  1  0.16683000  0.89074700  0.28558800  1
  Cu  Cu34  1  0.39074700  0.33317000  0.28558800  1
  Cu  Cu35  1  0.60925300  0.66683000  0.28558800  1
  Cu  Cu36  1  0.66683000  0.39074700  0.71441200  1
  Cu  Cu37  1  0.33317000  0.60925300  0.71441200  1
  Cu  Cu38  1  0.10925300  0.16683000  0.71441200  1
  Cu  Cu39  1  0.89074700  0.83317000  0.71441200  1
