# generated using pymatgen
data_Cu5Ni3C31
_symmetry_space_group_name_H-M   'P 1'
_cell_length_a   7.73338262
_cell_length_b   7.65037561
_cell_length_c   7.66592500
_cell_angle_alpha   90.00000000
_cell_angle_beta   90.00000000
_cell_angle_gamma   89.90553240
_symmetry_Int_Tables_number   1
_chemical_formula_structural   Cu5Ni3C31
_chemical_formula_sum   'Cu5 Ni3 C31'
_cell_volume   453.54066425
_cell_formula_units_Z   1
loop_
 _symmetry_equiv_pos_site_id
 _symmetry_equiv_pos_as_xyz
  1  'x, y, z'
loop_
 _atom_site_type_symbol
 _atom_site_label
 _atom_site_symmetry_multiplicity
 _atom_site_fract_x
 _atom_site_fract_y
 _atom_site_fract_z
 _atom_site_occupancy
  Ni  Ni0  1  0.26198200  0.25370000  0.25000000  1
  Ni  Ni1  1  0.24947400  0.25459400  0.75000000  1
  Ni  Ni2  1  0.74462100  0.25530200  0.25000000  1
  Cu  Cu3  1  0.26369200  0.73559900  0.25000000  1
  Cu  Cu4  1  0.25536300  0.74288000  0.75000000  1
  Cu  Cu5  1  0.74186800  0.27569700  0.75000000  1
  Cu  Cu6  1  0.75133700  0.74427600  0.25000000  1
  Cu  Cu7  1  0.72973800  0.74179600  0.75000000  1
  C  C8  1  0.99539500  0.99235600  0.98428100  1
  C  C9  1  0.99539500  0.99235600  0.51571900  1
  C  C10  1  0.99992400  0.50589200  0.00131200  1
  C  C11  1  0.99992400  0.50589200  0.49868800  1
  C  C12  1  0.50396800  0.99904500  0.00048500  1
  C  C13  1  0.50396800  0.99904500  0.49951500  1
  C  C14  1  0.50151300  0.50555200  0.99850200  1
  C  C15  1  0.50151300  0.50555200  0.50149800  1
  C  C16  1  0.97849800  0.93044400  0.75000000  1
  C  C17  1  0.98844000  0.45790800  0.25000000  1
  C  C18  1  0.01934400  0.54640800  0.75000000  1
  C  C19  1  0.47625900  0.95959000  0.25000000  1
  C  C20  1  0.54083800  0.03557600  0.75000000  1
  C  C21  1  0.51761000  0.54079800  0.25000000  1
  C  C22  1  0.49090200  0.47062800  0.75000000  1
  C  C23  1  0.24585900  0.01261500  0.99232300  1
  C  C24  1  0.24585900  0.01261500  0.50767700  1
  C  C25  1  0.25124100  0.49937900  0.01603200  1
  C  C26  1  0.25124100  0.49937900  0.48396800  1
  C  C27  1  0.75470900  0.98188300  0.04468200  1
  C  C28  1  0.75470900  0.98188300  0.45531800  1
  C  C29  1  0.75144500  0.52231900  0.97828400  1
  C  C30  1  0.75144500  0.52231900  0.52171600  1
  C  C31  1  0.97945000  0.24649500  0.96663200  1
  C  C32  1  0.97945000  0.24649500  0.53336800  1
  C  C33  1  0.01300500  0.75562000  0.06418500  1
  C  C34  1  0.01300500  0.75562000  0.43581500  1
  C  C35  1  0.51123700  0.25249000  0.02864100  1
  C  C36  1  0.51123700  0.25249000  0.47135900  1
  C  C37  1  0.48727100  0.75375700  0.95354400  1
  C  C38  1  0.48727100  0.75375700  0.54645600  1
