# generated using pymatgen
data_CuNi2C15
_symmetry_space_group_name_H-M   'P 1'
_cell_length_a   17.67691197
_cell_length_b   17.67691197
_cell_length_c   17.67691197
_cell_angle_alpha   163.05470856
_cell_angle_beta   163.05470856
_cell_angle_gamma   24.05325957
_symmetry_Int_Tables_number   1
_chemical_formula_structural   CuNi2C15
_chemical_formula_sum   'Cu2 Ni4 C30'
_cell_volume   469.10012540
_cell_formula_units_Z   2
loop_
 _symmetry_equiv_pos_site_id
 _symmetry_equiv_pos_as_xyz
  1  'x, y, z'
loop_
 _atom_site_type_symbol
 _atom_site_label
 _atom_site_symmetry_multiplicity
 _atom_site_fract_x
 _atom_site_fract_y
 _atom_site_fract_z
 _atom_site_occupancy
  Ni  Ni0  1  0.91366500  0.41366500  0.50000000  1
  Ni  Ni1  1  0.16366500  0.16366500  0.00000000  1
  Ni  Ni2  1  0.83633500  0.83633500  0.00000000  1
  Ni  Ni3  1  0.58633500  0.08633500  0.50000000  1
  Cu  Cu4  1  0.50000000  0.50000000  0.00000000  1
  Cu  Cu5  1  0.25000000  0.75000000  0.50000000  1
  C  C6  1  0.75000000  0.25000000  0.50000000  1
  C  C7  1  0.00000000  0.00000000  0.00000000  1
  C  C8  1  0.07470200  0.57470200  0.50000000  1
  C  C9  1  0.67529800  0.67529800  0.00000000  1
  C  C10  1  0.42529800  0.92529800  0.50000000  1
  C  C11  1  0.32470200  0.32470200  0.00000000  1
  C  C12  1  0.52980400  0.01889800  0.10296300  1
  C  C13  1  0.17684100  0.77980400  0.01090600  1
  C  C14  1  0.76889800  0.16593500  0.98909400  1
  C  C15  1  0.91593500  0.42684100  0.89703700  1
  C  C16  1  0.22019600  0.23110200  0.39703700  1
  C  C17  1  0.57315900  0.47019600  0.48909400  1
  C  C18  1  0.98110200  0.08406500  0.51090600  1
  C  C19  1  0.83406500  0.82315900  0.60296300  1
  C  C20  1  0.98237800  0.86372300  0.45354300  1
  C  C21  1  0.27883600  0.23237800  0.61865500  1
  C  C22  1  0.61372300  0.66018100  0.38134500  1
  C  C23  1  0.41018100  0.52883600  0.54645700  1
  C  C24  1  0.97412500  0.84791400  0.60807000  1
  C  C25  1  0.11605500  0.22412500  0.62621100  1
  C  C26  1  0.59791400  0.48984400  0.37378900  1
  C  C27  1  0.23984400  0.36605500  0.39193000  1
  C  C28  1  0.77587500  0.40208600  0.89193000  1
  C  C29  1  0.63394500  0.02587500  0.87378900  1
  C  C30  1  0.15208600  0.76015600  0.12621100  1
  C  C31  1  0.51015600  0.88394500  0.10807000  1
  C  C32  1  0.33981900  0.72116400  0.95354300  1
  C  C33  1  0.13627700  0.58981900  0.11865500  1
  C  C34  1  0.47116400  0.01762200  0.88134500  1
  C  C35  1  0.76762200  0.38627700  0.04645700  1
