# generated using pymatgen
data_Cu8Ni8C3
_symmetry_space_group_name_H-M   'P 1'
_cell_length_a   8.06567910
_cell_length_b   13.60073500
_cell_length_c   12.59322459
_cell_angle_alpha   90.00000000
_cell_angle_beta   119.54123334
_cell_angle_gamma   90.00000000
_symmetry_Int_Tables_number   1
_chemical_formula_structural   Cu8Ni8C3
_chemical_formula_sum   'Cu16 Ni16 C6'
_cell_volume   1201.87711375
_cell_formula_units_Z   2
loop_
 _symmetry_equiv_pos_site_id
 _symmetry_equiv_pos_as_xyz
  1  'x, y, z'
loop_
 _atom_site_type_symbol
 _atom_site_label
 _atom_site_symmetry_multiplicity
 _atom_site_fract_x
 _atom_site_fract_y
 _atom_site_fract_z
 _atom_site_occupancy
  C  C0  1  0.00000000  0.50000000  0.50000000  1
  C  C1  1  0.00000000  0.00000000  0.00000000  1
  C  C2  1  0.31879500  0.01857600  0.58601000  1
  C  C3  1  0.68120500  0.51857600  0.91399000  1
  C  C4  1  0.68120500  0.98142400  0.41399000  1
  C  C5  1  0.31879500  0.48142400  0.08601000  1
  Ni  Ni6  1  0.99430500  0.14892700  0.42916800  1
  Ni  Ni7  1  0.00569400  0.64892700  0.07083200  1
  Ni  Ni8  1  0.00569400  0.85107300  0.57083200  1
  Ni  Ni9  1  0.99430500  0.35107300  0.92916800  1
  Ni  Ni10  1  0.57918400  0.15246700  0.55387100  1
  Ni  Ni11  1  0.42081600  0.65246700  0.94612900  1
  Ni  Ni12  1  0.42081600  0.84753300  0.44612900  1
  Ni  Ni13  1  0.57918400  0.34753300  0.05387100  1
  Ni  Ni14  1  0.11088400  0.13871500  0.76465700  1
  Ni  Ni15  1  0.88911600  0.63871500  0.73534300  1
  Ni  Ni16  1  0.88911600  0.86128500  0.23534300  1
  Ni  Ni17  1  0.11088400  0.36128500  0.26465700  1
  Ni  Ni18  1  0.56682500  0.02810400  0.88210300  1
  Ni  Ni19  1  0.43317500  0.52810400  0.61789700  1
  Ni  Ni20  1  0.43317500  0.97189600  0.11789700  1
  Ni  Ni21  1  0.56682500  0.47189600  0.38210300  1
  Cu  Cu22  1  0.98289500  0.59031300  0.63717400  1
  Cu  Cu23  1  0.01710500  0.09031300  0.86282600  1
  Cu  Cu24  1  0.01710500  0.40968700  0.36282600  1
  Cu  Cu25  1  0.98289500  0.90968700  0.13717400  1
  Cu  Cu26  1  0.23009900  0.60891300  0.51630000  1
  Cu  Cu27  1  0.76990100  0.10891300  0.98370000  1
  Cu  Cu28  1  0.76990100  0.39108700  0.48370000  1
  Cu  Cu29  1  0.23009900  0.89108700  0.01630000  1
  Cu  Cu30  1  0.26911300  0.44154100  0.64068400  1
  Cu  Cu31  1  0.73088700  0.94154100  0.85931600  1
  Cu  Cu32  1  0.73088700  0.55845900  0.35931600  1
  Cu  Cu33  1  0.26911300  0.05845900  0.14068400  1
  Cu  Cu34  1  0.37365100  0.33808600  0.37293900  1
  Cu  Cu35  1  0.62634900  0.83808600  0.12706100  1
  Cu  Cu36  1  0.62634900  0.66191400  0.62706100  1
  Cu  Cu37  1  0.37365100  0.16191400  0.87293900  1
