# generated using pymatgen
data_Cu(NiC4)3
_symmetry_space_group_name_H-M   'P 1'
_cell_length_a   9.49391922
_cell_length_b   9.49391922
_cell_length_c   18.04160900
_cell_angle_alpha   90.00000000
_cell_angle_beta   90.00000000
_cell_angle_gamma   119.99999456
_symmetry_Int_Tables_number   1
_chemical_formula_structural   Cu(NiC4)3
_chemical_formula_sum   'Cu6 Ni18 C72'
_cell_volume   1408.30585954
_cell_formula_units_Z   6
loop_
 _symmetry_equiv_pos_site_id
 _symmetry_equiv_pos_as_xyz
  1  'x, y, z'
loop_
 _atom_site_type_symbol
 _atom_site_label
 _atom_site_symmetry_multiplicity
 _atom_site_fract_x
 _atom_site_fract_y
 _atom_site_fract_z
 _atom_site_occupancy
  Ni  Ni0  1  0.68265000  0.68265000  0.86865500  1
  Ni  Ni1  1  0.00000000  0.68265000  0.36865500  1
  Ni  Ni2  1  0.68265000  0.00000000  0.36865500  1
  Ni  Ni3  1  0.31735000  0.00000000  0.86865500  1
  Ni  Ni4  1  0.00000000  0.31735000  0.86865500  1
  Ni  Ni5  1  0.31735000  0.31735000  0.36865500  1
  Ni  Ni6  1  0.65163900  0.65163900  0.63008200  1
  Ni  Ni7  1  0.00000000  0.65163900  0.13008200  1
  Ni  Ni8  1  0.65163900  0.00000000  0.13008200  1
  Ni  Ni9  1  0.34836100  0.00000000  0.63008200  1
  Ni  Ni10  1  0.00000000  0.34836100  0.63008200  1
  Ni  Ni11  1  0.34836100  0.34836100  0.13008200  1
  Ni  Ni12  1  0.33333300  0.66666700  0.27665700  1
  Ni  Ni13  1  0.66666700  0.33333300  0.77665700  1
  Ni  Ni14  1  0.33333300  0.66666700  0.77665700  1
  Ni  Ni15  1  0.66666700  0.33333300  0.27665700  1
  Ni  Ni16  1  0.00000000  0.00000000  0.71598900  1
  Ni  Ni17  1  0.00000000  0.00000000  0.21598900  1
  Cu  Cu18  1  0.33333300  0.66666700  0.99634600  1
  Cu  Cu19  1  0.66666700  0.33333300  0.49634600  1
  Cu  Cu20  1  0.33333300  0.66666700  0.49634600  1
  Cu  Cu21  1  0.66666700  0.33333300  0.99634600  1
  Cu  Cu22  1  0.00000000  0.00000000  0.50227000  1
  Cu  Cu23  1  0.00000000  0.00000000  0.00227000  1
  C  C24  1  0.65985500  0.65985500  0.42049600  1
  C  C25  1  0.00000000  0.65985500  0.92049600  1
  C  C26  1  0.65985500  0.00000000  0.92049600  1
  C  C27  1  0.34014500  0.00000000  0.42049600  1
  C  C28  1  0.00000000  0.34014500  0.42049600  1
  C  C29  1  0.34014500  0.34014500  0.92049600  1
  C  C30  1  0.66738900  0.66738900  0.24846400  1
  C  C31  1  0.00000000  0.66738900  0.74846400  1
  C  C32  1  0.66738900  0.00000000  0.74846400  1
  C  C33  1  0.33261100  0.00000000  0.24846400  1
  C  C34  1  0.00000000  0.33261100  0.24846400  1
  C  C35  1  0.33261100  0.33261100  0.74846400  1
  C  C36  1  0.67374300  0.67374300  0.07301500  1
  C  C37  1  0.00000000  0.67374300  0.57301500  1
  C  C38  1  0.67374300  0.00000000  0.57301500  1
  C  C39  1  0.32625700  0.00000000  0.07301500  1
  C  C40  1  0.00000000  0.32625700  0.07301500  1
  C  C41  1  0.32625700  0.32625700  0.57301500  1
  C  C42  1  0.80581900  0.80581900  0.43035100  1
  C  C43  1  0.00000000  0.80581900  0.93035100  1
  C  C44  1  0.80581900  0.00000000  0.93035100  1
  C  C45  1  0.19418100  0.00000000  0.43035100  1
  C  C46  1  0.00000000  0.19418100  0.43035100  1
  C  C47  1  0.19418100  0.19418100  0.93035100  1
  C  C48  1  0.66099400  0.14685300  0.91523800  1
  C  C49  1  0.85314700  0.51414100  0.91523800  1
  C  C50  1  0.48585900  0.33900600  0.91523800  1
  C  C51  1  0.51414100  0.66099400  0.41523800  1
  C  C52  1  0.33900600  0.85314700  0.41523800  1
  C  C53  1  0.14685300  0.48585900  0.41523800  1
  C  C54  1  0.66099400  0.51414100  0.41523800  1
  C  C55  1  0.14685300  0.66099400  0.91523800  1
  C  C56  1  0.51414100  0.85314700  0.91523800  1
  C  C57  1  0.48585900  0.14685300  0.41523800  1
  C  C58  1  0.85314700  0.33900600  0.41523800  1
  C  C59  1  0.33900600  0.48585900  0.91523800  1
  C  C60  1  0.52036100  0.52036100  0.24820600  1
  C  C61  1  0.00000000  0.52036100  0.74820600  1
  C  C62  1  0.52036100  0.00000000  0.74820600  1
  C  C63  1  0.47963900  0.00000000  0.24820600  1
  C  C64  1  0.00000000  0.47963900  0.24820600  1
  C  C65  1  0.47963900  0.47963900  0.74820600  1
  C  C66  1  0.81431200  0.14702900  0.74893500  1
  C  C67  1  0.85297100  0.66728300  0.74893500  1
  C  C68  1  0.33271700  0.18568800  0.74893500  1
  C  C69  1  0.66728300  0.81431200  0.24893500  1
  C  C70  1  0.18568800  0.85297100  0.24893500  1
  C  C71  1  0.14702900  0.33271700  0.24893500  1
  C  C72  1  0.81431200  0.66728300  0.24893500  1
  C  C73  1  0.14702900  0.81431200  0.74893500  1
  C  C74  1  0.66728300  0.85297100  0.74893500  1
  C  C75  1  0.33271700  0.14702900  0.24893500  1
  C  C76  1  0.85297100  0.18568800  0.24893500  1
  C  C77  1  0.18568800  0.33271700  0.74893500  1
  C  C78  1  0.67390100  0.14624800  0.56826200  1
  C  C79  1  0.85375200  0.52765300  0.56826200  1
  C  C80  1  0.47234700  0.32609900  0.56826200  1
  C  C81  1  0.52765300  0.67390100  0.06826200  1
  C  C82  1  0.32609900  0.85375200  0.06826200  1
  C  C83  1  0.14624800  0.47234700  0.06826200  1
  C  C84  1  0.67390100  0.52765300  0.06826200  1
  C  C85  1  0.14624800  0.67390100  0.56826200  1
  C  C86  1  0.52765300  0.85375200  0.56826200  1
  C  C87  1  0.47234700  0.14624800  0.06826200  1
  C  C88  1  0.85375200  0.32609900  0.06826200  1
  C  C89  1  0.32609900  0.47234700  0.56826200  1
  C  C90  1  0.81896800  0.81896800  0.08283900  1
  C  C91  1  0.00000000  0.81896800  0.58283900  1
  C  C92  1  0.81896800  0.00000000  0.58283900  1
  C  C93  1  0.18103200  0.00000000  0.08283900  1
  C  C94  1  0.00000000  0.18103200  0.08283900  1
  C  C95  1  0.18103200  0.18103200  0.58283900  1
