# generated using pymatgen
data_Cu(NiC3)2
_symmetry_space_group_name_H-M   'P 1'
_cell_length_a   10.81784100
_cell_length_b   12.75878000
_cell_length_c   13.75408300
_cell_angle_alpha   90.00000000
_cell_angle_beta   90.00000000
_cell_angle_gamma   90.00000000
_symmetry_Int_Tables_number   1
_chemical_formula_structural   Cu(NiC3)2
_chemical_formula_sum   'Cu16 Ni32 C96'
_cell_volume   1898.37227984
_cell_formula_units_Z   16
loop_
 _symmetry_equiv_pos_site_id
 _symmetry_equiv_pos_as_xyz
  1  'x, y, z'
loop_
 _atom_site_type_symbol
 _atom_site_label
 _atom_site_symmetry_multiplicity
 _atom_site_fract_x
 _atom_site_fract_y
 _atom_site_fract_z
 _atom_site_occupancy
  C  C0  1  0.80141100  0.40276800  0.13165600  1
  C  C1  1  0.69858900  0.90276800  0.86834400  1
  C  C2  1  0.30141100  0.59723200  0.36834400  1
  C  C3  1  0.19858900  0.09723200  0.63165600  1
  C  C4  1  0.19858900  0.59723200  0.86834400  1
  C  C5  1  0.30141100  0.09723200  0.13165600  1
  C  C6  1  0.69858900  0.40276800  0.63165600  1
  C  C7  1  0.80141100  0.90276800  0.36834400  1
  C  C8  1  0.86385700  0.36792000  0.97097000  1
  C  C9  1  0.63614300  0.86792000  0.02903000  1
  C  C10  1  0.36385700  0.63208000  0.52903000  1
  C  C11  1  0.13614300  0.13208000  0.47097000  1
  C  C12  1  0.13614300  0.63208000  0.02903000  1
  C  C13  1  0.36385700  0.13208000  0.97097000  1
  C  C14  1  0.63614300  0.36792000  0.47097000  1
  C  C15  1  0.86385700  0.86792000  0.52903000  1
  C  C16  1  0.83650800  0.24805000  0.03947300  1
  C  C17  1  0.66349200  0.74805000  0.96052700  1
  C  C18  1  0.33650800  0.75195000  0.46052700  1
  C  C19  1  0.16349200  0.25195000  0.53947300  1
  C  C20  1  0.16349200  0.75195000  0.96052700  1
  C  C21  1  0.33650800  0.25195000  0.03947300  1
  C  C22  1  0.66349200  0.24805000  0.53947300  1
  C  C23  1  0.83650800  0.74805000  0.46052700  1
  C  C24  1  0.97670300  0.32466700  0.05758700  1
  C  C25  1  0.52329700  0.82466700  0.94241300  1
  C  C26  1  0.47670300  0.67533300  0.44241300  1
  C  C27  1  0.02329700  0.17533300  0.55758700  1
  C  C28  1  0.02329700  0.67533300  0.94241300  1
  C  C29  1  0.47670300  0.17533300  0.05758700  1
  C  C30  1  0.52329700  0.32466700  0.55758700  1
  C  C31  1  0.97670300  0.82466700  0.44241300  1
  C  C32  1  0.97648400  0.50997900  0.15933200  1
  C  C33  1  0.52351600  0.00997900  0.84066800  1
  C  C34  1  0.47648400  0.49002100  0.34066800  1
  C  C35  1  0.02351600  0.99002100  0.65933200  1
  C  C36  1  0.02351600  0.49002100  0.84066800  1
  C  C37  1  0.47648400  0.99002100  0.15933200  1
  C  C38  1  0.52351600  0.50997900  0.65933200  1
  C  C39  1  0.97648400  0.00997900  0.34066800  1
  C  C40  1  0.83666300  0.56213700  0.21463800  1
  C  C41  1  0.66333700  0.06213700  0.78536200  1
  C  C42  1  0.33666300  0.43786300  0.28536200  1
  C  C43  1  0.16333700  0.93786300  0.71463800  1
  C  C44  1  0.16333700  0.43786300  0.78536200  1
  C  C45  1  0.33666300  0.93786300  0.21463800  1
  C  C46  1  0.66333700  0.56213700  0.71463800  1
  C  C47  1  0.83666300  0.06213700  0.28536200  1
  C  C48  1  0.86178500  0.57227600  0.08386700  1
  C  C49  1  0.63821500  0.07227600  0.91613300  1
  C  C50  1  0.36178500  0.42772400  0.41613300  1
  C  C51  1  0.13821500  0.92772400  0.58386700  1
  C  C52  1  0.13821500  0.42772400  0.91613300  1
  C  C53  1  0.36178500  0.92772400  0.08386700  1
  C  C54  1  0.63821500  0.57227600  0.58386700  1
  C  C55  1  0.86178500  0.07227600  0.41613300  1
  C  C56  1  0.59775300  0.47203500  0.15572300  1
  C  C57  1  0.90224700  0.97203500  0.84427700  1
  C  C58  1  0.09775300  0.52796500  0.34427700  1
  C  C59  1  0.40224700  0.02796500  0.65572300  1
  C  C60  1  0.40224700  0.52796500  0.84427700  1
  C  C61  1  0.09775300  0.02796500  0.15572300  1
  C  C62  1  0.90224700  0.47203500  0.65572300  1
  C  C63  1  0.59775300  0.97203500  0.34427700  1
  C  C64  1  0.59439400  0.34578600  0.09837800  1
  C  C65  1  0.90560600  0.84578600  0.90162200  1
  C  C66  1  0.09439400  0.65421400  0.40162200  1
  C  C67  1  0.40560600  0.15421400  0.59837800  1
  C  C68  1  0.40560600  0.65421400  0.90162200  1
  C  C69  1  0.09439400  0.15421400  0.09837800  1
  C  C70  1  0.90560600  0.34578600  0.59837800  1
  C  C71  1  0.59439400  0.84578600  0.40162200  1
  C  C72  1  0.63842400  0.46017700  0.02940000  1
  C  C73  1  0.86157600  0.96017700  0.97060000  1
  C  C74  1  0.13842400  0.53982300  0.47060000  1
  C  C75  1  0.36157600  0.03982300  0.52940000  1
  C  C76  1  0.36157600  0.53982300  0.97060000  1
  C  C77  1  0.13842400  0.03982300  0.02940000  1
  C  C78  1  0.86157600  0.46017700  0.52940000  1
  C  C79  1  0.63842400  0.96017700  0.47060000  1
  C  C80  1  0.74791900  0.37722700  0.29858800  1
  C  C81  1  0.75208100  0.87722700  0.70141200  1
  C  C82  1  0.24791900  0.62277300  0.20141200  1
  C  C83  1  0.25208100  0.12277300  0.79858800  1
  C  C84  1  0.25208100  0.62277300  0.70141200  1
  C  C85  1  0.24791900  0.12277300  0.29858800  1
  C  C86  1  0.75208100  0.37722700  0.79858800  1
  C  C87  1  0.74791900  0.87722700  0.20141200  1
  C  C88  1  0.75801700  0.25316000  0.23156600  1
  C  C89  1  0.74198300  0.75316000  0.76843400  1
  C  C90  1  0.25801700  0.74684000  0.26843400  1
  C  C91  1  0.24198300  0.24684000  0.73156600  1
  C  C92  1  0.24198300  0.74684000  0.76843400  1
  C  C93  1  0.25801700  0.24684000  0.23156600  1
  C  C94  1  0.74198300  0.25316000  0.73156600  1
  C  C95  1  0.75801700  0.75316000  0.26843400  1
  Ni  Ni96  1  0.80033200  0.33000200  0.24587700  1
  Ni  Ni97  1  0.69966800  0.83000200  0.75412300  1
  Ni  Ni98  1  0.30033200  0.66999800  0.25412300  1
  Ni  Ni99  1  0.19966800  0.16999800  0.74587700  1
  Ni  Ni100  1  0.19966800  0.66999800  0.75412300  1
  Ni  Ni101  1  0.30033200  0.16999800  0.24587700  1
  Ni  Ni102  1  0.69966800  0.33000200  0.74587700  1
  Ni  Ni103  1  0.80033200  0.83000200  0.25412300  1
  Ni  Ni104  1  0.87748200  0.32703800  0.04036500  1
  Ni  Ni105  1  0.62251800  0.82703800  0.95963500  1
  Ni  Ni106  1  0.37748200  0.67296200  0.45963500  1
  Ni  Ni107  1  0.12251800  0.17296200  0.54036500  1
  Ni  Ni108  1  0.12251800  0.67296200  0.95963500  1
  Ni  Ni109  1  0.37748200  0.17296200  0.04036500  1
  Ni  Ni110  1  0.62251800  0.32703800  0.54036500  1
  Ni  Ni111  1  0.87748200  0.82703800  0.45963500  1
  Ni  Ni112  1  0.87700700  0.52516500  0.14972400  1
  Ni  Ni113  1  0.62299300  0.02516500  0.85027600  1
  Ni  Ni114  1  0.37700700  0.47483500  0.35027600  1
  Ni  Ni115  1  0.12299300  0.97483500  0.64972400  1
  Ni  Ni116  1  0.12299300  0.47483500  0.85027600  1
  Ni  Ni117  1  0.37700700  0.97483500  0.14972400  1
  Ni  Ni118  1  0.62299300  0.52516500  0.64972400  1
  Ni  Ni119  1  0.87700700  0.02516500  0.35027600  1
  Ni  Ni120  1  0.64173100  0.42174300  0.10113800  1
  Ni  Ni121  1  0.85826900  0.92174300  0.89886200  1
  Ni  Ni122  1  0.14173100  0.57825700  0.39886200  1
  Ni  Ni123  1  0.35826900  0.07825700  0.60113800  1
  Ni  Ni124  1  0.35826900  0.57825700  0.89886200  1
  Ni  Ni125  1  0.14173100  0.07825700  0.10113800  1
  Ni  Ni126  1  0.85826900  0.42174300  0.60113800  1
  Ni  Ni127  1  0.64173100  0.92174300  0.39886200  1
  Cu  Cu128  1  0.95185500  0.31033600  0.29344600  1
  Cu  Cu129  1  0.54814500  0.81033600  0.70655400  1
  Cu  Cu130  1  0.45185500  0.68966400  0.20655400  1
  Cu  Cu131  1  0.04814500  0.18966400  0.79344600  1
  Cu  Cu132  1  0.04814500  0.68966400  0.70655400  1
  Cu  Cu133  1  0.45185500  0.18966400  0.29344600  1
  Cu  Cu134  1  0.54814500  0.31033600  0.79344600  1
  Cu  Cu135  1  0.95185500  0.81033600  0.20655400  1
  Cu  Cu136  1  0.71408100  0.57506200  0.38598500  1
  Cu  Cu137  1  0.78591900  0.07506200  0.61401500  1
  Cu  Cu138  1  0.21408100  0.42493800  0.11401500  1
  Cu  Cu139  1  0.28591900  0.92493800  0.88598500  1
  Cu  Cu140  1  0.28591900  0.42493800  0.61401500  1
  Cu  Cu141  1  0.21408100  0.92493800  0.38598500  1
  Cu  Cu142  1  0.78591900  0.57506200  0.88598500  1
  Cu  Cu143  1  0.71408100  0.07506200  0.11401500  1
