# generated using pymatgen
data_Cu2NiC7
_symmetry_space_group_name_H-M   'P 1'
_cell_length_a   5.55624692
_cell_length_b   7.01325886
_cell_length_c   13.77435349
_cell_angle_alpha   92.34652984
_cell_angle_beta   98.89270942
_cell_angle_gamma   75.89025162
_symmetry_Int_Tables_number   1
_chemical_formula_structural   Cu2NiC7
_chemical_formula_sum   'Cu8 Ni4 C28'
_cell_volume   514.29693157
_cell_formula_units_Z   4
loop_
 _symmetry_equiv_pos_site_id
 _symmetry_equiv_pos_as_xyz
  1  'x, y, z'
loop_
 _atom_site_type_symbol
 _atom_site_label
 _atom_site_symmetry_multiplicity
 _atom_site_fract_x
 _atom_site_fract_y
 _atom_site_fract_z
 _atom_site_occupancy
  C  C0  1  0.30163700  0.89760700  0.55153900  1
  C  C1  1  0.19832800  0.10243200  0.94859800  1
  C  C2  1  0.80085200  0.89772300  0.05120300  1
  C  C3  1  0.69920200  0.10183300  0.44889000  1
  Ni  Ni4  1  0.13302900  0.23443600  0.38274100  1
  Ni  Ni5  1  0.63233100  0.23469600  0.88265100  1
  Ni  Ni6  1  0.36682000  0.76561000  0.11725300  1
  Ni  Ni7  1  0.86764100  0.76520000  0.61731400  1
  Cu  Cu8  1  0.83925200  0.39031200  0.10929900  1
  Cu  Cu9  1  0.33969000  0.39021900  0.60932400  1
  Cu  Cu10  1  0.07501400  0.78122000  0.30495900  1
  Cu  Cu11  1  0.57505000  0.78120900  0.80502700  1
  Cu  Cu12  1  0.66068700  0.60969500  0.39070700  1
  Cu  Cu13  1  0.16050700  0.60976400  0.89062400  1
  Cu  Cu14  1  0.42487100  0.21888400  0.19501100  1
  Cu  Cu15  1  0.92507600  0.21885700  0.69502900  1
  C  C16  1  0.69848000  0.31451400  0.20466100  1
  C  C17  1  0.19867800  0.31458500  0.70472400  1
  C  C18  1  0.34912400  0.59038500  0.34265000  1
  C  C19  1  0.84883600  0.59029600  0.84283500  1
  C  C20  1  0.80155800  0.68544900  0.29535000  1
  C  C21  1  0.30155100  0.68537600  0.79525100  1
  C  C22  1  0.15090900  0.40973300  0.15718400  1
  C  C23  1  0.65129600  0.40979500  0.65717100  1
  C  C24  1  0.41810700  0.14064800  0.31369700  1
  C  C25  1  0.91755100  0.14068100  0.81364100  1
  C  C26  1  0.82561400  0.37229300  0.42974500  1
  C  C27  1  0.32499300  0.37234600  0.92966600  1
  C  C28  1  0.08175100  0.85939900  0.18624000  1
  C  C29  1  0.58260400  0.85933000  0.68640000  1
  C  C30  1  0.67421600  0.62767400  0.07025400  1
  C  C31  1  0.17504200  0.62767700  0.57033500  1
  C  C32  1  0.86597400  0.20320000  0.01768300  1
  C  C33  1  0.36666800  0.20295400  0.51786900  1
  C  C34  1  0.05033100  0.96425300  0.39857800  1
  C  C35  1  0.54980500  0.96442800  0.89850600  1
  C  C36  1  0.63385200  0.79678900  0.48232300  1
  C  C37  1  0.13335100  0.79704100  0.98210800  1
  C  C38  1  0.44963500  0.03580500  0.10143800  1
  C  C39  1  0.95008700  0.03565200  0.60152200  1
