# generated using pymatgen
data_Cu3NiC2
_symmetry_space_group_name_H-M   'P 1'
_cell_length_a   4.54722600
_cell_length_b   8.98579253
_cell_length_c   11.88901900
_cell_angle_alpha   90.00000000
_cell_angle_beta   90.00000000
_cell_angle_gamma   104.65647551
_symmetry_Int_Tables_number   1
_chemical_formula_structural   Cu3NiC2
_chemical_formula_sum   'Cu6 Ni2 C4'
_cell_volume   469.98291815
_cell_formula_units_Z   2
loop_
 _symmetry_equiv_pos_site_id
 _symmetry_equiv_pos_as_xyz
  1  'x, y, z'
loop_
 _atom_site_type_symbol
 _atom_site_label
 _atom_site_symmetry_multiplicity
 _atom_site_fract_x
 _atom_site_fract_y
 _atom_site_fract_z
 _atom_site_occupancy
  C  C0  1  0.75099600  0.50199200  0.25000000  1
  C  C1  1  0.24900400  0.49800800  0.75000000  1
  C  C2  1  0.00000000  0.00000000  0.50000000  1
  C  C3  1  0.00000000  0.00000000  0.00000000  1
  Ni  Ni4  1  0.46309200  0.92618400  0.25000000  1
  Ni  Ni5  1  0.53690800  0.07381600  0.75000000  1
  Cu  Cu6  1  0.61980500  0.23961000  0.54643900  1
  Cu  Cu7  1  0.38019500  0.76039000  0.45356100  1
  Cu  Cu8  1  0.38019500  0.76039000  0.04643900  1
  Cu  Cu9  1  0.61980500  0.23961000  0.95356100  1
  Cu  Cu10  1  0.06524500  0.13049000  0.25000000  1
  Cu  Cu11  1  0.93475500  0.86951000  0.75000000  1
