# generated using pymatgen
data_Cu(NiC6)2
_symmetry_space_group_name_H-M   'P 1'
_cell_length_a   6.10443320
_cell_length_b   6.10443320
_cell_length_c   7.48111300
_cell_angle_alpha   90.00000000
_cell_angle_beta   90.00000000
_cell_angle_gamma   119.99999137
_symmetry_Int_Tables_number   1
_chemical_formula_structural   Cu(NiC6)2
_chemical_formula_sum   'Cu1 Ni2 C12'
_cell_volume   241.42796626
_cell_formula_units_Z   1
loop_
 _symmetry_equiv_pos_site_id
 _symmetry_equiv_pos_as_xyz
  1  'x, y, z'
loop_
 _atom_site_type_symbol
 _atom_site_label
 _atom_site_symmetry_multiplicity
 _atom_site_fract_x
 _atom_site_fract_y
 _atom_site_fract_z
 _atom_site_occupancy
  Ni  Ni0  1  0.66666700  0.33333300  0.33480500  1
  Ni  Ni1  1  0.33333300  0.66666700  0.66519500  1
  Cu  Cu2  1  0.00000000  0.00000000  0.00000000  1
  C  C3  1  0.00000000  0.00000000  0.50000000  1
  C  C4  1  0.66666700  0.33333300  0.83036600  1
  C  C5  1  0.33333300  0.66666700  0.16963400  1
  C  C6  1  0.67792400  0.83896200  0.32274600  1
  C  C7  1  0.32207600  0.16103800  0.67725400  1
  C  C8  1  0.00000000  0.50000000  0.00000000  1
  C  C9  1  0.83896200  0.67792400  0.67725400  1
  C  C10  1  0.50000000  0.00000000  0.00000000  1
  C  C11  1  0.16103800  0.32207600  0.32274600  1
  C  C12  1  0.83896200  0.16103800  0.67725400  1
  C  C13  1  0.50000000  0.50000000  0.00000000  1
  C  C14  1  0.16103800  0.83896200  0.32274600  1
