# generated using pymatgen
data_Cu3Ni3C16
_symmetry_space_group_name_H-M   'P 1'
_cell_length_a   9.00518804
_cell_length_b   15.57071945
_cell_length_c   15.57071945
_cell_angle_alpha   119.99999829
_cell_angle_beta   90.00000000
_cell_angle_gamma   90.00000000
_symmetry_Int_Tables_number   1
_chemical_formula_structural   Cu3Ni3C16
_chemical_formula_sum   'Cu18 Ni18 C96'
_cell_volume   1890.77906201
_cell_formula_units_Z   6
loop_
 _symmetry_equiv_pos_site_id
 _symmetry_equiv_pos_as_xyz
  1  'x, y, z'
loop_
 _atom_site_type_symbol
 _atom_site_label
 _atom_site_symmetry_multiplicity
 _atom_site_fract_x
 _atom_site_fract_y
 _atom_site_fract_z
 _atom_site_occupancy
  C  C0  1  0.91851037  0.75906158  0.79810539  1
  C  C1  1  0.08148963  0.24093842  0.20189461  1
  C  C2  1  0.91851037  0.03904380  0.24093842  1
  C  C3  1  0.08148963  0.96095620  0.75906158  1
  C  C4  1  0.91851037  0.20189461  0.96095620  1
  C  C5  1  0.08148963  0.79810539  0.03904380  1
  C  C6  1  0.59234495  0.55323446  0.64631217  1
  C  C7  1  0.40765505  0.44676554  0.35368783  1
  C  C8  1  0.59234495  0.09307771  0.44676554  1
  C  C9  1  0.40765505  0.90692229  0.55323446  1
  C  C10  1  0.59234495  0.35368783  0.90692229  1
  C  C11  1  0.40765505  0.64631217  0.09307771  1
  C  C12  1  0.79069345  0.57960552  0.88915682  1
  C  C13  1  0.20930655  0.42039448  0.11084318  1
  C  C14  1  0.79069345  0.30955129  0.42039448  1
  C  C15  1  0.20930655  0.69044871  0.57960552  1
  C  C16  1  0.79069345  0.11084318  0.69044871  1
  C  C17  1  0.20930655  0.88915682  0.30955129  1
  C  C18  1  0.30590153  0.66666700  0.33333300  1
  C  C19  1  0.69409847  0.33333300  0.66666700  1
  C  C20  1  0.50000000  -0.00000000  -0.00000000  1
  C  C21  1  0.80352819  0.66666700  0.33333300  1
  C  C22  1  0.19647181  0.33333300  0.66666700  1
  C  C23  1  0.00000000  -0.00000000  -0.00000000  1
  Ni  Ni24  1  0.61697484  0.74342890  0.76770257  1
  Ni  Ni25  1  0.38302516  0.25657110  0.23229743  1
  Ni  Ni26  1  0.61697484  0.02427367  0.25657110  1
  Ni  Ni27  1  0.38302516  0.97572633  0.74342890  1
  Ni  Ni28  1  0.61697484  0.23229743  0.97572633  1
  Ni  Ni29  1  0.38302516  0.76770257  0.02427367  1
  Ni  Ni30  1  0.71545079  0.64625680  0.07350254  1
  Ni  Ni31  1  0.28454921  0.35374320  0.92649746  1
  Ni  Ni32  1  0.71545079  0.42724574  0.35374320  1
  Ni  Ni33  1  0.28454921  0.57275426  0.64625680  1
  Ni  Ni34  1  0.71545079  0.92649746  0.57275426  1
  Ni  Ni35  1  0.28454921  0.07350254  0.42724574  1
  Ni  Ni36  1  0.90098494  0.91001816  0.31670503  1
  Ni  Ni37  1  0.09901506  0.08998184  0.68329497  1
  Ni  Ni38  1  0.90098494  0.40668687  0.08998184  1
  Ni  Ni39  1  0.09901506  0.59331313  0.91001816  1
  Ni  Ni40  1  0.90098494  0.68329497  0.59331313  1
  Ni  Ni41  1  0.09901506  0.31670503  0.40668687  1
  Cu  Cu42  1  0.93238903  0.49010181  0.65530074  1
  Cu  Cu43  1  0.06761097  0.50989819  0.34469926  1
  Cu  Cu44  1  0.93238903  0.16519893  0.50989819  1
  Cu  Cu45  1  0.06761097  0.83480107  0.49010181  1
  Cu  Cu46  1  0.93238903  0.34469926  0.83480107  1
  Cu  Cu47  1  0.06761097  0.65530074  0.16519893  1
  Cu  Cu48  1  0.75231236  0.84519874  0.01961280  1
  Cu  Cu49  1  0.24768764  0.15480126  0.98038720  1
  Cu  Cu50  1  0.75231236  0.17441406  0.15480126  1
  Cu  Cu51  1  0.24768764  0.82558594  0.84519874  1
  Cu  Cu52  1  0.75231236  0.98038720  0.82558594  1
  Cu  Cu53  1  0.24768764  0.01961280  0.17441406  1
  Cu  Cu54  1  0.54325268  0.82339105  0.32064609  1
  Cu  Cu55  1  0.45674732  0.17660895  0.67935391  1
  Cu  Cu56  1  0.54325268  0.49725504  0.17660895  1
  Cu  Cu57  1  0.45674732  0.50274496  0.82339105  1
  Cu  Cu58  1  0.54325268  0.67935391  0.50274496  1
  Cu  Cu59  1  0.45674732  0.32064609  0.49725504  1
  C  C60  1  0.82916708  0.75357565  0.94320902  1
  C  C61  1  0.17083292  0.24642435  0.05679098  1
  C  C62  1  0.82916708  0.18963337  0.24642435  1
  C  C63  1  0.17083292  0.81036663  0.75357565  1
  C  C64  1  0.82916708  0.05679098  0.81036663  1
  C  C65  1  0.17083292  0.94320902  0.18963337  1
  C  C66  1  0.87564251  0.92603701  0.06521032  1
  C  C67  1  0.12435749  0.07396299  0.93478968  1
  C  C68  1  0.87564251  0.13917332  0.07396299  1
  C  C69  1  0.12435749  0.86082668  0.92603701  1
  C  C70  1  0.87564251  0.93478968  0.86082668  1
  C  C71  1  0.12435749  0.06521032  0.13917332  1
  C  C72  1  0.93205811  0.79951299  0.42614259  1
  C  C73  1  0.06794189  0.20048701  0.57385741  1
  C  C74  1  0.93205811  0.62662960  0.20048701  1
  C  C75  1  0.06794189  0.37337040  0.79951299  1
  C  C76  1  0.93205811  0.57385741  0.37337040  1
  C  C77  1  0.06794189  0.42614259  0.62662960  1
  C  C78  1  0.84835673  0.46956983  0.56618755  1
  C  C79  1  0.15164327  0.53043017  0.43381245  1
  C  C80  1  0.84835673  0.09661772  0.53043017  1
  C  C81  1  0.15164327  0.90338228  0.46956983  1
  C  C82  1  0.84835673  0.43381245  0.90338228  1
  C  C83  1  0.15164327  0.56618755  0.09661772  1
  C  C84  1  0.83311071  0.46508540  0.72034497  1
  C  C85  1  0.16688929  0.53491460  0.27965503  1
  C  C86  1  0.83311071  0.25525956  0.53491460  1
  C  C87  1  0.16688929  0.74474044  0.46508540  1
  C  C88  1  0.83311071  0.27965503  0.74474044  1
  C  C89  1  0.16688929  0.72034497  0.25525956  1
  C  C90  1  0.58811262  0.92690671  0.38272989  1
  C  C91  1  0.41188738  0.07309329  0.61727011  1
  C  C92  1  0.58811262  0.45582318  0.07309329  1
  C  C93  1  0.41188738  0.54417682  0.92690671  1
  C  C94  1  0.58811262  0.61727011  0.54417682  1
  C  C95  1  0.41188738  0.38272989  0.45582318  1
  C  C96  1  0.54526871  0.57208509  0.80593040  1
  C  C97  1  0.45473129  0.42791491  0.19406960  1
  C  C98  1  0.54526871  0.23384532  0.42791491  1
  C  C99  1  0.45473129  0.76615468  0.57208509  1
  C  C100  1  0.54526871  0.19406960  0.76615468  1
  C  C101  1  0.45473129  0.80593040  0.23384532  1
  C  C102  1  0.64420909  0.87478155  0.96542307  1
  C  C103  1  0.35579091  0.12521845  0.03457693  1
  C  C104  1  0.64420909  0.09064152  0.12521845  1
  C  C105  1  0.35579091  0.90935848  0.87478155  1
  C  C106  1  0.64420909  0.03457693  0.90935848  1
  C  C107  1  0.35579091  0.96542307  0.09064152  1
  C  C108  1  0.55548217  0.38599042  0.58762695  1
  C  C109  1  0.44451783  0.61400958  0.41237305  1
  C  C110  1  0.55548217  0.20163653  0.61400958  1
  C  C111  1  0.44451783  0.79836347  0.38599042  1
  C  C112  1  0.55548217  0.41237305  0.79836347  1
  C  C113  1  0.44451783  0.58762695  0.20163653  1
  C  C114  1  0.67488254  0.75540202  0.28773691  1
  C  C115  1  0.32511746  0.24459798  0.71226309  1
  C  C116  1  0.67488254  0.53233489  0.24459798  1
  C  C117  1  0.32511746  0.46766511  0.75540202  1
  C  C118  1  0.67488254  0.71226309  0.46766511  1
  C  C119  1  0.32511746  0.28773691  0.53233489  1
  C  C120  1  0.68648349  0.83666743  0.09945105  1
  C  C121  1  0.31351651  0.16333257  0.90054895  1
  C  C122  1  0.68648349  0.26278362  0.16333257  1
  C  C123  1  0.31351651  0.73721638  0.83666743  1
  C  C124  1  0.68648349  0.90054895  0.73721638  1
  C  C125  1  0.31351651  0.09945105  0.26278362  1
  C  C126  1  0.97145745  0.59538569  0.71747072  1
  C  C127  1  0.02854255  0.40461431  0.28252928  1
  C  C128  1  0.97145745  0.12208503  0.40461431  1
  C  C129  1  0.02854255  0.87791497  0.59538569  1
  C  C130  1  0.97145745  0.28252928  0.87791497  1
  C  C131  1  0.02854255  0.71747072  0.12208503  1
