# generated using pymatgen
data_Cu4Ni2C9
_symmetry_space_group_name_H-M   'P 1'
_cell_length_a   6.53839599
_cell_length_b   16.16368749
_cell_length_c   16.16368749
_cell_angle_alpha   90.00000000
_cell_angle_beta   90.00000000
_cell_angle_gamma   90.00000000
_symmetry_Int_Tables_number   1
_chemical_formula_structural   Cu4Ni2C9
_chemical_formula_sum   'Cu32 Ni16 C72'
_cell_volume   1708.25267667
_cell_formula_units_Z   8
loop_
 _symmetry_equiv_pos_site_id
 _symmetry_equiv_pos_as_xyz
  1  'x, y, z'
loop_
 _atom_site_type_symbol
 _atom_site_label
 _atom_site_symmetry_multiplicity
 _atom_site_fract_x
 _atom_site_fract_y
 _atom_site_fract_z
 _atom_site_occupancy
  C  C0  1  0.50815289  0.66289619  0.91213024  1
  C  C1  1  0.99184711  0.16289619  0.58786976  1
  C  C2  1  0.50815289  0.33710381  0.08786976  1
  C  C3  1  0.99184711  0.83710381  0.41213024  1
  C  C4  1  0.49184711  0.91213024  0.33710381  1
  C  C5  1  0.00815289  0.58786976  0.83710381  1
  C  C6  1  0.49184711  0.08786976  0.66289619  1
  C  C7  1  0.00815289  0.41213024  0.16289619  1
  C  C8  1  0.51121420  0.58070108  0.16871386  1
  C  C9  1  0.98878580  0.08070108  0.33128614  1
  C  C10  1  0.51121420  0.41929892  0.83128614  1
  C  C11  1  0.98878580  0.91929892  0.66871386  1
  C  C12  1  0.48878580  0.16871386  0.41929892  1
  C  C13  1  0.01121420  0.33128614  0.91929892  1
  C  C14  1  0.48878580  0.83128614  0.58070108  1
  C  C15  1  0.01121420  0.66871386  0.08070108  1
  C  C16  1  0.00760867  0.83160936  0.92025613  1
  C  C17  1  0.49239133  0.33160936  0.57974387  1
  C  C18  1  0.00760867  0.16839064  0.07974387  1
  C  C19  1  0.49239133  0.66839064  0.42025613  1
  C  C20  1  0.99239133  0.92025613  0.16839064  1
  C  C21  1  0.50760867  0.57974387  0.66839064  1
  C  C22  1  0.99239133  0.07974387  0.83160936  1
  C  C23  1  0.50760867  0.42025613  0.33160936  1
  C  C24  1  0.48680412  0.92335274  0.82404631  1
  C  C25  1  0.01319588  0.42335274  0.67595369  1
  C  C26  1  0.48680412  0.07664726  0.17595369  1
  C  C27  1  0.01319588  0.57664726  0.32404631  1
  C  C28  1  0.51319588  0.82404631  0.07664726  1
  C  C29  1  0.98680412  0.67595369  0.57664726  1
  C  C30  1  0.51319588  0.17595369  0.92335274  1
  C  C31  1  0.98680412  0.32404631  0.42335274  1
  Ni  Ni32  1  0.79201983  0.50000000  -0.00000000  1
  Ni  Ni33  1  0.70798017  -0.00000000  0.50000000  1
  Ni  Ni34  1  0.20798017  -0.00000000  0.50000000  1
  Ni  Ni35  1  0.29201983  0.50000000  0.00000000  1
  Ni  Ni36  1  0.77679185  0.74749735  0.74952718  1
  Ni  Ni37  1  0.72320815  0.24749735  0.75047282  1
  Ni  Ni38  1  0.77679185  0.25250265  0.25047282  1
  Ni  Ni39  1  0.72320815  0.75250265  0.24952718  1
  Ni  Ni40  1  0.22320815  0.74952718  0.25250265  1
  Ni  Ni41  1  0.27679185  0.75047282  0.75250265  1
  Ni  Ni42  1  0.22320815  0.25047282  0.74749735  1
  Ni  Ni43  1  0.27679185  0.24952718  0.24749735  1
  Ni  Ni44  1  0.23678921  -0.00000000  -0.00000000  1
  Ni  Ni45  1  0.26321079  0.50000000  0.50000000  1
  Ni  Ni46  1  0.76321079  -0.00000000  -0.00000000  1
  Ni  Ni47  1  0.73678921  0.50000000  0.50000000  1
  Cu  Cu48  1  0.25993100  0.82548292  0.73780482  1
  Cu  Cu49  1  0.24006900  0.32548292  0.76219518  1
  Cu  Cu50  1  0.25993100  0.17451708  0.26219518  1
  Cu  Cu51  1  0.24006900  0.67451708  0.23780482  1
  Cu  Cu52  1  0.74006900  0.73780482  0.17451708  1
  Cu  Cu53  1  0.75993100  0.76219518  0.67451708  1
  Cu  Cu54  1  0.74006900  0.26219518  0.82548292  1
  Cu  Cu55  1  0.75993100  0.23780482  0.32548292  1
  Cu  Cu56  1  0.23416775  0.98804011  0.92439966  1
  Cu  Cu57  1  0.26583225  0.48804011  0.57560034  1
  Cu  Cu58  1  0.23416775  0.01195989  0.07560034  1
  Cu  Cu59  1  0.26583225  0.51195989  0.42439966  1
  Cu  Cu60  1  0.76583225  0.92439966  0.01195989  1
  Cu  Cu61  1  0.73416775  0.57560034  0.51195989  1
  Cu  Cu62  1  0.76583225  0.07560034  0.98804011  1
  Cu  Cu63  1  0.73416775  0.42439966  0.48804011  1
  Cu  Cu64  1  0.79369928  0.57467878  0.98315396  1
  Cu  Cu65  1  0.70630072  0.07467878  0.51684604  1
  Cu  Cu66  1  0.79369928  0.42532122  0.01684604  1
  Cu  Cu67  1  0.70630072  0.92532122  0.48315396  1
  Cu  Cu68  1  0.20630072  0.98315396  0.42532122  1
  Cu  Cu69  1  0.29369928  0.51684604  0.92532122  1
  Cu  Cu70  1  0.20630072  0.01684604  0.57467878  1
  Cu  Cu71  1  0.29369928  0.48315396  0.07467878  1
  Cu  Cu72  1  0.79651248  0.73266151  0.82399054  1
  Cu  Cu73  1  0.70348752  0.23266151  0.67600946  1
  Cu  Cu74  1  0.79651248  0.26733849  0.17600946  1
  Cu  Cu75  1  0.70348752  0.76733849  0.32399054  1
  Cu  Cu76  1  0.20348752  0.82399054  0.26733849  1
  Cu  Cu77  1  0.29651248  0.67600946  0.76733849  1
  Cu  Cu78  1  0.20348752  0.17600946  0.73266151  1
  Cu  Cu79  1  0.29651248  0.32399054  0.23266151  1
  C  C80  1  0.23852752  0.00078848  0.74863154  1
  C  C81  1  0.26147248  0.50078848  0.75136846  1
  C  C82  1  0.23852752  0.99921152  0.25136846  1
  C  C83  1  0.26147248  0.49921152  0.24863154  1
  C  C84  1  0.76147248  0.74863154  0.99921152  1
  C  C85  1  0.73852752  0.75136846  0.49921152  1
  C  C86  1  0.76147248  0.25136846  0.00078848  1
  C  C87  1  0.73852752  0.24863154  0.50078848  1
  C  C88  1  0.86540631  0.92881624  0.81717683  1
  C  C89  1  0.63459369  0.42881624  0.68282317  1
  C  C90  1  0.86540631  0.07118376  0.18282317  1
  C  C91  1  0.63459369  0.57118376  0.31717683  1
  C  C92  1  0.13459369  0.81717683  0.07118376  1
  C  C93  1  0.36540631  0.68282317  0.57118376  1
  C  C94  1  0.13459369  0.18282317  0.92881624  1
  C  C95  1  0.36540631  0.31717683  0.42881624  1
  C  C96  1  0.63113203  0.56224652  0.81083575  1
  C  C97  1  0.86886797  0.06224652  0.68916425  1
  C  C98  1  0.63113203  0.43775348  0.18916425  1
  C  C99  1  0.86886797  0.93775348  0.31083575  1
  C  C100  1  0.36886797  0.81083575  0.43775348  1
  C  C101  1  0.13113203  0.68916425  0.93775348  1
  C  C102  1  0.36886797  0.18916425  0.56224652  1
  C  C103  1  0.13113203  0.31083575  0.06224652  1
  C  C104  1  0.39710212  0.67343059  0.06141331  1
  C  C105  1  0.10289788  0.17343059  0.43858669  1
  C  C106  1  0.39710212  0.32656941  0.93858669  1
  C  C107  1  0.10289788  0.82656941  0.56141331  1
  C  C108  1  0.60289788  0.06141331  0.32656941  1
  C  C109  1  0.89710212  0.43858669  0.82656941  1
  C  C110  1  0.60289788  0.93858669  0.67343059  1
  C  C111  1  0.89710212  0.56141331  0.17343059  1
  C  C112  1  0.40241014  0.81558271  0.92483812  1
  C  C113  1  0.09758986  0.31558271  0.57516188  1
  C  C114  1  0.40241014  0.18441729  0.07516188  1
  C  C115  1  0.09758986  0.68441729  0.42483812  1
  C  C116  1  0.59758986  0.92483812  0.18441729  1
  C  C117  1  0.90241014  0.57516188  0.68441729  1
  C  C118  1  0.59758986  0.07516188  0.81558271  1
  C  C119  1  0.90241014  0.42483812  0.31558271  1
