# generated using pymatgen
data_Cu3Ni2C9
_symmetry_space_group_name_H-M   'P 1'
_cell_length_a   5.49300870
_cell_length_b   5.49300870
_cell_length_c   15.07786207
_cell_angle_alpha   88.90246737
_cell_angle_beta   88.90246737
_cell_angle_gamma   121.13535192
_symmetry_Int_Tables_number   1
_chemical_formula_structural   Cu3Ni2C9
_chemical_formula_sum   'Cu6 Ni4 C18'
_cell_volume   389.11470631
_cell_formula_units_Z   2
loop_
 _symmetry_equiv_pos_site_id
 _symmetry_equiv_pos_as_xyz
  1  'x, y, z'
loop_
 _atom_site_type_symbol
 _atom_site_label
 _atom_site_symmetry_multiplicity
 _atom_site_fract_x
 _atom_site_fract_y
 _atom_site_fract_z
 _atom_site_occupancy
  Ni  Ni0  1  0.66668300  0.99435600  0.19162700  1
  Ni  Ni1  1  0.33331700  0.00564400  0.80837300  1
  Ni  Ni2  1  0.00564400  0.33331700  0.80837300  1
  Ni  Ni3  1  0.99435600  0.66668300  0.19162700  1
  Cu  Cu4  1  0.66105000  0.33895000  0.00000000  1
  Cu  Cu5  1  0.33895000  0.66105000  0.00000000  1
  Cu  Cu6  1  0.00000000  0.00000000  0.50000000  1
  Cu  Cu7  1  0.66666300  0.33333700  0.50000000  1
  Cu  Cu8  1  0.33333700  0.66666300  0.50000000  1
  Cu  Cu9  1  0.00000000  0.00000000  0.00000000  1
  C  C10  1  0.67329000  0.67329000  0.55908000  1
  C  C11  1  0.32671000  0.32671000  0.44092000  1
  C  C12  1  0.66012200  0.99336100  0.44104200  1
  C  C13  1  0.33987800  0.00663900  0.55895800  1
  C  C14  1  0.00663900  0.33987800  0.55895800  1
  C  C15  1  0.99336100  0.66012200  0.44104200  1
  C  C16  1  0.82967000  0.82967000  0.23396900  1
  C  C17  1  0.17033000  0.17033000  0.76603100  1
  C  C18  1  0.32636300  0.82468700  0.23250800  1
  C  C19  1  0.67363700  0.17531300  0.76749200  1
  C  C20  1  0.17531300  0.67363700  0.76749200  1
  C  C21  1  0.82468700  0.32636300  0.23250800  1
  C  C22  1  0.66219900  0.99784900  0.06897600  1
  C  C23  1  0.33780100  0.00215100  0.93102400  1
  C  C24  1  0.00215100  0.33780100  0.93102400  1
  C  C25  1  0.99784900  0.66219900  0.06897600  1
  C  C26  1  0.31290300  0.31290300  0.06010300  1
  C  C27  1  0.68709700  0.68709700  0.93989700  1
