# generated using pymatgen
data_CuNiC6
_symmetry_space_group_name_H-M   'P 1'
_cell_length_a   5.95062800
_cell_length_b   5.96181686
_cell_length_c   9.22456496
_cell_angle_alpha   90.39327486
_cell_angle_beta   89.88266381
_cell_angle_gamma   119.94016605
_symmetry_Int_Tables_number   1
_chemical_formula_structural   CuNiC6
_chemical_formula_sum   'Cu3 Ni3 C18'
_cell_volume   283.57550237
_cell_formula_units_Z   3
loop_
 _symmetry_equiv_pos_site_id
 _symmetry_equiv_pos_as_xyz
  1  'x, y, z'
loop_
 _atom_site_type_symbol
 _atom_site_label
 _atom_site_symmetry_multiplicity
 _atom_site_fract_x
 _atom_site_fract_y
 _atom_site_fract_z
 _atom_site_occupancy
  Ni  Ni0  1  0.17409800  0.16460000  0.78709700  1
  Ni  Ni1  1  0.33993700  0.83133300  0.28560500  1
  Ni  Ni2  1  0.83701200  0.33041600  0.29236900  1
  Cu  Cu3  1  0.16965600  0.66419400  0.79004000  1
  Cu  Cu4  1  0.66457100  0.16672900  0.78706400  1
  Cu  Cu5  1  0.83135700  0.83181300  0.28747400  1
  C  C6  1  0.33401700  0.33858600  0.50993200  1
  C  C7  1  0.67399400  0.66330300  0.00764000  1
  C  C8  1  0.17522100  0.65271500  0.40196500  1
  C  C9  1  0.47682800  0.47469900  0.65584900  1
  C  C10  1  0.32902500  0.32854200  0.89133400  1
  C  C11  1  0.00740600  0.00159100  0.69259400  1
  C  C12  1  0.00451500  0.00452800  0.19486300  1
  C  C13  1  0.65114700  0.16339600  0.40947000  1
  C  C14  1  0.04650400  0.46794200  0.66071700  1
  C  C15  1  0.47218500  0.04403100  0.66050500  1
  C  C16  1  0.82100400  0.83229700  0.90366000  1
  C  C17  1  0.18470400  0.16496100  0.40587600  1
  C  C18  1  0.51340400  0.95813800  0.16285800  1
  C  C19  1  0.95100000  0.53537600  0.14879700  1
  C  C20  1  0.66224400  0.66104300  0.38845900  1
  C  C21  1  0.34924100  0.83228600  0.90172300  1
  C  C22  1  0.50459200  0.54082600  0.15478200  1
  C  C23  1  0.82613900  0.34685700  0.90360900  1
