# generated using pymatgen
data_Cu(NiC2)2
_symmetry_space_group_name_H-M   'P 1'
_cell_length_a   6.09334534
_cell_length_b   6.09334534
_cell_length_c   14.87080717
_cell_angle_alpha   89.14760067
_cell_angle_beta   89.14760067
_cell_angle_gamma   59.76978443
_symmetry_Int_Tables_number   1
_chemical_formula_structural   Cu(NiC2)2
_chemical_formula_sum   'Cu6 Ni12 C24'
_cell_volume   476.98053941
_cell_formula_units_Z   6
loop_
 _symmetry_equiv_pos_site_id
 _symmetry_equiv_pos_as_xyz
  1  'x, y, z'
loop_
 _atom_site_type_symbol
 _atom_site_label
 _atom_site_symmetry_multiplicity
 _atom_site_fract_x
 _atom_site_fract_y
 _atom_site_fract_z
 _atom_site_occupancy
  Ni  Ni0  1  0.16991500  0.66766800  0.83298100  1
  Ni  Ni1  1  0.49624200  0.49624200  0.62270900  1
  Ni  Ni2  1  0.50020000  0.50020000  0.99784500  1
  Ni  Ni3  1  0.66766800  0.16991500  0.83298100  1
  Ni  Ni4  1  0.49957300  0.00049500  0.50050300  1
  Ni  Ni5  1  0.82899400  0.82899400  0.29110400  1
  Ni  Ni6  1  0.00049500  0.49957300  0.50050300  1
  Ni  Ni7  1  0.83343100  0.33215800  0.16665100  1
  Ni  Ni8  1  0.17211600  0.17211600  0.71204200  1
  Ni  Ni9  1  0.33215800  0.83343100  0.16665100  1
  Ni  Ni10  1  0.50435700  0.50435700  0.37687100  1
  Ni  Ni11  1  0.83527600  0.83527600  0.04103400  1
  Cu  Cu12  1  0.16195600  0.16195600  0.95781800  1
  Cu  Cu13  1  0.83306600  0.83306600  0.66681700  1
  Cu  Cu14  1  0.66847400  0.66847400  0.83346300  1
  Cu  Cu15  1  0.16782800  0.16782800  0.33346500  1
  Cu  Cu16  1  0.00049500  0.00049500  0.50066800  1
  Cu  Cu17  1  0.33073600  0.33073600  0.16640900  1
  C  C18  1  0.34347700  0.80349100  0.91555500  1
  C  C19  1  0.49632800  0.49632800  0.75387200  1
  C  C20  1  0.80349100  0.34347700  0.91555500  1
  C  C21  1  0.34717100  0.34717100  0.91313500  1
  C  C22  1  0.66995400  0.14901400  0.57947900  1
  C  C23  1  0.99631500  0.99631500  0.75773400  1
  C  C24  1  0.82527300  0.82527300  0.42313000  1
  C  C25  1  0.51803800  0.00489000  0.75578200  1
  C  C26  1  0.14901400  0.66995400  0.57947900  1
  C  C27  1  0.83959500  0.83959500  0.91092900  1
  C  C28  1  0.67195400  0.67195400  0.57747000  1
  C  C29  1  0.00489000  0.51803800  0.75578200  1
  C  C30  1  0.99759700  0.48451400  0.24590700  1
  C  C31  1  0.32848500  0.32848500  0.42219200  1
  C  C32  1  0.85141800  0.33330500  0.42070400  1
  C  C33  1  0.48451400  0.99759700  0.24590700  1
  C  C34  1  0.15947100  0.15947100  0.09357600  1
  C  C35  1  0.17516500  0.17516500  0.57844900  1
  C  C36  1  0.00358000  0.00358000  0.24369600  1
  C  C37  1  0.33330500  0.85141800  0.42070400  1
  C  C38  1  0.65567400  0.65567400  0.08509900  1
  C  C39  1  0.18598200  0.66434900  0.08440700  1
  C  C40  1  0.50538800  0.50538800  0.24308000  1
  C  C41  1  0.66434900  0.18598200  0.08440700  1
