# generated using pymatgen
data_Cu2Ni6C
_symmetry_space_group_name_H-M   'P 1'
_cell_length_a   10.59230800
_cell_length_b   10.59230800
_cell_length_c   13.02421444
_cell_angle_alpha   113.99387839
_cell_angle_beta   113.99387839
_cell_angle_gamma   90.00000000
_symmetry_Int_Tables_number   1
_chemical_formula_structural   Cu2Ni6C
_chemical_formula_sum   'Cu8 Ni24 C4'
_cell_volume   1195.47282774
_cell_formula_units_Z   4
loop_
 _symmetry_equiv_pos_site_id
 _symmetry_equiv_pos_as_xyz
  1  'x, y, z'
loop_
 _atom_site_type_symbol
 _atom_site_label
 _atom_site_symmetry_multiplicity
 _atom_site_fract_x
 _atom_site_fract_y
 _atom_site_fract_z
 _atom_site_occupancy
  C  C0  1  0.25000000  0.75000000  0.50000000  1
  C  C1  1  0.00000000  0.00000000  0.00000000  1
  C  C2  1  0.75000000  0.25000000  0.50000000  1
  C  C3  1  0.50000000  0.50000000  0.00000000  1
  Ni  Ni4  1  0.99979800  0.25585500  0.51170900  1
  Ni  Ni5  1  0.51191100  0.25585500  0.51170900  1
  Ni  Ni6  1  0.73808900  0.49414500  0.98829100  1
  Ni  Ni7  1  0.25020200  0.49414500  0.98829100  1
  Ni  Ni8  1  0.74414500  0.00020200  0.48829100  1
  Ni  Ni9  1  0.74414500  0.48808900  0.48829100  1
  Ni  Ni10  1  0.50585500  0.26191100  0.01170900  1
  Ni  Ni11  1  0.50585500  0.74979800  0.01170900  1
  Ni  Ni12  1  0.49368100  0.74958400  0.49916700  1
  Ni  Ni13  1  0.00548600  0.74958400  0.49916700  1
  Ni  Ni14  1  0.24451400  0.00041600  0.00083300  1
  Ni  Ni15  1  0.75631900  0.00041600  0.00083300  1
  Ni  Ni16  1  0.25041600  0.50631900  0.50083300  1
  Ni  Ni17  1  0.25041600  0.99451400  0.50083300  1
  Ni  Ni18  1  0.99958400  0.75548600  0.99916700  1
  Ni  Ni19  1  0.99958400  0.24368100  0.99916700  1
  Ni  Ni20  1  0.62869100  0.12869100  0.25738100  1
  Ni  Ni21  1  0.62130900  0.62130900  0.24261900  1
  Ni  Ni22  1  0.87130900  0.37130900  0.74261900  1
  Ni  Ni23  1  0.37869100  0.37869100  0.75738100  1
  Ni  Ni24  1  0.37129100  0.87129100  0.74258200  1
  Ni  Ni25  1  0.87870900  0.87870900  0.75741800  1
  Ni  Ni26  1  0.12870900  0.62870900  0.25741800  1
  Ni  Ni27  1  0.12129100  0.12129100  0.24258200  1
  Cu  Cu28  1  0.62500000  0.65650200  0.75000000  1
  Cu  Cu29  1  0.12500000  0.09349800  0.75000000  1
  Cu  Cu30  1  0.12500000  0.65650200  0.75000000  1
  Cu  Cu31  1  0.62500000  0.09349800  0.75000000  1
  Cu  Cu32  1  0.34349800  0.37500000  0.25000000  1
  Cu  Cu33  1  0.90650200  0.87500000  0.25000000  1
  Cu  Cu34  1  0.34349800  0.87500000  0.25000000  1
  Cu  Cu35  1  0.90650200  0.37500000  0.25000000  1
