# generated using pymatgen
data_CuNi5C3
_symmetry_space_group_name_H-M   'P 1'
_cell_length_a   8.50407700
_cell_length_b   9.20820500
_cell_length_c   16.85279000
_cell_angle_alpha   90.00000000
_cell_angle_beta   90.00000000
_cell_angle_gamma   90.00000000
_symmetry_Int_Tables_number   1
_chemical_formula_structural   CuNi5C3
_chemical_formula_sum   'Cu16 Ni80 C48'
_cell_volume   1319.69621865
_cell_formula_units_Z   16
loop_
 _symmetry_equiv_pos_site_id
 _symmetry_equiv_pos_as_xyz
  1  'x, y, z'
loop_
 _atom_site_type_symbol
 _atom_site_label
 _atom_site_symmetry_multiplicity
 _atom_site_fract_x
 _atom_site_fract_y
 _atom_site_fract_z
 _atom_site_occupancy
  Ni  Ni0  1  0.64658000  0.60322400  0.14027400  1
  Ni  Ni1  1  0.14658000  0.89677600  0.85972600  1
  Ni  Ni2  1  0.35342000  0.10322400  0.35972600  1
  Ni  Ni3  1  0.85342000  0.39677600  0.64027400  1
  Ni  Ni4  1  0.35342000  0.39677600  0.85972600  1
  Ni  Ni5  1  0.85342000  0.10322400  0.14027400  1
  Ni  Ni6  1  0.64658000  0.89677600  0.64027400  1
  Ni  Ni7  1  0.14658000  0.60322400  0.35972600  1
  Ni  Ni8  1  0.38434500  0.69582500  0.13771800  1
  Ni  Ni9  1  0.88434500  0.80417500  0.86228200  1
  Ni  Ni10  1  0.61565500  0.19582500  0.36228200  1
  Ni  Ni11  1  0.11565500  0.30417500  0.63771800  1
  Ni  Ni12  1  0.61565500  0.30417500  0.86228200  1
  Ni  Ni13  1  0.11565500  0.19582500  0.13771800  1
  Ni  Ni14  1  0.38434500  0.80417500  0.63771800  1
  Ni  Ni15  1  0.88434500  0.69582500  0.36228200  1
  Ni  Ni16  1  0.25976400  0.62093600  0.20601300  1
  Ni  Ni17  1  0.75976400  0.87906400  0.79398700  1
  Ni  Ni18  1  0.74023600  0.12093600  0.29398700  1
  Ni  Ni19  1  0.24023600  0.37906400  0.70601300  1
  Ni  Ni20  1  0.74023600  0.37906400  0.79398700  1
  Ni  Ni21  1  0.24023600  0.12093600  0.20601300  1
  Ni  Ni22  1  0.25976400  0.87906400  0.70601300  1
  Ni  Ni23  1  0.75976400  0.62093600  0.29398700  1
  Ni  Ni24  1  0.30973600  0.42794500  0.27497400  1
  Ni  Ni25  1  0.80973600  0.07205500  0.72502600  1
  Ni  Ni26  1  0.69026400  0.92794500  0.22502600  1
  Ni  Ni27  1  0.19026400  0.57205500  0.77497400  1
  Ni  Ni28  1  0.69026400  0.57205500  0.72502600  1
  Ni  Ni29  1  0.19026400  0.92794500  0.27497400  1
  Ni  Ni30  1  0.30973600  0.07205500  0.77497400  1
  Ni  Ni31  1  0.80973600  0.42794500  0.22502600  1
  Ni  Ni32  1  0.48851000  0.33383000  0.26636800  1
  Ni  Ni33  1  0.98851000  0.16617000  0.73363200  1
  Ni  Ni34  1  0.51149000  0.83383000  0.23363200  1
  Ni  Ni35  1  0.01149000  0.66617000  0.76636800  1
  Ni  Ni36  1  0.51149000  0.66617000  0.73363200  1
  Ni  Ni37  1  0.01149000  0.83383000  0.26636800  1
  Ni  Ni38  1  0.48851000  0.16617000  0.76636800  1
  Ni  Ni39  1  0.98851000  0.33383000  0.23363200  1
  Ni  Ni40  1  0.47891600  0.28386100  0.61526300  1
  Ni  Ni41  1  0.97891600  0.21613900  0.38473700  1
  Ni  Ni42  1  0.52108400  0.78386100  0.88473700  1
  Ni  Ni43  1  0.02108400  0.71613900  0.11526300  1
  Ni  Ni44  1  0.52108400  0.71613900  0.38473700  1
  Ni  Ni45  1  0.02108400  0.78386100  0.61526300  1
  Ni  Ni46  1  0.47891600  0.21613900  0.11526300  1
  Ni  Ni47  1  0.97891600  0.28386100  0.88473700  1
  Ni  Ni48  1  0.69901300  0.14176700  0.59959100  1
  Ni  Ni49  1  0.19901300  0.35823300  0.40040900  1
  Ni  Ni50  1  0.30098700  0.64176700  0.90040900  1
  Ni  Ni51  1  0.80098700  0.85823300  0.09959100  1
  Ni  Ni52  1  0.30098700  0.85823300  0.40040900  1
  Ni  Ni53  1  0.80098700  0.64176700  0.59959100  1
  Ni  Ni54  1  0.69901300  0.35823300  0.09959100  1
  Ni  Ni55  1  0.19901300  0.14176700  0.90040900  1
  Ni  Ni56  1  0.82444300  0.18496600  0.51971700  1
  Ni  Ni57  1  0.32444300  0.31503400  0.48028300  1
  Ni  Ni58  1  0.17555700  0.68496600  0.98028300  1
  Ni  Ni59  1  0.67555700  0.81503400  0.01971700  1
  Ni  Ni60  1  0.17555700  0.81503400  0.48028300  1
  Ni  Ni61  1  0.67555700  0.68496600  0.51971700  1
  Ni  Ni62  1  0.82444300  0.31503400  0.01971700  1
  Ni  Ni63  1  0.32444300  0.18496600  0.98028300  1
  Ni  Ni64  1  0.77167700  0.36879500  0.44020400  1
  Ni  Ni65  1  0.27167700  0.13120500  0.55979600  1
  Ni  Ni66  1  0.22832300  0.86879500  0.05979600  1
  Ni  Ni67  1  0.72832300  0.63120500  0.94020400  1
  Ni  Ni68  1  0.22832300  0.63120500  0.55979600  1
  Ni  Ni69  1  0.72832300  0.86879500  0.44020400  1
  Ni  Ni70  1  0.77167700  0.13120500  0.94020400  1
  Ni  Ni71  1  0.27167700  0.36879500  0.05979600  1
  Ni  Ni72  1  0.60165000  0.46873000  0.44412400  1
  Ni  Ni73  1  0.10165000  0.03127000  0.55587600  1
  Ni  Ni74  1  0.39835000  0.96873000  0.05587600  1
  Ni  Ni75  1  0.89835000  0.53127000  0.94412400  1
  Ni  Ni76  1  0.39835000  0.53127000  0.55587600  1
  Ni  Ni77  1  0.89835000  0.96873000  0.44412400  1
  Ni  Ni78  1  0.60165000  0.03127000  0.94412400  1
  Ni  Ni79  1  0.10165000  0.46873000  0.05587600  1
  Cu  Cu80  1  0.47408000  0.51911700  0.19993000  1
  Cu  Cu81  1  0.97408000  0.98088300  0.80007000  1
  Cu  Cu82  1  0.52592000  0.01911700  0.30007000  1
  Cu  Cu83  1  0.02592000  0.48088300  0.69993000  1
  Cu  Cu84  1  0.52592000  0.48088300  0.80007000  1
  Cu  Cu85  1  0.02592000  0.01911700  0.19993000  1
  Cu  Cu86  1  0.47408000  0.98088300  0.69993000  1
  Cu  Cu87  1  0.97408000  0.51911700  0.30007000  1
  Cu  Cu88  1  0.62291600  0.30698700  0.52781900  1
  Cu  Cu89  1  0.12291600  0.19301300  0.47218100  1
  Cu  Cu90  1  0.37708400  0.80698700  0.97218100  1
  Cu  Cu91  1  0.87708400  0.69301300  0.02781900  1
  Cu  Cu92  1  0.37708400  0.69301300  0.47218100  1
  Cu  Cu93  1  0.87708400  0.80698700  0.52781900  1
  Cu  Cu94  1  0.62291600  0.19301300  0.02781900  1
  Cu  Cu95  1  0.12291600  0.30698700  0.97218100  1
  C  C96  1  0.61862900  0.51274800  0.17296400  1
  C  C97  1  0.11862900  0.98725200  0.82703600  1
  C  C98  1  0.38137100  0.01274800  0.32703600  1
  C  C99  1  0.88137100  0.48725200  0.67296400  1
  C  C100  1  0.38137100  0.48725200  0.82703600  1
  C  C101  1  0.88137100  0.01274800  0.17296400  1
  C  C102  1  0.61862900  0.98725200  0.67296400  1
  C  C103  1  0.11862900  0.51274800  0.32703600  1
  C  C104  1  0.37290000  0.63503700  0.18812800  1
  C  C105  1  0.87290000  0.86496300  0.81187200  1
  C  C106  1  0.62710000  0.13503700  0.31187200  1
  C  C107  1  0.12710000  0.36496300  0.68812800  1
  C  C108  1  0.62710000  0.36496300  0.81187200  1
  C  C109  1  0.12710000  0.13503700  0.18812800  1
  C  C110  1  0.37290000  0.86496300  0.68812800  1
  C  C111  1  0.87290000  0.63503700  0.31187200  1
  C  C112  1  0.41199600  0.40818800  0.24369100  1
  C  C113  1  0.91199600  0.09181200  0.75630900  1
  C  C114  1  0.58800400  0.90818800  0.25630900  1
  C  C115  1  0.08800400  0.59181200  0.74369100  1
  C  C116  1  0.58800400  0.59181200  0.75630900  1
  C  C117  1  0.08800400  0.90818800  0.24369100  1
  C  C118  1  0.41199600  0.09181200  0.74369100  1
  C  C119  1  0.91199600  0.40818800  0.25630900  1
  C  C120  1  0.48743400  0.33687200  0.56209300  1
  C  C121  1  0.98743400  0.16312800  0.43790700  1
  C  C122  1  0.51256600  0.83687200  0.93790700  1
  C  C123  1  0.01256600  0.66312800  0.06209300  1
  C  C124  1  0.51256600  0.66312800  0.43790700  1
  C  C125  1  0.01256600  0.83687200  0.56209300  1
  C  C126  1  0.48743400  0.16312800  0.06209300  1
  C  C127  1  0.98743400  0.33687200  0.93790700  1
  C  C128  1  0.73509500  0.21639800  0.55776100  1
  C  C129  1  0.23509500  0.28360200  0.44223900  1
  C  C130  1  0.26490500  0.71639800  0.94223900  1
  C  C131  1  0.76490500  0.78360200  0.05776100  1
  C  C132  1  0.26490500  0.78360200  0.44223900  1
  C  C133  1  0.76490500  0.71639800  0.55776100  1
  C  C134  1  0.73509500  0.28360200  0.05776100  1
  C  C135  1  0.23509500  0.21639800  0.94223900  1
  C  C136  1  0.65592600  0.36988700  0.45516500  1
  C  C137  1  0.15592600  0.13011300  0.54483500  1
  C  C138  1  0.34407400  0.86988700  0.04483500  1
  C  C139  1  0.84407400  0.63011300  0.95516500  1
  C  C140  1  0.34407400  0.63011300  0.54483500  1
  C  C141  1  0.84407400  0.86988700  0.45516500  1
  C  C142  1  0.65592600  0.13011300  0.95516500  1
  C  C143  1  0.15592600  0.36988700  0.04483500  1
