# generated using pymatgen
data_Cu10NiC3
_symmetry_space_group_name_H-M   'P 1'
_cell_length_a   7.64300300
_cell_length_b   12.73359600
_cell_length_c   12.80085000
_cell_angle_alpha   69.86308695
_cell_angle_beta   90.00000000
_cell_angle_gamma   90.00000000
_symmetry_Int_Tables_number   1
_chemical_formula_structural   Cu10NiC3
_chemical_formula_sum   'Cu40 Ni4 C12'
_cell_volume   1169.66257640
_cell_formula_units_Z   4
loop_
 _symmetry_equiv_pos_site_id
 _symmetry_equiv_pos_as_xyz
  1  'x, y, z'
loop_
 _atom_site_type_symbol
 _atom_site_label
 _atom_site_symmetry_multiplicity
 _atom_site_fract_x
 _atom_site_fract_y
 _atom_site_fract_z
 _atom_site_occupancy
  C  C0  1  0.47151000  0.38553200  0.36997500  1
  C  C1  1  0.52849000  0.61446800  0.63002500  1
  C  C2  1  0.97151000  0.11446800  0.63002500  1
  C  C3  1  0.02849000  0.88553200  0.36997500  1
  C  C4  1  0.99050400  0.64162400  0.12710300  1
  C  C5  1  0.00949600  0.35837600  0.87289700  1
  C  C6  1  0.49050400  0.85837600  0.87289700  1
  C  C7  1  0.50949600  0.14162400  0.12710300  1
  C  C8  1  0.00000000  0.50000000  0.50000000  1
  C  C9  1  0.50000000  0.00000000  0.50000000  1
  C  C10  1  0.00000000  0.00000000  0.00000000  1
  C  C11  1  0.50000000  0.50000000  0.00000000  1
  Ni  Ni12  1  0.50607100  0.75034200  0.25392900  1
  Ni  Ni13  1  0.49392900  0.24965800  0.74607100  1
  Ni  Ni14  1  0.00607100  0.74965800  0.74607100  1
  Ni  Ni15  1  0.99392900  0.25034200  0.25392900  1
  Cu  Cu16  1  0.73333900  0.93792800  0.52430300  1
  Cu  Cu17  1  0.26666100  0.06207200  0.47569700  1
  Cu  Cu18  1  0.23333900  0.56207200  0.47569700  1
  Cu  Cu19  1  0.76666100  0.43792800  0.52430300  1
  Cu  Cu20  1  0.58615500  0.65635300  0.22868600  1
  Cu  Cu21  1  0.41384500  0.34364700  0.77131400  1
  Cu  Cu22  1  0.08615500  0.84364700  0.77131400  1
  Cu  Cu23  1  0.91384500  0.15635300  0.22868600  1
  Cu  Cu24  1  0.81186900  0.76166700  0.73254400  1
  Cu  Cu25  1  0.18813100  0.23833300  0.26745600  1
  Cu  Cu26  1  0.31186900  0.73833300  0.26745600  1
  Cu  Cu27  1  0.68813100  0.26166700  0.73254400  1
  Cu  Cu28  1  0.51758600  0.85823000  0.15808300  1
  Cu  Cu29  1  0.48241400  0.14177000  0.84191700  1
  Cu  Cu30  1  0.01758600  0.64177000  0.84191700  1
  Cu  Cu31  1  0.98241400  0.35823000  0.15808300  1
  Cu  Cu32  1  0.38786500  0.59089200  0.07531900  1
  Cu  Cu33  1  0.61213500  0.40910800  0.92468100  1
  Cu  Cu34  1  0.88786500  0.90910800  0.92468100  1
  Cu  Cu35  1  0.11213500  0.09089200  0.07531900  1
  Cu  Cu36  1  0.67095300  0.61644100  0.98448400  1
  Cu  Cu37  1  0.32904700  0.38355900  0.01551600  1
  Cu  Cu38  1  0.17095300  0.88355900  0.01551600  1
  Cu  Cu39  1  0.82904700  0.11644100  0.98448400  1
  Cu  Cu40  1  0.88839900  0.89998400  0.13075900  1
  Cu  Cu41  1  0.11160100  0.10001600  0.86924100  1
  Cu  Cu42  1  0.38839900  0.60001600  0.86924100  1
  Cu  Cu43  1  0.61160100  0.39998400  0.13075900  1
  Cu  Cu44  1  0.59091200  0.75695100  0.35537400  1
  Cu  Cu45  1  0.40908800  0.24304900  0.64462600  1
  Cu  Cu46  1  0.09091200  0.74304900  0.64462600  1
  Cu  Cu47  1  0.90908800  0.25695100  0.35537400  1
  Cu  Cu48  1  0.95571800  0.64553200  0.39085800  1
  Cu  Cu49  1  0.04428200  0.35446800  0.60914200  1
  Cu  Cu50  1  0.45571800  0.85446800  0.60914200  1
  Cu  Cu51  1  0.54428200  0.14553200  0.39085800  1
  Cu  Cu52  1  0.43569000  0.94700700  0.38048400  1
  Cu  Cu53  1  0.56431000  0.05299300  0.61951600  1
  Cu  Cu54  1  0.93569000  0.55299300  0.61951600  1
  Cu  Cu55  1  0.06431000  0.44700700  0.38048400  1
