# generated using pymatgen
data_Cu2NiC2
_symmetry_space_group_name_H-M   'P 1'
_cell_length_a   10.77215900
_cell_length_b   3.66678800
_cell_length_c   12.73022100
_cell_angle_alpha   90.00000000
_cell_angle_beta   90.00000000
_cell_angle_gamma   90.00000000
_symmetry_Int_Tables_number   1
_chemical_formula_structural   Cu2NiC2
_chemical_formula_sum   'Cu8 Ni4 C8'
_cell_volume   502.83384264
_cell_formula_units_Z   4
loop_
 _symmetry_equiv_pos_site_id
 _symmetry_equiv_pos_as_xyz
  1  'x, y, z'
loop_
 _atom_site_type_symbol
 _atom_site_label
 _atom_site_symmetry_multiplicity
 _atom_site_fract_x
 _atom_site_fract_y
 _atom_site_fract_z
 _atom_site_occupancy
  Ni  Ni0  1  0.79446300  0.25000000  0.13980800  1
  Ni  Ni1  1  0.29446300  0.25000000  0.36019200  1
  Ni  Ni2  1  0.20553700  0.75000000  0.86019200  1
  Ni  Ni3  1  0.70553700  0.75000000  0.63980800  1
  Cu  Cu4  1  0.59584400  0.25000000  0.88177100  1
  Cu  Cu5  1  0.09584400  0.25000000  0.61822900  1
  Cu  Cu6  1  0.40415600  0.75000000  0.11822900  1
  Cu  Cu7  1  0.90415600  0.75000000  0.38177100  1
  Cu  Cu8  1  0.12351400  0.25000000  0.10297900  1
  Cu  Cu9  1  0.62351400  0.25000000  0.39702100  1
  Cu  Cu10  1  0.87648600  0.75000000  0.89702100  1
  Cu  Cu11  1  0.37648600  0.75000000  0.60297900  1
  C  C12  1  0.80689300  0.25000000  0.30170300  1
  C  C13  1  0.30689300  0.25000000  0.19829700  1
  C  C14  1  0.19310700  0.75000000  0.69829700  1
  C  C15  1  0.69310700  0.75000000  0.80170300  1
  C  C16  1  0.78158000  0.25000000  0.97775700  1
  C  C17  1  0.28158000  0.25000000  0.52224300  1
  C  C18  1  0.21842000  0.75000000  0.02224300  1
  C  C19  1  0.71842000  0.75000000  0.47775700  1
