# generated using pymatgen
data_Cu6NiC9
_symmetry_space_group_name_H-M   'P 1'
_cell_length_a   5.17364200
_cell_length_b   8.54802500
_cell_length_c   16.27192200
_cell_angle_alpha   90.00000000
_cell_angle_beta   90.00000000
_cell_angle_gamma   90.00000000
_symmetry_Int_Tables_number   1
_chemical_formula_structural   Cu6NiC9
_chemical_formula_sum   'Cu24 Ni4 C36'
_cell_volume   719.61633156
_cell_formula_units_Z   4
loop_
 _symmetry_equiv_pos_site_id
 _symmetry_equiv_pos_as_xyz
  1  'x, y, z'
loop_
 _atom_site_type_symbol
 _atom_site_label
 _atom_site_symmetry_multiplicity
 _atom_site_fract_x
 _atom_site_fract_y
 _atom_site_fract_z
 _atom_site_occupancy
  Ni  Ni0  1  0.38146400  0.37597100  0.75000000  1
  Ni  Ni1  1  0.11853600  0.87597100  0.75000000  1
  Ni  Ni2  1  0.61853600  0.62402900  0.25000000  1
  Ni  Ni3  1  0.88146400  0.12402900  0.25000000  1
  Cu  Cu4  1  0.88088100  0.21248200  0.63900200  1
  Cu  Cu5  1  0.61911900  0.71248200  0.86099800  1
  Cu  Cu6  1  0.11911900  0.78751800  0.13900200  1
  Cu  Cu7  1  0.38088100  0.28751800  0.36099800  1
  Cu  Cu8  1  0.11911900  0.78751800  0.36099800  1
  Cu  Cu9  1  0.38088100  0.28751800  0.13900200  1
  Cu  Cu10  1  0.88088100  0.21248200  0.86099800  1
  Cu  Cu11  1  0.61911900  0.71248200  0.63900200  1
  Cu  Cu12  1  0.63693900  0.42755600  0.55786500  1
  Cu  Cu13  1  0.86306100  0.92755600  0.94213500  1
  Cu  Cu14  1  0.36306100  0.57244400  0.05786500  1
  Cu  Cu15  1  0.13693900  0.07244400  0.44213500  1
  Cu  Cu16  1  0.36306100  0.57244400  0.44213500  1
  Cu  Cu17  1  0.13693900  0.07244400  0.05786500  1
  Cu  Cu18  1  0.63693900  0.42755600  0.94213500  1
  Cu  Cu19  1  0.86306100  0.92755600  0.55786500  1
  Cu  Cu20  1  0.20328600  0.30112700  0.53755300  1
  Cu  Cu21  1  0.29671400  0.80112700  0.96244700  1
  Cu  Cu22  1  0.79671400  0.69887300  0.03755300  1
  Cu  Cu23  1  0.70328600  0.19887300  0.46244700  1
  Cu  Cu24  1  0.79671400  0.69887300  0.46244700  1
  Cu  Cu25  1  0.70328600  0.19887300  0.03755300  1
  Cu  Cu26  1  0.20328600  0.30112700  0.96244700  1
  Cu  Cu27  1  0.29671400  0.80112700  0.53755300  1
  C  C28  1  0.09343200  0.56963000  0.58731500  1
  C  C29  1  0.40656800  0.06963000  0.91268500  1
  C  C30  1  0.90656800  0.43037000  0.08731500  1
  C  C31  1  0.59343200  0.93037000  0.41268500  1
  C  C32  1  0.90656800  0.43037000  0.41268500  1
  C  C33  1  0.59343200  0.93037000  0.08731500  1
  C  C34  1  0.09343200  0.56963000  0.91268500  1
  C  C35  1  0.40656800  0.06963000  0.58731500  1
  C  C36  1  0.36059800  0.57664000  0.57161200  1
  C  C37  1  0.13940200  0.07664000  0.92838800  1
  C  C38  1  0.63940200  0.42336000  0.07161200  1
  C  C39  1  0.86059800  0.92336000  0.42838800  1
  C  C40  1  0.63940200  0.42336000  0.42838800  1
  C  C41  1  0.86059800  0.92336000  0.07161200  1
  C  C42  1  0.36059800  0.57664000  0.92838800  1
  C  C43  1  0.13940200  0.07664000  0.57161200  1
  C  C44  1  0.97648000  0.42997900  0.60650200  1
  C  C45  1  0.52352000  0.92997900  0.89349800  1
  C  C46  1  0.02352000  0.57002100  0.10650200  1
  C  C47  1  0.47648000  0.07002100  0.39349800  1
  C  C48  1  0.02352000  0.57002100  0.39349800  1
  C  C49  1  0.47648000  0.07002100  0.10650200  1
  C  C50  1  0.97648000  0.42997900  0.89349800  1
  C  C51  1  0.52352000  0.92997900  0.60650200  1
  C  C52  1  0.54714900  0.20838500  0.57744100  1
  C  C53  1  0.95285100  0.70838500  0.92255900  1
  C  C54  1  0.45285100  0.79161500  0.07744100  1
  C  C55  1  0.04714900  0.29161500  0.42255900  1
  C  C56  1  0.45285100  0.79161500  0.42255900  1
  C  C57  1  0.04714900  0.29161500  0.07744100  1
  C  C58  1  0.54714900  0.20838500  0.92255900  1
  C  C59  1  0.95285100  0.70838500  0.57744100  1
  C  C60  1  0.59014400  0.67988400  0.75000000  1
  C  C61  1  0.90985600  0.17988400  0.75000000  1
  C  C62  1  0.40985600  0.32011600  0.25000000  1
  C  C63  1  0.09014400  0.82011600  0.25000000  1
