# generated using pymatgen
data_Cu2NiC6
_symmetry_space_group_name_H-M   'P 1'
_cell_length_a   5.44789500
_cell_length_b   14.66248610
_cell_length_c   14.66248610
_cell_angle_alpha   113.91076317
_cell_angle_beta   90.00000000
_cell_angle_gamma   90.00000000
_symmetry_Int_Tables_number   1
_chemical_formula_structural   Cu2NiC6
_chemical_formula_sum   'Cu16 Ni8 C48'
_cell_volume   1070.71686030
_cell_formula_units_Z   8
loop_
 _symmetry_equiv_pos_site_id
 _symmetry_equiv_pos_as_xyz
  1  'x, y, z'
loop_
 _atom_site_type_symbol
 _atom_site_label
 _atom_site_symmetry_multiplicity
 _atom_site_fract_x
 _atom_site_fract_y
 _atom_site_fract_z
 _atom_site_occupancy
  Ni  Ni0  1  0.78077300  0.73939900  0.04087800  1
  Ni  Ni1  1  0.78077300  0.26060100  0.95912200  1
  Ni  Ni2  1  0.21922700  0.95912200  0.26060100  1
  Ni  Ni3  1  0.71922700  0.76060100  0.45912200  1
  Ni  Ni4  1  0.21922700  0.04087800  0.73939900  1
  Ni  Ni5  1  0.71922700  0.23939900  0.54087800  1
  Ni  Ni6  1  0.28077300  0.54087800  0.23939900  1
  Ni  Ni7  1  0.28077300  0.45912200  0.76060100  1
  Cu  Cu8  1  0.69973800  0.48298000  0.58120000  1
  Cu  Cu9  1  0.69973800  0.51702000  0.41880000  1
  Cu  Cu10  1  0.30026200  0.41880000  0.51702000  1
  Cu  Cu11  1  0.80026200  0.01702000  0.91880000  1
  Cu  Cu12  1  0.30026200  0.58120000  0.48298000  1
  Cu  Cu13  1  0.80026200  0.98298000  0.08120000  1
  Cu  Cu14  1  0.19973800  0.08120000  0.98298000  1
  Cu  Cu15  1  0.19973800  0.91880000  0.01702000  1
  Cu  Cu16  1  0.74386200  0.55994900  0.09777000  1
  Cu  Cu17  1  0.74386200  0.44005100  0.90223000  1
  Cu  Cu18  1  0.25613800  0.90223000  0.44005100  1
  Cu  Cu19  1  0.75613800  0.94005100  0.40223000  1
  Cu  Cu20  1  0.25613800  0.09777000  0.55994900  1
  Cu  Cu21  1  0.75613800  0.05994900  0.59777000  1
  Cu  Cu22  1  0.24386200  0.59777000  0.05994900  1
  Cu  Cu23  1  0.24386200  0.40223000  0.94005100  1
  C  C24  1  0.87950300  0.58323800  0.79973600  1
  C  C25  1  0.87950300  0.41676200  0.20026400  1
  C  C26  1  0.12049700  0.20026400  0.41676200  1
  C  C27  1  0.62049700  0.91676200  0.70026400  1
  C  C28  1  0.12049700  0.79973600  0.58323800  1
  C  C29  1  0.62049700  0.08323800  0.29973600  1
  C  C30  1  0.37950300  0.29973600  0.08323800  1
  C  C31  1  0.37950300  0.70026400  0.91676200  1
  C  C32  1  0.87741300  0.56023300  0.68413400  1
  C  C33  1  0.87741300  0.43976700  0.31586600  1
  C  C34  1  0.12258700  0.31586600  0.43976700  1
  C  C35  1  0.62258700  0.93976700  0.81586600  1
  C  C36  1  0.12258700  0.68413400  0.56023300  1
  C  C37  1  0.62258700  0.06023300  0.18413400  1
  C  C38  1  0.37741300  0.18413400  0.06023300  1
  C  C39  1  0.37741300  0.81586600  0.93976700  1
  C  C40  1  0.64828500  0.64865200  0.86619600  1
  C  C41  1  0.64828500  0.35134800  0.13380400  1
  C  C42  1  0.35171500  0.13380400  0.35134800  1
  C  C43  1  0.85171500  0.85134800  0.63380400  1
  C  C44  1  0.35171500  0.86619600  0.64865200  1
  C  C45  1  0.85171500  0.14865200  0.36619600  1
  C  C46  1  0.14828500  0.36619600  0.14865200  1
  C  C47  1  0.14828500  0.63380400  0.85134800  1
  C  C48  1  0.94773600  0.65911200  0.09984400  1
  C  C49  1  0.94773600  0.34088800  0.90015600  1
  C  C50  1  0.05226400  0.90015600  0.34088800  1
  C  C51  1  0.55226400  0.84088800  0.40015600  1
  C  C52  1  0.05226400  0.09984400  0.65911200  1
  C  C53  1  0.55226400  0.15911200  0.59984400  1
  C  C54  1  0.44773600  0.59984400  0.15911200  1
  C  C55  1  0.44773600  0.40015600  0.84088800  1
  C  C56  1  0.89086800  0.85051900  0.01654800  1
  C  C57  1  0.89086800  0.14948100  0.98345200  1
  C  C58  1  0.10913200  0.98345200  0.14948100  1
  C  C59  1  0.60913200  0.64948100  0.48345200  1
  C  C60  1  0.10913200  0.01654800  0.85051900  1
  C  C61  1  0.60913200  0.35051900  0.51654800  1
  C  C62  1  0.39086800  0.51654800  0.35051900  1
  C  C63  1  0.39086800  0.48345200  0.64948100  1
  C  C64  1  0.90946800  0.47551500  0.81104200  1
  C  C65  1  0.90946800  0.52448500  0.18895800  1
  C  C66  1  0.09053200  0.18895800  0.52448500  1
  C  C67  1  0.59053200  0.02448500  0.68895800  1
  C  C68  1  0.09053200  0.81104200  0.47551500  1
  C  C69  1  0.59053200  0.97551500  0.31104200  1
  C  C70  1  0.40946800  0.31104200  0.97551500  1
  C  C71  1  0.40946800  0.68895800  0.02448500  1
