# generated using pymatgen
data_Cu2(Ni2C7)3
_symmetry_space_group_name_H-M   'P 1'
_cell_length_a   14.84230675
_cell_length_b   14.84230675
_cell_length_c   14.84230671
_cell_angle_alpha   23.02531590
_cell_angle_beta   23.02531590
_cell_angle_gamma   23.02531476
_symmetry_Int_Tables_number   1
_chemical_formula_structural   Cu2(Ni2C7)3
_chemical_formula_sum   'Cu2 Ni6 C21'
_cell_volume   439.03324014
_cell_formula_units_Z   1
loop_
 _symmetry_equiv_pos_site_id
 _symmetry_equiv_pos_as_xyz
  1  'x, y, z'
loop_
 _atom_site_type_symbol
 _atom_site_label
 _atom_site_symmetry_multiplicity
 _atom_site_fract_x
 _atom_site_fract_y
 _atom_site_fract_z
 _atom_site_occupancy
  Ni  Ni0  1  0.63672800  0.63672800  0.63672800  1
  Ni  Ni1  1  0.36327200  0.36327200  0.36327200  1
  Ni  Ni2  1  0.81328200  0.81328200  0.81328200  1
  Ni  Ni3  1  0.18671800  0.18671800  0.18671800  1
  Ni  Ni4  1  0.91221800  0.91221800  0.91221800  1
  Ni  Ni5  1  0.08778200  0.08778200  0.08778200  1
  Cu  Cu6  1  0.72439900  0.72439900  0.72439900  1
  Cu  Cu7  1  0.27560100  0.27560100  0.27560100  1
  C  C8  1  0.55258500  0.55258500  0.55258500  1
  C  C9  1  0.44741500  0.44741500  0.44741500  1
  C  C10  1  0.00000000  0.00000000  0.00000000  1
  C  C11  1  0.13122500  0.13122500  0.65988100  1
  C  C12  1  0.65988100  0.13122500  0.13122500  1
  C  C13  1  0.13122500  0.65988100  0.13122500  1
  C  C14  1  0.86877500  0.34011900  0.86877500  1
  C  C15  1  0.86877500  0.86877500  0.34011900  1
  C  C16  1  0.34011900  0.86877500  0.86877500  1
  C  C17  1  0.57334500  0.57334500  0.10514600  1
  C  C18  1  0.10514600  0.57334500  0.57334500  1
  C  C19  1  0.57334500  0.10514600  0.57334500  1
  C  C20  1  0.42665500  0.89485400  0.42665500  1
  C  C21  1  0.42665500  0.42665500  0.89485400  1
  C  C22  1  0.78702100  0.31015800  0.31015800  1
  C  C23  1  0.31015800  0.31015800  0.78702100  1
  C  C24  1  0.31015800  0.78702100  0.31015800  1
  C  C25  1  0.68984200  0.21297900  0.68984200  1
  C  C26  1  0.21297900  0.68984200  0.68984200  1
  C  C27  1  0.68984200  0.68984200  0.21297900  1
  C  C28  1  0.89485400  0.42665500  0.42665500  1
