# generated using pymatgen
data_Cu2Ni8C7
_symmetry_space_group_name_H-M   'P 1'
_cell_length_a   16.22613346
_cell_length_b   16.22613346
_cell_length_c   16.22613346
_cell_angle_alpha   60.00000000
_cell_angle_beta   60.00000000
_cell_angle_gamma   60.00000000
_symmetry_Int_Tables_number   1
_chemical_formula_structural   Cu2Ni8C7
_chemical_formula_sum   'Cu16 Ni64 C56'
_cell_volume   3020.85676219
_cell_formula_units_Z   8
loop_
 _symmetry_equiv_pos_site_id
 _symmetry_equiv_pos_as_xyz
  1  'x, y, z'
loop_
 _atom_site_type_symbol
 _atom_site_label
 _atom_site_symmetry_multiplicity
 _atom_site_fract_x
 _atom_site_fract_y
 _atom_site_fract_z
 _atom_site_occupancy
  C  C0  1  0.87500000  0.37500000  0.37500000  1
  C  C1  1  0.37500000  0.87500000  0.37500000  1
  C  C2  1  0.37500000  0.37500000  0.87500000  1
  C  C3  1  0.37500000  0.37500000  0.37500000  1
  C  C4  1  0.37500000  0.87500000  0.87500000  1
  C  C5  1  0.87500000  0.87500000  0.37500000  1
  C  C6  1  0.87500000  0.37500000  0.87500000  1
  C  C7  1  0.87500000  0.87500000  0.87500000  1
  Ni  Ni8  1  0.35902800  0.21365700  0.21365700  1
  Ni  Ni9  1  0.21365700  0.35902800  0.21365700  1
  Ni  Ni10  1  0.21365700  0.21365700  0.35902800  1
  Ni  Ni11  1  0.21365700  0.21365700  0.21365700  1
  Ni  Ni12  1  0.39097200  0.53634300  0.53634300  1
  Ni  Ni13  1  0.53634300  0.39097200  0.53634300  1
  Ni  Ni14  1  0.53634300  0.53634300  0.39097200  1
  Ni  Ni15  1  0.53634300  0.53634300  0.53634300  1
  Ni  Ni16  1  0.85902800  0.71365700  0.71365700  1
  Ni  Ni17  1  0.71365700  0.71365700  0.85902800  1
  Ni  Ni18  1  0.71365700  0.85902800  0.71365700  1
  Ni  Ni19  1  0.71365700  0.71365700  0.71365700  1
  Ni  Ni20  1  0.89097200  0.03634300  0.03634300  1
  Ni  Ni21  1  0.03634300  0.03634300  0.89097200  1
  Ni  Ni22  1  0.03634300  0.89097200  0.03634300  1
  Ni  Ni23  1  0.03634300  0.03634300  0.03634300  1
  Ni  Ni24  1  0.54612200  0.91806000  0.07200600  1
  Ni  Ni25  1  0.91806000  0.54612200  0.46381200  1
  Ni  Ni26  1  0.07200600  0.46381200  0.54612200  1
  Ni  Ni27  1  0.46381200  0.07200600  0.91806000  1
  Ni  Ni28  1  0.91806000  0.07200600  0.54612200  1
  Ni  Ni29  1  0.54612200  0.46381200  0.91806000  1
  Ni  Ni30  1  0.46381200  0.54612200  0.07200600  1
  Ni  Ni31  1  0.07200600  0.91806000  0.46381200  1
  Ni  Ni32  1  0.07200600  0.54612200  0.91806000  1
  Ni  Ni33  1  0.46381200  0.91806000  0.54612200  1
  Ni  Ni34  1  0.54612200  0.07200600  0.46381200  1
  Ni  Ni35  1  0.91806000  0.46381200  0.07200600  1
  Ni  Ni36  1  0.20387800  0.83194000  0.67799400  1
  Ni  Ni37  1  0.83194000  0.20387800  0.28618800  1
  Ni  Ni38  1  0.67799400  0.28618800  0.20387800  1
  Ni  Ni39  1  0.28618800  0.67799400  0.83194000  1
  Ni  Ni40  1  0.83194000  0.67799400  0.20387800  1
  Ni  Ni41  1  0.20387800  0.28618800  0.83194000  1
  Ni  Ni42  1  0.28618800  0.20387800  0.67799400  1
  Ni  Ni43  1  0.67799400  0.83194000  0.28618800  1
  Ni  Ni44  1  0.67799400  0.20387800  0.83194000  1
  Ni  Ni45  1  0.28618800  0.83194000  0.20387800  1
  Ni  Ni46  1  0.20387800  0.67799400  0.28618800  1
  Ni  Ni47  1  0.83194000  0.28618800  0.67799400  1
  Ni  Ni48  1  0.04612200  0.57200600  0.41806000  1
  Ni  Ni49  1  0.41806000  0.96381200  0.04612200  1
  Ni  Ni50  1  0.57200600  0.04612200  0.96381200  1
  Ni  Ni51  1  0.96381200  0.41806000  0.57200600  1
  Ni  Ni52  1  0.41806000  0.04612200  0.57200600  1
  Ni  Ni53  1  0.04612200  0.41806000  0.96381200  1
  Ni  Ni54  1  0.96381200  0.57200600  0.04612200  1
  Ni  Ni55  1  0.57200600  0.96381200  0.41806000  1
  Ni  Ni56  1  0.57200600  0.41806000  0.04612200  1
  Ni  Ni57  1  0.96381200  0.04612200  0.41806000  1
  Ni  Ni58  1  0.04612200  0.96381200  0.57200600  1
  Ni  Ni59  1  0.41806000  0.57200600  0.96381200  1
  Ni  Ni60  1  0.70387800  0.17799400  0.33194000  1
  Ni  Ni61  1  0.33194000  0.78618800  0.70387800  1
  Ni  Ni62  1  0.17799400  0.70387800  0.78618800  1
  Ni  Ni63  1  0.78618800  0.33194000  0.17799400  1
  Ni  Ni64  1  0.33194000  0.70387800  0.17799400  1
  Ni  Ni65  1  0.70387800  0.33194000  0.78618800  1
  Ni  Ni66  1  0.78618800  0.17799400  0.70387800  1
  Ni  Ni67  1  0.17799400  0.78618800  0.33194000  1
  Ni  Ni68  1  0.17799400  0.33194000  0.70387800  1
  Ni  Ni69  1  0.78618800  0.70387800  0.33194000  1
  Ni  Ni70  1  0.70387800  0.78618800  0.17799400  1
  Ni  Ni71  1  0.33194000  0.17799400  0.78618800  1
  Cu  Cu72  1  0.25000000  0.25000000  0.25000000  1
  Cu  Cu73  1  0.50000000  0.50000000  0.50000000  1
  Cu  Cu74  1  0.75000000  0.75000000  0.75000000  1
  Cu  Cu75  1  0.00000000  0.00000000  0.00000000  1
  Cu  Cu76  1  0.50000000  0.50000000  0.00000000  1
  Cu  Cu77  1  0.00000000  0.00000000  0.50000000  1
  Cu  Cu78  1  0.50000000  0.00000000  0.50000000  1
  Cu  Cu79  1  0.00000000  0.50000000  0.00000000  1
  Cu  Cu80  1  0.00000000  0.50000000  0.50000000  1
  Cu  Cu81  1  0.50000000  0.00000000  0.00000000  1
  Cu  Cu82  1  0.25000000  0.25000000  0.75000000  1
  Cu  Cu83  1  0.75000000  0.75000000  0.25000000  1
  Cu  Cu84  1  0.25000000  0.75000000  0.25000000  1
  Cu  Cu85  1  0.75000000  0.25000000  0.75000000  1
  Cu  Cu86  1  0.75000000  0.25000000  0.25000000  1
  Cu  Cu87  1  0.25000000  0.75000000  0.75000000  1
  C  C88  1  0.98815500  0.47292400  0.30318000  1
  C  C89  1  0.47292400  0.98815500  0.23574100  1
  C  C90  1  0.30318000  0.23574100  0.98815500  1
  C  C91  1  0.23574100  0.30318000  0.47292400  1
  C  C92  1  0.47292400  0.30318000  0.98815500  1
  C  C93  1  0.98815500  0.23574100  0.47292400  1
  C  C94  1  0.23574100  0.98815500  0.30318000  1
  C  C95  1  0.30318000  0.47292400  0.23574100  1
  C  C96  1  0.30318000  0.98815500  0.47292400  1
  C  C97  1  0.23574100  0.47292400  0.98815500  1
  C  C98  1  0.98815500  0.30318000  0.23574100  1
  C  C99  1  0.47292400  0.23574100  0.30318000  1
  C  C100  1  0.76184500  0.27707600  0.44682000  1
  C  C101  1  0.27707600  0.76184500  0.51425900  1
  C  C102  1  0.44682000  0.51425900  0.76184500  1
  C  C103  1  0.51425900  0.44682000  0.27707600  1
  C  C104  1  0.27707600  0.44682000  0.76184500  1
  C  C105  1  0.76184500  0.51425900  0.27707600  1
  C  C106  1  0.51425900  0.76184500  0.44682000  1
  C  C107  1  0.44682000  0.27707600  0.51425900  1
  C  C108  1  0.44682000  0.76184500  0.27707600  1
  C  C109  1  0.51425900  0.27707600  0.76184500  1
  C  C110  1  0.76184500  0.44682000  0.51425900  1
  C  C111  1  0.27707600  0.51425900  0.44682000  1
  C  C112  1  0.48815500  0.80318000  0.97292400  1
  C  C113  1  0.97292400  0.73574100  0.48815500  1
  C  C114  1  0.80318000  0.48815500  0.73574100  1
  C  C115  1  0.73574100  0.97292400  0.80318000  1
  C  C116  1  0.97292400  0.48815500  0.80318000  1
  C  C117  1  0.48815500  0.97292400  0.73574100  1
  C  C118  1  0.73574100  0.80318000  0.48815500  1
  C  C119  1  0.80318000  0.73574100  0.97292400  1
  C  C120  1  0.80318000  0.97292400  0.48815500  1
  C  C121  1  0.73574100  0.48815500  0.97292400  1
  C  C122  1  0.48815500  0.73574100  0.80318000  1
  C  C123  1  0.97292400  0.80318000  0.73574100  1
  C  C124  1  0.26184500  0.94682000  0.77707600  1
  C  C125  1  0.77707600  0.01425900  0.26184500  1
  C  C126  1  0.94682000  0.26184500  0.01425900  1
  C  C127  1  0.01425900  0.77707600  0.94682000  1
  C  C128  1  0.77707600  0.26184500  0.94682000  1
  C  C129  1  0.26184500  0.77707600  0.01425900  1
  C  C130  1  0.01425900  0.94682000  0.26184500  1
  C  C131  1  0.94682000  0.01425900  0.77707600  1
  C  C132  1  0.94682000  0.77707600  0.26184500  1
  C  C133  1  0.01425900  0.26184500  0.77707600  1
  C  C134  1  0.26184500  0.01425900  0.94682000  1
  C  C135  1  0.77707600  0.94682000  0.01425900  1
