# generated using pymatgen
data_CuNi2C17
_symmetry_space_group_name_H-M   'P 1'
_cell_length_a   7.53369441
_cell_length_b   7.53369441
_cell_length_c   14.95463993
_cell_angle_alpha   88.02960732
_cell_angle_beta   88.02960732
_cell_angle_gamma   41.76826724
_symmetry_Int_Tables_number   1
_chemical_formula_structural   CuNi2C17
_chemical_formula_sum   'Cu2 Ni4 C34'
_cell_volume   565.00178907
_cell_formula_units_Z   2
loop_
 _symmetry_equiv_pos_site_id
 _symmetry_equiv_pos_as_xyz
  1  'x, y, z'
loop_
 _atom_site_type_symbol
 _atom_site_label
 _atom_site_symmetry_multiplicity
 _atom_site_fract_x
 _atom_site_fract_y
 _atom_site_fract_z
 _atom_site_occupancy
  Ni  Ni0  1  0.63081700  0.74606000  0.88020700  1
  Ni  Ni1  1  0.36918300  0.25394000  0.11979300  1
  Ni  Ni2  1  0.25394000  0.36918300  0.61979300  1
  Ni  Ni3  1  0.74606000  0.63081700  0.38020700  1
  Cu  Cu4  1  0.92849500  0.07150500  0.75000000  1
  Cu  Cu5  1  0.07150500  0.92849500  0.25000000  1
  C  C6  1  0.60519600  0.63624600  0.62435300  1
  C  C7  1  0.39480400  0.36375400  0.37564700  1
  C  C8  1  0.36375400  0.39480400  0.87564700  1
  C  C9  1  0.63624600  0.60519600  0.12435300  1
  C  C10  1  0.00000000  0.00000000  0.50000000  1
  C  C11  1  0.00000000  0.00000000  0.00000000  1
  C  C12  1  0.88318500  0.00571100  0.11547700  1
  C  C13  1  0.11681500  0.99428900  0.88452300  1
  C  C14  1  0.99428900  0.11681500  0.38452300  1
  C  C15  1  0.00571100  0.88318500  0.61547700  1
  C  C16  1  0.63753000  0.09311700  0.95299100  1
  C  C17  1  0.36247000  0.90688300  0.04700900  1
  C  C18  1  0.90688300  0.36247000  0.54700900  1
  C  C19  1  0.09311700  0.63753000  0.45299100  1
  C  C20  1  0.38207000  0.78453500  0.51920300  1
  C  C21  1  0.61793000  0.21546500  0.48079700  1
  C  C22  1  0.21546500  0.61793000  0.98079700  1
  C  C23  1  0.78453500  0.38207000  0.01920300  1
  C  C24  1  0.33114700  0.91093300  0.70491400  1
  C  C25  1  0.66885300  0.08906700  0.29508600  1
  C  C26  1  0.08906700  0.66885300  0.79508600  1
  C  C27  1  0.91093300  0.33114700  0.20491400  1
  C  C28  1  0.57004900  0.41858100  0.65600500  1
  C  C29  1  0.42995100  0.58141900  0.34399500  1
  C  C30  1  0.58141900  0.42995100  0.84399500  1
  C  C31  1  0.41858100  0.57004900  0.15600500  1
  C  C32  1  0.54234000  0.13810200  0.77760000  1
  C  C33  1  0.45766000  0.86189800  0.22240000  1
  C  C34  1  0.86189800  0.45766000  0.72240000  1
  C  C35  1  0.13810200  0.54234000  0.27760000  1
  C  C36  1  0.67248600  0.82740800  0.59174100  1
  C  C37  1  0.32751400  0.17259200  0.40825900  1
  C  C38  1  0.17259200  0.32751400  0.90825900  1
  C  C39  1  0.82740800  0.67248600  0.09174100  1
