# generated using pymatgen
data_Cu2Ni2C9
_symmetry_space_group_name_H-M   'P 1'
_cell_length_a   4.84656886
_cell_length_b   4.84656886
_cell_length_c   14.21809000
_cell_angle_alpha   90.00000000
_cell_angle_beta   90.00000000
_cell_angle_gamma   120.00001171
_symmetry_Int_Tables_number   1
_chemical_formula_structural   Cu2Ni2C9
_chemical_formula_sum   'Cu4 Ni4 C18'
_cell_volume   289.22818630
_cell_formula_units_Z   2
loop_
 _symmetry_equiv_pos_site_id
 _symmetry_equiv_pos_as_xyz
  1  'x, y, z'
loop_
 _atom_site_type_symbol
 _atom_site_label
 _atom_site_symmetry_multiplicity
 _atom_site_fract_x
 _atom_site_fract_y
 _atom_site_fract_z
 _atom_site_occupancy
  Ni  Ni0  1  0.00000000  0.00000000  0.65879700  1
  Ni  Ni1  1  0.00000000  0.00000000  0.15879700  1
  Ni  Ni2  1  0.00000000  0.00000000  0.84120300  1
  Ni  Ni3  1  0.00000000  0.00000000  0.34120300  1
  Cu  Cu4  1  0.33333300  0.66666700  0.00000000  1
  Cu  Cu5  1  0.33333300  0.66666700  0.50000000  1
  Cu  Cu6  1  0.66666700  0.33333300  0.00000000  1
  Cu  Cu7  1  0.66666700  0.33333300  0.50000000  1
  C  C8  1  0.64490200  0.64490200  0.57455300  1
  C  C9  1  0.00000000  0.70002800  0.75000000  1
  C  C10  1  0.64490200  0.00000000  0.42544700  1
  C  C11  1  0.35509800  0.35509800  0.42544700  1
  C  C12  1  0.00000000  0.35509800  0.57455300  1
  C  C13  1  0.70002800  0.70002800  0.25000000  1
  C  C14  1  0.00000000  0.35509800  0.92544700  1
  C  C15  1  0.35509800  0.00000000  0.57455300  1
  C  C16  1  0.35509800  0.35509800  0.07455300  1
  C  C17  1  0.00000000  0.64490200  0.42544700  1
  C  C18  1  0.64490200  0.64490200  0.92544700  1
  C  C19  1  0.64490200  0.00000000  0.07455300  1
  C  C20  1  0.70002800  0.00000000  0.75000000  1
  C  C21  1  0.29997200  0.29997200  0.75000000  1
  C  C22  1  0.29997200  0.00000000  0.25000000  1
  C  C23  1  0.00000000  0.64490200  0.07455300  1
  C  C24  1  0.00000000  0.29997200  0.25000000  1
  C  C25  1  0.35509800  0.00000000  0.92544700  1
