# generated using pymatgen
data_CuNiC
_symmetry_space_group_name_H-M   'P 1'
_cell_length_a   3.83366800
_cell_length_b   3.85172600
_cell_length_c   17.03214100
_cell_angle_alpha   90.00000000
_cell_angle_beta   90.00000000
_cell_angle_gamma   90.00000000
_symmetry_Int_Tables_number   1
_chemical_formula_structural   CuNiC
_chemical_formula_sum   'Cu4 Ni4 C4'
_cell_volume   251.50065976
_cell_formula_units_Z   4
loop_
 _symmetry_equiv_pos_site_id
 _symmetry_equiv_pos_as_xyz
  1  'x, y, z'
loop_
 _atom_site_type_symbol
 _atom_site_label
 _atom_site_symmetry_multiplicity
 _atom_site_fract_x
 _atom_site_fract_y
 _atom_site_fract_z
 _atom_site_occupancy
  C  C0  1  0.25000000  0.77120900  0.14567300  1
  C  C1  1  0.25000000  0.72879100  0.64567300  1
  C  C2  1  0.75000000  0.22879100  0.85432700  1
  C  C3  1  0.75000000  0.27120900  0.35432700  1
  Ni  Ni4  1  0.75000000  0.78079000  0.49827500  1
  Ni  Ni5  1  0.75000000  0.71921000  0.99827500  1
  Ni  Ni6  1  0.25000000  0.21921000  0.50172500  1
  Ni  Ni7  1  0.25000000  0.28079000  0.00172500  1
  Cu  Cu8  1  0.25000000  0.76969400  0.31314100  1
  Cu  Cu9  1  0.25000000  0.73030600  0.81314100  1
  Cu  Cu10  1  0.75000000  0.23030600  0.68685900  1
  Cu  Cu11  1  0.75000000  0.26969400  0.18685900  1
