# generated using pymatgen
data_CuNiC5
_symmetry_space_group_name_H-M   'P 1'
_cell_length_a   7.79822892
_cell_length_b   7.79822892
_cell_length_c   10.10780062
_cell_angle_alpha   78.71234358
_cell_angle_beta   78.71234358
_cell_angle_gamma   51.84766572
_symmetry_Int_Tables_number   1
_chemical_formula_structural   CuNiC5
_chemical_formula_sum   'Cu4 Ni4 C20'
_cell_volume   471.77999804
_cell_formula_units_Z   4
loop_
 _symmetry_equiv_pos_site_id
 _symmetry_equiv_pos_as_xyz
  1  'x, y, z'
loop_
 _atom_site_type_symbol
 _atom_site_label
 _atom_site_symmetry_multiplicity
 _atom_site_fract_x
 _atom_site_fract_y
 _atom_site_fract_z
 _atom_site_occupancy
  Ni  Ni0  1  0.00000000  0.50000000  0.50000000  1
  Ni  Ni1  1  0.50000000  0.00000000  0.00000000  1
  Ni  Ni2  1  0.24556200  0.75443800  0.25000000  1
  Ni  Ni3  1  0.75443800  0.24556200  0.75000000  1
  Cu  Cu4  1  0.65977800  0.17185800  0.43085900  1
  Cu  Cu5  1  0.82814200  0.34022200  0.06914100  1
  Cu  Cu6  1  0.34022200  0.82814200  0.56914100  1
  Cu  Cu7  1  0.17185800  0.65977800  0.93085900  1
  C  C8  1  0.02915500  0.44196500  0.32855300  1
  C  C9  1  0.55803500  0.97084500  0.17144700  1
  C  C10  1  0.97084500  0.55803500  0.67144700  1
  C  C11  1  0.44196500  0.02915500  0.82855300  1
  C  C12  1  0.13908000  0.63491100  0.44006200  1
  C  C13  1  0.36508900  0.86092000  0.05993800  1
  C  C14  1  0.86092000  0.36508900  0.55993800  1
  C  C15  1  0.63491100  0.13908000  0.94006200  1
  C  C16  1  0.73185900  0.76803700  0.47160100  1
  C  C17  1  0.23196300  0.26814100  0.02839900  1
  C  C18  1  0.26814100  0.23196300  0.52839900  1
  C  C19  1  0.76803700  0.73185900  0.97160100  1
  C  C20  1  0.98883800  0.88554500  0.16998200  1
  C  C21  1  0.11445500  0.01116200  0.33001800  1
  C  C22  1  0.01116200  0.11445500  0.83001800  1
  C  C23  1  0.88554500  0.98883800  0.66998200  1
  C  C24  1  0.37726700  0.49653800  0.17132800  1
  C  C25  1  0.50346200  0.62273300  0.32867200  1
  C  C26  1  0.62273300  0.50346200  0.82867200  1
  C  C27  1  0.49653800  0.37726700  0.67132800  1
