# generated using pymatgen
data_CuNi8C19
_symmetry_space_group_name_H-M   'P 1'
_cell_length_a   7.37270100
_cell_length_b   7.37270100
_cell_length_c   10.42238800
_cell_angle_alpha   90.00000000
_cell_angle_beta   90.00000000
_cell_angle_gamma   90.00000000
_symmetry_Int_Tables_number   1
_chemical_formula_structural   CuNi8C19
_chemical_formula_sum   'Cu1 Ni8 C19'
_cell_volume   566.52682662
_cell_formula_units_Z   1
loop_
 _symmetry_equiv_pos_site_id
 _symmetry_equiv_pos_as_xyz
  1  'x, y, z'
loop_
 _atom_site_type_symbol
 _atom_site_label
 _atom_site_symmetry_multiplicity
 _atom_site_fract_x
 _atom_site_fract_y
 _atom_site_fract_z
 _atom_site_occupancy
  Ni  Ni0  1  0.25049500  0.50000000  0.12356700  1
  Ni  Ni1  1  0.75293000  0.00000000  0.62466300  1
  Ni  Ni2  1  0.74950500  0.50000000  0.12356700  1
  Ni  Ni3  1  0.24707000  0.00000000  0.62466300  1
  Ni  Ni4  1  0.00000000  0.24707000  0.37533700  1
  Ni  Ni5  1  0.50000000  0.74950500  0.87643300  1
  Ni  Ni6  1  0.50000000  0.25049500  0.87643300  1
  Ni  Ni7  1  0.00000000  0.75293000  0.37533700  1
  Cu  Cu8  1  0.50000000  0.50000000  0.50000000  1
  C  C9  1  0.00000000  0.00000000  0.00000000  1
  C  C10  1  0.50000000  0.00000000  0.24989500  1
  C  C11  1  0.00000000  0.50000000  0.75010500  1
  C  C12  1  0.76227300  0.50000000  0.36868300  1
  C  C13  1  0.26594900  0.00000000  0.86676200  1
  C  C14  1  0.23772700  0.50000000  0.36868300  1
  C  C15  1  0.73405100  0.00000000  0.86676200  1
  C  C16  1  0.50000000  0.23772700  0.63131700  1
  C  C17  1  0.00000000  0.73405100  0.13323800  1
  C  C18  1  0.50000000  0.76227300  0.63131700  1
  C  C19  1  0.00000000  0.26594900  0.13323800  1
  C  C20  1  0.23458800  0.00000000  0.38262300  1
  C  C21  1  0.73479500  0.50000000  0.88288600  1
  C  C22  1  0.76541200  0.00000000  0.38262300  1
  C  C23  1  0.26520500  0.50000000  0.88288600  1
  C  C24  1  0.50000000  0.26520500  0.11711400  1
  C  C25  1  0.00000000  0.76541200  0.61737700  1
  C  C26  1  0.50000000  0.73479500  0.11711400  1
  C  C27  1  0.00000000  0.23458800  0.61737700  1
