# generated using pymatgen
data_Cu(NiC12)3
_symmetry_space_group_name_H-M   'P 1'
_cell_length_a   7.70403825
_cell_length_b   7.70403825
_cell_length_c   21.78964397
_cell_angle_alpha   90.00000000
_cell_angle_beta   90.00000000
_cell_angle_gamma   90.00000000
_symmetry_Int_Tables_number   1
_chemical_formula_structural   Cu(NiC12)3
_chemical_formula_sum   'Cu1 Ni3 C36'
_cell_volume   1293.26342400
_cell_formula_units_Z   1
loop_
 _symmetry_equiv_pos_site_id
 _symmetry_equiv_pos_as_xyz
  1  'x, y, z'
loop_
 _atom_site_type_symbol
 _atom_site_label
 _atom_site_symmetry_multiplicity
 _atom_site_fract_x
 _atom_site_fract_y
 _atom_site_fract_z
 _atom_site_occupancy
  C  C0  1  0.00000000  0.50000000  0.62498618  1
  C  C1  1  0.50000000  -0.00000000  0.87506612  1
  C  C2  1  -0.00000000  0.50000000  0.12493388  1
  C  C3  1  0.50000000  -0.00000000  0.37501382  1
  C  C4  1  0.00000000  0.50000000  0.87506612  1
  C  C5  1  0.50000000  0.00000000  0.12493388  1
  C  C6  1  -0.00000000  0.50000000  0.37501382  1
  C  C7  1  0.50000000  0.00000000  0.62498618  1
  C  C8  1  0.00000000  -0.00000000  0.75010185  1
  C  C9  1  0.50000000  0.50000000  -0.00000000  1
  C  C10  1  -0.00000000  -0.00000000  0.24989815  1
  C  C11  1  0.50000000  0.50000000  0.50000000  1
  Ni  Ni12  1  0.50000000  0.50000000  0.25000036  1
  Ni  Ni13  1  -0.00000000  -0.00000000  0.50000000  1
  Ni  Ni14  1  0.50000000  0.50000000  0.74999964  1
  Cu  Cu15  1  -0.00000000  -0.00000000  -0.00000000  1
  C  C16  1  -0.00000000  0.00000000  0.62145672  1
  C  C17  1  0.50000000  0.50000000  0.87153803  1
  C  C18  1  -0.00000000  0.00000000  0.12060883  1
  C  C19  1  0.50000000  0.50000000  0.37145280  1
  C  C20  1  0.25706631  0.25706631  0.75000178  1
  C  C21  1  0.75867984  0.75867984  -0.00000000  1
  C  C22  1  0.25706631  0.25706631  0.24999822  1
  C  C23  1  0.75706205  0.75706205  0.50000000  1
  C  C24  1  0.74293369  0.25706631  0.75000178  1
  C  C25  1  0.24132016  0.75867984  -0.00000000  1
  C  C26  1  0.74293369  0.25706631  0.24999822  1
  C  C27  1  0.24293795  0.75706205  0.50000000  1
  C  C28  1  0.00000000  0.00000000  0.87939117  1
  C  C29  1  0.50000000  0.50000000  0.12846197  1
  C  C30  1  0.00000000  0.00000000  0.37854328  1
  C  C31  1  0.50000000  0.50000000  0.62854720  1
  C  C32  1  0.74293369  0.74293369  0.75000178  1
  C  C33  1  0.24132016  0.24132016  -0.00000000  1
  C  C34  1  0.74293369  0.74293369  0.24999822  1
  C  C35  1  0.24293795  0.24293795  0.50000000  1
  C  C36  1  0.25706631  0.74293369  0.75000178  1
  C  C37  1  0.75867984  0.24132016  -0.00000000  1
  C  C38  1  0.25706631  0.74293369  0.24999822  1
  C  C39  1  0.75706205  0.24293795  0.50000000  1
