# generated using pymatgen
data_Cu4Ni2C3
_symmetry_space_group_name_H-M   'P 1'
_cell_length_a   5.67766642
_cell_length_b   5.67766642
_cell_length_c   7.99005210
_cell_angle_alpha   73.65135946
_cell_angle_beta   73.65135946
_cell_angle_gamma   43.13172995
_symmetry_Int_Tables_number   1
_chemical_formula_structural   Cu4Ni2C3
_chemical_formula_sum   'Cu4 Ni2 C3'
_cell_volume   167.83302196
_cell_formula_units_Z   1
loop_
 _symmetry_equiv_pos_site_id
 _symmetry_equiv_pos_as_xyz
  1  'x, y, z'
loop_
 _atom_site_type_symbol
 _atom_site_label
 _atom_site_symmetry_multiplicity
 _atom_site_fract_x
 _atom_site_fract_y
 _atom_site_fract_z
 _atom_site_occupancy
  C  C0  1  0.37643900  0.37643900  0.69259100  1
  C  C1  1  0.62356100  0.62356100  0.30740900  1
  C  C2  1  0.00000000  0.00000000  0.00000000  1
  Ni  Ni3  1  0.31000800  0.31000800  0.37033800  1
  Ni  Ni4  1  0.68999200  0.68999200  0.62966200  1
  Cu  Cu5  1  0.09726600  0.09726600  0.59969800  1
  Cu  Cu6  1  0.90273400  0.90273400  0.40030200  1
  Cu  Cu7  1  0.70952400  0.70952400  0.92027100  1
  Cu  Cu8  1  0.29047600  0.29047600  0.07972900  1
