# generated using pymatgen
data_Cu13(NiC)6
_symmetry_space_group_name_H-M   'P 1'
_cell_length_a   8.82868500
_cell_length_b   9.17245800
_cell_length_c   15.59310700
_cell_angle_alpha   90.00000000
_cell_angle_beta   90.00000000
_cell_angle_gamma   90.00000000
_symmetry_Int_Tables_number   1
_chemical_formula_structural   Cu13(NiC)6
_chemical_formula_sum   'Cu52 Ni24 C24'
_cell_volume   1262.74138052
_cell_formula_units_Z   4
loop_
 _symmetry_equiv_pos_site_id
 _symmetry_equiv_pos_as_xyz
  1  'x, y, z'
loop_
 _atom_site_type_symbol
 _atom_site_label
 _atom_site_symmetry_multiplicity
 _atom_site_fract_x
 _atom_site_fract_y
 _atom_site_fract_z
 _atom_site_occupancy
  C  C0  1  0.41264600  0.99848100  0.58309100  1
  C  C1  1  0.58735400  0.00151900  0.08309100  1
  C  C2  1  0.08735400  0.49848100  0.08309100  1
  C  C3  1  0.91264600  0.50151900  0.58309100  1
  C  C4  1  0.61296000  0.74627300  0.78144700  1
  C  C5  1  0.38704000  0.25372700  0.28144700  1
  C  C6  1  0.88704000  0.24627300  0.28144700  1
  C  C7  1  0.11296000  0.75372700  0.78144700  1
  C  C8  1  0.36014700  0.65783400  0.88577000  1
  C  C9  1  0.63985300  0.34216600  0.38577000  1
  C  C10  1  0.13985300  0.15783400  0.38577000  1
  C  C11  1  0.86014700  0.84216600  0.88577000  1
  C  C12  1  0.36562200  0.82699200  0.89418000  1
  C  C13  1  0.63437800  0.17300800  0.39418000  1
  C  C14  1  0.13437800  0.32699200  0.39418000  1
  C  C15  1  0.86562200  0.67300800  0.89418000  1
  C  C16  1  0.90619700  0.99404200  0.58592500  1
  C  C17  1  0.09380300  0.00595800  0.08592500  1
  C  C18  1  0.59380300  0.49404200  0.08592500  1
  C  C19  1  0.40619700  0.50595800  0.58592500  1
  C  C20  1  0.48100500  0.78923000  0.32968100  1
  C  C21  1  0.51899500  0.21077000  0.82968100  1
  C  C22  1  0.01899500  0.28923000  0.82968100  1
  C  C23  1  0.98100500  0.71077000  0.32968100  1
  Ni  Ni24  1  0.44768900  0.86024900  0.40614200  1
  Ni  Ni25  1  0.55231100  0.13975100  0.90614200  1
  Ni  Ni26  1  0.05231100  0.36024900  0.90614200  1
  Ni  Ni27  1  0.94768900  0.63975100  0.40614200  1
  Ni  Ni28  1  0.06645700  0.99420800  0.58234800  1
  Ni  Ni29  1  0.93354300  0.00579200  0.08234800  1
  Ni  Ni30  1  0.43354300  0.49420800  0.08234800  1
  Ni  Ni31  1  0.56645700  0.50579200  0.58234800  1
  Ni  Ni32  1  0.52423200  0.86074400  0.25476600  1
  Ni  Ni33  1  0.47576800  0.13925600  0.75476600  1
  Ni  Ni34  1  0.97576800  0.36074400  0.75476600  1
  Ni  Ni35  1  0.02423200  0.63925600  0.25476600  1
  Ni  Ni36  1  0.83334700  0.89249500  0.63937200  1
  Ni  Ni37  1  0.16665300  0.10750500  0.13937200  1
  Ni  Ni38  1  0.66665300  0.39249500  0.13937200  1
  Ni  Ni39  1  0.33334700  0.60750500  0.63937200  1
  Ni  Ni40  1  0.48251200  0.63054000  0.32922400  1
  Ni  Ni41  1  0.51748800  0.36946000  0.82922400  1
  Ni  Ni42  1  0.01748800  0.13054000  0.82922400  1
  Ni  Ni43  1  0.98251200  0.86946000  0.32922400  1
  Ni  Ni44  1  0.82490600  0.09199400  0.53228600  1
  Ni  Ni45  1  0.17509400  0.90800600  0.03228600  1
  Ni  Ni46  1  0.67509400  0.59199400  0.03228600  1
  Ni  Ni47  1  0.32490600  0.40800600  0.53228600  1
  Cu  Cu48  1  0.43708700  0.78326600  0.47314400  1
  Cu  Cu49  1  0.56291300  0.21673400  0.97314400  1
  Cu  Cu50  1  0.06291300  0.28326600  0.97314400  1
  Cu  Cu51  1  0.93708700  0.71673400  0.47314400  1
  Cu  Cu52  1  0.43010400  0.99603200  0.40851500  1
  Cu  Cu53  1  0.56989600  0.00396800  0.90851500  1
  Cu  Cu54  1  0.06989600  0.49603200  0.90851500  1
  Cu  Cu55  1  0.93010400  0.50396800  0.40851500  1
  Cu  Cu56  1  0.14078100  0.96066600  0.64825300  1
  Cu  Cu57  1  0.85921900  0.03933400  0.14825300  1
  Cu  Cu58  1  0.35921900  0.46066600  0.14825300  1
  Cu  Cu59  1  0.64078100  0.53933400  0.64825300  1
  Cu  Cu60  1  0.55905900  0.99301400  0.25561800  1
  Cu  Cu61  1  0.44094100  0.00698600  0.75561800  1
  Cu  Cu62  1  0.94094100  0.49301400  0.75561800  1
  Cu  Cu63  1  0.05905900  0.50698600  0.25561800  1
  Cu  Cu64  1  0.13167000  0.02840200  0.51401400  1
  Cu  Cu65  1  0.86833000  0.97159800  0.01401400  1
  Cu  Cu66  1  0.36833000  0.52840200  0.01401400  1
  Cu  Cu67  1  0.63167000  0.47159800  0.51401400  1
  Cu  Cu68  1  0.60130200  0.56987300  0.30579500  1
  Cu  Cu69  1  0.39869800  0.43012700  0.80579500  1
  Cu  Cu70  1  0.89869800  0.06987300  0.80579500  1
  Cu  Cu71  1  0.10130200  0.93012700  0.30579500  1
  Cu  Cu72  1  0.90475600  0.78145700  0.66330900  1
  Cu  Cu73  1  0.09524400  0.21854300  0.16330900  1
  Cu  Cu74  1  0.59524400  0.28145700  0.16330900  1
  Cu  Cu75  1  0.40475600  0.71854300  0.66330900  1
  Cu  Cu76  1  0.36624000  0.56529500  0.35213600  1
  Cu  Cu77  1  0.63376000  0.43470500  0.85213600  1
  Cu  Cu78  1  0.13376000  0.06529500  0.85213600  1
  Cu  Cu79  1  0.86624000  0.93470500  0.35213600  1
  Cu  Cu80  1  0.69816100  0.91523200  0.66193500  1
  Cu  Cu81  1  0.30183900  0.08476800  0.16193500  1
  Cu  Cu82  1  0.80183900  0.41523200  0.16193500  1
  Cu  Cu83  1  0.19816100  0.58476800  0.66193500  1
  Cu  Cu84  1  0.68939400  0.06433900  0.51384800  1
  Cu  Cu85  1  0.31060600  0.93566100  0.01384800  1
  Cu  Cu86  1  0.81060600  0.56433900  0.01384800  1
  Cu  Cu87  1  0.18939400  0.43566100  0.51384800  1
  Cu  Cu88  1  0.52594000  0.78719500  0.18612500  1
  Cu  Cu89  1  0.47406000  0.21280500  0.68612500  1
  Cu  Cu90  1  0.97406000  0.28719500  0.68612500  1
  Cu  Cu91  1  0.02594000  0.71280500  0.18612500  1
  Cu  Cu92  1  0.89261600  0.20132200  0.50425700  1
  Cu  Cu93  1  0.10738400  0.79867800  0.00425700  1
  Cu  Cu94  1  0.60738400  0.70132200  0.00425700  1
  Cu  Cu95  1  0.39261600  0.29867800  0.50425700  1
  Cu  Cu96  1  0.36169700  0.74753300  0.85184800  1
  Cu  Cu97  1  0.63830300  0.25246700  0.35184800  1
  Cu  Cu98  1  0.13830300  0.24753300  0.35184800  1
  Cu  Cu99  1  0.86169700  0.75246700  0.85184800  1
