# generated using pymatgen
data_Cu3Ni3C2
_symmetry_space_group_name_H-M   'P 1'
_cell_length_a   5.88825500
_cell_length_b   6.54843700
_cell_length_c   17.67929275
_cell_angle_alpha   73.51655612
_cell_angle_beta   90.00000000
_cell_angle_gamma   90.00000000
_symmetry_Int_Tables_number   1
_chemical_formula_structural   Cu3Ni3C2
_chemical_formula_sum   'Cu12 Ni12 C8'
_cell_volume   653.67709582
_cell_formula_units_Z   4
loop_
 _symmetry_equiv_pos_site_id
 _symmetry_equiv_pos_as_xyz
  1  'x, y, z'
loop_
 _atom_site_type_symbol
 _atom_site_label
 _atom_site_symmetry_multiplicity
 _atom_site_fract_x
 _atom_site_fract_y
 _atom_site_fract_z
 _atom_site_occupancy
  Ni  Ni0  1  0.90815400  0.61006500  0.11532900  1
  Ni  Ni1  1  0.09184600  0.38993500  0.88467100  1
  Ni  Ni2  1  0.40815400  0.38993500  0.38467100  1
  Ni  Ni3  1  0.59184600  0.61006500  0.61532900  1
  Ni  Ni4  1  0.16915600  0.94328400  0.11595100  1
  Ni  Ni5  1  0.83084400  0.05671600  0.88404900  1
  Ni  Ni6  1  0.66915600  0.05671600  0.38404900  1
  Ni  Ni7  1  0.33084400  0.94328400  0.61595100  1
  Ni  Ni8  1  0.81271100  0.70421600  0.18064600  1
  Ni  Ni9  1  0.18728900  0.29578400  0.81935400  1
  Ni  Ni10  1  0.31271100  0.29578400  0.31935400  1
  Ni  Ni11  1  0.68728900  0.70421600  0.68064600  1
  Cu  Cu12  1  0.15810100  0.74136000  0.06921600  1
  Cu  Cu13  1  0.84189900  0.25864000  0.93078400  1
  Cu  Cu14  1  0.65810100  0.25864000  0.43078400  1
  Cu  Cu15  1  0.34189900  0.74136000  0.56921600  1
  Cu  Cu16  1  0.96246500  0.93371600  0.18783200  1
  Cu  Cu17  1  0.03753500  0.06628400  0.81216800  1
  Cu  Cu18  1  0.46246500  0.06628400  0.31216800  1
  Cu  Cu19  1  0.53753500  0.93371600  0.68783200  1
  Cu  Cu20  1  0.86017600  0.86910100  0.40586500  1
  Cu  Cu21  1  0.13982400  0.13089900  0.59413500  1
  Cu  Cu22  1  0.36017600  0.13089900  0.09413500  1
  Cu  Cu23  1  0.63982400  0.86910100  0.90586500  1
  C  C24  1  0.64923700  0.62798700  0.22053900  1
  C  C25  1  0.35076300  0.37201300  0.77946100  1
  C  C26  1  0.14923700  0.37201300  0.27946100  1
  C  C27  1  0.85076300  0.62798700  0.72053900  1
  C  C28  1  0.81689200  0.46376300  0.09800700  1
  C  C29  1  0.18310800  0.53623700  0.90199300  1
  C  C30  1  0.31689200  0.53623700  0.40199300  1
  C  C31  1  0.68310800  0.46376300  0.59800700  1
