# generated using pymatgen
data_Cu12Ni3C4
_symmetry_space_group_name_H-M   'P 1'
_cell_length_a   8.75139891
_cell_length_b   8.82016844
_cell_length_c   24.36151486
_cell_angle_alpha   90.00000000
_cell_angle_beta   90.00000000
_cell_angle_gamma   90.00000000
_symmetry_Int_Tables_number   1
_chemical_formula_structural   Cu12Ni3C4
_chemical_formula_sum   'Cu96 Ni24 C32'
_cell_volume   1880.43640206
_cell_formula_units_Z   8
loop_
 _symmetry_equiv_pos_site_id
 _symmetry_equiv_pos_as_xyz
  1  'x, y, z'
loop_
 _atom_site_type_symbol
 _atom_site_label
 _atom_site_symmetry_multiplicity
 _atom_site_fract_x
 _atom_site_fract_y
 _atom_site_fract_z
 _atom_site_occupancy
  C  C0  1  0.03700827  0.62176163  0.29072647  1
  C  C1  1  0.03700827  0.87823837  0.79072647  1
  C  C2  1  0.14344810  0.93120480  0.00947095  1
  C  C3  1  0.14344810  0.56879520  0.50947095  1
  C  C4  1  0.35655190  0.06879520  0.50947095  1
  C  C5  1  0.35655190  0.43120480  0.00947095  1
  C  C6  1  0.46299173  0.12176163  0.29072647  1
  C  C7  1  0.46299173  0.37823837  0.79072647  1
  C  C8  1  0.53700827  0.62176163  0.20927353  1
  C  C9  1  0.53700827  0.87823837  0.70927353  1
  C  C10  1  0.64344810  0.56879520  0.99052905  1
  C  C11  1  0.64344810  0.93120480  0.49052905  1
  C  C12  1  0.85655190  0.43120480  0.49052905  1
  C  C13  1  0.85655190  0.06879520  0.99052905  1
  C  C14  1  0.96299173  0.12176163  0.20927353  1
  C  C15  1  0.96299173  0.37823837  0.70927353  1
  C  C16  1  0.00289089  0.40092154  0.06484775  1
  C  C17  1  0.00289089  0.09907846  0.56484775  1
  C  C18  1  0.00129009  0.79410406  0.17821000  1
  C  C19  1  0.00129009  0.70589594  0.67821000  1
  C  C20  1  0.49870891  0.29410406  0.17821000  1
  C  C21  1  0.49870891  0.20589594  0.67821000  1
  C  C22  1  0.49710911  0.59907846  0.56484775  1
  C  C23  1  0.49710911  0.90092154  0.06484775  1
  C  C24  1  0.50289089  0.40092154  0.43515225  1
  C  C25  1  0.50289089  0.09907846  0.93515225  1
  C  C26  1  0.50129009  0.70589594  0.82179000  1
  C  C27  1  0.50129009  0.79410406  0.32179000  1
  C  C28  1  0.99870991  0.29410406  0.32179000  1
  C  C29  1  0.99870991  0.20589594  0.82179000  1
  C  C30  1  0.99710911  0.90092154  0.43515225  1
  C  C31  1  0.99710911  0.59907846  0.93515225  1
  Ni  Ni32  1  0.14385198  0.94661802  0.29933329  1
  Ni  Ni33  1  0.14385198  0.55338198  0.79933329  1
  Ni  Ni34  1  0.14837571  0.25330910  0.44766558  1
  Ni  Ni35  1  0.14837571  0.24669090  0.94766558  1
  Ni  Ni36  1  0.19540686  0.09362222  0.11630214  1
  Ni  Ni37  1  0.19540686  0.40637778  0.61630214  1
  Ni  Ni38  1  0.30459314  0.59362222  0.11630214  1
  Ni  Ni39  1  0.30459314  0.90637778  0.61630214  1
  Ni  Ni40  1  0.35162429  0.75330910  0.44766558  1
  Ni  Ni41  1  0.35162429  0.74669090  0.94766558  1
  Ni  Ni42  1  0.35614802  0.44661802  0.29933329  1
  Ni  Ni43  1  0.35614802  0.05338198  0.79933329  1
  Ni  Ni44  1  0.64385198  0.55338198  0.70066671  1
  Ni  Ni45  1  0.64385198  0.94661802  0.20066671  1
  Ni  Ni46  1  0.64837571  0.25330910  0.05233442  1
  Ni  Ni47  1  0.64837571  0.24669090  0.55233442  1
  Ni  Ni48  1  0.69540686  0.09362222  0.38369786  1
  Ni  Ni49  1  0.69540686  0.40637778  0.88369786  1
  Ni  Ni50  1  0.80459314  0.59362222  0.38369786  1
  Ni  Ni51  1  0.80459314  0.90637778  0.88369786  1
  Ni  Ni52  1  0.85162429  0.75330910  0.05233442  1
  Ni  Ni53  1  0.85162429  0.74669090  0.55233442  1
  Ni  Ni54  1  0.85614802  0.44661802  0.20066671  1
  Ni  Ni55  1  0.85614802  0.05338198  0.70066671  1
  Cu  Cu56  1  0.06442217  0.38871199  0.46605620  1
  Cu  Cu57  1  0.06442217  0.11128801  0.96605620  1
  Cu  Cu58  1  0.08156627  0.09368640  0.27858083  1
  Cu  Cu59  1  0.08156627  0.40631360  0.77858083  1
  Cu  Cu60  1  0.08466181  0.11090655  0.47531461  1
  Cu  Cu61  1  0.08466181  0.38909345  0.97531461  1
  Cu  Cu62  1  0.08879747  0.91391104  0.35477810  1
  Cu  Cu63  1  0.08879747  0.58608896  0.85477810  1
  Cu  Cu64  1  0.09528744  0.19165217  0.08321231  1
  Cu  Cu65  1  0.09528744  0.30834783  0.58321231  1
  Cu  Cu66  1  0.09280927  0.82204263  0.26166225  1
  Cu  Cu67  1  0.09280927  0.67795737  0.76166225  1
  Cu  Cu68  1  0.09869154  0.01006506  0.15678925  1
  Cu  Cu69  1  0.09869154  0.48993494  0.65678925  1
  Cu  Cu70  1  0.13904324  0.23264099  0.38814720  1
  Cu  Cu71  1  0.13904324  0.26735901  0.88814720  1
  Cu  Cu72  1  0.18527329  0.45394094  0.29804990  1
  Cu  Cu73  1  0.18527329  0.04605906  0.79804990  1
  Cu  Cu74  1  0.18792240  0.68014678  0.14602567  1
  Cu  Cu75  1  0.18792240  0.81985322  0.64602567  1
  Cu  Cu76  1  0.18871085  0.76438870  0.46603226  1
  Cu  Cu77  1  0.18871085  0.73561130  0.96603226  1
  Cu  Cu78  1  0.23071454  0.01718470  0.57766888  1
  Cu  Cu79  1  0.23071454  0.48281530  0.07766888  1
  Cu  Cu80  1  0.26928546  0.98281530  0.07766888  1
  Cu  Cu81  1  0.26928546  0.51718470  0.57766888  1
  Cu  Cu82  1  0.31128915  0.23561130  0.96603226  1
  Cu  Cu83  1  0.31128915  0.26438870  0.46603226  1
  Cu  Cu84  1  0.31207760  0.18014678  0.14602567  1
  Cu  Cu85  1  0.31207760  0.31985322  0.64602567  1
  Cu  Cu86  1  0.31472671  0.95394094  0.29804990  1
  Cu  Cu87  1  0.31472671  0.54605906  0.79804990  1
  Cu  Cu88  1  0.36095676  0.73264099  0.38814720  1
  Cu  Cu89  1  0.36095676  0.76735901  0.88814720  1
  Cu  Cu90  1  0.40130846  0.51006506  0.15678925  1
  Cu  Cu91  1  0.40130846  0.98993494  0.65678925  1
  Cu  Cu92  1  0.40719073  0.32204263  0.26166225  1
  Cu  Cu93  1  0.40719073  0.17795737  0.76166225  1
  Cu  Cu94  1  0.40471256  0.69165217  0.08321231  1
  Cu  Cu95  1  0.40471256  0.80834783  0.58321231  1
  Cu  Cu96  1  0.41120253  0.08608896  0.85477810  1
  Cu  Cu97  1  0.41120253  0.41391104  0.35477810  1
  Cu  Cu98  1  0.41533819  0.61090655  0.47531461  1
  Cu  Cu99  1  0.41533819  0.88909345  0.97531461  1
  Cu  Cu100  1  0.41843373  0.59368640  0.27858083  1
  Cu  Cu101  1  0.41843373  0.90631360  0.77858083  1
  Cu  Cu102  1  0.43557783  0.61128801  0.96605620  1
  Cu  Cu103  1  0.43557783  0.88871199  0.46605620  1
  Cu  Cu104  1  0.56442217  0.38871199  0.03394380  1
  Cu  Cu105  1  0.56442217  0.11128801  0.53394380  1
  Cu  Cu106  1  0.58156627  0.09368640  0.22141917  1
  Cu  Cu107  1  0.58156627  0.40631360  0.72141917  1
  Cu  Cu108  1  0.58466181  0.11090655  0.02468539  1
  Cu  Cu109  1  0.58466181  0.38909345  0.52468539  1
  Cu  Cu110  1  0.58879747  0.58608896  0.64522190  1
  Cu  Cu111  1  0.58879747  0.91391104  0.14522190  1
  Cu  Cu112  1  0.59528744  0.19165217  0.41678769  1
  Cu  Cu113  1  0.59528744  0.30834783  0.91678769  1
  Cu  Cu114  1  0.59280927  0.82204263  0.23833775  1
  Cu  Cu115  1  0.59280927  0.67795737  0.73833775  1
  Cu  Cu116  1  0.59869154  0.01006506  0.34321075  1
  Cu  Cu117  1  0.59869154  0.48993494  0.84321075  1
  Cu  Cu118  1  0.63904324  0.23264099  0.11185280  1
  Cu  Cu119  1  0.63904324  0.26735901  0.61185280  1
  Cu  Cu120  1  0.68527329  0.45394094  0.20195010  1
  Cu  Cu121  1  0.68527329  0.04605906  0.70195010  1
  Cu  Cu122  1  0.68792240  0.68014678  0.35397433  1
  Cu  Cu123  1  0.68792240  0.81985322  0.85397433  1
  Cu  Cu124  1  0.68871085  0.76438870  0.03396774  1
  Cu  Cu125  1  0.68871085  0.73561130  0.53396774  1
  Cu  Cu126  1  0.73071454  0.48281530  0.42233112  1
  Cu  Cu127  1  0.73071454  0.01718470  0.92233112  1
  Cu  Cu128  1  0.76928546  0.98281530  0.42233112  1
  Cu  Cu129  1  0.76928546  0.51718470  0.92233112  1
  Cu  Cu130  1  0.81128915  0.26438870  0.03396774  1
  Cu  Cu131  1  0.81128915  0.23561130  0.53396774  1
  Cu  Cu132  1  0.81207760  0.18014678  0.35397433  1
  Cu  Cu133  1  0.81207760  0.31985322  0.85397433  1
  Cu  Cu134  1  0.81472671  0.54605906  0.70195010  1
  Cu  Cu135  1  0.81472671  0.95394094  0.20195010  1
  Cu  Cu136  1  0.86095676  0.73264099  0.11185280  1
  Cu  Cu137  1  0.86095676  0.76735901  0.61185280  1
  Cu  Cu138  1  0.90130846  0.51006506  0.34321075  1
  Cu  Cu139  1  0.90130846  0.98993494  0.84321075  1
  Cu  Cu140  1  0.90719073  0.32204263  0.23833775  1
  Cu  Cu141  1  0.90719073  0.17795737  0.73833775  1
  Cu  Cu142  1  0.90471256  0.69165217  0.41678769  1
  Cu  Cu143  1  0.90471256  0.80834783  0.91678769  1
  Cu  Cu144  1  0.91120253  0.41391104  0.14522190  1
  Cu  Cu145  1  0.91120253  0.08608896  0.64522190  1
  Cu  Cu146  1  0.91533819  0.61090655  0.02468539  1
  Cu  Cu147  1  0.91533819  0.88909345  0.52468539  1
  Cu  Cu148  1  0.91843373  0.59368640  0.22141917  1
  Cu  Cu149  1  0.91843373  0.90631360  0.72141917  1
  Cu  Cu150  1  0.93557783  0.61128801  0.53394380  1
  Cu  Cu151  1  0.93557783  0.88871199  0.03394380  1
