# generated using pymatgen
data_Cu8(Ni2C)3
_symmetry_space_group_name_H-M   'P 1'
_cell_length_a   8.68036200
_cell_length_b   8.68036200
_cell_length_c   11.64387200
_cell_angle_alpha   90.00000000
_cell_angle_beta   90.00000000
_cell_angle_gamma   90.00000000
_symmetry_Int_Tables_number   1
_chemical_formula_structural   Cu8(Ni2C)3
_chemical_formula_sum   'Cu32 Ni24 C12'
_cell_volume   877.35043712
_cell_formula_units_Z   4
loop_
 _symmetry_equiv_pos_site_id
 _symmetry_equiv_pos_as_xyz
  1  'x, y, z'
loop_
 _atom_site_type_symbol
 _atom_site_label
 _atom_site_symmetry_multiplicity
 _atom_site_fract_x
 _atom_site_fract_y
 _atom_site_fract_z
 _atom_site_occupancy
  C  C0  1  0.23016000  0.76984000  0.50000000  1
  C  C1  1  0.76984000  0.23016000  0.50000000  1
  C  C2  1  0.26984000  0.26984000  0.00000000  1
  C  C3  1  0.73016000  0.73016000  0.00000000  1
  C  C4  1  0.64470600  0.64470600  0.50000000  1
  C  C5  1  0.35529400  0.35529400  0.50000000  1
  C  C6  1  0.85529400  0.14470600  0.00000000  1
  C  C7  1  0.14470600  0.85529400  0.00000000  1
  Ni  Ni8  1  0.00000000  0.50000000  0.50000000  1
  Ni  Ni9  1  0.50000000  0.00000000  0.00000000  1
  Ni  Ni10  1  0.50000000  0.00000000  0.50000000  1
  Ni  Ni11  1  0.00000000  0.50000000  0.00000000  1
  Ni  Ni12  1  0.50000000  0.50000000  0.11586700  1
  Ni  Ni13  1  0.00000000  0.00000000  0.61586700  1
  Ni  Ni14  1  0.50000000  0.50000000  0.88413300  1
  Ni  Ni15  1  0.00000000  0.00000000  0.38413300  1
  Ni  Ni16  1  0.93298000  0.72321700  0.37157500  1
  Ni  Ni17  1  0.06702000  0.27678300  0.37157500  1
  Ni  Ni18  1  0.56702000  0.22321700  0.87157500  1
  Ni  Ni19  1  0.43298000  0.77678300  0.87157500  1
  Ni  Ni20  1  0.06702000  0.27678300  0.62842500  1
  Ni  Ni21  1  0.93298000  0.72321700  0.62842500  1
  Ni  Ni22  1  0.43298000  0.77678300  0.12842500  1
  Ni  Ni23  1  0.56702000  0.22321700  0.12842500  1
  Ni  Ni24  1  0.72321700  0.93298000  0.37157500  1
  Ni  Ni25  1  0.27678300  0.06702000  0.37157500  1
  Ni  Ni26  1  0.22321700  0.56702000  0.87157500  1
  Ni  Ni27  1  0.77678300  0.43298000  0.87157500  1
  Ni  Ni28  1  0.27678300  0.06702000  0.62842500  1
  Ni  Ni29  1  0.72321700  0.93298000  0.62842500  1
  Ni  Ni30  1  0.77678300  0.43298000  0.12842500  1
  Ni  Ni31  1  0.22321700  0.56702000  0.12842500  1
  Cu  Cu32  1  0.18249400  0.81750600  0.25255100  1
  Cu  Cu33  1  0.81750600  0.18249400  0.25255100  1
  Cu  Cu34  1  0.31750600  0.31750600  0.75255100  1
  Cu  Cu35  1  0.68249400  0.68249400  0.75255100  1
  Cu  Cu36  1  0.81750600  0.18249400  0.74744900  1
  Cu  Cu37  1  0.18249400  0.81750600  0.74744900  1
  Cu  Cu38  1  0.68249400  0.68249400  0.24744900  1
  Cu  Cu39  1  0.31750600  0.31750600  0.24744900  1
  Cu  Cu40  1  0.40166100  0.59833900  0.29714600  1
  Cu  Cu41  1  0.59833900  0.40166100  0.29714600  1
  Cu  Cu42  1  0.09833900  0.09833900  0.79714500  1
  Cu  Cu43  1  0.90166100  0.90166100  0.79714500  1
  Cu  Cu44  1  0.59833900  0.40166100  0.70285500  1
  Cu  Cu45  1  0.40166100  0.59833900  0.70285500  1
  Cu  Cu46  1  0.90166100  0.90166100  0.20285400  1
  Cu  Cu47  1  0.09833900  0.09833900  0.20285400  1
  Cu  Cu48  1  0.14219300  0.53695500  0.32327400  1
  Cu  Cu49  1  0.85780700  0.46304500  0.32327400  1
  Cu  Cu50  1  0.35780700  0.03695500  0.82327400  1
  Cu  Cu51  1  0.64219300  0.96304500  0.82327400  1
  Cu  Cu52  1  0.85780700  0.46304500  0.67672600  1
  Cu  Cu53  1  0.14219300  0.53695500  0.67672600  1
  Cu  Cu54  1  0.64219300  0.96304500  0.17672600  1
  Cu  Cu55  1  0.35780700  0.03695500  0.17672600  1
  Cu  Cu56  1  0.53695500  0.14219300  0.32327400  1
  Cu  Cu57  1  0.46304500  0.85780700  0.32327400  1
  Cu  Cu58  1  0.03695500  0.35780700  0.82327400  1
  Cu  Cu59  1  0.96304500  0.64219300  0.82327400  1
  Cu  Cu60  1  0.46304500  0.85780700  0.67672600  1
  Cu  Cu61  1  0.53695500  0.14219300  0.67672600  1
  Cu  Cu62  1  0.96304500  0.64219300  0.17672600  1
  Cu  Cu63  1  0.03695500  0.35780700  0.17672600  1
  C  C64  1  0.87387200  0.87387200  0.50000000  1
  C  C65  1  0.12612800  0.12612800  0.50000000  1
  C  C66  1  0.62612800  0.37387200  0.00000000  1
  C  C67  1  0.37387200  0.62612800  0.00000000  1
