# generated using pymatgen
data_Cu4NiC11
_symmetry_space_group_name_H-M   'P 1'
_cell_length_a   10.06679800
_cell_length_b   6.72935500
_cell_length_c   13.46842072
_cell_angle_alpha   89.64486262
_cell_angle_beta   90.00000000
_cell_angle_gamma   90.00000000
_symmetry_Int_Tables_number   1
_chemical_formula_structural   Cu4NiC11
_chemical_formula_sum   'Cu16 Ni4 C44'
_cell_volume   912.37447218
_cell_formula_units_Z   4
loop_
 _symmetry_equiv_pos_site_id
 _symmetry_equiv_pos_as_xyz
  1  'x, y, z'
loop_
 _atom_site_type_symbol
 _atom_site_label
 _atom_site_symmetry_multiplicity
 _atom_site_fract_x
 _atom_site_fract_y
 _atom_site_fract_z
 _atom_site_occupancy
  C  C0  1  0.62635900  0.21861500  0.11711700  1
  C  C1  1  0.12635900  0.78138500  0.88288300  1
  C  C2  1  0.34141900  0.74375300  0.11948000  1
  C  C3  1  0.84141900  0.25624700  0.88052000  1
  C  C4  1  0.84703000  0.22920500  0.36539600  1
  C  C5  1  0.34703000  0.77079500  0.63460400  1
  C  C6  1  0.56762600  0.29277600  0.62714500  1
  C  C7  1  0.06762600  0.70722400  0.37285500  1
  Ni  Ni8  1  0.85186400  0.74352900  0.13054900  1
  Ni  Ni9  1  0.35186400  0.25647100  0.86945100  1
  Ni  Ni10  1  0.34213500  0.24570200  0.38359600  1
  Ni  Ni11  1  0.84213500  0.75429800  0.61640400  1
  Cu  Cu12  1  0.01625900  0.40237600  0.16007900  1
  Cu  Cu13  1  0.51625900  0.59762400  0.83992100  1
  Cu  Cu14  1  0.67717100  0.66146200  0.45568500  1
  Cu  Cu15  1  0.17717100  0.33853800  0.54431500  1
  Cu  Cu16  1  0.01828400  0.07204200  0.09411900  1
  Cu  Cu17  1  0.51828400  0.92795800  0.90588100  1
  Cu  Cu18  1  0.67713200  0.80544400  0.29324500  1
  Cu  Cu19  1  0.17713200  0.19455600  0.70675500  1
  Cu  Cu20  1  0.53989700  0.50891700  0.32657600  1
  Cu  Cu21  1  0.03989700  0.49108300  0.67342400  1
  Cu  Cu22  1  0.15639200  0.33340000  0.01555400  1
  Cu  Cu23  1  0.65639200  0.66660000  0.98444600  1
  Cu  Cu24  1  0.03854300  0.04334500  0.57707800  1
  Cu  Cu25  1  0.53854300  0.95665500  0.42292200  1
  Cu  Cu26  1  0.15083000  0.14152600  0.24368100  1
  Cu  Cu27  1  0.65083000  0.85847400  0.75631900  1
  C  C28  1  0.24722400  0.07565800  0.31139700  1
  C  C29  1  0.74722400  0.92434200  0.68860300  1
  C  C30  1  0.75565800  0.59585800  0.04688200  1
  C  C31  1  0.25565800  0.40414200  0.95311800  1
  C  C32  1  0.25653400  0.41342400  0.45944400  1
  C  C33  1  0.75653400  0.58657600  0.54055600  1
  C  C34  1  0.43978100  0.08396800  0.45886100  1
  C  C35  1  0.93978100  0.91603200  0.54113900  1
  C  C36  1  0.94301600  0.90553300  0.05253300  1
  C  C37  1  0.44301600  0.09446700  0.94746700  1
  C  C38  1  0.43512000  0.38707500  0.29523900  1
  C  C39  1  0.93512000  0.61292500  0.70476100  1
  C  C40  1  0.75520200  0.88853500  0.21171500  1
  C  C41  1  0.25520200  0.11146500  0.78828500  1
  C  C42  1  0.93872400  0.56567400  0.20143500  1
  C  C43  1  0.43872400  0.43432600  0.79856500  1
  C  C44  1  0.93551500  0.23648200  0.12623400  1
  C  C45  1  0.43551500  0.76351800  0.87376600  1
  C  C46  1  0.75862200  0.73478000  0.37513300  1
  C  C47  1  0.25862200  0.26522000  0.62486700  1
  C  C48  1  0.59217700  0.48865300  0.42064300  1
  C  C49  1  0.09217700  0.51134700  0.57935700  1
  C  C50  1  0.58720400  0.97372100  0.32821600  1
  C  C51  1  0.08720400  0.02627900  0.67178400  1
  C  C52  1  0.58204400  0.81899300  0.49117300  1
  C  C53  1  0.08204400  0.18100700  0.50882700  1
  C  C54  1  0.10636500  0.33370300  0.24536900  1
  C  C55  1  0.60636500  0.66629700  0.75463100  1
  C  C56  1  0.10509700  0.99950200  0.17950900  1
  C  C57  1  0.60509700  0.00049800  0.82049100  1
  C  C58  1  0.58502700  0.64233600  0.25714100  1
  C  C59  1  0.08502700  0.35766400  0.74285900  1
  C  C60  1  0.10622600  0.47451200  0.07878400  1
  C  C61  1  0.60622600  0.52548800  0.92121600  1
  C  C62  1  0.11246200  0.14020500  0.01248800  1
  C  C63  1  0.61246200  0.85979500  0.98751200  1
