# generated using pymatgen
data_CuNiC18
_symmetry_space_group_name_H-M   'P 1'
_cell_length_a   9.58207042
_cell_length_b   9.58207042
_cell_length_c   9.58207016
_cell_angle_alpha   33.46754193
_cell_angle_beta   33.46754193
_cell_angle_gamma   33.46754369
_symmetry_Int_Tables_number   1
_chemical_formula_structural   CuNiC18
_chemical_formula_sum   'Cu1 Ni1 C18'
_cell_volume   238.28247146
_cell_formula_units_Z   1
loop_
 _symmetry_equiv_pos_site_id
 _symmetry_equiv_pos_as_xyz
  1  'x, y, z'
loop_
 _atom_site_type_symbol
 _atom_site_label
 _atom_site_symmetry_multiplicity
 _atom_site_fract_x
 _atom_site_fract_y
 _atom_site_fract_z
 _atom_site_occupancy
  C  C0  1  0.25098000  0.25098000  0.25098000  1
  C  C1  1  0.49960200  0.49960200  0.49960200  1
  C  C2  1  0.00036600  0.00036600  0.00036600  1
  C  C3  1  0.74913800  0.74913800  0.74913800  1
  C  C4  1  0.12418500  0.12418500  0.12418500  1
  C  C5  1  0.87500400  0.87500400  0.87500400  1
  Ni  Ni6  1  0.62608600  0.62608600  0.62608600  1
  Cu  Cu7  1  0.37523800  0.37523800  0.37523800  1
  C  C8  1  0.00111900  0.49826800  0.00111900  1
  C  C9  1  0.24814300  0.75558400  0.24814300  1
  C  C10  1  0.74745000  0.25770700  0.74745000  1
  C  C11  1  0.50341500  0.98758700  0.50341500  1
  C  C12  1  0.74745000  0.74745000  0.25770700  1
  C  C13  1  0.00111900  0.00111900  0.49826800  1
  C  C14  1  0.50341500  0.50341500  0.98758700  1
  C  C15  1  0.24814300  0.24814300  0.75558400  1
  C  C16  1  0.25770700  0.74745000  0.74745000  1
  C  C17  1  0.49826800  0.00111900  0.00111900  1
  C  C18  1  0.98758700  0.50341500  0.50341500  1
  C  C19  1  0.75558400  0.24814300  0.24814300  1
