# generated using pymatgen
data_CuNi149
_symmetry_space_group_name_H-M   'P 1'
_cell_length_a   15.93860988
_cell_length_b   15.93861126
_cell_length_c   15.53911274
_cell_angle_alpha   90.00000000
_cell_angle_beta   90.00000000
_cell_angle_gamma   120.00059625
_symmetry_Int_Tables_number   1
_chemical_formula_structural   CuNi149
_chemical_formula_sum   'Cu1 Ni149'
_cell_volume   3418.65408399
_cell_formula_units_Z   1
loop_
 _symmetry_equiv_pos_site_id
 _symmetry_equiv_pos_as_xyz
  1  'x, y, z'
loop_
 _atom_site_type_symbol
 _atom_site_label
 _atom_site_symmetry_multiplicity
 _atom_site_fract_x
 _atom_site_fract_y
 _atom_site_fract_z
 _atom_site_occupancy
  Ni  Ni0  1  0.80388623  0.00139573  -0.00000000  1
  Ni  Ni1  1  0.19750996  0.00139328  -0.00000000  1
  Ni  Ni2  1  0.99860300  0.19611366  -0.00000000  1
  Ni  Ni3  1  0.19751309  0.19611851  -0.00000000  1
  Ni  Ni4  1  0.39893566  0.19947254  -0.00000000  1
  Ni  Ni5  1  0.80053503  0.19946554  -0.00000000  1
  Ni  Ni6  1  0.59988400  0.19977468  -0.00000000  1
  Ni  Ni7  1  0.19896770  0.39793592  -0.00000000  1
  Ni  Ni8  1  0.39946514  0.39952725  -0.00000000  1
  Ni  Ni9  1  0.00006243  0.39953654  -0.00000000  1
  Ni  Ni10  1  0.59988354  0.40011662  -0.00000000  1
  Ni  Ni11  1  0.80022516  0.40011681  -0.00000000  1
  Ni  Ni12  1  0.40016082  0.59983910  -0.00000000  1
  Ni  Ni13  1  0.19968457  0.59984252  -0.00000000  1
  Ni  Ni14  1  0.60047225  0.60053464  -0.00000000  1
  Ni  Ni15  1  0.00006247  0.60052397  -0.00000000  1
  Ni  Ni16  1  0.80052610  0.60106298  -0.00000000  1
  Ni  Ni17  1  0.40015759  0.80031651  -0.00000000  1
  Ni  Ni18  1  0.19896898  0.80103155  -0.00000000  1
  Ni  Ni19  1  0.60206346  0.80103146  -0.00000000  1
  Ni  Ni20  1  0.99860519  0.80248926  -0.00000000  1
  Ni  Ni21  1  0.80388207  0.80248658  -0.00000000  1
  Ni  Ni22  1  0.60046279  0.99993736  -0.00000000  1
  Ni  Ni23  1  0.39947626  0.99993697  -0.00000000  1
  Ni  Ni24  1  0.06524262  0.13049115  0.16370977  1
  Ni  Ni25  1  0.06524805  0.93475178  0.16371057  1
  Ni  Ni26  1  0.86950884  0.93475767  0.16370957  1
  Ni  Ni27  1  0.26599980  0.33211124  0.16549567  1
  Ni  Ni28  1  0.06611079  0.33211110  0.16549613  1
  Ni  Ni29  1  0.66788839  0.73400027  0.16549627  1
  Ni  Ni30  1  0.06611462  0.73400384  0.16549735  1
  Ni  Ni31  1  0.26599600  0.93388541  0.16549770  1
  Ni  Ni32  1  0.66788834  0.93388913  0.16549583  1
  Ni  Ni33  1  0.26638533  0.53276934  0.16624333  1
  Ni  Ni34  1  0.46723095  0.73361469  0.16624296  1
  Ni  Ni35  1  0.26638732  0.73361283  0.16624220  1
  Ni  Ni36  1  0.06665420  0.53332974  0.16595104  1
  Ni  Ni37  1  0.46667497  0.53332506  0.16595819  1
  Ni  Ni38  1  0.46666982  0.93334594  0.16595151  1
  Ni  Ni39  1  0.46675070  0.13336483  0.16619677  1
  Ni  Ni40  1  0.66661098  0.13336170  0.16620129  1
  Ni  Ni41  1  0.86663837  0.33338818  0.16620190  1
  Ni  Ni42  1  0.46675265  0.33338766  0.16620007  1
  Ni  Ni43  1  0.86663400  0.53324890  0.16619681  1
  Ni  Ni44  1  0.66661169  0.53324675  0.16619991  1
  Ni  Ni45  1  0.66666551  0.33333333  0.16651176  1
  Ni  Ni46  1  0.86611220  0.13388694  0.16715071  1
  Ni  Ni47  1  0.26777475  0.13388578  0.16714883  1
  Ni  Ni48  1  0.86611428  0.73222517  0.16714919  1
  Ni  Ni49  1  0.99999861  0.00000086  0.33251391  1
  Ni  Ni50  1  0.19902117  0.99979437  0.33317541  1
  Ni  Ni51  1  0.80077519  0.99979827  0.33317580  1
  Ni  Ni52  1  0.19902266  0.19922705  0.33317391  1
  Ni  Ni53  1  0.00020148  0.19922437  0.33317641  1
  Ni  Ni54  1  0.80077184  0.80097744  0.33317447  1
  Ni  Ni55  1  0.00020512  0.80097891  0.33317525  1
  Ni  Ni56  1  0.19994079  0.39988111  0.33258535  1
  Ni  Ni57  1  0.19993664  0.80006227  0.33258546  1
  Ni  Ni58  1  0.60011826  0.80005834  0.33258495  1
  Ni  Ni59  1  0.39967555  0.99991982  0.33291190  1
  Ni  Ni60  1  0.60024878  0.99993103  0.33291204  1
  Ni  Ni61  1  0.00007084  0.39975137  0.33291157  1
  Ni  Ni62  1  0.39968110  0.39975253  0.33291309  1
  Ni  Ni63  1  0.60024710  0.60032018  0.33291288  1
  Ni  Ni64  1  0.00008009  0.60032550  0.33291173  1
  Ni  Ni65  1  0.60001075  0.20002617  0.33269905  1
  Ni  Ni66  1  0.60000959  0.39999063  0.33269367  1
  Ni  Ni67  1  0.79997512  0.39998943  0.33269888  1
  Ni  Ni68  1  0.39990344  0.19995059  0.33302322  1
  Ni  Ni69  1  0.80005112  0.19995002  0.33302778  1
  Ni  Ni70  1  0.80004947  0.60009668  0.33302387  1
  Ni  Ni71  1  0.20008802  0.60004439  0.33266897  1
  Ni  Ni72  1  0.39996133  0.60004015  0.33266847  1
  Ni  Ni73  1  0.39995663  0.79991305  0.33266878  1
  Ni  Ni74  1  0.06637384  0.13275141  0.50000000  1
  Ni  Ni75  1  0.86698194  0.13301648  0.50000000  1
  Ni  Ni76  1  0.26603598  0.13301949  0.50000000  1
  Ni  Ni77  1  0.66640603  0.13292506  0.50000000  1
  Ni  Ni78  1  0.46652449  0.13292673  0.50000000  1
  Ni  Ni79  1  0.26647727  0.33285724  0.50000000  1
  Ni  Ni80  1  0.06638666  0.33286239  0.50000000  1
  Ni  Ni81  1  0.66666688  0.33333377  0.50000000  1
  Ni  Ni82  1  0.86707499  0.33359482  0.50000000  1
  Ni  Ni83  1  0.46651850  0.33359315  0.50000000  1
  Ni  Ni84  1  0.66640598  0.53348110  0.50000000  1
  Ni  Ni85  1  0.86707394  0.53347638  0.50000000  1
  Ni  Ni86  1  0.26625271  0.53251191  0.50000000  1
  Ni  Ni87  1  0.06644866  0.53322182  0.50000000  1
  Ni  Ni88  1  0.46677803  0.53322335  0.50000000  1
  Ni  Ni89  1  0.46748683  0.73374685  0.50000000  1
  Ni  Ni90  1  0.26625181  0.73374795  0.50000000  1
  Ni  Ni91  1  0.66714346  0.73352408  0.50000000  1
  Ni  Ni92  1  0.06638668  0.73353249  0.50000000  1
  Ni  Ni93  1  0.86698058  0.73396419  0.50000000  1
  Ni  Ni94  1  0.46677894  0.93355246  0.50000000  1
  Ni  Ni95  1  0.06637638  0.93362264  0.50000000  1
  Ni  Ni96  1  0.86724880  0.93362602  0.50000000  1
  Ni  Ni97  1  0.66713843  0.93361206  0.50000000  1
  Ni  Ni98  1  0.26646656  0.93361285  0.50000000  1
  Ni  Ni99  1  0.20008802  0.60004439  0.66733003  1
  Ni  Ni100  1  0.39996133  0.60004015  0.66733053  1
  Ni  Ni101  1  0.39995663  0.79991305  0.66733022  1
  Ni  Ni102  1  0.39990344  0.19995059  0.66697578  1
  Ni  Ni103  1  0.80005112  0.19995002  0.66697122  1
  Ni  Ni104  1  0.80004947  0.60009668  0.66697513  1
  Ni  Ni105  1  0.60001075  0.20002617  0.66730095  1
  Ni  Ni106  1  0.60000959  0.39999063  0.66730633  1
  Ni  Ni107  1  0.79997512  0.39998943  0.66730112  1
  Ni  Ni108  1  0.39967555  0.99991982  0.66708710  1
  Ni  Ni109  1  0.60024878  0.99993103  0.66708696  1
  Ni  Ni110  1  0.00007084  0.39975137  0.66708743  1
  Ni  Ni111  1  0.39968110  0.39975253  0.66708591  1
  Ni  Ni112  1  0.60024710  0.60032018  0.66708612  1
  Ni  Ni113  1  0.00008009  0.60032550  0.66708727  1
  Ni  Ni114  1  0.19994079  0.39988111  0.66741465  1
  Ni  Ni115  1  0.19993664  0.80006227  0.66741454  1
  Ni  Ni116  1  0.60011826  0.80005834  0.66741505  1
  Ni  Ni117  1  0.19902117  0.99979437  0.66682459  1
  Ni  Ni118  1  0.80077519  0.99979827  0.66682420  1
  Ni  Ni119  1  0.19902266  0.19922705  0.66682609  1
  Ni  Ni120  1  0.00020148  0.19922437  0.66682359  1
  Ni  Ni121  1  0.80077184  0.80097744  0.66682553  1
  Ni  Ni122  1  0.00020512  0.80097891  0.66682475  1
  Ni  Ni123  1  0.99999861  0.00000086  0.66748609  1
  Ni  Ni124  1  0.86611220  0.13388694  0.83284929  1
  Ni  Ni125  1  0.26777475  0.13388578  0.83285117  1
  Ni  Ni126  1  0.86611428  0.73222517  0.83285081  1
  Ni  Ni127  1  0.66666551  0.33333333  0.83348724  1
  Ni  Ni128  1  0.46675070  0.13336483  0.83380323  1
  Ni  Ni129  1  0.66661098  0.13336170  0.83379871  1
  Ni  Ni130  1  0.86663837  0.33338818  0.83379810  1
  Ni  Ni131  1  0.46675265  0.33338766  0.83379993  1
  Ni  Ni132  1  0.86663400  0.53324890  0.83380319  1
  Ni  Ni133  1  0.66661169  0.53324675  0.83380009  1
  Ni  Ni134  1  0.06665420  0.53332974  0.83404796  1
  Ni  Ni135  1  0.46667497  0.53332506  0.83404081  1
  Ni  Ni136  1  0.46666982  0.93334594  0.83404749  1
  Ni  Ni137  1  0.26638533  0.53276934  0.83375567  1
  Ni  Ni138  1  0.46723095  0.73361469  0.83375604  1
  Ni  Ni139  1  0.26638732  0.73361283  0.83375680  1
  Ni  Ni140  1  0.26599980  0.33211124  0.83450433  1
  Ni  Ni141  1  0.06611079  0.33211110  0.83450387  1
  Ni  Ni142  1  0.66788839  0.73400027  0.83450373  1
  Ni  Ni143  1  0.06611462  0.73400384  0.83450265  1
  Ni  Ni144  1  0.26599600  0.93388541  0.83450230  1
  Ni  Ni145  1  0.66788834  0.93388913  0.83450417  1
  Ni  Ni146  1  0.06524262  0.13049115  0.83629023  1
  Ni  Ni147  1  0.06524805  0.93475178  0.83628943  1
  Ni  Ni148  1  0.86950884  0.93475767  0.83629043  1
  Cu  Cu149  1  0.99999938  0.00000043  -0.00000000  1
