# generated using pymatgen
data_CuNi10C3
_symmetry_space_group_name_H-M   'P 1'
_cell_length_a   4.24827100
_cell_length_b   4.24827100
_cell_length_c   13.61759300
_cell_angle_alpha   90.00000000
_cell_angle_beta   90.00000000
_cell_angle_gamma   90.00000000
_symmetry_Int_Tables_number   1
_chemical_formula_structural   CuNi10C3
_chemical_formula_sum   'Cu1 Ni10 C3'
_cell_volume   245.76768332
_cell_formula_units_Z   1
loop_
 _symmetry_equiv_pos_site_id
 _symmetry_equiv_pos_as_xyz
  1  'x, y, z'
loop_
 _atom_site_type_symbol
 _atom_site_label
 _atom_site_symmetry_multiplicity
 _atom_site_fract_x
 _atom_site_fract_y
 _atom_site_fract_z
 _atom_site_occupancy
  C  C0  1  0.00000000  0.00000000  0.75116500  1
  C  C1  1  0.00000000  0.00000000  0.24883500  1
  Ni  Ni2  1  0.50000000  0.00000000  0.09609900  1
  Ni  Ni3  1  0.50000000  0.00000000  0.59767800  1
  Ni  Ni4  1  0.00000000  0.50000000  0.09609900  1
  Ni  Ni5  1  0.00000000  0.50000000  0.59767800  1
  Ni  Ni6  1  0.50000000  0.00000000  0.90390100  1
  Ni  Ni7  1  0.50000000  0.00000000  0.40232200  1
  Ni  Ni8  1  0.00000000  0.50000000  0.90390100  1
  Ni  Ni9  1  0.00000000  0.50000000  0.40232200  1
  Ni  Ni10  1  0.50000000  0.50000000  0.75049900  1
  Ni  Ni11  1  0.50000000  0.50000000  0.24950100  1
  C  C12  1  0.00000000  0.00000000  0.00000000  1
  Cu  Cu13  1  0.00000000  0.00000000  0.50000000  1
