# generated using pymatgen
data_CuNiC6
_symmetry_space_group_name_H-M   'P 1'
_cell_length_a   4.61426833
_cell_length_b   4.61426920
_cell_length_c   49.89398400
_cell_angle_alpha   89.99994666
_cell_angle_beta   90.00002369
_cell_angle_gamma   120.00012567
_symmetry_Int_Tables_number   1
_chemical_formula_structural   CuNiC6
_chemical_formula_sum   'Cu1 Ni1 C6'
_cell_volume   919.99197531
_cell_formula_units_Z   1
loop_
 _symmetry_equiv_pos_site_id
 _symmetry_equiv_pos_as_xyz
  1  'x, y, z'
loop_
 _atom_site_type_symbol
 _atom_site_label
 _atom_site_symmetry_multiplicity
 _atom_site_fract_x
 _atom_site_fract_y
 _atom_site_fract_z
 _atom_site_occupancy
  Ni  Ni0  1  0.66666700  0.33333500  0.82723300  1
  Cu  Cu1  1  0.33333200  0.66666700  0.79928000  1
  C  C2  1  0.00000000  0.00000000  0.81373800  1
  C  C3  1  0.30683400  0.29222400  0.81282800  1
  C  C4  1  0.98538800  0.69316600  0.81282800  1
  C  C5  1  0.70777900  0.01461300  0.81282800  1
  C  C6  1  0.33333300  0.66666700  0.76615200  1
  C  C7  1  0.66666600  0.33333300  0.85559300  1
