# generated using pymatgen
data_CuNi13C15
_symmetry_space_group_name_H-M   'P 1'
_cell_length_a   9.01009100
_cell_length_b   10.19139000
_cell_length_c   13.24163500
_cell_angle_alpha   90.00000000
_cell_angle_beta   90.00000000
_cell_angle_gamma   90.00000000
_symmetry_Int_Tables_number   1
_chemical_formula_structural   CuNi13C15
_chemical_formula_sum   'Cu4 Ni52 C60'
_cell_volume   1215.91778588
_cell_formula_units_Z   4
loop_
 _symmetry_equiv_pos_site_id
 _symmetry_equiv_pos_as_xyz
  1  'x, y, z'
loop_
 _atom_site_type_symbol
 _atom_site_label
 _atom_site_symmetry_multiplicity
 _atom_site_fract_x
 _atom_site_fract_y
 _atom_site_fract_z
 _atom_site_occupancy
  C  C0  1  0.65826400  0.94086600  0.25000000  1
  C  C1  1  0.15826400  0.55913400  0.25000000  1
  C  C2  1  0.34173600  0.05913400  0.75000000  1
  C  C3  1  0.84173600  0.44086600  0.75000000  1
  C  C4  1  0.61505700  0.12235700  0.60639300  1
  C  C5  1  0.11505700  0.37764300  0.89360700  1
  C  C6  1  0.38494300  0.87764300  0.10639300  1
  C  C7  1  0.88494300  0.62235700  0.39360700  1
  C  C8  1  0.38494300  0.87764300  0.39360700  1
  C  C9  1  0.88494300  0.62235700  0.10639300  1
  C  C10  1  0.61505700  0.12235700  0.89360700  1
  C  C11  1  0.11505700  0.37764300  0.60639300  1
  C  C12  1  0.80261000  0.36210700  0.51479700  1
  C  C13  1  0.30261000  0.13789300  0.98520300  1
  C  C14  1  0.19739000  0.63789300  0.01479700  1
  C  C15  1  0.69739000  0.86210700  0.48520300  1
  C  C16  1  0.19739000  0.63789300  0.48520300  1
  C  C17  1  0.69739000  0.86210700  0.01479700  1
  C  C18  1  0.80261000  0.36210700  0.98520300  1
  C  C19  1  0.30261000  0.13789300  0.51479700  1
  C  C20  1  0.63040500  0.70359000  0.35963700  1
  C  C21  1  0.13040500  0.79641000  0.14036300  1
  C  C22  1  0.36959500  0.29641000  0.85963700  1
  C  C23  1  0.86959500  0.20359000  0.64036300  1
  C  C24  1  0.36959500  0.29641000  0.64036300  1
  C  C25  1  0.86959500  0.20359000  0.85963700  1
  C  C26  1  0.63040500  0.70359000  0.14036300  1
  C  C27  1  0.13040500  0.79641000  0.35963700  1
  C  C28  1  0.62007200  0.29322600  0.44190100  1
  C  C29  1  0.12007200  0.20677400  0.05809900  1
  C  C30  1  0.37992800  0.70677400  0.94190100  1
  C  C31  1  0.87992800  0.79322600  0.55809900  1
  C  C32  1  0.37992800  0.70677400  0.55809900  1
  C  C33  1  0.87992800  0.79322600  0.94190100  1
  C  C34  1  0.62007200  0.29322600  0.05809900  1
  C  C35  1  0.12007200  0.20677400  0.44190100  1
  C  C36  1  0.83465500  0.38224500  0.13994300  1
  C  C37  1  0.33465500  0.11775500  0.36005700  1
  C  C38  1  0.16534500  0.61775500  0.63994300  1
  C  C39  1  0.66534500  0.88224500  0.86005700  1
  C  C40  1  0.16534500  0.61775500  0.86005700  1
  C  C41  1  0.66534500  0.88224500  0.63994300  1
  C  C42  1  0.83465500  0.38224500  0.36005700  1
  C  C43  1  0.33465500  0.11775500  0.13994300  1
  C  C44  1  0.93729300  0.98975600  0.30720800  1
  C  C45  1  0.43729300  0.51024400  0.19279200  1
  C  C46  1  0.06270700  0.01024400  0.80720800  1
  C  C47  1  0.56270700  0.48975600  0.69279200  1
  C  C48  1  0.06270700  0.01024400  0.69279200  1
  C  C49  1  0.56270700  0.48975600  0.80720800  1
  C  C50  1  0.93729300  0.98975600  0.19279200  1
  C  C51  1  0.43729300  0.51024400  0.30720800  1
  C  C52  1  0.32525700  0.38222000  0.75000000  1
  C  C53  1  0.82525700  0.11778000  0.75000000  1
  C  C54  1  0.67474300  0.61778000  0.25000000  1
  C  C55  1  0.17474300  0.88222000  0.25000000  1
  C  C56  1  0.01474600  0.26154200  0.25000000  1
  C  C57  1  0.51474600  0.23845800  0.25000000  1
  C  C58  1  0.98525400  0.73845800  0.75000000  1
  C  C59  1  0.48525400  0.76154200  0.75000000  1
  Ni  Ni60  1  0.97096900  0.82123500  0.65801900  1
  Ni  Ni61  1  0.47096900  0.67876500  0.84198100  1
  Ni  Ni62  1  0.02903100  0.17876500  0.15801900  1
  Ni  Ni63  1  0.52903100  0.32123500  0.34198100  1
  Ni  Ni64  1  0.02903100  0.17876500  0.34198100  1
  Ni  Ni65  1  0.52903100  0.32123500  0.15801900  1
  Ni  Ni66  1  0.97096900  0.82123500  0.84198100  1
  Ni  Ni67  1  0.47096900  0.67876500  0.65801900  1
  Ni  Ni68  1  0.86337300  0.32526900  0.25000000  1
  Ni  Ni69  1  0.36337300  0.17473100  0.25000000  1
  Ni  Ni70  1  0.13662700  0.67473100  0.75000000  1
  Ni  Ni71  1  0.63662700  0.82526900  0.75000000  1
  Ni  Ni72  1  0.62831100  0.13258900  0.25000000  1
  Ni  Ni73  1  0.12831100  0.36741100  0.25000000  1
  Ni  Ni74  1  0.37168900  0.86741100  0.75000000  1
  Ni  Ni75  1  0.87168900  0.63258900  0.75000000  1
  Ni  Ni76  1  0.62098900  0.87878800  0.39826200  1
  Ni  Ni77  1  0.12098900  0.62121200  0.10173800  1
  Ni  Ni78  1  0.37901100  0.12121200  0.89826200  1
  Ni  Ni79  1  0.87901100  0.37878800  0.60173800  1
  Ni  Ni80  1  0.37901100  0.12121200  0.60173800  1
  Ni  Ni81  1  0.87901100  0.37878800  0.89826200  1
  Ni  Ni82  1  0.62098900  0.87878800  0.10173800  1
  Ni  Ni83  1  0.12098900  0.62121200  0.39826200  1
  Ni  Ni84  1  0.82190000  0.12072700  0.65819500  1
  Ni  Ni85  1  0.32190000  0.37927300  0.84180500  1
  Ni  Ni86  1  0.17810000  0.87927300  0.15819500  1
  Ni  Ni87  1  0.67810000  0.62072700  0.34180500  1
  Ni  Ni88  1  0.17810000  0.87927300  0.34180500  1
  Ni  Ni89  1  0.67810000  0.62072700  0.15819500  1
  Ni  Ni90  1  0.82190000  0.12072700  0.84180500  1
  Ni  Ni91  1  0.32190000  0.37927300  0.65819500  1
  Ni  Ni92  1  0.67525200  0.28172400  0.50877800  1
  Ni  Ni93  1  0.17525200  0.21827600  0.99122200  1
  Ni  Ni94  1  0.32474800  0.71827600  0.00877800  1
  Ni  Ni95  1  0.82474800  0.78172400  0.49122200  1
  Ni  Ni96  1  0.32474800  0.71827600  0.49122200  1
  Ni  Ni97  1  0.82474800  0.78172400  0.00877800  1
  Ni  Ni98  1  0.67525200  0.28172400  0.99122200  1
  Ni  Ni99  1  0.17525200  0.21827600  0.50877800  1
  Ni  Ni100  1  0.11706300  0.04925000  0.75000000  1
  Ni  Ni101  1  0.61706300  0.45075000  0.75000000  1
  Ni  Ni102  1  0.88293700  0.95075000  0.25000000  1
  Ni  Ni103  1  0.38293700  0.54925000  0.25000000  1
  Ni  Ni104  1  0.14514400  0.57458700  0.57161300  1
  Ni  Ni105  1  0.64514400  0.92541300  0.92838700  1
  Ni  Ni106  1  0.85485600  0.42541300  0.07161300  1
  Ni  Ni107  1  0.35485600  0.07458700  0.42838700  1
  Ni  Ni108  1  0.85485600  0.42541300  0.42838700  1
  Ni  Ni109  1  0.35485600  0.07458700  0.07161300  1
  Ni  Ni110  1  0.14514400  0.57458700  0.92838700  1
  Ni  Ni111  1  0.64514400  0.92541300  0.57161300  1
  Cu  Cu112  1  0.04942200  0.37251400  0.75000000  1
  Cu  Cu113  1  0.54942200  0.12748600  0.75000000  1
  Cu  Cu114  1  0.95057800  0.62748600  0.25000000  1
  Cu  Cu115  1  0.45057800  0.87251400  0.25000000  1
