# generated using pymatgen
data_CuNi3C8
_symmetry_space_group_name_H-M   'P 1'
_cell_length_a   3.36157445
_cell_length_b   3.36157445
_cell_length_c   38.23365700
_cell_angle_alpha   90.00000000
_cell_angle_beta   90.00000000
_cell_angle_gamma   120.00000885
_symmetry_Int_Tables_number   1
_chemical_formula_structural   CuNi3C8
_chemical_formula_sum   'Cu1 Ni3 C8'
_cell_volume   374.16391488
_cell_formula_units_Z   1
loop_
 _symmetry_equiv_pos_site_id
 _symmetry_equiv_pos_as_xyz
  1  'x, y, z'
loop_
 _atom_site_type_symbol
 _atom_site_label
 _atom_site_symmetry_multiplicity
 _atom_site_fract_x
 _atom_site_fract_y
 _atom_site_fract_z
 _atom_site_occupancy
  C  C0  1  0.33333300  0.66666700  0.70724000  1
  C  C1  1  0.66666700  0.33333300  0.04453300  1
  C  C2  1  0.66666700  0.33333300  0.14333100  1
  C  C3  1  0.33333300  0.66666700  0.60781300  1
  Ni  Ni4  1  0.33333300  0.66666700  0.09391000  1
  Ni  Ni5  1  0.33333300  0.66666700  0.46964500  1
  Ni  Ni6  1  0.66666700  0.33333300  0.28180900  1
  Cu  Cu7  1  0.66666700  0.33333300  0.65755100  1
  C  C8  1  0.33333300  0.66666700  0.32137900  1
  C  C9  1  0.66666700  0.33333300  0.43004400  1
  C  C10  1  0.66666700  0.33333300  0.50926100  1
  C  C11  1  0.33333300  0.66666700  0.24223200  1
