# generated using pymatgen
data_Cu3NiC10
_symmetry_space_group_name_H-M   'P 1'
_cell_length_a   8.33865900
_cell_length_b   8.33865900
_cell_length_c   8.42417500
_cell_angle_alpha   90.00000000
_cell_angle_beta   90.00000000
_cell_angle_gamma   90.00000000
_symmetry_Int_Tables_number   1
_chemical_formula_structural   Cu3NiC10
_chemical_formula_sum   'Cu12 Ni4 C40'
_cell_volume   585.76013084
_cell_formula_units_Z   4
loop_
 _symmetry_equiv_pos_site_id
 _symmetry_equiv_pos_as_xyz
  1  'x, y, z'
loop_
 _atom_site_type_symbol
 _atom_site_label
 _atom_site_symmetry_multiplicity
 _atom_site_fract_x
 _atom_site_fract_y
 _atom_site_fract_z
 _atom_site_occupancy
  C  C0  1  0.74887600  0.00149800  0.62658700  1
  C  C1  1  0.99850200  0.25112400  0.87341300  1
  C  C2  1  0.50149800  0.75112400  0.87658700  1
  C  C3  1  0.75112400  0.50149800  0.12341300  1
  C  C4  1  0.25112400  0.99850200  0.12658700  1
  C  C5  1  0.00149800  0.74887600  0.37341300  1
  C  C6  1  0.49850200  0.24887600  0.37658700  1
  C  C7  1  0.24887600  0.49850200  0.62341300  1
  Ni  Ni8  1  0.62202300  0.37797700  0.75000000  1
  Ni  Ni9  1  0.87797700  0.87797700  0.00000000  1
  Ni  Ni10  1  0.37797700  0.62202300  0.25000000  1
  Ni  Ni11  1  0.12202300  0.12202300  0.50000000  1
  Cu  Cu12  1  0.87154900  0.62778500  0.75063100  1
  Cu  Cu13  1  0.12497100  0.87502900  0.75000000  1
  Cu  Cu14  1  0.37221500  0.12845100  0.74936900  1
  Cu  Cu15  1  0.12778500  0.62845100  0.00063100  1
  Cu  Cu16  1  0.37502900  0.37502900  0.00000000  1
  Cu  Cu17  1  0.62845100  0.12778500  0.99936900  1
  Cu  Cu18  1  0.12845100  0.37221500  0.25063100  1
  Cu  Cu19  1  0.87502900  0.12497100  0.25000000  1
  Cu  Cu20  1  0.62778500  0.87154900  0.24936900  1
  Cu  Cu21  1  0.87221500  0.37154900  0.50063100  1
  Cu  Cu22  1  0.62497100  0.62497100  0.50000000  1
  Cu  Cu23  1  0.37154900  0.87221500  0.49936900  1
  C  C24  1  0.85419100  0.38770300  0.73991300  1
  C  C25  1  0.63113400  0.61104600  0.73648200  1
  C  C26  1  0.35394800  0.88371200  0.73893500  1
  C  C27  1  0.88998500  0.87080600  0.76797400  1
  C  C28  1  0.12919400  0.11001500  0.73202600  1
  C  C29  1  0.11628800  0.64605200  0.76106500  1
  C  C30  1  0.38895400  0.36886600  0.76351800  1
  C  C31  1  0.61229700  0.14580900  0.76008700  1
  C  C32  1  0.88770300  0.64580900  0.98991300  1
  C  C33  1  0.11104600  0.86886600  0.98648200  1
  C  C34  1  0.38371200  0.14605200  0.98893500  1
  C  C35  1  0.37080600  0.61001500  0.01797400  1
  C  C36  1  0.61001500  0.37080600  0.98202600  1
  C  C37  1  0.14605200  0.38371200  0.01106500  1
  C  C38  1  0.86886600  0.11104600  0.01351800  1
  C  C39  1  0.64580900  0.88770300  0.01008700  1
  C  C40  1  0.14580900  0.61229700  0.23991300  1
  C  C41  1  0.36886600  0.38895400  0.23648200  1
  C  C42  1  0.64605200  0.11628800  0.23893500  1
  C  C43  1  0.11001500  0.12919400  0.26797400  1
  C  C44  1  0.87080600  0.88998500  0.23202600  1
  C  C45  1  0.88371200  0.35394800  0.26106500  1
  C  C46  1  0.61104600  0.63113400  0.26351800  1
  C  C47  1  0.38770300  0.85419100  0.26008700  1
  C  C48  1  0.11229700  0.35419100  0.48991300  1
  C  C49  1  0.88895400  0.13113400  0.48648200  1
  C  C50  1  0.61628800  0.85394800  0.48893500  1
  C  C51  1  0.62919400  0.38998500  0.51797400  1
  C  C52  1  0.38998500  0.62919400  0.48202600  1
  C  C53  1  0.85394800  0.61628800  0.51106500  1
  C  C54  1  0.13113400  0.88895400  0.51351800  1
  C  C55  1  0.35419100  0.11229700  0.51008700  1
