# generated using pymatgen
data_CuNi3C2
_symmetry_space_group_name_H-M   'P 1'
_cell_length_a   8.66340291
_cell_length_b   8.66340291
_cell_length_c   8.66340291
_cell_angle_alpha   109.47122063
_cell_angle_beta   109.47122063
_cell_angle_gamma   109.47122063
_symmetry_Int_Tables_number   1
_chemical_formula_structural   CuNi3C2
_chemical_formula_sum   'Cu4 Ni12 C8'
_cell_volume   500.54559833
_cell_formula_units_Z   4
loop_
 _symmetry_equiv_pos_site_id
 _symmetry_equiv_pos_as_xyz
  1  'x, y, z'
loop_
 _atom_site_type_symbol
 _atom_site_label
 _atom_site_symmetry_multiplicity
 _atom_site_fract_x
 _atom_site_fract_y
 _atom_site_fract_z
 _atom_site_occupancy
  Ni  Ni0  1  0.25000000  0.63063500  0.38063500  1
  Ni  Ni1  1  0.75000000  0.86936500  0.11936500  1
  Ni  Ni2  1  0.25000000  0.12344900  0.87344900  1
  Ni  Ni3  1  0.75000000  0.37655100  0.62655100  1
  Ni  Ni4  1  0.86936500  0.11936500  0.75000000  1
  Ni  Ni5  1  0.63063500  0.38063500  0.25000000  1
  Ni  Ni6  1  0.37655100  0.62655100  0.75000000  1
  Ni  Ni7  1  0.12344900  0.87344900  0.25000000  1
  Ni  Ni8  1  0.38063500  0.25000000  0.63063500  1
  Ni  Ni9  1  0.11936500  0.75000000  0.86936500  1
  Ni  Ni10  1  0.87344900  0.25000000  0.12344900  1
  Ni  Ni11  1  0.62655100  0.75000000  0.37655100  1
  Cu  Cu12  1  0.24522700  0.24522700  0.24522700  1
  Cu  Cu13  1  0.25477300  0.50000000  0.00000000  1
  Cu  Cu14  1  0.00000000  0.25477300  0.50000000  1
  Cu  Cu15  1  0.50000000  0.00000000  0.25477300  1
  C  C16  1  0.53336200  0.53336200  0.53336200  1
  C  C17  1  0.96663800  0.50000000  0.00000000  1
  C  C18  1  0.00000000  0.96663800  0.50000000  1
  C  C19  1  0.50000000  0.00000000  0.96663800  1
  C  C20  1  0.52837500  0.50000000  0.00000000  1
  C  C21  1  0.97162500  0.97162500  0.97162500  1
  C  C22  1  0.00000000  0.52837500  0.50000000  1
  C  C23  1  0.50000000  0.00000000  0.52837500  1
