# generated using pymatgen
data_Cu2NiC6
_symmetry_space_group_name_H-M   'P 1'
_cell_length_a   10.80046211
_cell_length_b   10.80046211
_cell_length_c   10.80046211
_cell_angle_alpha   60.00000000
_cell_angle_beta   60.00000000
_cell_angle_gamma   60.00000000
_symmetry_Int_Tables_number   1
_chemical_formula_structural   Cu2NiC6
_chemical_formula_sum   'Cu8 Ni4 C24'
_cell_volume   890.86524341
_cell_formula_units_Z   4
loop_
 _symmetry_equiv_pos_site_id
 _symmetry_equiv_pos_as_xyz
  1  'x, y, z'
loop_
 _atom_site_type_symbol
 _atom_site_label
 _atom_site_symmetry_multiplicity
 _atom_site_fract_x
 _atom_site_fract_y
 _atom_site_fract_z
 _atom_site_occupancy
  Ni  Ni0  1  0.62500000  0.12500000  0.12500000  1
  Ni  Ni1  1  0.12500000  0.62500000  0.12500000  1
  Ni  Ni2  1  0.12500000  0.12500000  0.62500000  1
  Ni  Ni3  1  0.12500000  0.12500000  0.12500000  1
  Cu  Cu4  1  0.77529400  0.40823500  0.40823500  1
  Cu  Cu5  1  0.40823500  0.77529400  0.40823500  1
  Cu  Cu6  1  0.40823500  0.40823500  0.77529400  1
  Cu  Cu7  1  0.40823500  0.40823500  0.40823500  1
  Cu  Cu8  1  0.47470600  0.84176500  0.84176500  1
  Cu  Cu9  1  0.84176500  0.47470600  0.84176500  1
  Cu  Cu10  1  0.84176500  0.84176500  0.47470600  1
  Cu  Cu11  1  0.84176500  0.84176500  0.84176500  1
  C  C12  1  0.12500000  0.62500000  0.62500000  1
  C  C13  1  0.62500000  0.12500000  0.62500000  1
  C  C14  1  0.62500000  0.62500000  0.12500000  1
  C  C15  1  0.62500000  0.62500000  0.62500000  1
  C  C16  1  0.80029100  0.80029100  0.19970900  1
  C  C17  1  0.19970900  0.19970900  0.80029100  1
  C  C18  1  0.80029100  0.19970900  0.80029100  1
  C  C19  1  0.19970900  0.80029100  0.19970900  1
  C  C20  1  0.19970900  0.80029100  0.80029100  1
  C  C21  1  0.80029100  0.19970900  0.19970900  1
  C  C22  1  0.44970900  0.44970900  0.05029100  1
  C  C23  1  0.05029100  0.05029100  0.44970900  1
  C  C24  1  0.44970900  0.05029100  0.44970900  1
  C  C25  1  0.05029100  0.44970900  0.05029100  1
  C  C26  1  0.05029100  0.44970900  0.44970900  1
  C  C27  1  0.44970900  0.05029100  0.05029100  1
  C  C28  1  0.26568200  0.57810600  0.57810600  1
  C  C29  1  0.57810600  0.26568200  0.57810600  1
  C  C30  1  0.57810600  0.57810600  0.26568200  1
  C  C31  1  0.57810600  0.57810600  0.57810600  1
  C  C32  1  0.98431800  0.67189400  0.67189400  1
  C  C33  1  0.67189400  0.98431800  0.67189400  1
  C  C34  1  0.67189400  0.67189400  0.98431800  1
  C  C35  1  0.67189400  0.67189400  0.67189400  1
