# generated using pymatgen
data_Cu11(NiC2)3
_symmetry_space_group_name_H-M   'P 1'
_cell_length_a   8.11205300
_cell_length_b   8.11205300
_cell_length_c   12.93025278
_cell_angle_alpha   71.71855492
_cell_angle_beta   71.71855492
_cell_angle_gamma   90.00000000
_symmetry_Int_Tables_number   1
_chemical_formula_structural   Cu11(NiC2)3
_chemical_formula_sum   'Cu22 Ni6 C12'
_cell_volume   762.57289333
_cell_formula_units_Z   2
loop_
 _symmetry_equiv_pos_site_id
 _symmetry_equiv_pos_as_xyz
  1  'x, y, z'
loop_
 _atom_site_type_symbol
 _atom_site_label
 _atom_site_symmetry_multiplicity
 _atom_site_fract_x
 _atom_site_fract_y
 _atom_site_fract_z
 _atom_site_occupancy
  C  C0  1  0.97822200  0.14881500  0.37296300  1
  C  C1  1  0.64881500  0.47822200  0.37296300  1
  C  C2  1  0.14881500  0.64881500  0.37296300  1
  C  C3  1  0.47822200  0.97822200  0.37296300  1
  C  C4  1  0.02413600  0.85869600  0.61716800  1
  C  C5  1  0.35869600  0.52413600  0.61716800  1
  C  C6  1  0.85869600  0.35869600  0.61716800  1
  C  C7  1  0.52413600  0.02413600  0.61716800  1
  C  C8  1  0.89341400  0.89341400  0.21317200  1
  C  C9  1  0.39341400  0.39341400  0.21317200  1
  C  C10  1  0.10708700  0.10708700  0.78582600  1
  C  C11  1  0.60708700  0.60708700  0.78582600  1
  Ni  Ni12  1  0.74993000  0.74993000  0.50014000  1
  Ni  Ni13  1  0.24993000  0.24993000  0.50014000  1
  Ni  Ni14  1  0.71324100  0.97520400  0.81155600  1
  Ni  Ni15  1  0.47520400  0.21324000  0.81155600  1
  Ni  Ni16  1  0.97520400  0.47520400  0.81155600  1
  Ni  Ni17  1  0.21324000  0.71324100  0.81155600  1
  Cu  Cu18  1  0.11968100  0.26129900  0.11902000  1
  Cu  Cu19  1  0.76129900  0.61968100  0.11902000  1
  Cu  Cu20  1  0.26129900  0.76129900  0.11902000  1
  Cu  Cu21  1  0.61968100  0.11968100  0.11902000  1
  Cu  Cu22  1  0.88115200  0.73282400  0.88602400  1
  Cu  Cu23  1  0.23282400  0.38115200  0.88602400  1
  Cu  Cu24  1  0.73282400  0.23282400  0.88602400  1
  Cu  Cu25  1  0.38115200  0.88115200  0.88602400  1
  Cu  Cu26  1  0.06740000  0.78962700  0.00132700  1
  Cu  Cu27  1  0.93127300  0.20904600  0.00132700  1
  Cu  Cu28  1  0.43127300  0.28962700  0.00132700  1
  Cu  Cu29  1  0.56740000  0.70904600  0.00132700  1
  Cu  Cu30  1  0.78962700  0.93127300  0.00132700  1
  Cu  Cu31  1  0.20904600  0.06740000  0.00132700  1
  Cu  Cu32  1  0.28962700  0.56740000  0.00132700  1
  Cu  Cu33  1  0.70904600  0.43127300  0.00132700  1
  Cu  Cu34  1  0.99869200  0.49869200  0.00261700  1
  Cu  Cu35  1  0.49869200  0.99869200  0.00261700  1
  Cu  Cu36  1  0.29099400  0.01926800  0.18973800  1
  Cu  Cu37  1  0.51926800  0.79099400  0.18973800  1
  Cu  Cu38  1  0.01926800  0.51926800  0.18973800  1
  Cu  Cu39  1  0.79099400  0.29099400  0.18973800  1
