# generated using pymatgen
data_CuNiC5
_symmetry_space_group_name_H-M   'P 1'
_cell_length_a   5.49776685
_cell_length_b   5.49776685
_cell_length_c   9.33317400
_cell_angle_alpha   90.00000000
_cell_angle_beta   90.00000000
_cell_angle_gamma   120.00001021
_symmetry_Int_Tables_number   1
_chemical_formula_structural   CuNiC5
_chemical_formula_sum   'Cu2 Ni2 C10'
_cell_volume   244.30512964
_cell_formula_units_Z   2
loop_
 _symmetry_equiv_pos_site_id
 _symmetry_equiv_pos_as_xyz
  1  'x, y, z'
loop_
 _atom_site_type_symbol
 _atom_site_label
 _atom_site_symmetry_multiplicity
 _atom_site_fract_x
 _atom_site_fract_y
 _atom_site_fract_z
 _atom_site_occupancy
  Ni  Ni0  1  0.00000000  0.00000000  0.49713900  1
  Ni  Ni1  1  0.00000000  0.00000000  0.99713900  1
  Cu  Cu2  1  0.66666700  0.33333300  0.68032400  1
  Cu  Cu3  1  0.33333300  0.66666700  0.18032400  1
  C  C4  1  0.33333300  0.66666700  0.79133100  1
  C  C5  1  0.66666700  0.33333300  0.29133100  1
  C  C6  1  0.61123700  0.96220600  0.73420200  1
  C  C7  1  0.03779400  0.64903100  0.73420200  1
  C  C8  1  0.35096900  0.38876300  0.73420200  1
  C  C9  1  0.96220600  0.61123700  0.23420200  1
  C  C10  1  0.66666700  0.33333300  0.47000200  1
  C  C11  1  0.33333300  0.66666700  0.97000200  1
  C  C12  1  0.38876300  0.35096900  0.23420200  1
  C  C13  1  0.64903100  0.03779400  0.23420200  1
