# generated using pymatgen
data_CuNiC7
_symmetry_space_group_name_H-M   'P 1'
_cell_length_a   5.57003800
_cell_length_b   8.89643300
_cell_length_c   12.10261074
_cell_angle_alpha   62.67789385
_cell_angle_beta   90.00000000
_cell_angle_gamma   90.00000000
_symmetry_Int_Tables_number   1
_chemical_formula_structural   CuNiC7
_chemical_formula_sum   'Cu4 Ni4 C28'
_cell_volume   532.82100894
_cell_formula_units_Z   4
loop_
 _symmetry_equiv_pos_site_id
 _symmetry_equiv_pos_as_xyz
  1  'x, y, z'
loop_
 _atom_site_type_symbol
 _atom_site_label
 _atom_site_symmetry_multiplicity
 _atom_site_fract_x
 _atom_site_fract_y
 _atom_site_fract_z
 _atom_site_occupancy
  Ni  Ni0  1  0.75973400  0.81480800  0.26427200  1
  Ni  Ni1  1  0.25973400  0.18519200  0.23572800  1
  Ni  Ni2  1  0.24026600  0.18519200  0.73572800  1
  Ni  Ni3  1  0.74026600  0.81480800  0.76427200  1
  Cu  Cu4  1  0.23892500  0.72830300  0.54299300  1
  Cu  Cu5  1  0.73892500  0.27169700  0.95700700  1
  Cu  Cu6  1  0.76107500  0.27169700  0.45700700  1
  Cu  Cu7  1  0.26107500  0.72830300  0.04299300  1
  C  C8  1  0.92734100  0.73204300  0.45731100  1
  C  C9  1  0.42734100  0.26795700  0.04268900  1
  C  C10  1  0.07265900  0.26795700  0.54268900  1
  C  C11  1  0.57265900  0.73204300  0.95731100  1
  C  C12  1  0.06094300  0.70490100  0.91548400  1
  C  C13  1  0.56094300  0.29509900  0.58451600  1
  C  C14  1  0.93905700  0.29509900  0.08451600  1
  C  C15  1  0.43905700  0.70490100  0.41548400  1
  C  C16  1  0.70772800  0.52336100  0.86406300  1
  C  C17  1  0.20772800  0.47663900  0.63593700  1
  C  C18  1  0.29227200  0.47663900  0.13593700  1
  C  C19  1  0.79227200  0.52336100  0.36406300  1
  C  C20  1  0.74306400  0.01987800  0.04874800  1
  C  C21  1  0.24306400  0.98012200  0.45125200  1
  C  C22  1  0.25693600  0.98012200  0.95125200  1
  C  C23  1  0.75693600  0.01987800  0.54874800  1
  C  C24  1  0.04599300  0.73668000  0.68170100  1
  C  C25  1  0.54599300  0.26332000  0.81829900  1
  C  C26  1  0.95400700  0.26332000  0.31829900  1
  C  C27  1  0.45400700  0.73668000  0.18170100  1
  C  C28  1  0.02938200  0.28118800  0.85627900  1
  C  C29  1  0.52938200  0.71881200  0.64372100  1
  C  C30  1  0.97061800  0.71881200  0.14372100  1
  C  C31  1  0.47061800  0.28118800  0.35627900  1
  C  C32  1  0.10117500  0.96271200  0.22954400  1
  C  C33  1  0.60117500  0.03728800  0.27045600  1
  C  C34  1  0.89882500  0.03728800  0.77045600  1
  C  C35  1  0.39882500  0.96271200  0.72954400  1
