# generated using pymatgen
data_Cu(NiC2)2
_symmetry_space_group_name_H-M   'P 1'
_cell_length_a   7.81043216
_cell_length_b   7.81043216
_cell_length_c   7.81043216
_cell_angle_alpha   131.51840371
_cell_angle_beta   131.51840371
_cell_angle_gamma   70.99072773
_symmetry_Int_Tables_number   1
_chemical_formula_structural   Cu(NiC2)2
_chemical_formula_sum   'Cu1 Ni2 C4'
_cell_volume   261.56270368
_cell_formula_units_Z   1
loop_
 _symmetry_equiv_pos_site_id
 _symmetry_equiv_pos_as_xyz
  1  'x, y, z'
loop_
 _atom_site_type_symbol
 _atom_site_label
 _atom_site_symmetry_multiplicity
 _atom_site_fract_x
 _atom_site_fract_y
 _atom_site_fract_z
 _atom_site_occupancy
  Ni  Ni0  1  0.25000000  0.75000000  0.50000000  1
  Ni  Ni1  1  0.50000000  0.50000000  0.00000000  1
  Cu  Cu2  1  0.00000000  0.00000000  0.00000000  1
  C  C3  1  0.09285400  0.58699100  0.95461100  1
  C  C4  1  0.63238000  0.13824300  0.04538900  1
  C  C5  1  0.41300900  0.36762000  0.50586300  1
  C  C6  1  0.86175700  0.90714600  0.49413700  1
