# generated using pymatgen
data_CuNiC7
_symmetry_space_group_name_H-M   'P 1'
_cell_length_a   7.64093603
_cell_length_b   7.64093603
_cell_length_c   7.64093603
_cell_angle_alpha   120.66797855
_cell_angle_beta   119.96243592
_cell_angle_gamma   89.45600301
_symmetry_Int_Tables_number   1
_chemical_formula_structural   CuNiC7
_chemical_formula_sum   'Cu2 Ni2 C14'
_cell_volume   313.91247519
_cell_formula_units_Z   2
loop_
 _symmetry_equiv_pos_site_id
 _symmetry_equiv_pos_as_xyz
  1  'x, y, z'
loop_
 _atom_site_type_symbol
 _atom_site_label
 _atom_site_symmetry_multiplicity
 _atom_site_fract_x
 _atom_site_fract_y
 _atom_site_fract_z
 _atom_site_occupancy
  C  C0  1  0.62089900  0.87089900  0.75000000  1
  C  C1  1  0.37910100  0.12910100  0.25000000  1
  Ni  Ni2  1  0.50000000  0.50000000  0.00000000  1
  Ni  Ni3  1  0.00000000  0.50000000  0.50000000  1
  Cu  Cu4  1  0.00000000  0.50000000  0.00000000  1
  Cu  Cu5  1  0.00000000  0.00000000  0.50000000  1
  C  C6  1  0.05808500  0.80808500  0.25000000  1
  C  C7  1  0.67293700  0.42293700  0.25000000  1
  C  C8  1  0.06476000  0.83310100  0.63922800  1
  C  C9  1  0.69387300  0.42553200  0.86077200  1
  C  C10  1  0.69387300  0.83310100  0.26834100  1
  C  C11  1  0.06476000  0.42553200  0.23165900  1
  C  C12  1  0.94191500  0.19191500  0.75000000  1
  C  C13  1  0.32706300  0.57706300  0.75000000  1
  C  C14  1  0.93524000  0.16689900  0.36077200  1
  C  C15  1  0.30612700  0.57446800  0.13922800  1
  C  C16  1  0.30612700  0.16689900  0.73165900  1
  C  C17  1  0.93524000  0.57446800  0.76834100  1
