# generated using pymatgen
data_Cu5NiC
_symmetry_space_group_name_H-M   'P 1'
_cell_length_a   10.93312879
_cell_length_b   10.93312879
_cell_length_c   10.93312870
_cell_angle_alpha   28.59005837
_cell_angle_beta   28.59005837
_cell_angle_gamma   28.59005978
_symmetry_Int_Tables_number   1
_chemical_formula_structural   Cu5NiC
_chemical_formula_sum   'Cu10 Ni2 C2'
_cell_volume   264.55023659
_cell_formula_units_Z   2
loop_
 _symmetry_equiv_pos_site_id
 _symmetry_equiv_pos_as_xyz
  1  'x, y, z'
loop_
 _atom_site_type_symbol
 _atom_site_label
 _atom_site_symmetry_multiplicity
 _atom_site_fract_x
 _atom_site_fract_y
 _atom_site_fract_z
 _atom_site_occupancy
  C  C0  1  0.50000000  0.50000000  0.50000000  1
  C  C1  1  0.00000000  0.00000000  0.00000000  1
  Ni  Ni2  1  0.89452900  0.89452900  0.89452900  1
  Ni  Ni3  1  0.10547100  0.10547100  0.10547100  1
  Cu  Cu4  1  0.07557400  0.62117400  0.52328600  1
  Cu  Cu5  1  0.52328600  0.07557400  0.62117400  1
  Cu  Cu6  1  0.62117400  0.52328600  0.07557400  1
  Cu  Cu7  1  0.92442600  0.37882600  0.47671400  1
  Cu  Cu8  1  0.47671400  0.92442600  0.37882600  1
  Cu  Cu9  1  0.37882600  0.47671400  0.92442600  1
  Cu  Cu10  1  0.81363300  0.81363300  0.81363300  1
  Cu  Cu11  1  0.18636700  0.18636700  0.18636700  1
  Cu  Cu12  1  0.66602500  0.66602500  0.66602500  1
  Cu  Cu13  1  0.33397500  0.33397500  0.33397500  1
