# generated using pymatgen
data_CuNiC6
_symmetry_space_group_name_H-M   'P 1'
_cell_length_a   6.40152400
_cell_length_b   10.17297500
_cell_length_c   12.82633200
_cell_angle_alpha   90.00000000
_cell_angle_beta   90.00000000
_cell_angle_gamma   90.00000000
_symmetry_Int_Tables_number   1
_chemical_formula_structural   CuNiC6
_chemical_formula_sum   'Cu8 Ni8 C48'
_cell_volume   835.28336508
_cell_formula_units_Z   8
loop_
 _symmetry_equiv_pos_site_id
 _symmetry_equiv_pos_as_xyz
  1  'x, y, z'
loop_
 _atom_site_type_symbol
 _atom_site_label
 _atom_site_symmetry_multiplicity
 _atom_site_fract_x
 _atom_site_fract_y
 _atom_site_fract_z
 _atom_site_occupancy
  C  C0  1  0.19142300  0.56895600  0.39157500  1
  C  C1  1  0.22027600  0.81544200  0.61877100  1
  C  C2  1  0.72027600  0.31544200  0.88122900  1
  C  C3  1  0.27972400  0.81544200  0.11877100  1
  C  C4  1  0.77972400  0.31544200  0.38122900  1
  C  C5  1  0.69142300  0.06895600  0.10842500  1
  C  C6  1  0.30857700  0.56895600  0.89157500  1
  C  C7  1  0.80857700  0.06895600  0.60842500  1
  Ni  Ni8  1  0.75407400  0.75206000  0.25157600  1
  Ni  Ni9  1  0.24592600  0.25206000  0.74842400  1
  Ni  Ni10  1  0.74592600  0.75206000  0.75157600  1
  Ni  Ni11  1  0.25407400  0.25206000  0.24842400  1
  Ni  Ni12  1  0.99728100  0.50097400  0.13043800  1
  Ni  Ni13  1  0.00271900  0.00097400  0.86956200  1
  Ni  Ni14  1  0.50271900  0.50097400  0.63043800  1
  Ni  Ni15  1  0.49728100  0.00097400  0.36956200  1
  Cu  Cu16  1  0.83404300  0.75104700  0.99779700  1
  Cu  Cu17  1  0.33404300  0.25104700  0.50220300  1
  Cu  Cu18  1  0.66595700  0.75104700  0.49779700  1
  Cu  Cu19  1  0.16595700  0.25104700  0.00220300  1
  Cu  Cu20  1  0.50378200  0.50302400  0.17912200  1
  Cu  Cu21  1  0.49621800  0.00302400  0.82087800  1
  Cu  Cu22  1  0.99621800  0.50302400  0.67912200  1
  Cu  Cu23  1  0.00378200  0.00302400  0.32087800  1
  C  C24  1  0.96110800  0.88792600  0.24422000  1
  C  C25  1  0.03889200  0.38792600  0.75578000  1
  C  C26  1  0.53889200  0.88792600  0.74422000  1
  C  C27  1  0.46110800  0.38792600  0.25578000  1
  C  C28  1  0.04090100  0.12168700  0.24649200  1
  C  C29  1  0.95909900  0.62168700  0.75350800  1
  C  C30  1  0.45909900  0.12168700  0.74649200  1
  C  C31  1  0.54090100  0.62168700  0.25350800  1
  C  C32  1  0.19515300  0.97165400  0.39031700  1
  C  C33  1  0.80484700  0.47165400  0.60968300  1
  C  C34  1  0.30484700  0.97165400  0.89031700  1
  C  C35  1  0.69515300  0.47165400  0.10968300  1
  C  C36  1  0.81320000  0.03323500  0.39131800  1
  C  C37  1  0.18680000  0.53323500  0.60868200  1
  C  C38  1  0.68680000  0.03323500  0.89131800  1
  C  C39  1  0.69037200  0.72671600  0.90233000  1
  C  C40  1  0.31320000  0.53323500  0.10868200  1
  C  C41  1  0.53268500  0.63489500  0.72492900  1
  C  C42  1  0.03268500  0.13489500  0.77507100  1
  C  C43  1  0.96731500  0.63489500  0.22492900  1
  C  C44  1  0.54630900  0.87739200  0.26889000  1
  C  C45  1  0.45369100  0.37739200  0.73111000  1
  C  C46  1  0.95369100  0.87739200  0.76889000  1
  C  C47  1  0.04630900  0.37739200  0.23111000  1
  C  C48  1  0.48413600  0.13258000  0.48472100  1
  C  C49  1  0.51586400  0.63258000  0.51527900  1
  C  C50  1  0.01586400  0.13258000  0.98472100  1
  C  C51  1  0.98413600  0.63258000  0.01527900  1
  C  C52  1  0.47566500  0.37462100  0.51825800  1
  C  C53  1  0.52433500  0.87462100  0.48174200  1
  C  C54  1  0.02433500  0.37462100  0.01825800  1
  C  C55  1  0.97566500  0.87462100  0.98174200  1
  C  C56  1  0.19480000  0.27578000  0.40532700  1
  C  C57  1  0.80520000  0.77578000  0.59467300  1
  C  C58  1  0.30520000  0.27578000  0.90532700  1
  C  C59  1  0.69480000  0.77578000  0.09467300  1
  C  C60  1  0.19037200  0.22671600  0.59767000  1
  C  C61  1  0.80962800  0.72671600  0.40233000  1
  C  C62  1  0.30962800  0.22671600  0.09767000  1
  C  C63  1  0.46731500  0.13489500  0.27507100  1
