# generated using pymatgen
data_Cu8NiC16
_symmetry_space_group_name_H-M   'P 1'
_cell_length_a   7.93968809
_cell_length_b   7.17511269
_cell_length_c   5.80631368
_cell_angle_alpha   109.87278919
_cell_angle_beta   115.43663507
_cell_angle_gamma   78.95583701
_symmetry_Int_Tables_number   1
_chemical_formula_structural   Cu8NiC16
_chemical_formula_sum   'Cu8 Ni1 C16'
_cell_volume   280.51715386
_cell_formula_units_Z   1
loop_
 _symmetry_equiv_pos_site_id
 _symmetry_equiv_pos_as_xyz
  1  'x, y, z'
loop_
 _atom_site_type_symbol
 _atom_site_label
 _atom_site_symmetry_multiplicity
 _atom_site_fract_x
 _atom_site_fract_y
 _atom_site_fract_z
 _atom_site_occupancy
  Ni  Ni0  1  0.98939800  0.99331200  0.48118700  1
  Cu  Cu1  1  0.68365800  0.26983400  0.53086700  1
  Cu  Cu2  1  0.52537400  0.99986000  0.97468900  1
  Cu  Cu3  1  0.25290700  0.25143800  0.49728800  1
  Cu  Cu4  1  0.72305700  0.76152600  0.48812200  1
  Cu  Cu5  1  0.49312400  0.49879500  0.00863500  1
  Cu  Cu6  1  0.98856800  0.99614900  0.98440200  1
  Cu  Cu7  1  0.29408700  0.72298500  0.48538700  1
  Cu  Cu8  1  0.05159700  0.47805100  0.97328100  1
  C  C9  1  0.99094500  0.17834400  0.29789500  1
  C  C10  1  0.94384500  0.21183000  0.79931800  1
  C  C11  1  0.54804600  0.28859800  0.16358900  1
  C  C12  1  0.29605700  0.00521700  0.64123500  1
  C  C13  1  0.51648500  0.31329400  0.69667400  1
  C  C14  1  0.73625700  0.57343600  0.18673800  1
  C  C15  1  0.71834300  0.93597700  0.82089200  1
  C  C16  1  0.23636700  0.43776900  0.83106400  1
  C  C17  1  0.47510400  0.68575400  0.32732000  1
  C  C18  1  0.69597800  0.98705800  0.33397900  1
  C  C19  1  0.20335300  0.46924900  0.33367500  1
  C  C20  1  0.44225100  0.71441700  0.83806000  1
  C  C21  1  0.06709200  0.77609200  0.18123900  1
  C  C22  1  0.98839900  0.80624000  0.66781100  1
  C  C23  1  0.80306600  0.53162100  0.68668800  1
  C  C24  1  0.27182600  0.05759600  0.15091300  1
