# generated using pymatgen
data_CuNiC17
_symmetry_space_group_name_H-M   'P 1'
_cell_length_a   9.94269500
_cell_length_b   9.94269500
_cell_length_c   9.94269500
_cell_angle_alpha   90.00000000
_cell_angle_beta   90.00000000
_cell_angle_gamma   90.00000000
_symmetry_Int_Tables_number   1
_chemical_formula_structural   CuNiC17
_chemical_formula_sum   'Cu4 Ni4 C68'
_cell_volume   982.90682771
_cell_formula_units_Z   4
loop_
 _symmetry_equiv_pos_site_id
 _symmetry_equiv_pos_as_xyz
  1  'x, y, z'
loop_
 _atom_site_type_symbol
 _atom_site_label
 _atom_site_symmetry_multiplicity
 _atom_site_fract_x
 _atom_site_fract_y
 _atom_site_fract_z
 _atom_site_occupancy
  C  C0  1  0.45564500  0.45564500  0.45564500  1
  C  C1  1  0.54435500  0.95564500  0.04435500  1
  C  C2  1  0.95564500  0.04435500  0.54435500  1
  C  C3  1  0.04435500  0.54435500  0.95564500  1
  C  C4  1  0.18407600  0.81592400  0.31592400  1
  C  C5  1  0.68407600  0.68407600  0.68407600  1
  C  C6  1  0.31592400  0.18407600  0.81592400  1
  C  C7  1  0.81592400  0.31592400  0.18407600  1
  Ni  Ni8  1  0.39517500  0.60482500  0.10482500  1
  Ni  Ni9  1  0.89517500  0.89517500  0.89517500  1
  Ni  Ni10  1  0.10482500  0.39517500  0.60482500  1
  Ni  Ni11  1  0.60482500  0.10482500  0.39517500  1
  Cu  Cu12  1  0.33692200  0.83692200  0.66307800  1
  Cu  Cu13  1  0.83692200  0.66307800  0.33692200  1
  Cu  Cu14  1  0.66307800  0.33692200  0.83692200  1
  Cu  Cu15  1  0.16307800  0.16307800  0.16307800  1
  C  C16  1  0.36820000  0.51906600  0.79498800  1
  C  C17  1  0.20501200  0.86820000  0.98093400  1
  C  C18  1  0.01906600  0.70501200  0.63180000  1
  C  C19  1  0.86820000  0.98093400  0.20501200  1
  C  C20  1  0.70501200  0.63180000  0.01906600  1
  C  C21  1  0.51906600  0.79498800  0.36820000  1
  C  C22  1  0.63180000  0.01906600  0.70501200  1
  C  C23  1  0.79498800  0.36820000  0.51906600  1
  C  C24  1  0.98093400  0.20501200  0.86820000  1
  C  C25  1  0.13180000  0.48093400  0.29498800  1
  C  C26  1  0.29498800  0.13180000  0.48093400  1
  C  C27  1  0.48093400  0.29498800  0.13180000  1
  C  C28  1  0.25709700  0.45556100  0.70935200  1
  C  C29  1  0.29064800  0.75709700  0.04443900  1
  C  C30  1  0.95556100  0.79064800  0.74290300  1
  C  C31  1  0.75709700  0.04443900  0.29064800  1
  C  C32  1  0.79064800  0.74290300  0.95556100  1
  C  C33  1  0.45556100  0.70935200  0.25709700  1
  C  C34  1  0.74290300  0.95556100  0.79064800  1
  C  C35  1  0.70935200  0.25709700  0.45556100  1
  C  C36  1  0.04443900  0.29064800  0.75709700  1
  C  C37  1  0.24290300  0.54443900  0.20935200  1
  C  C38  1  0.20935200  0.24290300  0.54443900  1
  C  C39  1  0.54443900  0.20935200  0.24290300  1
  C  C40  1  0.40471500  0.66462900  0.75088400  1
  C  C41  1  0.24911600  0.90471500  0.83537100  1
  C  C42  1  0.16462900  0.74911600  0.59528500  1
  C  C43  1  0.90471500  0.83537100  0.24911600  1
  C  C44  1  0.74911600  0.59528500  0.16462900  1
  C  C45  1  0.66462900  0.75088400  0.40471500  1
  C  C46  1  0.59528500  0.16462900  0.74911600  1
  C  C47  1  0.75088400  0.40471500  0.66462900  1
  C  C48  1  0.83537100  0.24911600  0.90471500  1
  C  C49  1  0.09528500  0.33537100  0.25088400  1
  C  C50  1  0.25088400  0.09528500  0.33537100  1
  C  C51  1  0.33537100  0.25088400  0.09528500  1
  C  C52  1  0.49838600  0.43632200  0.76192700  1
  C  C53  1  0.23807300  0.99838600  0.06367800  1
  C  C54  1  0.93632200  0.73807300  0.50161400  1
  C  C55  1  0.99838600  0.06367800  0.23807300  1
  C  C56  1  0.73807300  0.50161400  0.93632200  1
  C  C57  1  0.43632200  0.76192700  0.49838600  1
  C  C58  1  0.50161400  0.93632200  0.73807300  1
  C  C59  1  0.76192700  0.49838600  0.43632200  1
  C  C60  1  0.06367800  0.23807300  0.99838600  1
  C  C61  1  0.00161400  0.56367800  0.26192700  1
  C  C62  1  0.26192700  0.00161400  0.56367800  1
  C  C63  1  0.56367800  0.26192700  0.00161400  1
  C  C64  1  0.33255200  0.51462600  0.94503900  1
  C  C65  1  0.05496100  0.83255200  0.98537400  1
  C  C66  1  0.01462600  0.55496100  0.66744800  1
  C  C67  1  0.83255200  0.98537400  0.05496100  1
  C  C68  1  0.55496100  0.66744800  0.01462600  1
  C  C69  1  0.51462600  0.94503900  0.33255200  1
  C  C70  1  0.66744800  0.01462600  0.55496100  1
  C  C71  1  0.94503900  0.33255200  0.51462600  1
  C  C72  1  0.98537400  0.05496100  0.83255200  1
  C  C73  1  0.16744800  0.48537400  0.44503900  1
  C  C74  1  0.44503900  0.16744800  0.48537400  1
  C  C75  1  0.48537400  0.44503900  0.16744800  1
