# generated using pymatgen
data_Cu16Ni4C3
_symmetry_space_group_name_H-M   'P 1'
_cell_length_a   8.27547919
_cell_length_b   8.27547919
_cell_length_c   13.24191900
_cell_angle_alpha   90.00000000
_cell_angle_beta   90.00000000
_cell_angle_gamma   128.88745241
_symmetry_Int_Tables_number   1
_chemical_formula_structural   Cu16Ni4C3
_chemical_formula_sum   'Cu32 Ni8 C6'
_cell_volume   705.87737379
_cell_formula_units_Z   2
loop_
 _symmetry_equiv_pos_site_id
 _symmetry_equiv_pos_as_xyz
  1  'x, y, z'
loop_
 _atom_site_type_symbol
 _atom_site_label
 _atom_site_symmetry_multiplicity
 _atom_site_fract_x
 _atom_site_fract_y
 _atom_site_fract_z
 _atom_site_occupancy
  C  C0  1  0.06798700  0.56798700  0.75000000  1
  C  C1  1  0.43201300  0.93201300  0.25000000  1
  C  C2  1  0.93201300  0.43201300  0.25000000  1
  C  C3  1  0.56798700  0.06798700  0.75000000  1
  C  C4  1  0.00000000  0.00000000  0.50000000  1
  C  C5  1  0.50000000  0.50000000  0.00000000  1
  Ni  Ni6  1  0.88700200  0.78337800  0.68556900  1
  Ni  Ni7  1  0.21662200  0.11299800  0.31443100  1
  Ni  Ni8  1  0.71662200  0.61299800  0.18556900  1
  Ni  Ni9  1  0.38700200  0.28337800  0.81443100  1
  Ni  Ni10  1  0.11299800  0.21662200  0.31443100  1
  Ni  Ni11  1  0.78337800  0.88700200  0.68556900  1
  Ni  Ni12  1  0.28337800  0.38700200  0.81443100  1
  Ni  Ni13  1  0.61299800  0.71662200  0.18556900  1
  Cu  Cu14  1  0.00794900  0.82941900  0.60829800  1
  Cu  Cu15  1  0.17058100  0.99205100  0.39170200  1
  Cu  Cu16  1  0.67058100  0.49205100  0.10829800  1
  Cu  Cu17  1  0.50794900  0.32941900  0.89170200  1
  Cu  Cu18  1  0.99205100  0.17058100  0.39170200  1
  Cu  Cu19  1  0.82941900  0.00794900  0.60829800  1
  Cu  Cu20  1  0.32941900  0.50794900  0.89170200  1
  Cu  Cu21  1  0.49205100  0.67058100  0.10829800  1
  Cu  Cu22  1  0.86311600  0.66950900  0.75436200  1
  Cu  Cu23  1  0.33049100  0.13688400  0.24563800  1
  Cu  Cu24  1  0.83049100  0.63688400  0.25436200  1
  Cu  Cu25  1  0.36311600  0.16950900  0.74563800  1
  Cu  Cu26  1  0.13688400  0.33049100  0.24563800  1
  Cu  Cu27  1  0.66950900  0.86311600  0.75436200  1
  Cu  Cu28  1  0.16950900  0.36311600  0.74563800  1
  Cu  Cu29  1  0.63688400  0.83049100  0.25436200  1
  Cu  Cu30  1  0.75534200  0.75534200  0.45372800  1
  Cu  Cu31  1  0.24465800  0.24465800  0.54627200  1
  Cu  Cu32  1  0.74465800  0.74465800  0.95372800  1
  Cu  Cu33  1  0.25534200  0.25534200  0.04627200  1
  Cu  Cu34  1  0.74788100  0.31611800  0.58162100  1
  Cu  Cu35  1  0.68388200  0.25211900  0.41837900  1
  Cu  Cu36  1  0.18388200  0.75211900  0.08162100  1
  Cu  Cu37  1  0.24788100  0.81611800  0.91837900  1
  Cu  Cu38  1  0.25211900  0.68388200  0.41837900  1
  Cu  Cu39  1  0.31611800  0.74788100  0.58162100  1
  Cu  Cu40  1  0.81611800  0.24788100  0.91837900  1
  Cu  Cu41  1  0.75211900  0.18388200  0.08162100  1
  Cu  Cu42  1  0.66922300  0.33077700  0.50000000  1
  Cu  Cu43  1  0.16922300  0.83077700  0.00000000  1
  Cu  Cu44  1  0.33077700  0.66922300  0.50000000  1
  Cu  Cu45  1  0.83077700  0.16922300  0.00000000  1
