# generated using pymatgen
data_Cu2NiC7
_symmetry_space_group_name_H-M   'P 1'
_cell_length_a   9.17583800
_cell_length_b   5.46532400
_cell_length_c   9.92229217
_cell_angle_alpha   75.56002122
_cell_angle_beta   90.00000000
_cell_angle_gamma   90.00000000
_symmetry_Int_Tables_number   1
_chemical_formula_structural   Cu2NiC7
_chemical_formula_sum   'Cu8 Ni4 C28'
_cell_volume   481.87307203
_cell_formula_units_Z   4
loop_
 _symmetry_equiv_pos_site_id
 _symmetry_equiv_pos_as_xyz
  1  'x, y, z'
loop_
 _atom_site_type_symbol
 _atom_site_label
 _atom_site_symmetry_multiplicity
 _atom_site_fract_x
 _atom_site_fract_y
 _atom_site_fract_z
 _atom_site_occupancy
  Ni  Ni0  1  0.48775300  0.55246900  0.24256000  1
  Ni  Ni1  1  0.98775300  0.94753100  0.75744000  1
  Ni  Ni2  1  0.51224700  0.44753100  0.75744000  1
  Ni  Ni3  1  0.01224700  0.05246900  0.24256000  1
  C  C4  1  0.65508400  0.04452300  0.24626100  1
  C  C5  1  0.15508400  0.45547700  0.75373900  1
  C  C6  1  0.34491600  0.95547700  0.75373900  1
  C  C7  1  0.84491600  0.54452300  0.24626100  1
  Cu  Cu8  1  0.33851200  0.17772200  0.05497900  1
  Cu  Cu9  1  0.83851200  0.32227800  0.94502100  1
  Cu  Cu10  1  0.66148800  0.82227800  0.94502100  1
  Cu  Cu11  1  0.16148800  0.67772200  0.05497900  1
  Cu  Cu12  1  0.34378100  0.74979400  0.45750600  1
  Cu  Cu13  1  0.84378100  0.75020600  0.54249400  1
  Cu  Cu14  1  0.65621900  0.25020600  0.54249400  1
  Cu  Cu15  1  0.15621900  0.24979400  0.45750600  1
  C  C16  1  0.29054400  0.48552900  0.38769800  1
  C  C17  1  0.79054400  0.01447100  0.61230200  1
  C  C18  1  0.70945600  0.51447100  0.61230200  1
  C  C19  1  0.20945600  0.98552900  0.38769800  1
  C  C20  1  0.32091000  0.83262200  0.10922700  1
  C  C21  1  0.82091000  0.66737800  0.89077300  1
  C  C22  1  0.67909000  0.16737800  0.89077300  1
  C  C23  1  0.17909000  0.33262200  0.10922700  1
  C  C24  1  0.99276600  0.30312000  0.36694900  1
  C  C25  1  0.49276600  0.19688000  0.63305100  1
  C  C26  1  0.00723400  0.69688000  0.63305100  1
  C  C27  1  0.50723400  0.80312000  0.36694900  1
  C  C28  1  0.01753100  0.77571700  0.14026200  1
  C  C29  1  0.51753100  0.72428300  0.85973800  1
  C  C30  1  0.98246900  0.22428300  0.85973800  1
  C  C31  1  0.48246900  0.27571700  0.14026200  1
  C  C32  1  0.33891700  0.25117200  0.87111600  1
  C  C33  1  0.83891700  0.24882800  0.12888400  1
  C  C34  1  0.66108300  0.74882800  0.12888400  1
  C  C35  1  0.16108300  0.75117200  0.87111600  1
  C  C36  1  0.34673100  0.67169900  0.63933800  1
  C  C37  1  0.84673100  0.82830100  0.36066200  1
  C  C38  1  0.65326900  0.32830100  0.36066200  1
  C  C39  1  0.15326900  0.17169900  0.63933800  1
