# generated using pymatgen
data_Cu3(NiC8)2
_symmetry_space_group_name_H-M   'P 1'
_cell_length_a   9.74793942
_cell_length_b   9.74793942
_cell_length_c   7.13603200
_cell_angle_alpha   90.00000000
_cell_angle_beta   90.00000000
_cell_angle_gamma   119.99999604
_symmetry_Int_Tables_number   1
_chemical_formula_structural   Cu3(NiC8)2
_chemical_formula_sum   'Cu6 Ni4 C32'
_cell_volume   587.23655282
_cell_formula_units_Z   2
loop_
 _symmetry_equiv_pos_site_id
 _symmetry_equiv_pos_as_xyz
  1  'x, y, z'
loop_
 _atom_site_type_symbol
 _atom_site_label
 _atom_site_symmetry_multiplicity
 _atom_site_fract_x
 _atom_site_fract_y
 _atom_site_fract_z
 _atom_site_occupancy
  Ni  Ni0  1  0.33333300  0.66666700  0.00338900  1
  Ni  Ni1  1  0.66666700  0.33333300  0.99661100  1
  Ni  Ni2  1  0.66666700  0.33333300  0.50338900  1
  Ni  Ni3  1  0.33333300  0.66666700  0.49661100  1
  Cu  Cu4  1  0.75992000  0.74825500  0.75000000  1
  Cu  Cu5  1  0.24008000  0.25174500  0.25000000  1
  Cu  Cu6  1  0.98833500  0.24008000  0.75000000  1
  Cu  Cu7  1  0.01166500  0.75992000  0.25000000  1
  Cu  Cu8  1  0.25174500  0.01166500  0.75000000  1
  Cu  Cu9  1  0.74825500  0.98833500  0.25000000  1
  C  C10  1  0.59767100  0.96968000  0.75000000  1
  C  C11  1  0.40232900  0.03032000  0.25000000  1
  C  C12  1  0.37200900  0.40232900  0.75000000  1
  C  C13  1  0.62799100  0.59767100  0.25000000  1
  C  C14  1  0.03032000  0.62799100  0.75000000  1
  C  C15  1  0.96968000  0.37200900  0.25000000  1
  C  C16  1  0.40309200  0.87101600  0.75000000  1
  C  C17  1  0.59690800  0.12898400  0.25000000  1
  C  C18  1  0.46792400  0.59690800  0.75000000  1
  C  C19  1  0.53207600  0.40309200  0.25000000  1
  C  C20  1  0.12898400  0.53207600  0.75000000  1
  C  C21  1  0.87101600  0.46792400  0.25000000  1
  C  C22  1  0.66071100  0.91061300  0.93171600  1
  C  C23  1  0.33928900  0.08938700  0.06828400  1
  C  C24  1  0.24990200  0.33928900  0.93171600  1
  C  C25  1  0.33928900  0.08938700  0.43171600  1
  C  C26  1  0.75009800  0.66071100  0.06828400  1
  C  C27  1  0.66071100  0.91061300  0.56828400  1
  C  C28  1  0.08938700  0.75009800  0.93171600  1
  C  C29  1  0.75009800  0.66071100  0.43171600  1
  C  C30  1  0.91061300  0.24990200  0.06828400  1
  C  C31  1  0.24990200  0.33928900  0.56828400  1
  C  C32  1  0.91061300  0.24990200  0.43171600  1
  C  C33  1  0.08938700  0.75009800  0.56828400  1
  C  C34  1  0.83825200  0.51215700  0.75000000  1
  C  C35  1  0.16174800  0.48784300  0.25000000  1
  C  C36  1  0.67390400  0.16174800  0.75000000  1
  C  C37  1  0.32609600  0.83825200  0.25000000  1
  C  C38  1  0.48784300  0.32609600  0.75000000  1
  C  C39  1  0.51215700  0.67390400  0.25000000  1
  C  C40  1  0.00000000  0.00000000  0.75000000  1
  C  C41  1  0.00000000  0.00000000  0.25000000  1
