# generated using pymatgen
data_CuNi3C10
_symmetry_space_group_name_H-M   'P 1'
_cell_length_a   5.78847600
_cell_length_b   11.12052900
_cell_length_c   12.92814200
_cell_angle_alpha   90.00000000
_cell_angle_beta   90.00000000
_cell_angle_gamma   90.00000000
_symmetry_Int_Tables_number   1
_chemical_formula_structural   CuNi3C10
_chemical_formula_sum   'Cu4 Ni12 C40'
_cell_volume   832.19633268
_cell_formula_units_Z   4
loop_
 _symmetry_equiv_pos_site_id
 _symmetry_equiv_pos_as_xyz
  1  'x, y, z'
loop_
 _atom_site_type_symbol
 _atom_site_label
 _atom_site_symmetry_multiplicity
 _atom_site_fract_x
 _atom_site_fract_y
 _atom_site_fract_z
 _atom_site_occupancy
  C  C0  1  0.39039900  0.39358600  0.41199900  1
  C  C1  1  0.10960100  0.60641400  0.91199900  1
  C  C2  1  0.60960100  0.89358600  0.08800100  1
  C  C3  1  0.89039900  0.10641400  0.58800100  1
  Ni  Ni4  1  0.08664800  0.70797900  0.18569300  1
  Ni  Ni5  1  0.41335200  0.29202100  0.68569300  1
  Ni  Ni6  1  0.91335200  0.20797900  0.31430700  1
  Ni  Ni7  1  0.58664800  0.79202100  0.81430700  1
  Ni  Ni8  1  0.10186300  0.34578800  0.14460500  1
  Ni  Ni9  1  0.39813700  0.65421200  0.64460500  1
  Ni  Ni10  1  0.89813700  0.84578800  0.35539500  1
  Ni  Ni11  1  0.60186300  0.15421200  0.85539500  1
  Ni  Ni12  1  0.10435400  0.08248500  0.13192200  1
  Ni  Ni13  1  0.39564600  0.91751500  0.63192200  1
  Ni  Ni14  1  0.89564600  0.58248500  0.36807800  1
  Ni  Ni15  1  0.60435400  0.41751500  0.86807800  1
  Cu  Cu16  1  0.40310300  0.02840000  0.36518400  1
  Cu  Cu17  1  0.09689700  0.97160000  0.86518400  1
  Cu  Cu18  1  0.59689700  0.52840000  0.13481600  1
  Cu  Cu19  1  0.90310300  0.47160000  0.63481600  1
  C  C20  1  0.08967800  0.82138900  0.26438400  1
  C  C21  1  0.41032200  0.17861100  0.76438400  1
  C  C22  1  0.91032200  0.32138900  0.23561600  1
  C  C23  1  0.58967800  0.67861100  0.73561600  1
  C  C24  1  0.17892200  0.29848300  0.63632300  1
  C  C25  1  0.32107800  0.70151700  0.13632300  1
  C  C26  1  0.82107800  0.79848300  0.86367700  1
  C  C27  1  0.67892200  0.20151700  0.36367700  1
  C  C28  1  0.50072300  0.56110300  0.57488100  1
  C  C29  1  0.99927700  0.43889700  0.07488100  1
  C  C30  1  0.49927700  0.06110300  0.92511900  1
  C  C31  1  0.00072300  0.93889700  0.42511900  1
  C  C32  1  0.12519900  0.21209600  0.38217700  1
  C  C33  1  0.37480100  0.78790400  0.88217700  1
  C  C34  1  0.87480100  0.71209600  0.11782300  1
  C  C35  1  0.62519900  0.28790400  0.61782300  1
  C  C36  1  0.10017600  0.21745100  0.08430000  1
  C  C37  1  0.39982400  0.78254900  0.58430000  1
  C  C38  1  0.89982400  0.71745100  0.41570000  1
  C  C39  1  0.60017600  0.28254900  0.91570000  1
  C  C40  1  0.98033100  0.00128900  0.05750000  1
  C  C41  1  0.51966900  0.99871100  0.55750000  1
  C  C42  1  0.01966900  0.50128900  0.44250000  1
  C  C43  1  0.48033100  0.49871100  0.94250000  1
  C  C44  1  0.34332700  0.04808000  0.16770100  1
  C  C45  1  0.15667300  0.95192000  0.66770100  1
  C  C46  1  0.65667300  0.54808000  0.33229900  1
  C  C47  1  0.84332700  0.45192000  0.83229900  1
  C  C48  1  0.06429400  0.59649000  0.26717600  1
  C  C49  1  0.43570600  0.40351000  0.76717600  1
  C  C50  1  0.93570600  0.09649000  0.23282400  1
  C  C51  1  0.56429400  0.90351000  0.73282400  1
  C  C52  1  0.33287300  0.36615200  0.19543700  1
  C  C53  1  0.16712700  0.63384800  0.69543700  1
  C  C54  1  0.66712700  0.86615200  0.30456300  1
  C  C55  1  0.83287300  0.13384800  0.80456300  1
