# generated using pymatgen
data_Cu2Ni6C7
_symmetry_space_group_name_H-M   'P 1'
_cell_length_a   13.79825357
_cell_length_b   13.79825357
_cell_length_c   21.93252100
_cell_angle_alpha   90.00000000
_cell_angle_beta   90.00000000
_cell_angle_gamma   119.99999796
_symmetry_Int_Tables_number   1
_chemical_formula_structural   Cu2Ni6C7
_chemical_formula_sum   'Cu16 Ni48 C56'
_cell_volume   3616.32487040
_cell_formula_units_Z   8
loop_
 _symmetry_equiv_pos_site_id
 _symmetry_equiv_pos_as_xyz
  1  'x, y, z'
loop_
 _atom_site_type_symbol
 _atom_site_label
 _atom_site_symmetry_multiplicity
 _atom_site_fract_x
 _atom_site_fract_y
 _atom_site_fract_z
 _atom_site_occupancy
  C  C0  1  0.33333300  0.66666700  0.06285300  1
  C  C1  1  0.66666700  0.33333300  0.56285300  1
  C  C2  1  0.00000000  0.00000000  0.30794800  1
  C  C3  1  0.00000000  0.00000000  0.80794800  1
  Ni  Ni4  1  0.58037100  0.51761900  0.19452000  1
  Ni  Ni5  1  0.93724800  0.41962900  0.19452000  1
  Ni  Ni6  1  0.48238100  0.06275200  0.19452000  1
  Ni  Ni7  1  0.06275200  0.48238100  0.69452000  1
  Ni  Ni8  1  0.51761900  0.58037100  0.69452000  1
  Ni  Ni9  1  0.41962900  0.93724800  0.69452000  1
  Ni  Ni10  1  0.43869800  0.34275200  0.14001200  1
  Ni  Ni11  1  0.90405400  0.56130200  0.14001200  1
  Ni  Ni12  1  0.65724800  0.09594600  0.14001200  1
  Ni  Ni13  1  0.09594600  0.65724800  0.64001200  1
  Ni  Ni14  1  0.34275200  0.43869800  0.64001200  1
  Ni  Ni15  1  0.56130200  0.90405400  0.64001200  1
  Ni  Ni16  1  0.61335800  0.48427400  0.08502600  1
  Ni  Ni17  1  0.87091500  0.38664200  0.08502600  1
  Ni  Ni18  1  0.51572600  0.12908500  0.08502600  1
  Ni  Ni19  1  0.12908500  0.51572600  0.58502600  1
  Ni  Ni20  1  0.48427400  0.61335800  0.58502600  1
  Ni  Ni21  1  0.38664200  0.87091500  0.58502600  1
  Ni  Ni22  1  0.29717700  0.54766600  0.81727900  1
  Ni  Ni23  1  0.25048900  0.70282300  0.81727900  1
  Ni  Ni24  1  0.45233400  0.74951100  0.81727900  1
  Ni  Ni25  1  0.74951100  0.45233400  0.31727900  1
  Ni  Ni26  1  0.54766600  0.29717700  0.31727900  1
  Ni  Ni27  1  0.70282300  0.25048900  0.31727900  1
  Ni  Ni28  1  0.26298400  0.40145100  0.43974900  1
  Ni  Ni29  1  0.13846700  0.73701600  0.43974900  1
  Ni  Ni30  1  0.59854900  0.86153300  0.43974900  1
  Ni  Ni31  1  0.86153300  0.59854900  0.93974900  1
  Ni  Ni32  1  0.40145100  0.26298400  0.93974900  1
  Ni  Ni33  1  0.73701600  0.13846700  0.93974900  1
  Ni  Ni34  1  0.11333200  0.42847200  0.39046500  1
  Ni  Ni35  1  0.31514000  0.88666800  0.39046500  1
  Ni  Ni36  1  0.57152800  0.68486000  0.39046500  1
  Ni  Ni37  1  0.68486000  0.57152800  0.89046500  1
  Ni  Ni38  1  0.42847200  0.11333200  0.89046500  1
  Ni  Ni39  1  0.88666800  0.31514000  0.89046500  1
  Ni  Ni40  1  0.28587800  0.46927200  0.33097200  1
  Ni  Ni41  1  0.18339400  0.71412200  0.33097200  1
  Ni  Ni42  1  0.53072800  0.81660600  0.33097200  1
  Ni  Ni43  1  0.81660600  0.53072800  0.83097200  1
  Ni  Ni44  1  0.46927200  0.28587800  0.83097200  1
  Ni  Ni45  1  0.71412200  0.18339400  0.83097200  1
  Ni  Ni46  1  0.11131700  0.01299000  0.06126200  1
  Ni  Ni47  1  0.90167300  0.88868300  0.06126200  1
  Ni  Ni48  1  0.98701000  0.09832700  0.06126200  1
  Ni  Ni49  1  0.09832700  0.98701000  0.56126200  1
  Ni  Ni50  1  0.01299000  0.11131700  0.56126200  1
  Ni  Ni51  1  0.88868300  0.90167300  0.56126200  1
  Cu  Cu52  1  0.42059700  0.57066400  0.09569000  1
  Cu  Cu53  1  0.15006700  0.57940300  0.09569000  1
  Cu  Cu54  1  0.42933600  0.84993300  0.09569000  1
  Cu  Cu55  1  0.84993300  0.42933600  0.59569000  1
  Cu  Cu56  1  0.57066400  0.42059700  0.59569000  1
  Cu  Cu57  1  0.57940300  0.15006700  0.59569000  1
  Cu  Cu58  1  0.33333300  0.66666700  0.95785200  1
  Cu  Cu59  1  0.66666700  0.33333300  0.45785200  1
  Cu  Cu60  1  0.10190800  0.18703100  0.34022700  1
  Cu  Cu61  1  0.08512300  0.89809200  0.34022700  1
  Cu  Cu62  1  0.81296900  0.91487700  0.34022700  1
  Cu  Cu63  1  0.91487700  0.81296900  0.84022700  1
  Cu  Cu64  1  0.18703100  0.10190800  0.84022700  1
  Cu  Cu65  1  0.89809200  0.08512300  0.84022700  1
  Cu  Cu66  1  0.00000000  0.00000000  0.20202000  1
  Cu  Cu67  1  0.00000000  0.00000000  0.70202000  1
  C  C68  1  0.50039800  0.62464500  0.18043600  1
  C  C69  1  0.12424700  0.49960200  0.18043600  1
  C  C70  1  0.37535500  0.87575300  0.18043600  1
  C  C71  1  0.87575300  0.37535500  0.68043600  1
  C  C72  1  0.62464500  0.50039800  0.68043600  1
  C  C73  1  0.49960200  0.12424700  0.68043600  1
  C  C74  1  0.31755100  0.39655100  0.10669700  1
  C  C75  1  0.07900000  0.68244900  0.10669700  1
  C  C76  1  0.60344900  0.92100000  0.10669700  1
  C  C77  1  0.92100000  0.60344900  0.60669700  1
  C  C78  1  0.39655100  0.31755100  0.60669700  1
  C  C79  1  0.68244900  0.07900000  0.60669700  1
  C  C80  1  0.54864000  0.58610500  0.03732300  1
  C  C81  1  0.03746600  0.45136000  0.03732300  1
  C  C82  1  0.41389500  0.96253400  0.03732300  1
  C  C83  1  0.96253400  0.41389500  0.53732300  1
  C  C84  1  0.58610500  0.54864000  0.53732300  1
  C  C85  1  0.45136000  0.03746600  0.53732300  1
  C  C86  1  0.28705800  0.51096500  0.91841000  1
  C  C87  1  0.22390700  0.71294200  0.91841000  1
  C  C88  1  0.48903500  0.77609300  0.91841000  1
  C  C89  1  0.77609300  0.48903500  0.41841000  1
  C  C90  1  0.51096500  0.28705800  0.41841000  1
  C  C91  1  0.71294200  0.22390700  0.41841000  1
  C  C92  1  0.19028800  0.21535200  0.42265700  1
  C  C93  1  0.02506400  0.80971200  0.42265700  1
  C  C94  1  0.78464800  0.97493600  0.42265700  1
  C  C95  1  0.97493600  0.78464800  0.92265700  1
  C  C96  1  0.21535200  0.19028800  0.92265700  1
  C  C97  1  0.80971200  0.02506400  0.92265700  1
  C  C98  1  0.99543000  0.25223500  0.35697200  1
  C  C99  1  0.25680500  0.00457000  0.35697200  1
  C  C100  1  0.74776500  0.74319500  0.35697200  1
  C  C101  1  0.74319500  0.74776500  0.85697200  1
  C  C102  1  0.25223500  0.99543000  0.85697200  1
  C  C103  1  0.00457000  0.25680500  0.85697200  1
  C  C104  1  0.22285500  0.30480800  0.28051100  1
  C  C105  1  0.08195300  0.77714500  0.28051100  1
  C  C106  1  0.69519200  0.91804700  0.28051100  1
  C  C107  1  0.91804700  0.69519200  0.78051100  1
  C  C108  1  0.30480800  0.22285500  0.78051100  1
  C  C109  1  0.77714500  0.08195300  0.78051100  1
  C  C110  1  0.14607600  0.01797300  0.16191800  1
  C  C111  1  0.87189700  0.85392400  0.16191800  1
  C  C112  1  0.98202700  0.12810300  0.16191800  1
  C  C113  1  0.12810300  0.98202700  0.66191800  1
  C  C114  1  0.01797300  0.14607600  0.66191800  1
  C  C115  1  0.85392400  0.87189700  0.66191800  1
  C  C116  1  0.66666700  0.33333300  0.18189100  1
  C  C117  1  0.33333300  0.66666700  0.68189100  1
  C  C118  1  0.33333300  0.66666700  0.43099400  1
  C  C119  1  0.66666700  0.33333300  0.93099400  1
