# generated using pymatgen
data_CuNiC15
_symmetry_space_group_name_H-M   'P 1'
_cell_length_a   9.78570700
_cell_length_b   9.78570700
_cell_length_c   9.84382700
_cell_angle_alpha   90.00000000
_cell_angle_beta   90.00000000
_cell_angle_gamma   93.13919297
_symmetry_Int_Tables_number   1
_chemical_formula_structural   CuNiC15
_chemical_formula_sum   'Cu4 Ni4 C60'
_cell_volume   941.23098605
_cell_formula_units_Z   4
loop_
 _symmetry_equiv_pos_site_id
 _symmetry_equiv_pos_as_xyz
  1  'x, y, z'
loop_
 _atom_site_type_symbol
 _atom_site_label
 _atom_site_symmetry_multiplicity
 _atom_site_fract_x
 _atom_site_fract_y
 _atom_site_fract_z
 _atom_site_occupancy
  Ni  Ni0  1  0.17957000  0.51769000  0.40414300  1
  Ni  Ni1  1  0.82043000  0.48231000  0.90414300  1
  Ni  Ni2  1  0.48231000  0.82043000  0.90414300  1
  Ni  Ni3  1  0.51769000  0.17957000  0.40414300  1
  Cu  Cu4  1  0.81466800  0.46982100  0.48249400  1
  Cu  Cu5  1  0.18533200  0.53017900  0.98249400  1
  Cu  Cu6  1  0.53017900  0.18533200  0.98249400  1
  Cu  Cu7  1  0.46982100  0.81466800  0.48249400  1
  C  C8  1  0.99233600  0.21153900  0.03095800  1
  C  C9  1  0.00766400  0.78846100  0.53095800  1
  C  C10  1  0.78846100  0.00766400  0.53095800  1
  C  C11  1  0.21153900  0.99233600  0.03095800  1
  C  C12  1  0.98168400  0.20102000  0.34829400  1
  C  C13  1  0.01831600  0.79898000  0.84829400  1
  C  C14  1  0.79898000  0.01831600  0.84829400  1
  C  C15  1  0.20102000  0.98168400  0.34829400  1
  C  C16  1  0.71736600  0.41333000  0.19982000  1
  C  C17  1  0.28263400  0.58667000  0.69982000  1
  C  C18  1  0.58667000  0.28263400  0.69982000  1
  C  C19  1  0.41333000  0.71736600  0.19982000  1
  C  C20  1  0.34026500  0.34026500  0.13368500  1
  C  C21  1  0.65973500  0.65973500  0.63368500  1
  C  C22  1  0.94139500  0.18606600  0.18777300  1
  C  C23  1  0.05860500  0.81393400  0.68777300  1
  C  C24  1  0.81393400  0.05860500  0.68777300  1
  C  C25  1  0.18606600  0.94139500  0.18777300  1
  C  C26  1  0.98642800  0.62746400  0.49435800  1
  C  C27  1  0.01357200  0.37253600  0.99435800  1
  C  C28  1  0.37253600  0.01357200  0.99435800  1
  C  C29  1  0.62746400  0.98642800  0.49435800  1
  C  C30  1  0.13326400  0.13326400  0.00719500  1
  C  C31  1  0.86673600  0.86673600  0.50719500  1
  C  C32  1  0.12331100  0.12331100  0.37575400  1
  C  C33  1  0.87668900  0.87668900  0.87575400  1
  C  C34  1  0.35999600  0.35999600  0.00326500  1
  C  C35  1  0.64000400  0.64000400  0.50326500  1
  C  C36  1  0.67868800  0.35054400  0.31131200  1
  C  C37  1  0.32131200  0.64945600  0.81131200  1
  C  C38  1  0.64945600  0.32131200  0.81131200  1
  C  C39  1  0.35054400  0.67868800  0.31131200  1
  C  C40  1  0.25086700  0.40920500  0.19556700  1
  C  C41  1  0.74913300  0.59079500  0.69556700  1
  C  C42  1  0.59079500  0.74913300  0.69556700  1
  C  C43  1  0.40920500  0.25086700  0.19556700  1
  C  C44  1  0.99494300  0.36026900  0.39481300  1
  C  C45  1  0.00505700  0.63973100  0.89481300  1
  C  C46  1  0.63973100  0.00505700  0.89481300  1
  C  C47  1  0.36026900  0.99494300  0.39481300  1
  C  C48  1  0.08864400  0.61718900  0.17991800  1
  C  C49  1  0.91135600  0.38281100  0.67991800  1
  C  C50  1  0.38281100  0.91135600  0.67991800  1
  C  C51  1  0.61718900  0.08864400  0.17991800  1
  C  C52  1  0.15598200  0.15598200  0.68359000  1
  C  C53  1  0.84401800  0.84401800  0.18359000  1
  C  C54  1  0.68173700  0.36598500  0.08145100  1
  C  C55  1  0.31826300  0.63401500  0.58145100  1
  C  C56  1  0.63401500  0.31826300  0.58145100  1
  C  C57  1  0.36598500  0.68173700  0.08145100  1
  C  C58  1  0.79328100  0.52333200  0.21320000  1
  C  C59  1  0.20671900  0.47666800  0.71320000  1
  C  C60  1  0.47666800  0.20671900  0.71320000  1
  C  C61  1  0.52333200  0.79328100  0.21320000  1
  C  C62  1  0.12988300  0.85483100  0.43511400  1
  C  C63  1  0.87011700  0.14516900  0.93511400  1
  C  C64  1  0.14516900  0.87011700  0.93511400  1
  C  C65  1  0.85483100  0.12988300  0.43511400  1
  C  C66  1  0.33315200  0.33315200  0.46938000  1
  C  C67  1  0.66684800  0.66684800  0.96938000  1
