# generated using pymatgen
data_Cu2Ni2C9
_symmetry_space_group_name_H-M   'P 1'
_cell_length_a   6.62682712
_cell_length_b   6.62682712
_cell_length_c   6.62682712
_cell_angle_alpha   131.62510079
_cell_angle_beta   131.62510079
_cell_angle_gamma   70.82178781
_symmetry_Int_Tables_number   1
_chemical_formula_structural   Cu2Ni2C9
_chemical_formula_sum   'Cu2 Ni2 C9'
_cell_volume   159.26674131
_cell_formula_units_Z   1
loop_
 _symmetry_equiv_pos_site_id
 _symmetry_equiv_pos_as_xyz
  1  'x, y, z'
loop_
 _atom_site_type_symbol
 _atom_site_label
 _atom_site_symmetry_multiplicity
 _atom_site_fract_x
 _atom_site_fract_y
 _atom_site_fract_z
 _atom_site_occupancy
  Ni  Ni0  1  0.73235000  0.73235000  0.00000000  1
  Ni  Ni1  1  0.26765000  0.26765000  0.00000000  1
  Cu  Cu2  1  0.00000000  0.50000000  0.50000000  1
  Cu  Cu3  1  0.50000000  0.00000000  0.50000000  1
  C  C4  1  0.35834500  0.35834500  0.46898600  1
  C  C5  1  0.64165500  0.11064100  0.00000000  1
  C  C6  1  0.88935900  0.88935900  0.53101400  1
  C  C7  1  0.11064100  0.64165500  0.00000000  1
  C  C8  1  0.11064100  0.11064100  0.46898600  1
  C  C9  1  0.35834500  0.88935900  0.00000000  1
  C  C10  1  0.64165500  0.64165500  0.53101400  1
  C  C11  1  0.88935900  0.35834500  0.00000000  1
  C  C12  1  0.50000000  0.50000000  0.00000000  1
