# generated using pymatgen
data_CuNiC10
_symmetry_space_group_name_H-M   'P 1'
_cell_length_a   7.70878839
_cell_length_b   7.70878839
_cell_length_c   5.10815900
_cell_angle_alpha   90.00000000
_cell_angle_beta   90.00000000
_cell_angle_gamma   90.16342789
_symmetry_Int_Tables_number   1
_chemical_formula_structural   CuNiC10
_chemical_formula_sum   'Cu2 Ni2 C20'
_cell_volume   303.55325100
_cell_formula_units_Z   2
loop_
 _symmetry_equiv_pos_site_id
 _symmetry_equiv_pos_as_xyz
  1  'x, y, z'
loop_
 _atom_site_type_symbol
 _atom_site_label
 _atom_site_symmetry_multiplicity
 _atom_site_fract_x
 _atom_site_fract_y
 _atom_site_fract_z
 _atom_site_occupancy
  Ni  Ni0  1  0.34136900  0.34136900  0.48509100  1
  Ni  Ni1  1  0.65863100  0.65863100  0.48509100  1
  Cu  Cu2  1  0.83554700  0.16445300  0.51266000  1
  Cu  Cu3  1  0.16445300  0.83554700  0.51266000  1
  C  C4  1  0.50000000  0.00000000  0.99924500  1
  C  C5  1  0.00000000  0.50000000  0.99924500  1
  C  C6  1  0.14172500  0.14172500  0.04599400  1
  C  C7  1  0.64281300  0.35718700  0.95452700  1
  C  C8  1  0.85827500  0.85827500  0.04599400  1
  C  C9  1  0.35718700  0.64281300  0.95452700  1
  C  C10  1  0.13478400  0.13478400  0.73252300  1
  C  C11  1  0.65361500  0.34638500  0.26727000  1
  C  C12  1  0.86521600  0.86521600  0.73252300  1
  C  C13  1  0.34638500  0.65361500  0.26727000  1
  C  C14  1  0.50000000  0.50000000  0.84305500  1
  C  C15  1  0.00000000  0.00000000  0.18223900  1
  C  C16  1  0.41070100  0.82828600  0.80894100  1
  C  C17  1  0.91796000  0.67504600  0.18608000  1
  C  C18  1  0.58929900  0.17171400  0.80894100  1
  C  C19  1  0.08204000  0.32495400  0.18608000  1
  C  C20  1  0.32495400  0.08204000  0.18608000  1
  C  C21  1  0.82828600  0.41070100  0.80894100  1
  C  C22  1  0.67504600  0.91796000  0.18608000  1
  C  C23  1  0.17171400  0.58929900  0.80894100  1
