# generated using pymatgen
data_Cu4Ni4C
_symmetry_space_group_name_H-M   'P 1'
_cell_length_a   6.30384724
_cell_length_b   6.30384724
_cell_length_c   6.30384724
_cell_angle_alpha   123.09527133
_cell_angle_beta   123.09527133
_cell_angle_gamma   84.71754679
_symmetry_Int_Tables_number   1
_chemical_formula_structural   Cu4Ni4C
_chemical_formula_sum   'Cu4 Ni4 C1'
_cell_volume   168.06638740
_cell_formula_units_Z   1
loop_
 _symmetry_equiv_pos_site_id
 _symmetry_equiv_pos_as_xyz
  1  'x, y, z'
loop_
 _atom_site_type_symbol
 _atom_site_label
 _atom_site_symmetry_multiplicity
 _atom_site_fract_x
 _atom_site_fract_y
 _atom_site_fract_z
 _atom_site_occupancy
  C  C0  1  0.00000000  0.00000000  0.00000000  1
  Ni  Ni1  1  0.23024300  0.23024300  0.46048600  1
  Ni  Ni2  1  0.76975700  0.76975700  0.53951400  1
  Ni  Ni3  1  0.23024300  0.76975700  0.00000000  1
  Ni  Ni4  1  0.76975700  0.23024300  0.00000000  1
  Cu  Cu5  1  0.74249400  0.74249400  0.00000000  1
  Cu  Cu6  1  0.25750600  0.25750600  0.00000000  1
  Cu  Cu7  1  0.50000000  0.00000000  0.50000000  1
  Cu  Cu8  1  0.00000000  0.50000000  0.50000000  1
