# generated using pymatgen
data_Cu3Ni9C28
_symmetry_space_group_name_H-M   'P 1'
_cell_length_a   3.88425700
_cell_length_b   20.47284027
_cell_length_c   12.59901753
_cell_angle_alpha   83.63688405
_cell_angle_beta   90.00000000
_cell_angle_gamma   90.00000000
_symmetry_Int_Tables_number   1
_chemical_formula_structural   Cu3Ni9C28
_chemical_formula_sum   'Cu3 Ni9 C28'
_cell_volume   995.72400312
_cell_formula_units_Z   1
loop_
 _symmetry_equiv_pos_site_id
 _symmetry_equiv_pos_as_xyz
  1  'x, y, z'
loop_
 _atom_site_type_symbol
 _atom_site_label
 _atom_site_symmetry_multiplicity
 _atom_site_fract_x
 _atom_site_fract_y
 _atom_site_fract_z
 _atom_site_occupancy
  Ni  Ni0  1  0.75000000  0.12788700  0.09600800  1
  Ni  Ni1  1  0.75000000  0.62847900  0.59618000  1
  Ni  Ni2  1  0.25000000  0.37074100  0.39786400  1
  Ni  Ni3  1  0.25000000  0.87171800  0.90412300  1
  Ni  Ni4  1  0.75000000  0.02498600  0.61762200  1
  Ni  Ni5  1  0.75000000  0.52566800  0.11739500  1
  Ni  Ni6  1  0.25000000  0.47584500  0.88545000  1
  Ni  Ni7  1  0.25000000  0.97484000  0.38235400  1
  Ni  Ni8  1  0.75000000  0.41352600  0.67637700  1
  Cu  Cu9  1  0.75000000  0.91673200  0.17762500  1
  Cu  Cu10  1  0.25000000  0.08318300  0.82246900  1
  Cu  Cu11  1  0.25000000  0.58294400  0.32246700  1
  C  C12  1  0.75000000  0.20448600  0.40567400  1
  C  C13  1  0.75000000  0.70542500  0.90581400  1
  C  C14  1  0.25000000  0.29451400  0.09304100  1
  C  C15  1  0.25000000  0.79474200  0.59424100  1
  C  C16  1  0.75000000  0.42311000  0.01101200  1
  C  C17  1  0.75000000  0.92295300  0.50927700  1
  C  C18  1  0.25000000  0.07763800  0.49021900  1
  C  C19  1  0.25000000  0.57887300  0.99184000  1
  C  C20  1  0.75000000  0.02010900  0.24484500  1
  C  C21  1  0.75000000  0.52444500  0.75067500  1
  C  C22  1  0.25000000  0.48051800  0.25200500  1
  C  C23  1  0.25000000  0.98008100  0.75505900  1
  C  C24  1  0.75000000  0.31931300  0.27864400  1
  C  C25  1  0.75000000  0.82151100  0.78258000  1
  C  C26  1  0.25000000  0.17866500  0.21780500  1
  C  C27  1  0.25000000  0.67973800  0.71730800  1
  C  C28  1  0.75000000  0.24241500  0.98128800  1
  C  C29  1  0.75000000  0.74304400  0.48069800  1
  C  C30  1  0.25000000  0.25757100  0.51822500  1
  C  C31  1  0.25000000  0.75694900  0.01890700  1
  C  C32  1  0.75000000  0.12914400  0.73790100  1
  C  C33  1  0.75000000  0.62930600  0.23907000  1
  C  C34  1  0.25000000  0.36529700  0.77984300  1
  C  C35  1  0.25000000  0.87094300  0.26201200  1
  C  C36  1  0.75000000  0.43058200  0.48092100  1
  C  C37  1  0.75000000  0.92755600  0.99541100  1
  C  C38  1  0.25000000  0.07237400  0.00441400  1
  C  C39  1  0.25000000  0.57214900  0.50533700  1
