# generated using pymatgen
data_Cu2Ni3C11
_symmetry_space_group_name_H-M   'P 1'
_cell_length_a   6.68276800
_cell_length_b   7.83925533
_cell_length_c   10.66320986
_cell_angle_alpha   111.55088464
_cell_angle_beta   89.79038482
_cell_angle_gamma   102.48617023
_symmetry_Int_Tables_number   1
_chemical_formula_structural   Cu2Ni3C11
_chemical_formula_sum   'Cu4 Ni6 C22'
_cell_volume   505.51382163
_cell_formula_units_Z   2
loop_
 _symmetry_equiv_pos_site_id
 _symmetry_equiv_pos_as_xyz
  1  'x, y, z'
loop_
 _atom_site_type_symbol
 _atom_site_label
 _atom_site_symmetry_multiplicity
 _atom_site_fract_x
 _atom_site_fract_y
 _atom_site_fract_z
 _atom_site_occupancy
  Ni  Ni0  1  0.31261000  0.24933100  0.52163800  1
  Ni  Ni1  1  0.68739000  0.75066900  0.47836200  1
  Ni  Ni2  1  0.20692600  0.53733800  0.80002200  1
  Ni  Ni3  1  0.79307400  0.46266200  0.19997800  1
  Ni  Ni4  1  0.23252100  0.10958100  0.84067900  1
  Ni  Ni5  1  0.76747900  0.89041900  0.15932100  1
  Cu  Cu6  1  0.68475500  0.40491000  0.88790300  1
  Cu  Cu7  1  0.31524500  0.59509000  0.11209700  1
  Cu  Cu8  1  0.81123700  0.11396900  0.60594900  1
  Cu  Cu9  1  0.18876300  0.88603100  0.39405100  1
  C  C10  1  0.79799300  0.35393900  0.05400000  1
  C  C11  1  0.20200700  0.64606100  0.94600000  1
  C  C12  1  0.25777700  0.34873200  0.68883500  1
  C  C13  1  0.74222300  0.65126800  0.31116500  1
  C  C14  1  0.52543100  0.56778100  0.84742900  1
  C  C15  1  0.47456900  0.43221900  0.15257100  1
  C  C16  1  0.29721300  0.03405800  0.68340900  1
  C  C17  1  0.70278700  0.96594200  0.31659100  1
  C  C18  1  0.91392000  0.06796000  0.77035900  1
  C  C19  1  0.08608000  0.93204000  0.22964100  1
  C  C20  1  0.99407200  0.20565000  0.48743500  1
  C  C21  1  0.00592800  0.79435000  0.51256500  1
  C  C22  1  0.17088200  0.28912000  0.92829700  1
  C  C23  1  0.82911800  0.71088000  0.07170300  1
  C  C24  1  0.55590300  0.19044100  0.88522600  1
  C  C25  1  0.44409700  0.80955900  0.11477400  1
  C  C26  1  0.64936100  0.27459600  0.55478300  1
  C  C27  1  0.35063900  0.72540400  0.44521700  1
  C  C28  1  0.87119100  0.50419300  0.77522900  1
  C  C29  1  0.12880900  0.49580700  0.22477100  1
  C  C30  1  0.67668600  0.90285900  0.59454300  1
  C  C31  1  0.32331400  0.09714100  0.40545700  1
