# generated using pymatgen
data_Cu6Ni6C7
_symmetry_space_group_name_H-M   'P 1'
_cell_length_a   8.20397500
_cell_length_b   8.20399500
_cell_length_c   8.20398200
_cell_angle_alpha   89.99995810
_cell_angle_beta   90.00005587
_cell_angle_gamma   89.99986032
_symmetry_Int_Tables_number   1
_chemical_formula_structural   Cu6Ni6C7
_chemical_formula_sum   'Cu12 Ni12 C14'
_cell_volume   552.17204300
_cell_formula_units_Z   2
loop_
 _symmetry_equiv_pos_site_id
 _symmetry_equiv_pos_as_xyz
  1  'x, y, z'
loop_
 _atom_site_type_symbol
 _atom_site_label
 _atom_site_symmetry_multiplicity
 _atom_site_fract_x
 _atom_site_fract_y
 _atom_site_fract_z
 _atom_site_occupancy
  C  C0  1  0.50000000  0.00000000  0.50000000  1
  C  C1  1  0.00000000  0.50000000  0.50000000  1
  C  C2  1  0.50000000  0.50000000  0.00000000  1
  C  C3  1  0.00000000  0.50000000  0.00000000  1
  C  C4  1  0.50000000  0.00000100  0.00000000  1
  C  C5  1  0.00000000  0.00000000  0.50000000  1
  C  C6  1  0.16192200  0.16192100  0.83807800  1
  C  C7  1  0.66191900  0.66191900  0.33808100  1
  C  C8  1  0.33808100  0.33808100  0.33808100  1
  C  C9  1  0.83807900  0.83807900  0.83807900  1
  C  C10  1  0.66191900  0.33808100  0.66191900  1
  C  C11  1  0.16192100  0.83807900  0.16192100  1
  C  C12  1  0.33808100  0.66191900  0.66191900  1
  C  C13  1  0.83807800  0.16192200  0.16192200  1
  Ni  Ni14  1  0.00000000  0.25197200  0.00000000  1
  Ni  Ni15  1  0.50000000  0.75194500  0.50000000  1
  Ni  Ni16  1  0.74802800  0.00000000  0.00000000  1
  Ni  Ni17  1  0.24805500  0.50000000  0.50000000  1
  Ni  Ni18  1  0.00000000  0.00000000  0.25197200  1
  Ni  Ni19  1  0.50000000  0.50000000  0.75194500  1
  Ni  Ni20  1  0.00000000  0.74802800  0.00000000  1
  Ni  Ni21  1  0.50000000  0.24805500  0.50000000  1
  Ni  Ni22  1  0.25197200  0.00000000  0.00000000  1
  Ni  Ni23  1  0.75194500  0.50000000  0.50000000  1
  Ni  Ni24  1  0.00000000  0.00000000  0.74802800  1
  Ni  Ni25  1  0.50000000  0.50000000  0.24805500  1
  Cu  Cu26  1  0.00000000  0.50000000  0.75001900  1
  Cu  Cu27  1  0.50000000  0.00000000  0.24998100  1
  Cu  Cu28  1  0.00000000  0.24998100  0.50000000  1
  Cu  Cu29  1  0.50000000  0.75001900  0.00000000  1
  Cu  Cu30  1  0.24998100  0.00000000  0.50000000  1
  Cu  Cu31  1  0.75001900  0.50000000  0.00000000  1
  Cu  Cu32  1  0.50000000  0.00000000  0.75001900  1
  Cu  Cu33  1  0.00000000  0.50000000  0.24998100  1
  Cu  Cu34  1  0.24998000  0.50000000  0.00000000  1
  Cu  Cu35  1  0.75001900  0.00000000  0.50000000  1
  Cu  Cu36  1  0.50000000  0.24998100  0.00000000  1
  Cu  Cu37  1  0.00000000  0.75001900  0.50000000  1
