# generated using pymatgen
data_Cu8Ni2C5
_symmetry_space_group_name_H-M   'P 1'
_cell_length_a   4.78924300
_cell_length_b   4.79064400
_cell_length_c   16.05825200
_cell_angle_alpha   90.00000000
_cell_angle_beta   90.00000000
_cell_angle_gamma   90.00000000
_symmetry_Int_Tables_number   1
_chemical_formula_structural   Cu8Ni2C5
_chemical_formula_sum   'Cu16 Ni4 C10'
_cell_volume   368.43344003
_cell_formula_units_Z   2
loop_
 _symmetry_equiv_pos_site_id
 _symmetry_equiv_pos_as_xyz
  1  'x, y, z'
loop_
 _atom_site_type_symbol
 _atom_site_label
 _atom_site_symmetry_multiplicity
 _atom_site_fract_x
 _atom_site_fract_y
 _atom_site_fract_z
 _atom_site_occupancy
  C  C0  1  0.98223900  0.73178500  0.90103800  1
  C  C1  1  0.98223900  0.73178500  0.09896200  1
  C  C2  1  0.01062100  0.74507000  0.30633600  1
  C  C3  1  0.02992300  0.72000000  0.50000000  1
  C  C4  1  0.01062100  0.74507000  0.69366400  1
  C  C5  1  0.52992300  0.28000000  0.00000000  1
  C  C6  1  0.48223900  0.26821500  0.40103800  1
  C  C7  1  0.51062100  0.25493000  0.19366400  1
  C  C8  1  0.48223900  0.26821500  0.59896200  1
  C  C9  1  0.51062100  0.25493000  0.80633600  1
  Ni  Ni10  1  0.19693600  0.55339800  0.40578400  1
  Ni  Ni11  1  0.19693600  0.55339800  0.59421600  1
  Ni  Ni12  1  0.69693600  0.44660200  0.90578400  1
  Ni  Ni13  1  0.69693600  0.44660200  0.09421600  1
  Cu  Cu14  1  0.19914100  0.54824300  0.00000000  1
  Cu  Cu15  1  0.19675900  0.55472000  0.19751500  1
  Cu  Cu16  1  0.19675900  0.55472000  0.80248500  1
  Cu  Cu17  1  0.69675900  0.44528000  0.30248500  1
  Cu  Cu18  1  0.69914100  0.45175700  0.50000000  1
  Cu  Cu19  1  0.69675900  0.44528000  0.69751500  1
  Cu  Cu20  1  0.29040000  0.03930600  0.90888600  1
  Cu  Cu21  1  0.29040000  0.03930600  0.09111400  1
  Cu  Cu22  1  0.30936400  0.05923400  0.30002200  1
  Cu  Cu23  1  0.29829800  0.05067900  0.50000000  1
  Cu  Cu24  1  0.30936400  0.05923400  0.69997800  1
  Cu  Cu25  1  0.79829800  0.94932100  0.00000000  1
  Cu  Cu26  1  0.79040000  0.96069400  0.40888600  1
  Cu  Cu27  1  0.80936400  0.94076600  0.19997800  1
  Cu  Cu28  1  0.80936400  0.94076600  0.80002200  1
  Cu  Cu29  1  0.79040000  0.96069400  0.59111400  1
