# generated using pymatgen
data_Cu12Ni3C2
_symmetry_space_group_name_H-M   'P 1'
_cell_length_a   15.70512116
_cell_length_b   15.70512116
_cell_length_c   15.70512116
_cell_angle_alpha   109.47122063
_cell_angle_beta   109.47122063
_cell_angle_gamma   109.47122063
_symmetry_Int_Tables_number   1
_chemical_formula_structural   Cu12Ni3C2
_chemical_formula_sum   'Cu192 Ni48 C32'
_cell_volume   2981.96116299
_cell_formula_units_Z   16
loop_
 _symmetry_equiv_pos_site_id
 _symmetry_equiv_pos_as_xyz
  1  'x, y, z'
loop_
 _atom_site_type_symbol
 _atom_site_label
 _atom_site_symmetry_multiplicity
 _atom_site_fract_x
 _atom_site_fract_y
 _atom_site_fract_z
 _atom_site_occupancy
  C  C0  1  0.12897247  0.75000000  0.37897247  1
  C  C1  1  0.37102753  0.25000000  0.12102753  1
  C  C2  1  0.75000000  0.37897247  0.12897247  1
  C  C3  1  0.25000000  0.12102753  0.37102753  1
  C  C4  1  0.37897247  0.12897247  0.75000000  1
  C  C5  1  0.12102753  0.37102753  0.25000000  1
  C  C6  1  0.87102753  0.25000000  0.62102753  1
  C  C7  1  0.62897247  0.75000000  0.87897247  1
  C  C8  1  0.25000000  0.62102753  0.87102753  1
  C  C9  1  0.75000000  0.87897247  0.62897247  1
  C  C10  1  0.62102753  0.87102753  0.25000000  1
  C  C11  1  0.87897247  0.62897247  0.75000000  1
  C  C12  1  0.00000000  0.50000000  0.50000000  1
  C  C13  1  0.50000000  0.00000000  0.50000000  1
  C  C14  1  0.50000000  0.50000000  0.00000000  1
  C  C15  1  0.00000000  0.00000000  0.00000000  1
  C  C16  1  0.87710500  0.75000000  0.12710500  1
  C  C17  1  0.62289500  0.25000000  0.37289500  1
  C  C18  1  0.75000000  0.12710500  0.87710500  1
  C  C19  1  0.25000000  0.37289500  0.62289500  1
  C  C20  1  0.12710500  0.87710500  0.75000000  1
  C  C21  1  0.37289500  0.62289500  0.25000000  1
  C  C22  1  0.12289500  0.25000000  0.87289500  1
  C  C23  1  0.37710500  0.75000000  0.62710500  1
  C  C24  1  0.25000000  0.87289500  0.12289500  1
  C  C25  1  0.75000000  0.62710500  0.37710500  1
  C  C26  1  0.87289500  0.12289500  0.25000000  1
  C  C27  1  0.62710500  0.37710500  0.75000000  1
  C  C28  1  0.00000000  0.50000000  0.00000000  1
  C  C29  1  0.00000000  0.00000000  0.50000000  1
  C  C30  1  0.50000000  0.00000000  0.00000000  1
  C  C31  1  0.50000000  0.50000000  0.50000000  1
  Ni  Ni32  1  0.61179576  0.11767512  0.93481783  1
  Ni  Ni33  1  0.31714271  0.38232488  0.49412063  1
  Ni  Ni34  1  0.88820424  0.32302207  0.00587937  1
  Ni  Ni35  1  0.18285729  0.17697793  0.56518217  1
  Ni  Ni36  1  0.11767512  0.93481783  0.61179576  1
  Ni  Ni37  1  0.38232488  0.49412063  0.31714271  1
  Ni  Ni38  1  0.32302207  0.00587937  0.88820424  1
  Ni  Ni39  1  0.17697793  0.56518217  0.18285729  1
  Ni  Ni40  1  0.93481783  0.61179576  0.11767512  1
  Ni  Ni41  1  0.49412063  0.31714271  0.38232488  1
  Ni  Ni42  1  0.00587937  0.88820424  0.32302207  1
  Ni  Ni43  1  0.56518217  0.18285729  0.17697793  1
  Ni  Ni44  1  0.38820424  0.88232488  0.06518217  1
  Ni  Ni45  1  0.68285729  0.61767512  0.50587937  1
  Ni  Ni46  1  0.11179576  0.67697793  0.99412063  1
  Ni  Ni47  1  0.81714271  0.82302207  0.43481783  1
  Ni  Ni48  1  0.88232488  0.06518217  0.38820424  1
  Ni  Ni49  1  0.61767512  0.50587937  0.68285729  1
  Ni  Ni50  1  0.67697793  0.99412063  0.11179576  1
  Ni  Ni51  1  0.82302207  0.43481783  0.81714271  1
  Ni  Ni52  1  0.06518217  0.38820424  0.88232488  1
  Ni  Ni53  1  0.50587937  0.68285729  0.61767512  1
  Ni  Ni54  1  0.99412063  0.11179576  0.67697793  1
  Ni  Ni55  1  0.43481783  0.81714271  0.82302207  1
  Ni  Ni56  1  0.26604483  0.89377368  0.29402344  1
  Ni  Ni57  1  0.90024976  0.60622632  0.37227116  1
  Ni  Ni58  1  0.23395517  0.02797861  0.12772884  1
  Ni  Ni59  1  0.59975024  0.47202139  0.20597656  1
  Ni  Ni60  1  0.89377368  0.29402344  0.26604483  1
  Ni  Ni61  1  0.60622632  0.37227116  0.90024976  1
  Ni  Ni62  1  0.02797861  0.12772884  0.23395517  1
  Ni  Ni63  1  0.47202139  0.20597656  0.59975024  1
  Ni  Ni64  1  0.29402344  0.26604483  0.89377368  1
  Ni  Ni65  1  0.37227116  0.90024976  0.60622632  1
  Ni  Ni66  1  0.12772884  0.23395517  0.02797861  1
  Ni  Ni67  1  0.20597656  0.59975024  0.47202139  1
  Ni  Ni68  1  0.73395517  0.10622632  0.70597656  1
  Ni  Ni69  1  0.09975024  0.39377368  0.62772884  1
  Ni  Ni70  1  0.76604483  0.97202139  0.87227116  1
  Ni  Ni71  1  0.40024976  0.52797861  0.79402344  1
  Ni  Ni72  1  0.10622632  0.70597656  0.73395517  1
  Ni  Ni73  1  0.39377368  0.62772884  0.09975024  1
  Ni  Ni74  1  0.97202139  0.87227116  0.76604483  1
  Ni  Ni75  1  0.52797861  0.79402344  0.40024976  1
  Ni  Ni76  1  0.70597656  0.73395517  0.10622632  1
  Ni  Ni77  1  0.62772884  0.09975024  0.39377368  1
  Ni  Ni78  1  0.87227116  0.76604483  0.97202139  1
  Ni  Ni79  1  0.79402344  0.40024976  0.52797861  1
  Cu  Cu80  1  0.54903617  0.14537501  0.93856260  1
  Cu  Cu81  1  0.29318760  0.35462499  0.40366116  1
  Cu  Cu82  1  0.95096383  0.38952644  0.09633884  1
  Cu  Cu83  1  0.20681240  0.11047356  0.56143740  1
  Cu  Cu84  1  0.14537501  0.93856260  0.54903617  1
  Cu  Cu85  1  0.35462499  0.40366116  0.29318760  1
  Cu  Cu86  1  0.38952644  0.09633884  0.95096383  1
  Cu  Cu87  1  0.11047356  0.56143740  0.20681240  1
  Cu  Cu88  1  0.93856260  0.54903617  0.14537501  1
  Cu  Cu89  1  0.40366116  0.29318760  0.35462499  1
  Cu  Cu90  1  0.09633884  0.95096383  0.38952644  1
  Cu  Cu91  1  0.56143740  0.20681240  0.11047356  1
  Cu  Cu92  1  0.45096383  0.85462499  0.06143740  1
  Cu  Cu93  1  0.70681240  0.64537501  0.59633884  1
  Cu  Cu94  1  0.04903617  0.61047356  0.90366116  1
  Cu  Cu95  1  0.79318760  0.88952644  0.43856260  1
  Cu  Cu96  1  0.85462499  0.06143740  0.45096383  1
  Cu  Cu97  1  0.64537501  0.59633884  0.70681240  1
  Cu  Cu98  1  0.61047356  0.90366116  0.04903617  1
  Cu  Cu99  1  0.88952644  0.43856260  0.79318760  1
  Cu  Cu100  1  0.06143740  0.45096383  0.85462499  1
  Cu  Cu101  1  0.59633884  0.70681240  0.64537501  1
  Cu  Cu102  1  0.90366116  0.04903617  0.61047356  1
  Cu  Cu103  1  0.43856260  0.79318760  0.88952644  1
  Cu  Cu104  1  0.69605355  0.17635096  0.01450097  1
  Cu  Cu105  1  0.33815001  0.32364904  0.51970259  1
  Cu  Cu106  1  0.80394645  0.31844743  0.98029741  1
  Cu  Cu107  1  0.16184999  0.18155257  0.48549903  1
  Cu  Cu108  1  0.17635096  0.01450097  0.69605355  1
  Cu  Cu109  1  0.32364904  0.51970259  0.33815001  1
  Cu  Cu110  1  0.31844743  0.98029741  0.80394645  1
  Cu  Cu111  1  0.18155257  0.48549903  0.16184999  1
  Cu  Cu112  1  0.01450097  0.69605355  0.17635096  1
  Cu  Cu113  1  0.51970259  0.33815001  0.32364904  1
  Cu  Cu114  1  0.98029741  0.80394645  0.31844743  1
  Cu  Cu115  1  0.48549903  0.16184999  0.18155257  1
  Cu  Cu116  1  0.30394645  0.82364904  0.98549903  1
  Cu  Cu117  1  0.66184999  0.67635096  0.48029741  1
  Cu  Cu118  1  0.19605355  0.68155257  0.01970259  1
  Cu  Cu119  1  0.83815001  0.81844743  0.51450097  1
  Cu  Cu120  1  0.82364904  0.98549903  0.30394645  1
  Cu  Cu121  1  0.67635096  0.48029741  0.66184999  1
  Cu  Cu122  1  0.68155257  0.01970259  0.19605355  1
  Cu  Cu123  1  0.81844743  0.51450097  0.83815001  1
  Cu  Cu124  1  0.98549903  0.30394645  0.82364904  1
  Cu  Cu125  1  0.48029741  0.66184999  0.67635096  1
  Cu  Cu126  1  0.01970259  0.19605355  0.68155257  1
  Cu  Cu127  1  0.51450097  0.83815001  0.81844743  1
  Cu  Cu128  1  0.60985228  0.11492233  0.85333100  1
  Cu  Cu129  1  0.23840866  0.38507767  0.49492995  1
  Cu  Cu130  1  0.89014772  0.24347872  0.00507005  1
  Cu  Cu131  1  0.26159134  0.25652128  0.64666900  1
  Cu  Cu132  1  0.11492233  0.85333100  0.60985228  1
  Cu  Cu133  1  0.38507767  0.49492995  0.23840866  1
  Cu  Cu134  1  0.24347872  0.00507005  0.89014772  1
  Cu  Cu135  1  0.25652128  0.64666900  0.26159134  1
  Cu  Cu136  1  0.85333100  0.60985228  0.11492233  1
  Cu  Cu137  1  0.49492995  0.23840866  0.38507767  1
  Cu  Cu138  1  0.00507005  0.89014772  0.24347872  1
  Cu  Cu139  1  0.64666900  0.26159134  0.25652128  1
  Cu  Cu140  1  0.39014772  0.88507767  0.14666900  1
  Cu  Cu141  1  0.76159134  0.61492233  0.50507005  1
  Cu  Cu142  1  0.10985228  0.75652128  0.99492995  1
  Cu  Cu143  1  0.73840866  0.74347872  0.35333100  1
  Cu  Cu144  1  0.88507767  0.14666900  0.39014772  1
  Cu  Cu145  1  0.61492233  0.50507005  0.76159134  1
  Cu  Cu146  1  0.75652128  0.99492995  0.10985228  1
  Cu  Cu147  1  0.74347872  0.35333100  0.73840866  1
  Cu  Cu148  1  0.14666900  0.39014772  0.88507767  1
  Cu  Cu149  1  0.50507005  0.76159134  0.61492233  1
  Cu  Cu150  1  0.99492995  0.10985228  0.75652128  1
  Cu  Cu151  1  0.35333100  0.73840866  0.74347872  1
  Cu  Cu152  1  0.58493164  0.02830613  0.91820360  1
  Cu  Cu153  1  0.38989747  0.47169387  0.55662551  1
  Cu  Cu154  1  0.91506836  0.33327196  0.94337449  1
  Cu  Cu155  1  0.11010253  0.16672804  0.58179640  1
  Cu  Cu156  1  0.02830613  0.91820360  0.58493164  1
  Cu  Cu157  1  0.47169387  0.55662551  0.38989747  1
  Cu  Cu158  1  0.33327196  0.94337449  0.91506836  1
  Cu  Cu159  1  0.16672804  0.58179640  0.11010253  1
  Cu  Cu160  1  0.91820360  0.58493164  0.02830613  1
  Cu  Cu161  1  0.55662551  0.38989747  0.47169387  1
  Cu  Cu162  1  0.94337449  0.91506836  0.33327196  1
  Cu  Cu163  1  0.58179640  0.11010253  0.16672804  1
  Cu  Cu164  1  0.41506836  0.97169387  0.08179640  1
  Cu  Cu165  1  0.61010253  0.52830613  0.44337449  1
  Cu  Cu166  1  0.08493164  0.66672804  0.05662551  1
  Cu  Cu167  1  0.88989747  0.83327196  0.41820360  1
  Cu  Cu168  1  0.97169387  0.08179640  0.41506836  1
  Cu  Cu169  1  0.52830613  0.44337449  0.61010253  1
  Cu  Cu170  1  0.66672804  0.05662551  0.08493164  1
  Cu  Cu171  1  0.83327196  0.41820360  0.88989747  1
  Cu  Cu172  1  0.08179640  0.41506836  0.97169387  1
  Cu  Cu173  1  0.44337449  0.61010253  0.52830613  1
  Cu  Cu174  1  0.05662551  0.08493164  0.66672804  1
  Cu  Cu175  1  0.41820360  0.88989747  0.83327196  1
  Cu  Cu176  1  0.33717487  0.96873438  0.30443868  1
  Cu  Cu177  1  0.83570430  0.53126562  0.36844049  1
  Cu  Cu178  1  0.16282513  0.96726381  0.13155951  1
  Cu  Cu179  1  0.66429570  0.53273619  0.19556132  1
  Cu  Cu180  1  0.96873438  0.30443868  0.33717487  1
  Cu  Cu181  1  0.53126562  0.36844049  0.83570430  1
  Cu  Cu182  1  0.96726381  0.13155951  0.16282513  1
  Cu  Cu183  1  0.53273619  0.19556132  0.66429570  1
  Cu  Cu184  1  0.30443868  0.33717487  0.96873438  1
  Cu  Cu185  1  0.36844049  0.83570430  0.53126562  1
  Cu  Cu186  1  0.13155951  0.16282513  0.96726381  1
  Cu  Cu187  1  0.19556132  0.66429570  0.53273619  1
  Cu  Cu188  1  0.66282513  0.03126562  0.69556132  1
  Cu  Cu189  1  0.16429570  0.46873438  0.63155951  1
  Cu  Cu190  1  0.83717487  0.03273619  0.86844049  1
  Cu  Cu191  1  0.33570430  0.46726381  0.80443868  1
  Cu  Cu192  1  0.03126562  0.69556132  0.66282513  1
  Cu  Cu193  1  0.46873438  0.63155951  0.16429570  1
  Cu  Cu194  1  0.03273619  0.86844049  0.83717487  1
  Cu  Cu195  1  0.46726381  0.80443868  0.33570430  1
  Cu  Cu196  1  0.69556132  0.66282513  0.03126562  1
  Cu  Cu197  1  0.63155951  0.16429570  0.46873438  1
  Cu  Cu198  1  0.86844049  0.83717487  0.03273619  1
  Cu  Cu199  1  0.80443868  0.33570430  0.46726381  1
  Cu  Cu200  1  0.24226740  0.80839968  0.22464051  1
  Cu  Cu201  1  0.91624082  0.69160032  0.43386772  1
  Cu  Cu202  1  0.25773260  0.98237311  0.06613228  1
  Cu  Cu203  1  0.58375918  0.51762689  0.27535949  1
  Cu  Cu204  1  0.80839968  0.22464051  0.24226740  1
  Cu  Cu205  1  0.69160032  0.43386772  0.91624082  1
  Cu  Cu206  1  0.98237311  0.06613228  0.25773260  1
  Cu  Cu207  1  0.51762689  0.27535949  0.58375918  1
  Cu  Cu208  1  0.22464051  0.24226740  0.80839968  1
  Cu  Cu209  1  0.43386772  0.91624082  0.69160032  1
  Cu  Cu210  1  0.06613228  0.25773260  0.98237311  1
  Cu  Cu211  1  0.27535949  0.58375918  0.51762689  1
  Cu  Cu212  1  0.75773260  0.19160032  0.77535949  1
  Cu  Cu213  1  0.08375918  0.30839968  0.56613228  1
  Cu  Cu214  1  0.74226740  0.01762689  0.93386772  1
  Cu  Cu215  1  0.41624082  0.48237311  0.72464051  1
  Cu  Cu216  1  0.19160032  0.77535949  0.75773260  1
  Cu  Cu217  1  0.30839968  0.56613228  0.08375918  1
  Cu  Cu218  1  0.01762689  0.93386772  0.74226740  1
  Cu  Cu219  1  0.48237311  0.72464051  0.41624082  1
  Cu  Cu220  1  0.77535949  0.75773260  0.19160032  1
  Cu  Cu221  1  0.56613228  0.08375918  0.30839968  1
  Cu  Cu222  1  0.93386772  0.74226740  0.01762689  1
  Cu  Cu223  1  0.72464051  0.41624082  0.48237311  1
  Cu  Cu224  1  0.18942564  0.90299674  0.27908947  1
  Cu  Cu225  1  0.87609273  0.59700326  0.28642890  1
  Cu  Cu226  1  0.31057436  0.08966383  0.21357110  1
  Cu  Cu227  1  0.62390727  0.41033617  0.22091053  1
  Cu  Cu228  1  0.90299674  0.27908947  0.18942564  1
  Cu  Cu229  1  0.59700326  0.28642890  0.87609273  1
  Cu  Cu230  1  0.08966383  0.21357110  0.31057436  1
  Cu  Cu231  1  0.41033617  0.22091053  0.62390727  1
  Cu  Cu232  1  0.27908947  0.18942564  0.90299674  1
  Cu  Cu233  1  0.28642890  0.87609273  0.59700326  1
  Cu  Cu234  1  0.21357110  0.31057436  0.08966383  1
  Cu  Cu235  1  0.22091053  0.62390727  0.41033617  1
  Cu  Cu236  1  0.81057436  0.09700326  0.72091053  1
  Cu  Cu237  1  0.12390727  0.40299674  0.71357110  1
  Cu  Cu238  1  0.68942564  0.91033617  0.78642890  1
  Cu  Cu239  1  0.37609273  0.58966383  0.77908947  1
  Cu  Cu240  1  0.09700326  0.72091053  0.81057436  1
  Cu  Cu241  1  0.40299674  0.71357110  0.12390727  1
  Cu  Cu242  1  0.91033617  0.78642890  0.68942564  1
  Cu  Cu243  1  0.58966383  0.77908947  0.37609273  1
  Cu  Cu244  1  0.72091053  0.81057436  0.09700326  1
  Cu  Cu245  1  0.71357110  0.12390727  0.40299674  1
  Cu  Cu246  1  0.78642890  0.68942564  0.91033617  1
  Cu  Cu247  1  0.77908947  0.37609273  0.58966383  1
  Cu  Cu248  1  0.30043980  0.88913865  0.37331235  1
  Cu  Cu249  1  0.98417369  0.61086135  0.41130115  1
  Cu  Cu250  1  0.19956020  0.07287255  0.08869885  1
  Cu  Cu251  1  0.51582631  0.42712745  0.12668765  1
  Cu  Cu252  1  0.88913865  0.37331235  0.30043980  1
  Cu  Cu253  1  0.61086135  0.41130115  0.98417369  1
  Cu  Cu254  1  0.07287255  0.08869885  0.19956020  1
  Cu  Cu255  1  0.42712745  0.12668765  0.51582631  1
  Cu  Cu256  1  0.37331235  0.30043980  0.88913865  1
  Cu  Cu257  1  0.41130115  0.98417369  0.61086135  1
  Cu  Cu258  1  0.08869885  0.19956020  0.07287255  1
  Cu  Cu259  1  0.12668765  0.51582631  0.42712745  1
  Cu  Cu260  1  0.69956020  0.11086135  0.62668765  1
  Cu  Cu261  1  0.01582631  0.38913865  0.58869885  1
  Cu  Cu262  1  0.80043980  0.92712745  0.91130115  1
  Cu  Cu263  1  0.48417369  0.57287255  0.87331235  1
  Cu  Cu264  1  0.11086135  0.62668765  0.69956020  1
  Cu  Cu265  1  0.38913865  0.58869885  0.01582631  1
  Cu  Cu266  1  0.92712745  0.91130115  0.80043980  1
  Cu  Cu267  1  0.57287255  0.87331235  0.48417369  1
  Cu  Cu268  1  0.62668765  0.69956020  0.11086135  1
  Cu  Cu269  1  0.58869885  0.01582631  0.38913865  1
  Cu  Cu270  1  0.91130115  0.80043980  0.92712745  1
  Cu  Cu271  1  0.87331235  0.48417369  0.57287255  1
