# generated using pymatgen
data_CuNiC6
_symmetry_space_group_name_H-M   'P 1'
_cell_length_a   5.72409300
_cell_length_b   8.09251600
_cell_length_c   8.20726300
_cell_angle_alpha   90.00000000
_cell_angle_beta   90.00000000
_cell_angle_gamma   90.00000000
_symmetry_Int_Tables_number   1
_chemical_formula_structural   CuNiC6
_chemical_formula_sum   'Cu4 Ni4 C24'
_cell_volume   380.17941531
_cell_formula_units_Z   4
loop_
 _symmetry_equiv_pos_site_id
 _symmetry_equiv_pos_as_xyz
  1  'x, y, z'
loop_
 _atom_site_type_symbol
 _atom_site_label
 _atom_site_symmetry_multiplicity
 _atom_site_fract_x
 _atom_site_fract_y
 _atom_site_fract_z
 _atom_site_occupancy
  Ni  Ni0  1  0.25499300  0.00000000  0.00000000  1
  Ni  Ni1  1  0.74500700  0.00000000  0.00000000  1
  Ni  Ni2  1  0.24500700  0.50000000  0.50000000  1
  Ni  Ni3  1  0.75499300  0.50000000  0.50000000  1
  Cu  Cu4  1  0.00000000  0.62421600  0.13736600  1
  Cu  Cu5  1  0.00000000  0.37578400  0.86263400  1
  Cu  Cu6  1  0.50000000  0.87578400  0.63736600  1
  Cu  Cu7  1  0.50000000  0.12421600  0.36263400  1
  C  C8  1  0.00000000  0.25073000  0.24476400  1
  C  C9  1  0.00000000  0.74927000  0.75523600  1
  C  C10  1  0.50000000  0.24927000  0.74476400  1
  C  C11  1  0.50000000  0.75073000  0.25523600  1
  C  C12  1  0.00000000  0.39606300  0.10076200  1
  C  C13  1  0.00000000  0.60393700  0.89923800  1
  C  C14  1  0.50000000  0.10393700  0.60076200  1
  C  C15  1  0.50000000  0.89606300  0.39923800  1
  C  C16  1  0.00000000  0.57499700  0.36138000  1
  C  C17  1  0.00000000  0.42500300  0.63862000  1
  C  C18  1  0.50000000  0.92500300  0.86138000  1
  C  C19  1  0.50000000  0.07499700  0.13862000  1
  C  C20  1  0.23857900  0.25176900  0.35482900  1
  C  C21  1  0.76142100  0.74823100  0.64517100  1
  C  C22  1  0.23857900  0.74823100  0.64517100  1
  C  C23  1  0.26142100  0.24823100  0.85482900  1
  C  C24  1  0.76142100  0.25176900  0.35482900  1
  C  C25  1  0.73857900  0.75176900  0.14517100  1
  C  C26  1  0.26142100  0.75176900  0.14517100  1
  C  C27  1  0.73857900  0.24823100  0.85482900  1
  C  C28  1  0.00000000  0.07530100  0.13893400  1
  C  C29  1  0.00000000  0.92469900  0.86106600  1
  C  C30  1  0.50000000  0.42469900  0.63893400  1
  C  C31  1  0.50000000  0.57530100  0.36106600  1
