# generated using pymatgen
data_CuNi3C8
_symmetry_space_group_name_H-M   'P 1'
_cell_length_a   11.67068517
_cell_length_b   8.82043488
_cell_length_c   8.63686666
_cell_angle_alpha   83.89997907
_cell_angle_beta   48.72027796
_cell_angle_gamma   47.37974297
_symmetry_Int_Tables_number   1
_chemical_formula_structural   CuNi3C8
_chemical_formula_sum   'Cu4 Ni12 C32'
_cell_volume   387.42669705
_cell_formula_units_Z   4
loop_
 _symmetry_equiv_pos_site_id
 _symmetry_equiv_pos_as_xyz
  1  'x, y, z'
loop_
 _atom_site_type_symbol
 _atom_site_label
 _atom_site_symmetry_multiplicity
 _atom_site_fract_x
 _atom_site_fract_y
 _atom_site_fract_z
 _atom_site_occupancy
  C  C0  1  0.98916200  0.51083800  0.51083800  1
  C  C1  1  0.73916200  0.26083800  0.26083800  1
  C  C2  1  0.45994000  0.38191400  0.86186600  1
  C  C3  1  0.29628000  0.86186600  0.38191400  1
  C  C4  1  0.38813400  0.95372000  0.79006000  1
  C  C5  1  0.86808600  0.79006000  0.95372000  1
  Ni  Ni6  1  0.99515300  0.84061400  0.54018400  1
  Ni  Ni7  1  0.62405000  0.54018400  0.84061400  1
  Ni  Ni8  1  0.70981600  0.62595000  0.25484700  1
  Ni  Ni9  1  0.40938600  0.25484700  0.62595000  1
  Ni  Ni10  1  0.87897400  0.87503000  0.36580100  1
  Ni  Ni11  1  0.88019500  0.36580100  0.87503000  1
  Ni  Ni12  1  0.88419900  0.36980500  0.37102600  1
  Ni  Ni13  1  0.37497000  0.37102600  0.36980500  1
  Ni  Ni14  1  0.34576900  0.11360700  0.48728500  1
  Ni  Ni15  1  0.05333900  0.48728500  0.11360700  1
  Ni  Ni16  1  0.76271500  0.19666100  0.90423100  1
  Ni  Ni17  1  0.13639300  0.90423100  0.19666100  1
  Cu  Cu18  1  0.33172900  0.75457500  0.71309900  1
  Cu  Cu19  1  0.20059700  0.71309900  0.75457500  1
  Cu  Cu20  1  0.53690100  0.04940300  0.91827100  1
  Cu  Cu21  1  0.49542500  0.91827100  0.04940300  1
  C  C22  1  0.16808700  0.56277800  0.41581400  1
  C  C23  1  0.85332200  0.41581400  0.56277800  1
  C  C24  1  0.83418600  0.39667800  0.08191300  1
  C  C25  1  0.68722200  0.08191300  0.39667800  1
  C  C26  1  0.13593700  0.86634300  0.36837800  1
  C  C27  1  0.62934200  0.36837800  0.86634300  1
  C  C28  1  0.88162200  0.62065800  0.11406300  1
  C  C29  1  0.38365700  0.11406300  0.62065800  1
  C  C30  1  0.88093800  0.95371000  0.78395000  1
  C  C31  1  0.38140200  0.78395000  0.95371000  1
  C  C32  1  0.46605000  0.86859800  0.36906200  1
  C  C33  1  0.29629000  0.36906200  0.86859800  1
  C  C34  1  0.78388400  0.98979300  0.59625500  1
  C  C35  1  0.63006700  0.59625500  0.98979300  1
  C  C36  1  0.65374500  0.61993300  0.46611600  1
  C  C37  1  0.26020700  0.46611600  0.61993300  1
  C  C38  1  0.36120100  0.63879900  0.63879900  1
  C  C39  1  0.61120100  0.88879900  0.88879900  1
  C  C40  1  0.06674500  0.33677900  0.66535900  1
  C  C41  1  0.93111600  0.66535900  0.33677900  1
  C  C42  1  0.58464100  0.31888400  0.18325500  1
  C  C43  1  0.91322100  0.18325500  0.31888400  1
  C  C44  1  0.48054700  0.12803500  0.27713300  1
  C  C45  1  0.11428500  0.27713300  0.12803500  1
  C  C46  1  0.97286700  0.13571500  0.76945300  1
  C  C47  1  0.12196500  0.76945300  0.13571500  1
