# generated using pymatgen
data_Cu4Ni2C11
_symmetry_space_group_name_H-M   'P 1'
_cell_length_a   7.40025000
_cell_length_b   11.69895300
_cell_length_c   17.73991900
_cell_angle_alpha   90.00000000
_cell_angle_beta   90.00000000
_cell_angle_gamma   90.00000000
_symmetry_Int_Tables_number   1
_chemical_formula_structural   Cu4Ni2C11
_chemical_formula_sum   'Cu32 Ni16 C88'
_cell_volume   1535.83662630
_cell_formula_units_Z   8
loop_
 _symmetry_equiv_pos_site_id
 _symmetry_equiv_pos_as_xyz
  1  'x, y, z'
loop_
 _atom_site_type_symbol
 _atom_site_label
 _atom_site_symmetry_multiplicity
 _atom_site_fract_x
 _atom_site_fract_y
 _atom_site_fract_z
 _atom_site_occupancy
  C  C0  1  0.74993400  0.16180100  0.89900300  1
  C  C1  1  0.74993400  0.33819900  0.39900300  1
  C  C2  1  0.24993400  0.83819900  0.10099700  1
  C  C3  1  0.24993400  0.66180100  0.60099700  1
  C  C4  1  0.74991800  0.83918900  0.80983300  1
  C  C5  1  0.74991800  0.66081100  0.30983300  1
  C  C6  1  0.24991800  0.16081100  0.19016700  1
  C  C7  1  0.24991800  0.33918900  0.69016700  1
  C  C8  1  0.97504700  0.50106300  0.99889800  1
  C  C9  1  0.47504700  0.49893700  0.00110200  1
  C  C10  1  0.47504700  0.00106300  0.50110200  1
  C  C11  1  0.97504700  0.99893700  0.49889800  1
  Ni  Ni12  1  0.45130300  0.88861700  0.67166200  1
  Ni  Ni13  1  0.04804000  0.61149400  0.17149300  1
  Ni  Ni14  1  0.95130300  0.11138300  0.32833800  1
  Ni  Ni15  1  0.54804000  0.38850600  0.82850700  1
  Ni  Ni16  1  0.54804000  0.11149400  0.32850700  1
  Ni  Ni17  1  0.95130300  0.38861700  0.82833800  1
  Ni  Ni18  1  0.04804000  0.88850600  0.67149300  1
  Ni  Ni19  1  0.45130300  0.61138300  0.17166200  1
  Ni  Ni20  1  0.95102200  0.78977300  0.97156400  1
  Ni  Ni21  1  0.54790200  0.71066500  0.47153900  1
  Ni  Ni22  1  0.45102200  0.21022700  0.02843600  1
  Ni  Ni23  1  0.04790200  0.28933500  0.52846100  1
  Ni  Ni24  1  0.04790200  0.21066500  0.02846100  1
  Ni  Ni25  1  0.45102200  0.28977300  0.52843600  1
  Ni  Ni26  1  0.54790200  0.78933500  0.97153900  1
  Ni  Ni27  1  0.95102200  0.71022700  0.47156400  1
  Cu  Cu28  1  0.13728000  0.64771600  0.86126600  1
  Cu  Cu29  1  0.36289600  0.85211100  0.36118200  1
  Cu  Cu30  1  0.63728000  0.35228400  0.13873400  1
  Cu  Cu31  1  0.86289600  0.14788900  0.63881800  1
  Cu  Cu32  1  0.86289600  0.35211100  0.13881800  1
  Cu  Cu33  1  0.63728000  0.14771600  0.63873400  1
  Cu  Cu34  1  0.36289600  0.64788900  0.86118200  1
  Cu  Cu35  1  0.13728000  0.85228400  0.36126600  1
  Cu  Cu36  1  0.24992900  0.00177400  0.80365600  1
  Cu  Cu37  1  0.24992900  0.49822600  0.30365600  1
  Cu  Cu38  1  0.74993000  0.99822600  0.19634400  1
  Cu  Cu39  1  0.74993000  0.50177400  0.69634400  1
  Cu  Cu40  1  0.25005900  0.56558200  0.79946000  1
  Cu  Cu41  1  0.25005900  0.93441800  0.29946000  1
  Cu  Cu42  1  0.75005900  0.43441800  0.20054000  1
  Cu  Cu43  1  0.75005900  0.06558200  0.70054000  1
  Cu  Cu44  1  0.25000700  0.11753300  0.85909100  1
  Cu  Cu45  1  0.25000700  0.38246700  0.35909100  1
  Cu  Cu46  1  0.75000700  0.88246700  0.14090900  1
  Cu  Cu47  1  0.75000700  0.61753300  0.64090900  1
  Cu  Cu48  1  0.13589400  0.99934100  0.88594300  1
  Cu  Cu49  1  0.36407100  0.50070100  0.38592800  1
  Cu  Cu50  1  0.63589400  0.00065900  0.11405700  1
  Cu  Cu51  1  0.86407100  0.49929900  0.61407200  1
  Cu  Cu52  1  0.86407100  0.00070100  0.11407200  1
  Cu  Cu53  1  0.63589400  0.49934100  0.61405700  1
  Cu  Cu54  1  0.36407100  0.99929900  0.88592800  1
  Cu  Cu55  1  0.13589400  0.50065900  0.38594300  1
  Cu  Cu56  1  0.24992900  0.70744000  0.78750300  1
  Cu  Cu57  1  0.24992900  0.79256000  0.28750300  1
  Cu  Cu58  1  0.74992900  0.29256000  0.21249700  1
  Cu  Cu59  1  0.74992900  0.20744000  0.71249700  1
  C  C60  1  0.25001700  0.64339000  0.82676400  1
  C  C61  1  0.25001700  0.85661000  0.32676400  1
  C  C62  1  0.75001700  0.35661000  0.17323600  1
  C  C63  1  0.75001700  0.14339000  0.67323600  1
  C  C64  1  0.24998600  0.02959400  0.85895900  1
  C  C65  1  0.24998600  0.47040600  0.35895900  1
  C  C66  1  0.74998600  0.97040600  0.14104100  1
  C  C67  1  0.74998600  0.52959400  0.64104100  1
  C  C68  1  0.55786500  0.83819000  0.89141100  1
  C  C69  1  0.94190000  0.66151100  0.39139800  1
  C  C70  1  0.05786500  0.16181000  0.10858900  1
  C  C71  1  0.44190000  0.33848900  0.60860200  1
  C  C72  1  0.44190000  0.16151100  0.10860200  1
  C  C73  1  0.05786500  0.33819000  0.60858900  1
  C  C74  1  0.94190000  0.83848900  0.89139800  1
  C  C75  1  0.55786500  0.66181000  0.39141100  1
  C  C76  1  0.56539900  0.26248800  0.85154100  1
  C  C77  1  0.93437000  0.23738100  0.35145800  1
  C  C78  1  0.06539900  0.73751200  0.14845900  1
  C  C79  1  0.43437000  0.76261900  0.64854200  1
  C  C80  1  0.43437000  0.73738100  0.14854200  1
  C  C81  1  0.06539900  0.76248800  0.64845900  1
  C  C82  1  0.93437000  0.26261900  0.85145800  1
  C  C83  1  0.56539900  0.23751200  0.35154100  1
  C  C84  1  0.02463600  0.46557000  0.89015300  1
  C  C85  1  0.47500500  0.03458500  0.39012300  1
  C  C86  1  0.52463600  0.53443000  0.10984700  1
  C  C87  1  0.97500500  0.96541500  0.60987700  1
  C  C88  1  0.97500500  0.53458500  0.10987700  1
  C  C89  1  0.52463600  0.96557000  0.60984700  1
  C  C90  1  0.47500500  0.46541500  0.89012300  1
  C  C91  1  0.02463600  0.03443000  0.39015300  1
  C  C92  1  0.74999400  0.70775200  0.77889400  1
  C  C93  1  0.74999400  0.79224800  0.27889400  1
  C  C94  1  0.24999400  0.29224800  0.22110600  1
  C  C95  1  0.24999400  0.20775200  0.72110600  1
  C  C96  1  0.74957500  0.79272100  0.00843800  1
  C  C97  1  0.74957500  0.70727900  0.50843800  1
  C  C98  1  0.24957500  0.20727900  0.99156200  1
  C  C99  1  0.24957500  0.29272100  0.49156200  1
  C  C100  1  0.74782900  0.50722900  0.98961900  1
  C  C101  1  0.74782900  0.99277100  0.48961900  1
  C  C102  1  0.24782900  0.49277100  0.01038100  1
  C  C103  1  0.24782900  0.00722900  0.51038100  1
  C  C104  1  0.02099500  0.66714800  0.97136200  1
  C  C105  1  0.47779600  0.83289100  0.47101800  1
  C  C106  1  0.52099500  0.33285200  0.02863800  1
  C  C107  1  0.97779600  0.16710900  0.52898200  1
  C  C108  1  0.97779600  0.33289100  0.02898200  1
  C  C109  1  0.52099500  0.16714800  0.52863800  1
  C  C110  1  0.47779600  0.66710900  0.97101800  1
  C  C111  1  0.02099500  0.83285200  0.47136200  1
  C  C112  1  0.55492500  0.90712900  0.74451100  1
  C  C113  1  0.94502700  0.59306700  0.24455400  1
  C  C114  1  0.05492500  0.09287100  0.25548900  1
  C  C115  1  0.44502700  0.40693300  0.75544600  1
  C  C116  1  0.44502700  0.09306700  0.25544600  1
  C  C117  1  0.05492500  0.40712900  0.75548900  1
  C  C118  1  0.94502700  0.90693300  0.74455400  1
  C  C119  1  0.55492500  0.59287100  0.24451100  1
  C  C120  1  0.56461800  0.13133100  0.97841800  1
  C  C121  1  0.93520600  0.36863100  0.47828200  1
  C  C122  1  0.06461800  0.86866900  0.02158200  1
  C  C123  1  0.43520600  0.63136900  0.52171800  1
  C  C124  1  0.43520600  0.86863100  0.02171800  1
  C  C125  1  0.06461800  0.63133100  0.52158200  1
  C  C126  1  0.93520600  0.13136900  0.97828200  1
  C  C127  1  0.56461800  0.36866900  0.47841800  1
  C  C128  1  0.74996800  0.04732800  0.84540900  1
  C  C129  1  0.74996800  0.45267200  0.34540900  1
  C  C130  1  0.24996800  0.95267200  0.15459100  1
  C  C131  1  0.24996800  0.54732800  0.65459100  1
  C  C132  1  0.24965600  0.93366600  0.69406800  1
  C  C133  1  0.24965600  0.56633400  0.19406800  1
  C  C134  1  0.74965600  0.06633400  0.30593200  1
  C  C135  1  0.74965600  0.43366600  0.80593200  1
