# generated using pymatgen
data_CuNi2C7
_symmetry_space_group_name_H-M   'P 1'
_cell_length_a   5.49181500
_cell_length_b   5.53318873
_cell_length_c   5.67021597
_cell_angle_alpha   88.75122417
_cell_angle_beta   105.11273940
_cell_angle_gamma   113.13378460
_symmetry_Int_Tables_number   1
_chemical_formula_structural   CuNi2C7
_chemical_formula_sum   'Cu1 Ni2 C7'
_cell_volume   152.33517750
_cell_formula_units_Z   1
loop_
 _symmetry_equiv_pos_site_id
 _symmetry_equiv_pos_as_xyz
  1  'x, y, z'
loop_
 _atom_site_type_symbol
 _atom_site_label
 _atom_site_symmetry_multiplicity
 _atom_site_fract_x
 _atom_site_fract_y
 _atom_site_fract_z
 _atom_site_occupancy
  Ni  Ni0  1  0.62186900  0.37423600  0.87866200  1
  Ni  Ni1  1  0.68650500  0.85193600  0.46195500  1
  Cu  Cu2  1  0.02439400  0.48845900  0.49003800  1
  C  C3  1  0.02168500  0.01503200  0.99346600  1
  C  C4  1  0.95687100  0.66333300  0.11891800  1
  C  C5  1  0.78873400  0.16522200  0.74832700  1
  C  C6  1  0.36955200  0.26930400  0.09753300  1
  C  C7  1  0.81641100  0.07138600  0.21832700  1
  C  C8  1  0.04803400  0.85776100  0.68936400  1
  C  C9  1  0.45686000  0.56053900  0.60734100  1
